PDB_DB01127_03
     RDKit          3D

110114  0  0  0  0  0  0  0  0999 V2000
    2.3318    0.3098   -0.3740 C   0  0  0  0  0  0  0  0  0  0  0  0
    2.5993   -1.0552   -0.9092 C   0  0  0  0  0  0  0  0  0  0  0  0
   -3.3116   -1.3341    1.9204 Cl  0  0  0  0  0  0  0  0  0  0  0  0
   -3.0281    3.6393    0.1317 C   0  0  0  0  0  0  0  0  0  0  0  0
   -2.0733    2.4651   -0.0461 C   0  0  0  0  0  0  0  0  0  0  0  0
    4.0332    1.0576   -1.9549 C   0  0  0  0  0  0  0  0  0  0  0  0
    3.5390    1.2335   -0.5320 C   0  0  0  0  0  0  0  0  0  0  0  0
    4.5720   -0.3390   -2.1760 C   0  0  0  0  0  0  0  0  0  0  0  0
    6.3628   -0.3026   -2.0367 Cl  0  0  0  0  0  0  0  0  0  0  0  0
   -1.7814   -1.8792    1.1963 C   0  0  0  0  0  0  0  0  0  0  0  0
   -1.9865   -3.2730    0.5864 C   0  0  0  0  0  0  0  0  0  0  0  0
   -2.7034   -3.1476   -0.7148 C   0  0  0  0  0  0  0  0  0  0  0  0
   -1.7701   -2.5208   -1.7308 C   0  0  0  0  0  0  0  0  0  0  0  0
   -4.1895   -2.2261   -0.5146 Cl  0  0  0  0  0  0  0  0  0  0  0  0
   -3.2780    3.5899    1.5470 N   0  0  0  0  0  0  0  0  0  0  0  0
   -1.2791    1.0212    1.6592 C   0  0  0  0  0  0  0  0  0  0  0  0
   -0.4561    0.1897    0.6114 C   0  0  1  0  0  0  0  0  0  0  0  0
    0.6703   -0.2686    1.2115 O   0  0  0  0  0  0  0  0  0  0  0  0
   -1.3164   -0.9107    0.1124 C   0  0  0  0  0  0  0  0  0  0  0  0
   -2.4588    1.4858    0.9649 N   0  0  0  0  0  0  0  0  0  0  0  0
   -3.2751    2.2040    1.9185 C   0  0  0  0  0  0  0  0  0  0  0  0
    1.8450    0.3483    1.0354 C   0  0  0  0  0  0  0  0  0  0  0  0
    4.0810   -1.3023   -1.1362 C   0  0  0  0  0  0  0  0  0  0  0  0
   -0.7285   -1.6504   -1.0307 C   0  0  0  0  0  0  0  0  0  0  0  0
    2.3318    0.3098   -0.3740 C   0  0  0  0  0  0  0  0  0  0  0  0
    2.5993   -1.0552   -0.9092 C   0  0  0  0  0  0  0  0  0  0  0  0
   -3.3116   -1.3341    1.9204 Cl  0  0  0  0  0  0  0  0  0  0  0  0
   -3.0281    3.6393    0.1317 C   0  0  0  0  0  0  0  0  0  0  0  0
   -2.0733    2.4651   -0.0461 C   0  0  0  0  0  0  0  0  0  0  0  0
    4.0332    1.0576   -1.9549 C   0  0  0  0  0  0  0  0  0  0  0  0
    3.5390    1.2335   -0.5320 C   0  0  0  0  0  0  0  0  0  0  0  0
    4.5720   -0.3390   -2.1760 C   0  0  0  0  0  0  0  0  0  0  0  0
    6.3628   -0.3026   -2.0367 Cl  0  0  0  0  0  0  0  0  0  0  0  0
   -1.7814   -1.8792    1.1963 C   0  0  0  0  0  0  0  0  0  0  0  0
   -1.9865   -3.2730    0.5864 C   0  0  0  0  0  0  0  0  0  0  0  0
   -2.7034   -3.1476   -0.7148 C   0  0  0  0  0  0  0  0  0  0  0  0
   -1.7701   -2.5208   -1.7308 C   0  0  0  0  0  0  0  0  0  0  0  0
   -4.1895   -2.2261   -0.5146 Cl  0  0  0  0  0  0  0  0  0  0  0  0
   -3.2780    3.5899    1.5470 N   0  0  0  0  0  0  0  0  0  0  0  0
   -1.2791    1.0212    1.6592 C   0  0  0  0  0  0  0  0  0  0  0  0
   -0.4561    0.1897    0.6114 C   0  0  1  0  0  0  0  0  0  0  0  0
    0.6703   -0.2686    1.2115 O   0  0  0  0  0  0  0  0  0  0  0  0
   -1.3164   -0.9107    0.1124 C   0  0  0  0  0  0  0  0  0  0  0  0
   -2.4588    1.4858    0.9649 N   0  0  0  0  0  0  0  0  0  0  0  0
   -3.2751    2.2040    1.9185 C   0  0  0  0  0  0  0  0  0  0  0  0
    1.8450    0.3483    1.0354 C   0  0  0  0  0  0  0  0  0  0  0  0
    4.0810   -1.3023   -1.1362 C   0  0  0  0  0  0  0  0  0  0  0  0
   -0.7285   -1.6504   -1.0307 C   0  0  0  0  0  0  0  0  0  0  0  0
    1.5721    0.7623   -1.0882 H   0  0  0  0  0  0  0  0  0  0  0  0
    2.0321   -1.3238   -1.8175 H   0  0  0  0  0  0  0  0  0  0  0  0
    2.3140   -1.7798   -0.0978 H   0  0  0  0  0  0  0  0  0  0  0  0
   -2.5404    4.5969   -0.1739 H   0  0  0  0  0  0  0  0  0  0  0  0
   -3.9847    3.4693   -0.3922 H   0  0  0  0  0  0  0  0  0  0  0  0
   -1.0637    2.8608    0.1965 H   0  0  0  0  0  0  0  0  0  0  0  0
   -2.1377    2.0449   -1.0679 H   0  0  0  0  0  0  0  0  0  0  0  0
    3.2367    1.2575   -2.6686 H   0  0  0  0  0  0  0  0  0  0  0  0
    4.8540    1.7795   -2.1336 H   0  0  0  0  0  0  0  0  0  0  0  0
    3.1400    2.2653   -0.4608 H   0  0  0  0  0  0  0  0  0  0  0  0
    4.3151    1.0168    0.2067 H   0  0  0  0  0  0  0  0  0  0  0  0
    4.3400   -0.7260   -3.1869 H   0  0  0  0  0  0  0  0  0  0  0  0
   -1.0529   -2.0033    2.0022 H   0  0  0  0  0  0  0  0  0  0  0  0
   -2.6005   -3.8515    1.3042 H   0  0  0  0  0  0  0  0  0  0  0  0
   -1.0139   -3.7739    0.5144 H   0  0  0  0  0  0  0  0  0  0  0  0
   -2.9978   -4.1824   -1.0391 H   0  0  0  0  0  0  0  0  0  0  0  0
   -2.3155   -1.9547   -2.5002 H   0  0  0  0  0  0  0  0  0  0  0  0
   -1.2143   -3.3349   -2.2297 H   0  0  0  0  0  0  0  0  0  0  0  0
   -2.5324    4.1576    2.0103 H   0  0  0  0  0  0  0  0  0  0  0  0
   -1.5656    0.4179    2.5082 H   0  0  0  0  0  0  0  0  0  0  0  0
   -0.6470    1.8952    1.8586 H   0  0  0  0  0  0  0  0  0  0  0  0
   -0.1869    0.9876   -0.0981 H   0  0  0  0  0  0  0  0  0  0  0  0
   -2.2754   -0.4356   -0.2925 H   0  0  0  0  0  0  0  0  0  0  0  0
   -4.3250    1.8421    1.9446 H   0  0  0  0  0  0  0  0  0  0  0  0
   -2.8943    2.1413    2.9584 H   0  0  0  0  0  0  0  0  0  0  0  0
    1.8987    1.4005    1.4020 H   0  0  0  0  0  0  0  0  0  0  0  0
    2.6520   -0.1644    1.6546 H   0  0  0  0  0  0  0  0  0  0  0  0
    4.5971   -1.1149   -0.1719 H   0  0  0  0  0  0  0  0  0  0  0  0
    4.2066   -2.3223   -1.5074 H   0  0  0  0  0  0  0  0  0  0  0  0
   -0.3046   -0.9409   -1.7565 H   0  0  0  0  0  0  0  0  0  0  0  0
    0.0953   -2.3213   -0.6922 H   0  0  0  0  0  0  0  0  0  0  0  0
    1.5721    0.7623   -1.0882 H   0  0  0  0  0  0  0  0  0  0  0  0
    2.0321   -1.3238   -1.8175 H   0  0  0  0  0  0  0  0  0  0  0  0
    2.3140   -1.7798   -0.0978 H   0  0  0  0  0  0  0  0  0  0  0  0
   -2.5404    4.5969   -0.1739 H   0  0  0  0  0  0  0  0  0  0  0  0
   -3.9847    3.4693   -0.3922 H   0  0  0  0  0  0  0  0  0  0  0  0
   -1.0637    2.8608    0.1965 H   0  0  0  0  0  0  0  0  0  0  0  0
   -2.1377    2.0449   -1.0679 H   0  0  0  0  0  0  0  0  0  0  0  0
    3.2367    1.2575   -2.6686 H   0  0  0  0  0  0  0  0  0  0  0  0
    4.8540    1.7795   -2.1336 H   0  0  0  0  0  0  0  0  0  0  0  0
    3.1400    2.2653   -0.4608 H   0  0  0  0  0  0  0  0  0  0  0  0
    4.3151    1.0168    0.2067 H   0  0  0  0  0  0  0  0  0  0  0  0
    4.3400   -0.7260   -3.1869 H   0  0  0  0  0  0  0  0  0  0  0  0
   -1.0529   -2.0033    2.0022 H   0  0  0  0  0  0  0  0  0  0  0  0
   -2.6005   -3.8515    1.3042 H   0  0  0  0  0  0  0  0  0  0  0  0
   -1.0139   -3.7739    0.5144 H   0  0  0  0  0  0  0  0  0  0  0  0
   -2.9978   -4.1824   -1.0391 H   0  0  0  0  0  0  0  0  0  0  0  0
   -2.3155   -1.9547   -2.5002 H   0  0  0  0  0  0  0  0  0  0  0  0
   -1.2143   -3.3349   -2.2297 H   0  0  0  0  0  0  0  0  0  0  0  0
   -2.5324    4.1576    2.0103 H   0  0  0  0  0  0  0  0  0  0  0  0
   -1.5656    0.4179    2.5082 H   0  0  0  0  0  0  0  0  0  0  0  0
   -0.6470    1.8952    1.8586 H   0  0  0  0  0  0  0  0  0  0  0  0
   -0.1869    0.9876   -0.0981 H   0  0  0  0  0  0  0  0  0  0  0  0
   -2.2754   -0.4356   -0.2925 H   0  0  0  0  0  0  0  0  0  0  0  0
   -4.3250    1.8421    1.9446 H   0  0  0  0  0  0  0  0  0  0  0  0
   -2.8943    2.1413    2.9584 H   0  0  0  0  0  0  0  0  0  0  0  0
    1.8987    1.4005    1.4020 H   0  0  0  0  0  0  0  0  0  0  0  0
    2.6520   -0.1644    1.6546 H   0  0  0  0  0  0  0  0  0  0  0  0
    4.5971   -1.1149   -0.1719 H   0  0  0  0  0  0  0  0  0  0  0  0
    4.2066   -2.3223   -1.5074 H   0  0  0  0  0  0  0  0  0  0  0  0
   -0.3046   -0.9409   -1.7565 H   0  0  0  0  0  0  0  0  0  0  0  0
    0.0953   -2.3213   -0.6922 H   0  0  0  0  0  0  0  0  0  0  0  0
  1  2  1  0
  4  5  1  0
  1  7  1  0
  6  7  1  0
  6  8  1  0
  8  9  1  0
  3 10  1  0
 10 11  1  0
 11 12  1  0
 12 13  1  0
 12 14  1  0
  4 15  1  0
 16 17  1  0
 17 18  1  0
 10 19  1  0
 17 19  1  0
  5 20  1  0
 16 20  1  0
 20 21  1  0
 21 15  1  0
  1 22  1  0
 18 22  1  0
  2 23  1  0
  8 23  1  0
 13 24  1  0
 19 24  1  0
 25 26  1  0
 28 29  1  0
 25 31  1  0
 30 31  1  0
 30 32  1  0
 32 33  1  0
 27 34  1  0
 34 35  1  0
 35 36  1  0
 36 37  1  0
 36 38  1  0
 28 39  1  0
 40 41  1  0
 41 42  1  0
 34 43  1  0
 41 43  1  0
 29 44  1  0
 40 44  1  0
 44 45  1  0
 45 39  1  0
 25 46  1  0
 42 46  1  0
 26 47  1  0
 32 47  1  0
 37 48  1  0
 43 48  1  0
  1 49  1  0
  2 50  1  0
  2 51  1  0
  4 52  1  0
  4 53  1  0
  5 54  1  0
  5 55  1  0
  6 56  1  0
  6 57  1  0
  7 58  1  0
  7 59  1  0
  8 60  1  0
 10 61  1  0
 11 62  1  0
 11 63  1  0
 12 64  1  0
 13 65  1  0
 13 66  1  0
 15 67  1  0
 16 68  1  0
 16 69  1  0
 17 70  1  6
 19 71  1  0
 21 72  1  0
 21 73  1  0
 22 74  1  0
 22 75  1  0
 23 76  1  0
 23 77  1  0
 24 78  1  0
 24 79  1  0
 25 80  1  0
 26 81  1  0
 26 82  1  0
 28 83  1  0
 28 84  1  0
 29 85  1  0
 29 86  1  0
 30 87  1  0
 30 88  1  0
 31 89  1  0
 31 90  1  0
 32 91  1  0
 34 92  1  0
 35 93  1  0
 35 94  1  0
 36 95  1  0
 37 96  1  0
 37 97  1  0
 39 98  1  0
 40 99  1  0
 40100  1  0
 41101  1  6
 43102  1  0
 45103  1  0
 45104  1  0
 46105  1  0
 46106  1  0
 47107  1  0
 47108  1  0
 48109  1  0
 48110  1  0
M  END
>  <PDBID>  (1) 
3JUS

>  <PDB ID>  (1) 
3JUS

>  <Generic Name>  (1) 
Econazole

>  <Brand Name>  (1) 
Econazole Nitrate#Econazole Nitrate Cream#Econazole Nitrate Topical Foam, 1%#Ecostatin Cream 1%#Ecostatin Vaginal Ovule 150mg#Ecoza#Ecostatin#Gyno-Pevaryl#Ifenec#Palavale#Pevaryl#Spectazole

>  <DrugBank ID>  (1) 
DB01127

>  <ATC Codes>  (1) 
G01AF05#D01AC03

>  <Ligand ID>  (1) 
ECL,ECN

>  <Target Name>  (1) 
Lanosterol 14-alpha demethylase

>  <UniProt ID>  (1) 
P10613

>  <PDB ID.1>  (1) 
3JUS

>  <Seq. Identity>  (1) 
40%

$$$$
