PDB_DB01010_06
     RDKit          3D

 34 34  0  0  0  0  0  0  0  0999 V2000
    0.6436   -0.0156   -1.4011 C   0  0  0  0  0  0  0  0  0  0  0  0
   -0.0200   -0.0043   -0.0673 C   0  0  0  0  0  0  0  0  0  0  0  0
    0.9360   -0.7679    0.8596 C   0  0  0  0  0  0  0  0  0  0  0  0
    2.1318    0.1175    1.0544 C   0  0  2  0  0  0  0  0  0  0  0  0
    2.7668    0.5991   -0.1864 C   0  0  0  0  0  0  0  0  0  0  0  0
    1.9257    0.7295   -1.3819 C   0  0  0  0  0  0  0  0  0  0  0  0
    3.0626   -0.5896    1.8341 O   0  0  0  0  0  0  0  0  0  0  0  0
   -1.3449   -0.4780   -0.0203 N   0  0  0  0  0  0  0  0  0  0  0  0
   -1.3976   -1.6323    0.8900 C   0  0  0  0  0  0  0  0  0  0  0  0
   -1.8757   -0.9491   -1.2814 C   0  0  0  0  0  0  0  0  0  0  0  0
   -2.3084    0.4644    0.5252 C   0  0  0  0  0  0  0  0  0  0  0  0
   -1.9301    1.8877    0.3280 C   0  0  0  0  0  0  0  0  0  0  0  0
    0.0174    0.3932   -2.2194 H   0  0  0  0  0  0  0  0  0  0  0  0
    0.8713   -1.0758   -1.7114 H   0  0  0  0  0  0  0  0  0  0  0  0
    0.0168    1.0576    0.3117 H   0  0  0  0  0  0  0  0  0  0  0  0
    0.4966   -0.9773    1.8309 H   0  0  0  0  0  0  0  0  0  0  0  0
    1.3134   -1.6972    0.3400 H   0  0  0  0  0  0  0  0  0  0  0  0
    1.7996    0.9762    1.7039 H   0  0  0  0  0  0  0  0  0  0  0  0
    3.2269    1.6087    0.0348 H   0  0  0  0  0  0  0  0  0  0  0  0
    3.6662   -0.0542   -0.3910 H   0  0  0  0  0  0  0  0  0  0  0  0
    2.5213    0.3982   -2.2832 H   0  0  0  0  0  0  0  0  0  0  0  0
    1.6926    1.8113   -1.6071 H   0  0  0  0  0  0  0  0  0  0  0  0
    3.9630   -0.1812    1.6548 H   0  0  0  0  0  0  0  0  0  0  0  0
   -1.5194   -1.2900    1.9352 H   0  0  0  0  0  0  0  0  0  0  0  0
   -2.3532   -2.1749    0.6445 H   0  0  0  0  0  0  0  0  0  0  0  0
   -0.5860   -2.3351    0.7248 H   0  0  0  0  0  0  0  0  0  0  0  0
   -1.9379   -0.1759   -2.0501 H   0  0  0  0  0  0  0  0  0  0  0  0
   -2.9412   -1.2602   -1.0717 H   0  0  0  0  0  0  0  0  0  0  0  0
   -1.3693   -1.8772   -1.6114 H   0  0  0  0  0  0  0  0  0  0  0  0
   -2.4628    0.3039    1.6254 H   0  0  0  0  0  0  0  0  0  0  0  0
   -3.3275    0.2894    0.0734 H   0  0  0  0  0  0  0  0  0  0  0  0
   -1.4496    2.1174   -0.6323 H   0  0  0  0  0  0  0  0  0  0  0  0
   -2.8822    2.4964    0.3398 H   0  0  0  0  0  0  0  0  0  0  0  0
   -1.3458    2.2852    1.2054 H   0  0  0  0  0  0  0  0  0  0  0  0
  1  2  1  0
  2  3  1  0
  3  4  1  0
  4  5  1  0
  1  6  1  0
  5  6  1  0
  4  7  1  0
  2  8  1  0
  8  9  1  0
  8 10  1  0
  8 11  1  0
 11 12  1  0
  1 13  1  0
  1 14  1  0
  2 15  1  0
  3 16  1  0
  3 17  1  0
  4 18  1  1
  5 19  1  0
  5 20  1  0
  6 21  1  0
  6 22  1  0
  7 23  1  0
  9 24  1  0
  9 25  1  0
  9 26  1  0
 10 27  1  0
 10 28  1  0
 10 29  1  0
 11 30  1  0
 11 31  1  0
 12 32  1  0
 12 33  1  0
 12 34  1  0
M  CHG  1   8   1
M  END
>  <PDBID>  (1) 
2ACK

>  <PDB ID>  (1) 
2ACK

>  <Generic Name>  (1) 
Edrophonium

>  <Brand Name>  (1) 
Enlon#Enlon 10mg/ml#Enlon Liq IV 10mg/ml#Enlon Plus#Tensilon#Antirex#Reversol

>  <DrugBank ID>  (1) 
DB01010

>  <ATC Codes>  (1) 
nan

>  <Ligand ID>  (1) 
EDR

>  <Target Name>  (1) 
Acetylcholinesterase

>  <UniProt ID>  (1) 
P22303

>  <PDB ID.1>  (1) 
2ACK

>  <Seq. Identity>  (1) 
57%

$$$$
