PDB_DB01016_00
     RDKit          3D

316324  0  0  0  0  0  0  0  0999 V2000
    5.0711   -1.4549   -1.5869 O   0  0  0  0  0  0  0  0  0  0  0  0
    2.6881    0.5237   -1.2833 O   0  0  0  0  0  0  0  0  0  0  0  0
    3.0775    1.4862    1.1032 O   0  0  0  0  0  0  0  0  0  0  0  0
   -4.4021    0.7118    0.5441 O   0  0  0  0  0  0  0  0  0  0  0  0
   -9.5663   -1.4816   -1.9085 Cl  0  0  0  0  0  0  0  0  0  0  0  0
    2.9953    0.1264    0.2521 S   0  0  0  0  0  0  0  0  0  0  0  0
   -8.0835    1.6614    1.1321 O   0  0  0  0  0  0  0  0  0  0  0  0
    6.5084   -1.0686    0.1985 N   0  0  0  0  0  0  0  0  0  0  0  0
    4.1732   -0.8502    0.4811 N   0  0  0  0  0  0  0  0  0  0  0  0
   -4.5604    0.2697   -1.6939 N   0  0  0  0  0  0  0  0  0  0  0  0
    7.6865   -0.5837   -0.5591 C   0  0  0  0  0  0  0  0  0  0  0  0
    7.5454    0.9028   -0.6340 C   0  0  0  0  0  0  0  0  0  0  0  0
    8.8886   -1.0575    0.1731 C   0  0  0  0  0  0  0  0  0  0  0  0
    8.7725    1.7179   -0.6418 C   0  0  0  0  0  0  0  0  0  0  0  0
    9.3848    0.0721    1.0507 C   0  0  0  0  0  0  0  0  0  0  0  0
    9.9473    1.1060    0.0667 C   0  0  0  0  0  0  0  0  0  0  0  0
    5.3037   -0.7481   -0.4449 C   0  0  0  0  0  0  0  0  0  0  0  0
    1.4275   -0.6914    0.8499 C   0  0  0  0  0  0  0  0  0  0  0  0
   -1.0352   -0.6611   -0.7265 C   0  0  0  0  0  0  0  0  0  0  0  0
   -2.4812   -0.8943   -1.0688 C   0  0  0  0  0  0  0  0  0  0  0  0
    1.1302   -1.7466   -0.1403 C   0  0  0  0  0  0  0  0  0  0  0  0
    0.4651    0.4767    0.8189 C   0  0  0  0  0  0  0  0  0  0  0  0
   -0.3436   -1.9776   -0.3958 C   0  0  0  0  0  0  0  0  0  0  0  0
   -0.9658    0.0837    0.6372 C   0  0  0  0  0  0  0  0  0  0  0  0
   -3.1193    0.4354   -1.4538 C   0  0  0  0  0  0  0  0  0  0  0  0
   -5.2029    0.0252   -0.3883 C   0  0  0  0  0  0  0  0  0  0  0  0
   -6.5393    0.7427   -0.3542 C   0  0  0  0  0  0  0  0  0  0  0  0
   -7.1017    0.6966    1.0370 C   0  0  0  0  0  0  0  0  0  0  0  0
   -7.4909    0.0865   -1.3503 C   0  0  0  0  0  0  0  0  0  0  0  0
   -7.5326   -0.6592    1.4861 C   0  0  0  0  0  0  0  0  0  0  0  0
   -8.7249   -0.4696   -0.6850 C   0  0  0  0  0  0  0  0  0  0  0  0
   -8.2710   -1.4193    0.4077 C   0  0  0  0  0  0  0  0  0  0  0  0
   -7.7403    2.6754    2.0079 C   0  0  0  0  0  0  0  0  0  0  0  0
    5.0711   -1.4549   -1.5869 O   0  0  0  0  0  0  0  0  0  0  0  0
    2.6881    0.5237   -1.2833 O   0  0  0  0  0  0  0  0  0  0  0  0
    3.0775    1.4862    1.1032 O   0  0  0  0  0  0  0  0  0  0  0  0
   -4.4021    0.7118    0.5441 O   0  0  0  0  0  0  0  0  0  0  0  0
   -9.5663   -1.4816   -1.9085 Cl  0  0  0  0  0  0  0  0  0  0  0  0
    2.9953    0.1264    0.2521 S   0  0  0  0  0  0  0  0  0  0  0  0
   -8.0835    1.6614    1.1321 O   0  0  0  0  0  0  0  0  0  0  0  0
    6.5084   -1.0686    0.1985 N   0  0  0  0  0  0  0  0  0  0  0  0
    4.1732   -0.8502    0.4811 N   0  0  0  0  0  0  0  0  0  0  0  0
   -4.5604    0.2697   -1.6939 N   0  0  0  0  0  0  0  0  0  0  0  0
    7.6865   -0.5837   -0.5591 C   0  0  0  0  0  0  0  0  0  0  0  0
    7.5454    0.9028   -0.6340 C   0  0  0  0  0  0  0  0  0  0  0  0
    8.8886   -1.0575    0.1731 C   0  0  0  0  0  0  0  0  0  0  0  0
    8.7725    1.7179   -0.6418 C   0  0  0  0  0  0  0  0  0  0  0  0
    9.3848    0.0721    1.0507 C   0  0  0  0  0  0  0  0  0  0  0  0
    9.9473    1.1060    0.0667 C   0  0  0  0  0  0  0  0  0  0  0  0
    5.3037   -0.7481   -0.4449 C   0  0  0  0  0  0  0  0  0  0  0  0
    1.4275   -0.6914    0.8499 C   0  0  0  0  0  0  0  0  0  0  0  0
   -1.0352   -0.6611   -0.7265 C   0  0  0  0  0  0  0  0  0  0  0  0
   -2.4812   -0.8943   -1.0688 C   0  0  0  0  0  0  0  0  0  0  0  0
    1.1302   -1.7466   -0.1403 C   0  0  0  0  0  0  0  0  0  0  0  0
    0.4651    0.4767    0.8189 C   0  0  0  0  0  0  0  0  0  0  0  0
   -0.3436   -1.9776   -0.3958 C   0  0  0  0  0  0  0  0  0  0  0  0
   -0.9658    0.0837    0.6372 C   0  0  0  0  0  0  0  0  0  0  0  0
   -3.1193    0.4354   -1.4538 C   0  0  0  0  0  0  0  0  0  0  0  0
   -5.2029    0.0252   -0.3883 C   0  0  0  0  0  0  0  0  0  0  0  0
   -6.5393    0.7427   -0.3542 C   0  0  0  0  0  0  0  0  0  0  0  0
   -7.1017    0.6966    1.0370 C   0  0  0  0  0  0  0  0  0  0  0  0
   -7.4909    0.0865   -1.3503 C   0  0  0  0  0  0  0  0  0  0  0  0
   -7.5326   -0.6592    1.4861 C   0  0  0  0  0  0  0  0  0  0  0  0
   -8.7249   -0.4696   -0.6850 C   0  0  0  0  0  0  0  0  0  0  0  0
   -8.2710   -1.4193    0.4077 C   0  0  0  0  0  0  0  0  0  0  0  0
   -7.7403    2.6754    2.0079 C   0  0  0  0  0  0  0  0  0  0  0  0
    5.0711   -1.4549   -1.5869 O   0  0  0  0  0  0  0  0  0  0  0  0
    2.6881    0.5237   -1.2833 O   0  0  0  0  0  0  0  0  0  0  0  0
    3.0775    1.4862    1.1032 O   0  0  0  0  0  0  0  0  0  0  0  0
   -4.4021    0.7118    0.5441 O   0  0  0  0  0  0  0  0  0  0  0  0
   -9.5663   -1.4816   -1.9085 Cl  0  0  0  0  0  0  0  0  0  0  0  0
    2.9953    0.1264    0.2521 S   0  0  0  0  0  0  0  0  0  0  0  0
   -8.0835    1.6614    1.1321 O   0  0  0  0  0  0  0  0  0  0  0  0
    6.5084   -1.0686    0.1985 N   0  0  0  0  0  0  0  0  0  0  0  0
    4.1732   -0.8502    0.4811 N   0  0  0  0  0  0  0  0  0  0  0  0
   -4.5604    0.2697   -1.6939 N   0  0  0  0  0  0  0  0  0  0  0  0
    7.6865   -0.5837   -0.5591 C   0  0  0  0  0  0  0  0  0  0  0  0
    7.5454    0.9028   -0.6340 C   0  0  0  0  0  0  0  0  0  0  0  0
    8.8886   -1.0575    0.1731 C   0  0  0  0  0  0  0  0  0  0  0  0
    8.7725    1.7179   -0.6418 C   0  0  0  0  0  0  0  0  0  0  0  0
    9.3848    0.0721    1.0507 C   0  0  0  0  0  0  0  0  0  0  0  0
    9.9473    1.1060    0.0667 C   0  0  0  0  0  0  0  0  0  0  0  0
    5.3037   -0.7481   -0.4449 C   0  0  0  0  0  0  0  0  0  0  0  0
    1.4275   -0.6914    0.8499 C   0  0  0  0  0  0  0  0  0  0  0  0
   -1.0352   -0.6611   -0.7265 C   0  0  0  0  0  0  0  0  0  0  0  0
   -2.4812   -0.8943   -1.0688 C   0  0  0  0  0  0  0  0  0  0  0  0
    1.1302   -1.7466   -0.1403 C   0  0  0  0  0  0  0  0  0  0  0  0
    0.4651    0.4767    0.8189 C   0  0  0  0  0  0  0  0  0  0  0  0
   -0.3436   -1.9776   -0.3958 C   0  0  0  0  0  0  0  0  0  0  0  0
   -0.9658    0.0837    0.6372 C   0  0  0  0  0  0  0  0  0  0  0  0
   -3.1193    0.4354   -1.4538 C   0  0  0  0  0  0  0  0  0  0  0  0
   -5.2029    0.0252   -0.3883 C   0  0  0  0  0  0  0  0  0  0  0  0
   -6.5393    0.7427   -0.3542 C   0  0  0  0  0  0  0  0  0  0  0  0
   -7.1017    0.6966    1.0370 C   0  0  0  0  0  0  0  0  0  0  0  0
   -7.4909    0.0865   -1.3503 C   0  0  0  0  0  0  0  0  0  0  0  0
   -7.5326   -0.6592    1.4861 C   0  0  0  0  0  0  0  0  0  0  0  0
   -8.7249   -0.4696   -0.6850 C   0  0  0  0  0  0  0  0  0  0  0  0
   -8.2710   -1.4193    0.4077 C   0  0  0  0  0  0  0  0  0  0  0  0
   -7.7403    2.6754    2.0079 C   0  0  0  0  0  0  0  0  0  0  0  0
    5.0711   -1.4549   -1.5869 O   0  0  0  0  0  0  0  0  0  0  0  0
    2.6881    0.5237   -1.2833 O   0  0  0  0  0  0  0  0  0  0  0  0
    3.0775    1.4862    1.1032 O   0  0  0  0  0  0  0  0  0  0  0  0
   -4.4021    0.7118    0.5441 O   0  0  0  0  0  0  0  0  0  0  0  0
   -9.5663   -1.4816   -1.9085 Cl  0  0  0  0  0  0  0  0  0  0  0  0
    2.9953    0.1264    0.2521 S   0  0  0  0  0  0  0  0  0  0  0  0
   -8.0835    1.6614    1.1321 O   0  0  0  0  0  0  0  0  0  0  0  0
    6.5084   -1.0686    0.1985 N   0  0  0  0  0  0  0  0  0  0  0  0
    4.1732   -0.8502    0.4811 N   0  0  0  0  0  0  0  0  0  0  0  0
   -4.5604    0.2697   -1.6939 N   0  0  0  0  0  0  0  0  0  0  0  0
    7.6865   -0.5837   -0.5591 C   0  0  0  0  0  0  0  0  0  0  0  0
    7.5454    0.9028   -0.6340 C   0  0  0  0  0  0  0  0  0  0  0  0
    8.8886   -1.0575    0.1731 C   0  0  0  0  0  0  0  0  0  0  0  0
    8.7725    1.7179   -0.6418 C   0  0  0  0  0  0  0  0  0  0  0  0
    9.3848    0.0721    1.0507 C   0  0  0  0  0  0  0  0  0  0  0  0
    9.9473    1.1060    0.0667 C   0  0  0  0  0  0  0  0  0  0  0  0
    5.3037   -0.7481   -0.4449 C   0  0  0  0  0  0  0  0  0  0  0  0
    1.4275   -0.6914    0.8499 C   0  0  0  0  0  0  0  0  0  0  0  0
   -1.0352   -0.6611   -0.7265 C   0  0  0  0  0  0  0  0  0  0  0  0
   -2.4812   -0.8943   -1.0688 C   0  0  0  0  0  0  0  0  0  0  0  0
    1.1302   -1.7466   -0.1403 C   0  0  0  0  0  0  0  0  0  0  0  0
    0.4651    0.4767    0.8189 C   0  0  0  0  0  0  0  0  0  0  0  0
   -0.3436   -1.9776   -0.3958 C   0  0  0  0  0  0  0  0  0  0  0  0
   -0.9658    0.0837    0.6372 C   0  0  0  0  0  0  0  0  0  0  0  0
   -3.1193    0.4354   -1.4538 C   0  0  0  0  0  0  0  0  0  0  0  0
   -5.2029    0.0252   -0.3883 C   0  0  0  0  0  0  0  0  0  0  0  0
   -6.5393    0.7427   -0.3542 C   0  0  0  0  0  0  0  0  0  0  0  0
   -7.1017    0.6966    1.0370 C   0  0  0  0  0  0  0  0  0  0  0  0
   -7.4909    0.0865   -1.3503 C   0  0  0  0  0  0  0  0  0  0  0  0
   -7.5326   -0.6592    1.4861 C   0  0  0  0  0  0  0  0  0  0  0  0
   -8.7249   -0.4696   -0.6850 C   0  0  0  0  0  0  0  0  0  0  0  0
   -8.2710   -1.4193    0.4077 C   0  0  0  0  0  0  0  0  0  0  0  0
   -7.7403    2.6754    2.0079 C   0  0  0  0  0  0  0  0  0  0  0  0
    4.9707   -2.4291   -1.4352 H   0  0  0  0  0  0  0  0  0  0  0  0
    3.1049   -0.0552   -1.9754 H   0  0  0  0  0  0  0  0  0  0  0  0
    2.6306    2.2585    0.6886 H   0  0  0  0  0  0  0  0  0  0  0  0
   -4.5628    1.6616    0.3922 H   0  0  0  0  0  0  0  0  0  0  0  0
    6.5826   -0.8334    1.2030 H   0  0  0  0  0  0  0  0  0  0  0  0
    3.9557   -1.8523    0.6751 H   0  0  0  0  0  0  0  0  0  0  0  0
   -4.8640    1.2047   -2.0644 H   0  0  0  0  0  0  0  0  0  0  0  0
    7.6282   -1.0947   -1.5383 H   0  0  0  0  0  0  0  0  0  0  0  0
    7.0053    1.1265   -1.5949 H   0  0  0  0  0  0  0  0  0  0  0  0
    6.8467    1.2759    0.1659 H   0  0  0  0  0  0  0  0  0  0  0  0
    8.6432   -1.8894    0.8787 H   0  0  0  0  0  0  0  0  0  0  0  0
    9.6786   -1.3692   -0.5169 H   0  0  0  0  0  0  0  0  0  0  0  0
    8.5513    2.6807   -0.0876 H   0  0  0  0  0  0  0  0  0  0  0  0
    9.1079    2.0490   -1.6454 H   0  0  0  0  0  0  0  0  0  0  0  0
    8.5139    0.5643    1.5541 H   0  0  0  0  0  0  0  0  0  0  0  0
   10.1690   -0.2633    1.7615 H   0  0  0  0  0  0  0  0  0  0  0  0
   10.6228    0.5434   -0.6068 H   0  0  0  0  0  0  0  0  0  0  0  0
   10.5462    1.8627    0.5925 H   0  0  0  0  0  0  0  0  0  0  0  0
    5.3359    0.3667   -0.7742 H   0  0  0  0  0  0  0  0  0  0  0  0
    1.6500   -1.0139    1.8830 H   0  0  0  0  0  0  0  0  0  0  0  0
   -0.5255   -0.0486   -1.4472 H   0  0  0  0  0  0  0  0  0  0  0  0
   -3.0285   -1.4260   -0.2840 H   0  0  0  0  0  0  0  0  0  0  0  0
   -2.4904   -1.5238   -1.9814 H   0  0  0  0  0  0  0  0  0  0  0  0
    1.5711   -2.7079    0.1868 H   0  0  0  0  0  0  0  0  0  0  0  0
    1.5888   -1.5454   -1.1504 H   0  0  0  0  0  0  0  0  0  0  0  0
    0.7820    1.2583    0.0668 H   0  0  0  0  0  0  0  0  0  0  0  0
    0.5709    0.9659    1.8297 H   0  0  0  0  0  0  0  0  0  0  0  0
   -0.8262   -2.4104    0.4754 H   0  0  0  0  0  0  0  0  0  0  0  0
   -0.4250   -2.6135   -1.2979 H   0  0  0  0  0  0  0  0  0  0  0  0
   -1.6000    0.9526    0.6649 H   0  0  0  0  0  0  0  0  0  0  0  0
   -1.1930   -0.6618    1.4497 H   0  0  0  0  0  0  0  0  0  0  0  0
   -2.6983    0.6962   -2.4728 H   0  0  0  0  0  0  0  0  0  0  0  0
   -2.8866    1.2414   -0.7750 H   0  0  0  0  0  0  0  0  0  0  0  0
   -5.2637   -1.0309   -0.1942 H   0  0  0  0  0  0  0  0  0  0  0  0
   -6.3980    1.7762   -0.6540 H   0  0  0  0  0  0  0  0  0  0  0  0
   -6.2622    1.0085    1.7159 H   0  0  0  0  0  0  0  0  0  0  0  0
   -6.9957   -0.7880   -1.8488 H   0  0  0  0  0  0  0  0  0  0  0  0
   -7.8122    0.7800   -2.1491 H   0  0  0  0  0  0  0  0  0  0  0  0
   -6.7142   -1.2772    1.8550 H   0  0  0  0  0  0  0  0  0  0  0  0
   -8.2641   -0.5258    2.3250 H   0  0  0  0  0  0  0  0  0  0  0  0
   -9.3810    0.3426   -0.3045 H   0  0  0  0  0  0  0  0  0  0  0  0
   -9.1486   -1.9744    0.8489 H   0  0  0  0  0  0  0  0  0  0  0  0
   -7.6370   -2.1884   -0.0749 H   0  0  0  0  0  0  0  0  0  0  0  0
   -6.8010    3.1840    1.6806 H   0  0  0  0  0  0  0  0  0  0  0  0
   -7.5838    2.2888    3.0264 H   0  0  0  0  0  0  0  0  0  0  0  0
   -8.5987    3.3976    2.0451 H   0  0  0  0  0  0  0  0  0  0  0  0
    4.9707   -2.4291   -1.4352 H   0  0  0  0  0  0  0  0  0  0  0  0
    3.1049   -0.0552   -1.9754 H   0  0  0  0  0  0  0  0  0  0  0  0
    2.6306    2.2585    0.6886 H   0  0  0  0  0  0  0  0  0  0  0  0
   -4.5628    1.6616    0.3922 H   0  0  0  0  0  0  0  0  0  0  0  0
    6.5826   -0.8334    1.2030 H   0  0  0  0  0  0  0  0  0  0  0  0
    3.9557   -1.8523    0.6751 H   0  0  0  0  0  0  0  0  0  0  0  0
   -4.8640    1.2047   -2.0644 H   0  0  0  0  0  0  0  0  0  0  0  0
    7.6282   -1.0947   -1.5383 H   0  0  0  0  0  0  0  0  0  0  0  0
    7.0053    1.1265   -1.5949 H   0  0  0  0  0  0  0  0  0  0  0  0
    6.8467    1.2759    0.1659 H   0  0  0  0  0  0  0  0  0  0  0  0
    8.6432   -1.8894    0.8787 H   0  0  0  0  0  0  0  0  0  0  0  0
    9.6786   -1.3692   -0.5169 H   0  0  0  0  0  0  0  0  0  0  0  0
    8.5513    2.6807   -0.0876 H   0  0  0  0  0  0  0  0  0  0  0  0
    9.1079    2.0490   -1.6454 H   0  0  0  0  0  0  0  0  0  0  0  0
    8.5139    0.5643    1.5541 H   0  0  0  0  0  0  0  0  0  0  0  0
   10.1690   -0.2633    1.7615 H   0  0  0  0  0  0  0  0  0  0  0  0
   10.6228    0.5434   -0.6068 H   0  0  0  0  0  0  0  0  0  0  0  0
   10.5462    1.8627    0.5925 H   0  0  0  0  0  0  0  0  0  0  0  0
    5.3359    0.3667   -0.7742 H   0  0  0  0  0  0  0  0  0  0  0  0
    1.6500   -1.0139    1.8830 H   0  0  0  0  0  0  0  0  0  0  0  0
   -0.5255   -0.0486   -1.4472 H   0  0  0  0  0  0  0  0  0  0  0  0
   -3.0285   -1.4260   -0.2840 H   0  0  0  0  0  0  0  0  0  0  0  0
   -2.4904   -1.5238   -1.9814 H   0  0  0  0  0  0  0  0  0  0  0  0
    1.5711   -2.7079    0.1868 H   0  0  0  0  0  0  0  0  0  0  0  0
    1.5888   -1.5454   -1.1504 H   0  0  0  0  0  0  0  0  0  0  0  0
    0.7820    1.2583    0.0668 H   0  0  0  0  0  0  0  0  0  0  0  0
    0.5709    0.9659    1.8297 H   0  0  0  0  0  0  0  0  0  0  0  0
   -0.8262   -2.4104    0.4754 H   0  0  0  0  0  0  0  0  0  0  0  0
   -0.4250   -2.6135   -1.2979 H   0  0  0  0  0  0  0  0  0  0  0  0
   -1.6000    0.9526    0.6649 H   0  0  0  0  0  0  0  0  0  0  0  0
   -1.1930   -0.6618    1.4497 H   0  0  0  0  0  0  0  0  0  0  0  0
   -2.6983    0.6962   -2.4728 H   0  0  0  0  0  0  0  0  0  0  0  0
   -2.8866    1.2414   -0.7750 H   0  0  0  0  0  0  0  0  0  0  0  0
   -5.2637   -1.0309   -0.1942 H   0  0  0  0  0  0  0  0  0  0  0  0
   -6.3980    1.7762   -0.6540 H   0  0  0  0  0  0  0  0  0  0  0  0
   -6.2622    1.0085    1.7159 H   0  0  0  0  0  0  0  0  0  0  0  0
   -6.9957   -0.7880   -1.8488 H   0  0  0  0  0  0  0  0  0  0  0  0
   -7.8122    0.7800   -2.1491 H   0  0  0  0  0  0  0  0  0  0  0  0
   -6.7142   -1.2772    1.8550 H   0  0  0  0  0  0  0  0  0  0  0  0
   -8.2641   -0.5258    2.3250 H   0  0  0  0  0  0  0  0  0  0  0  0
   -9.3810    0.3426   -0.3045 H   0  0  0  0  0  0  0  0  0  0  0  0
   -9.1486   -1.9744    0.8489 H   0  0  0  0  0  0  0  0  0  0  0  0
   -7.6370   -2.1884   -0.0749 H   0  0  0  0  0  0  0  0  0  0  0  0
   -6.8010    3.1840    1.6806 H   0  0  0  0  0  0  0  0  0  0  0  0
   -7.5838    2.2888    3.0264 H   0  0  0  0  0  0  0  0  0  0  0  0
   -8.5987    3.3976    2.0451 H   0  0  0  0  0  0  0  0  0  0  0  0
    4.9707   -2.4291   -1.4352 H   0  0  0  0  0  0  0  0  0  0  0  0
    3.1049   -0.0552   -1.9754 H   0  0  0  0  0  0  0  0  0  0  0  0
    2.6306    2.2585    0.6886 H   0  0  0  0  0  0  0  0  0  0  0  0
   -4.5628    1.6616    0.3922 H   0  0  0  0  0  0  0  0  0  0  0  0
    6.5826   -0.8334    1.2030 H   0  0  0  0  0  0  0  0  0  0  0  0
    3.9557   -1.8523    0.6751 H   0  0  0  0  0  0  0  0  0  0  0  0
   -4.8640    1.2047   -2.0644 H   0  0  0  0  0  0  0  0  0  0  0  0
    7.6282   -1.0947   -1.5383 H   0  0  0  0  0  0  0  0  0  0  0  0
    7.0053    1.1265   -1.5949 H   0  0  0  0  0  0  0  0  0  0  0  0
    6.8467    1.2759    0.1659 H   0  0  0  0  0  0  0  0  0  0  0  0
    8.6432   -1.8894    0.8787 H   0  0  0  0  0  0  0  0  0  0  0  0
    9.6786   -1.3692   -0.5169 H   0  0  0  0  0  0  0  0  0  0  0  0
    8.5513    2.6807   -0.0876 H   0  0  0  0  0  0  0  0  0  0  0  0
    9.1079    2.0490   -1.6454 H   0  0  0  0  0  0  0  0  0  0  0  0
    8.5139    0.5643    1.5541 H   0  0  0  0  0  0  0  0  0  0  0  0
   10.1690   -0.2633    1.7615 H   0  0  0  0  0  0  0  0  0  0  0  0
   10.6228    0.5434   -0.6068 H   0  0  0  0  0  0  0  0  0  0  0  0
   10.5462    1.8627    0.5925 H   0  0  0  0  0  0  0  0  0  0  0  0
    5.3359    0.3667   -0.7742 H   0  0  0  0  0  0  0  0  0  0  0  0
    1.6500   -1.0139    1.8830 H   0  0  0  0  0  0  0  0  0  0  0  0
   -0.5255   -0.0486   -1.4472 H   0  0  0  0  0  0  0  0  0  0  0  0
   -3.0285   -1.4260   -0.2840 H   0  0  0  0  0  0  0  0  0  0  0  0
   -2.4904   -1.5238   -1.9814 H   0  0  0  0  0  0  0  0  0  0  0  0
    1.5711   -2.7079    0.1868 H   0  0  0  0  0  0  0  0  0  0  0  0
    1.5888   -1.5454   -1.1504 H   0  0  0  0  0  0  0  0  0  0  0  0
    0.7820    1.2583    0.0668 H   0  0  0  0  0  0  0  0  0  0  0  0
    0.5709    0.9659    1.8297 H   0  0  0  0  0  0  0  0  0  0  0  0
   -0.8262   -2.4104    0.4754 H   0  0  0  0  0  0  0  0  0  0  0  0
   -0.4250   -2.6135   -1.2979 H   0  0  0  0  0  0  0  0  0  0  0  0
   -1.6000    0.9526    0.6649 H   0  0  0  0  0  0  0  0  0  0  0  0
   -1.1930   -0.6618    1.4497 H   0  0  0  0  0  0  0  0  0  0  0  0
   -2.6983    0.6962   -2.4728 H   0  0  0  0  0  0  0  0  0  0  0  0
   -2.8866    1.2414   -0.7750 H   0  0  0  0  0  0  0  0  0  0  0  0
   -5.2637   -1.0309   -0.1942 H   0  0  0  0  0  0  0  0  0  0  0  0
   -6.3980    1.7762   -0.6540 H   0  0  0  0  0  0  0  0  0  0  0  0
   -6.2622    1.0085    1.7159 H   0  0  0  0  0  0  0  0  0  0  0  0
   -6.9957   -0.7880   -1.8488 H   0  0  0  0  0  0  0  0  0  0  0  0
   -7.8122    0.7800   -2.1491 H   0  0  0  0  0  0  0  0  0  0  0  0
   -6.7142   -1.2772    1.8550 H   0  0  0  0  0  0  0  0  0  0  0  0
   -8.2641   -0.5258    2.3250 H   0  0  0  0  0  0  0  0  0  0  0  0
   -9.3810    0.3426   -0.3045 H   0  0  0  0  0  0  0  0  0  0  0  0
   -9.1486   -1.9744    0.8489 H   0  0  0  0  0  0  0  0  0  0  0  0
   -7.6370   -2.1884   -0.0749 H   0  0  0  0  0  0  0  0  0  0  0  0
   -6.8010    3.1840    1.6806 H   0  0  0  0  0  0  0  0  0  0  0  0
   -7.5838    2.2888    3.0264 H   0  0  0  0  0  0  0  0  0  0  0  0
   -8.5987    3.3976    2.0451 H   0  0  0  0  0  0  0  0  0  0  0  0
    4.9707   -2.4291   -1.4352 H   0  0  0  0  0  0  0  0  0  0  0  0
    3.1049   -0.0552   -1.9754 H   0  0  0  0  0  0  0  0  0  0  0  0
    2.6306    2.2585    0.6886 H   0  0  0  0  0  0  0  0  0  0  0  0
   -4.5628    1.6616    0.3922 H   0  0  0  0  0  0  0  0  0  0  0  0
    6.5826   -0.8334    1.2030 H   0  0  0  0  0  0  0  0  0  0  0  0
    3.9557   -1.8523    0.6751 H   0  0  0  0  0  0  0  0  0  0  0  0
   -4.8640    1.2047   -2.0644 H   0  0  0  0  0  0  0  0  0  0  0  0
    7.6282   -1.0947   -1.5383 H   0  0  0  0  0  0  0  0  0  0  0  0
    7.0053    1.1265   -1.5949 H   0  0  0  0  0  0  0  0  0  0  0  0
    6.8467    1.2759    0.1659 H   0  0  0  0  0  0  0  0  0  0  0  0
    8.6432   -1.8894    0.8787 H   0  0  0  0  0  0  0  0  0  0  0  0
    9.6786   -1.3692   -0.5169 H   0  0  0  0  0  0  0  0  0  0  0  0
    8.5513    2.6807   -0.0876 H   0  0  0  0  0  0  0  0  0  0  0  0
    9.1079    2.0490   -1.6454 H   0  0  0  0  0  0  0  0  0  0  0  0
    8.5139    0.5643    1.5541 H   0  0  0  0  0  0  0  0  0  0  0  0
   10.1690   -0.2633    1.7615 H   0  0  0  0  0  0  0  0  0  0  0  0
   10.6228    0.5434   -0.6068 H   0  0  0  0  0  0  0  0  0  0  0  0
   10.5462    1.8627    0.5925 H   0  0  0  0  0  0  0  0  0  0  0  0
    5.3359    0.3667   -0.7742 H   0  0  0  0  0  0  0  0  0  0  0  0
    1.6500   -1.0139    1.8830 H   0  0  0  0  0  0  0  0  0  0  0  0
   -0.5255   -0.0486   -1.4472 H   0  0  0  0  0  0  0  0  0  0  0  0
   -3.0285   -1.4260   -0.2840 H   0  0  0  0  0  0  0  0  0  0  0  0
   -2.4904   -1.5238   -1.9814 H   0  0  0  0  0  0  0  0  0  0  0  0
    1.5711   -2.7079    0.1868 H   0  0  0  0  0  0  0  0  0  0  0  0
    1.5888   -1.5454   -1.1504 H   0  0  0  0  0  0  0  0  0  0  0  0
    0.7820    1.2583    0.0668 H   0  0  0  0  0  0  0  0  0  0  0  0
    0.5709    0.9659    1.8297 H   0  0  0  0  0  0  0  0  0  0  0  0
   -0.8262   -2.4104    0.4754 H   0  0  0  0  0  0  0  0  0  0  0  0
   -0.4250   -2.6135   -1.2979 H   0  0  0  0  0  0  0  0  0  0  0  0
   -1.6000    0.9526    0.6649 H   0  0  0  0  0  0  0  0  0  0  0  0
   -1.1930   -0.6618    1.4497 H   0  0  0  0  0  0  0  0  0  0  0  0
   -2.6983    0.6962   -2.4728 H   0  0  0  0  0  0  0  0  0  0  0  0
   -2.8866    1.2414   -0.7750 H   0  0  0  0  0  0  0  0  0  0  0  0
   -5.2637   -1.0309   -0.1942 H   0  0  0  0  0  0  0  0  0  0  0  0
   -6.3980    1.7762   -0.6540 H   0  0  0  0  0  0  0  0  0  0  0  0
   -6.2622    1.0085    1.7159 H   0  0  0  0  0  0  0  0  0  0  0  0
   -6.9957   -0.7880   -1.8488 H   0  0  0  0  0  0  0  0  0  0  0  0
   -7.8122    0.7800   -2.1491 H   0  0  0  0  0  0  0  0  0  0  0  0
   -6.7142   -1.2772    1.8550 H   0  0  0  0  0  0  0  0  0  0  0  0
   -8.2641   -0.5258    2.3250 H   0  0  0  0  0  0  0  0  0  0  0  0
   -9.3810    0.3426   -0.3045 H   0  0  0  0  0  0  0  0  0  0  0  0
   -9.1486   -1.9744    0.8489 H   0  0  0  0  0  0  0  0  0  0  0  0
   -7.6370   -2.1884   -0.0749 H   0  0  0  0  0  0  0  0  0  0  0  0
   -6.8010    3.1840    1.6806 H   0  0  0  0  0  0  0  0  0  0  0  0
   -7.5838    2.2888    3.0264 H   0  0  0  0  0  0  0  0  0  0  0  0
   -8.5987    3.3976    2.0451 H   0  0  0  0  0  0  0  0  0  0  0  0
  6  2  1  0
  3  6  1  0
  6  9  1  0
  8 11  1  0
 11 12  1  0
 11 13  1  0
 12 14  1  0
 13 15  1  0
 14 16  1  0
 15 16  1  0
  1 17  1  0
  8 17  1  0
  9 17  1  0
  6 18  1  0
 19 20  1  0
 18 21  1  0
 18 22  1  0
 19 23  1  0
 21 23  1  0
 19 24  1  0
 22 24  1  0
 10 25  1  0
 20 25  1  0
  4 26  1  0
 10 26  1  0
 26 27  1  0
  7 28  1  0
 27 28  1  0
 27 29  1  0
 28 30  1  0
  5 31  1  0
 29 31  1  0
 30 32  1  0
 31 32  1  0
  7 33  1  0
 39 35  1  0
 36 39  1  0
 39 42  1  0
 41 44  1  0
 44 45  1  0
 44 46  1  0
 45 47  1  0
 46 48  1  0
 47 49  1  0
 48 49  1  0
 34 50  1  0
 41 50  1  0
 42 50  1  0
 39 51  1  0
 52 53  1  0
 51 54  1  0
 51 55  1  0
 52 56  1  0
 54 56  1  0
 52 57  1  0
 55 57  1  0
 43 58  1  0
 53 58  1  0
 37 59  1  0
 43 59  1  0
 59 60  1  0
 40 61  1  0
 60 61  1  0
 60 62  1  0
 61 63  1  0
 38 64  1  0
 62 64  1  0
 63 65  1  0
 64 65  1  0
 40 66  1  0
 72 68  1  0
 69 72  1  0
 72 75  1  0
 74 77  1  0
 77 78  1  0
 77 79  1  0
 78 80  1  0
 79 81  1  0
 80 82  1  0
 81 82  1  0
 67 83  1  0
 74 83  1  0
 75 83  1  0
 72 84  1  0
 85 86  1  0
 84 87  1  0
 84 88  1  0
 85 89  1  0
 87 89  1  0
 85 90  1  0
 88 90  1  0
 76 91  1  0
 86 91  1  0
 70 92  1  0
 76 92  1  0
 92 93  1  0
 73 94  1  0
 93 94  1  0
 93 95  1  0
 94 96  1  0
 71 97  1  0
 95 97  1  0
 96 98  1  0
 97 98  1  0
 73 99  1  0
105101  1  0
102105  1  0
105108  1  0
107110  1  0
110111  1  0
110112  1  0
111113  1  0
112114  1  0
113115  1  0
114115  1  0
100116  1  0
107116  1  0
108116  1  0
105117  1  0
118119  1  0
117120  1  0
117121  1  0
118122  1  0
120122  1  0
118123  1  0
121123  1  0
109124  1  0
119124  1  0
103125  1  0
109125  1  0
125126  1  0
106127  1  0
126127  1  0
126128  1  0
127129  1  0
104130  1  0
128130  1  0
129131  1  0
130131  1  0
106132  1  0
  1133  1  0
  2134  1  0
  3135  1  0
  4136  1  0
  8137  1  0
  9138  1  0
 10139  1  0
 11140  1  0
 12141  1  0
 12142  1  0
 13143  1  0
 13144  1  0
 14145  1  0
 14146  1  0
 15147  1  0
 15148  1  0
 16149  1  0
 16150  1  0
 17151  1  0
 18152  1  0
 19153  1  0
 20154  1  0
 20155  1  0
 21156  1  0
 21157  1  0
 22158  1  0
 22159  1  0
 23160  1  0
 23161  1  0
 24162  1  0
 24163  1  0
 25164  1  0
 25165  1  0
 26166  1  0
 27167  1  0
 28168  1  0
 29169  1  0
 29170  1  0
 30171  1  0
 30172  1  0
 31173  1  0
 32174  1  0
 32175  1  0
 33176  1  0
 33177  1  0
 33178  1  0
 34179  1  0
 35180  1  0
 36181  1  0
 37182  1  0
 41183  1  0
 42184  1  0
 43185  1  0
 44186  1  0
 45187  1  0
 45188  1  0
 46189  1  0
 46190  1  0
 47191  1  0
 47192  1  0
 48193  1  0
 48194  1  0
 49195  1  0
 49196  1  0
 50197  1  0
 51198  1  0
 52199  1  0
 53200  1  0
 53201  1  0
 54202  1  0
 54203  1  0
 55204  1  0
 55205  1  0
 56206  1  0
 56207  1  0
 57208  1  0
 57209  1  0
 58210  1  0
 58211  1  0
 59212  1  0
 60213  1  0
 61214  1  0
 62215  1  0
 62216  1  0
 63217  1  0
 63218  1  0
 64219  1  0
 65220  1  0
 65221  1  0
 66222  1  0
 66223  1  0
 66224  1  0
 67225  1  0
 68226  1  0
 69227  1  0
 70228  1  0
 74229  1  0
 75230  1  0
 76231  1  0
 77232  1  0
 78233  1  0
 78234  1  0
 79235  1  0
 79236  1  0
 80237  1  0
 80238  1  0
 81239  1  0
 81240  1  0
 82241  1  0
 82242  1  0
 83243  1  0
 84244  1  0
 85245  1  0
 86246  1  0
 86247  1  0
 87248  1  0
 87249  1  0
 88250  1  0
 88251  1  0
 89252  1  0
 89253  1  0
 90254  1  0
 90255  1  0
 91256  1  0
 91257  1  0
 92258  1  0
 93259  1  0
 94260  1  0
 95261  1  0
 95262  1  0
 96263  1  0
 96264  1  0
 97265  1  0
 98266  1  0
 98267  1  0
 99268  1  0
 99269  1  0
 99270  1  0
100271  1  0
101272  1  0
102273  1  0
103274  1  0
107275  1  0
108276  1  0
109277  1  0
110278  1  0
111279  1  0
111280  1  0
112281  1  0
112282  1  0
113283  1  0
113284  1  0
114285  1  0
114286  1  0
115287  1  0
115288  1  0
116289  1  0
117290  1  0
118291  1  0
119292  1  0
119293  1  0
120294  1  0
120295  1  0
121296  1  0
121297  1  0
122298  1  0
122299  1  0
123300  1  0
123301  1  0
124302  1  0
124303  1  0
125304  1  0
126305  1  0
127306  1  0
128307  1  0
128308  1  0
129309  1  0
129310  1  0
130311  1  0
131312  1  0
131313  1  0
132314  1  0
132315  1  0
132316  1  0
M  END
>  <PDBID>  (1) 
6BAA

>  <PDB ID>  (1) 
6BAA

>  <Generic Name>  (1) 
Glyburide

>  <Brand Name>  (1) 
Apo Glyburide Tab 2.5mg#Apo Glyburide Tab 5mg#Ava-glyburide#Diabeta#Diabeta 5mg#Diabeta Tab 2.5mg#Diabeta Tab 5mg#Diabeta Tablets 2.5mg#Dom-glyburide#Euglucon#Glucovance#Glyburide#Glyburide (micronized) and Metformin Hydrochloride#Glyburide Tablets 2.5mg#Glyburide Tablets 5mg#Glyburide and Metformin#Glyburide and Metformin Hydrochloride#Glyburide-2.5 Tab 2.5mg#Glyburide-5 Tab 5mg#Glyburide-metformin Hydrochloride#Glynase#Med Glybe Tab 2.5mg#Med Glybe Tab 5mg#Mylan-glybe#Ntp-glyburide#Nu-glyburide Tab 2.5mg#Nu-glyburide Tab 5mg#PMS-glyburide#Penta-glyburide - 2.5mg#Penta-glyburide - 5mg#Pro-glyburide#Ratio-glyburide#Riva-glyburide#Sandoz Glyburide#Teva-glyburide#Daonil#Delmide#Micronase#Novo-Glyburide#Semi-Daonil

>  <DrugBank ID>  (1) 
DB01016

>  <ATC Codes>  (1) 
A10BB01

>  <Ligand ID>  (1) 
GBM

>  <Target Name>  (1) 
ATP-sensitive inward rectifier potassium channel 11

>  <UniProt ID>  (1) 
Q14654

>  <PDB ID.1>  (1) 
6BAA

>  <Seq. Identity>  (1) 
94%

$$$$
