PDB_DB01128_06
     RDKit          3D

 63 64  0  0  0  0  0  0  0  0999 V2000
    4.7818   -0.2284    1.5345 C   0  0  0  0  0  0  0  0  0  0  0  0
    6.2592    0.0136    1.6806 C   0  0  0  0  0  0  0  0  0  0  0  0
    6.7963    1.1488    0.8778 C   0  0  0  0  0  0  0  0  0  0  0  0
    6.5522    2.4014    1.4324 F   0  0  0  0  0  0  0  0  0  0  0  0
    6.3998    1.1210   -0.5859 C   0  0  0  0  0  0  0  0  0  0  0  0
    5.0427    0.4612   -0.7664 C   0  0  0  0  0  0  0  0  0  0  0  0
    4.2219    0.6771    0.4904 C   0  0  0  0  0  0  0  0  0  0  0  0
    2.5416    0.5719    0.2757 S   0  0  0  0  0  0  0  0  0  0  0  0
    1.7921    0.8571    1.5704 O   0  0  0  0  0  0  0  0  0  0  0  0
    2.2560    1.9587   -0.7550 O   0  0  0  0  0  0  0  0  0  0  0  0
    2.1000   -0.7264   -0.6948 C   0  0  0  0  0  0  0  0  0  0  0  0
    0.5861   -0.8734   -0.8858 C   0  0  1  0  0  0  0  0  0  0  0  0
    0.1533    0.2884   -1.4031 O   0  0  0  0  0  0  0  0  0  0  0  0
    0.4854   -1.8947   -2.0836 C   0  0  0  0  0  0  0  0  0  0  0  0
   -0.1031   -1.5563    0.2223 C   0  0  1  0  0  0  0  0  0  0  0  0
    0.1443   -0.9801    1.4881 O   0  0  0  0  0  0  0  0  0  0  0  0
   -1.4272   -1.8811    0.0126 N   0  0  0  0  0  0  0  0  0  0  0  0
   -2.5349   -1.0690   -0.0212 C   0  0  2  0  0  0  0  0  0  0  0  0
   -2.7253    0.0400   -0.9707 C   0  0  0  0  0  0  0  0  0  0  0  0
   -3.0094   -0.6500    1.4000 C   0  0  0  0  0  0  0  0  0  0  0  0
   -4.4877   -0.5446    1.3446 C   0  0  0  0  0  0  0  0  0  0  0  0
   -5.0549   -0.2684   -0.0429 C   0  0  0  0  0  0  0  0  0  0  0  0
   -6.4250    0.3669    0.0923 C   0  0  0  0  0  0  0  0  0  0  0  0
   -7.0538    0.6693   -1.1493 N   0  0  0  0  0  0  0  0  0  0  0  0
   -4.1839    0.5485   -0.9026 C   0  0  0  0  0  0  0  0  0  0  0  0
   -4.1787    2.0373   -0.6126 C   0  0  0  0  0  0  0  0  0  0  0  0
   -5.4173    2.6033   -0.5501 F   0  0  0  0  0  0  0  0  0  0  0  0
   -3.4641    2.6604   -1.6261 F   0  0  0  0  0  0  0  0  0  0  0  0
   -3.5734    2.3244    0.6085 F   0  0  0  0  0  0  0  0  0  0  0  0
    4.6460   -1.3027    1.2153 H   0  0  0  0  0  0  0  0  0  0  0  0
    4.2666   -0.0758    2.5179 H   0  0  0  0  0  0  0  0  0  0  0  0
    6.4763    0.2523    2.7540 H   0  0  0  0  0  0  0  0  0  0  0  0
    6.8431   -0.9189    1.4781 H   0  0  0  0  0  0  0  0  0  0  0  0
    7.9175    1.0500    0.8927 H   0  0  0  0  0  0  0  0  0  0  0  0
    7.1744    0.6581   -1.2183 H   0  0  0  0  0  0  0  0  0  0  0  0
    6.2874    2.1748   -0.9071 H   0  0  0  0  0  0  0  0  0  0  0  0
    4.5007    0.8290   -1.6452 H   0  0  0  0  0  0  0  0  0  0  0  0
    5.2298   -0.6309   -0.8414 H   0  0  0  0  0  0  0  0  0  0  0  0
    4.4621    1.7244    0.8219 H   0  0  0  0  0  0  0  0  0  0  0  0
    1.3739    1.7713    1.6492 H   0  0  0  0  0  0  0  0  0  0  0  0
    1.2967    2.1162   -0.6210 H   0  0  0  0  0  0  0  0  0  0  0  0
    2.5566   -1.6837   -0.3298 H   0  0  0  0  0  0  0  0  0  0  0  0
    2.4837   -0.5861   -1.7503 H   0  0  0  0  0  0  0  0  0  0  0  0
    0.0096    0.3084   -2.3823 H   0  0  0  0  0  0  0  0  0  0  0  0
    1.3600   -1.7715   -2.7413 H   0  0  0  0  0  0  0  0  0  0  0  0
   -0.4789   -1.7349   -2.6054 H   0  0  0  0  0  0  0  0  0  0  0  0
    0.5186   -2.9242   -1.6744 H   0  0  0  0  0  0  0  0  0  0  0  0
    0.4642   -2.5604    0.3356 H   0  0  0  0  0  0  0  0  0  0  0  0
   -0.3728   -1.4305    2.1859 H   0  0  0  0  0  0  0  0  0  0  0  0
   -1.6843   -2.8684    0.3016 H   0  0  0  0  0  0  0  0  0  0  0  0
   -3.4065   -1.7938   -0.2935 H   0  0  0  0  0  0  0  0  0  0  0  0
   -2.1505    0.9633   -0.7189 H   0  0  0  0  0  0  0  0  0  0  0  0
   -2.4476   -0.2758   -1.9818 H   0  0  0  0  0  0  0  0  0  0  0  0
   -2.7535   -1.5396    2.0318 H   0  0  0  0  0  0  0  0  0  0  0  0
   -2.4609    0.2025    1.7841 H   0  0  0  0  0  0  0  0  0  0  0  0
   -4.9513   -1.5124    1.6430 H   0  0  0  0  0  0  0  0  0  0  0  0
   -4.9127    0.2102    2.0420 H   0  0  0  0  0  0  0  0  0  0  0  0
   -5.2443   -1.2420   -0.5859 H   0  0  0  0  0  0  0  0  0  0  0  0
   -6.4705    1.2065    0.7844 H   0  0  0  0  0  0  0  0  0  0  0  0
   -7.0489   -0.4438    0.6047 H   0  0  0  0  0  0  0  0  0  0  0  0
   -7.6289   -0.1664   -1.4647 H   0  0  0  0  0  0  0  0  0  0  0  0
   -7.7754    1.4423   -1.0522 H   0  0  0  0  0  0  0  0  0  0  0  0
   -4.5545    0.4753   -1.9681 H   0  0  0  0  0  0  0  0  0  0  0  0
  1  2  1  0
  2  3  1  0
  3  4  1  0
  3  5  1  0
  5  6  1  0
  1  7  1  0
  6  7  1  0
  7  8  1  0
  8  9  1  0
  8 10  1  0
  8 11  1  0
 11 12  1  0
 12 13  1  6
 12 14  1  0
 12 15  1  0
 15 16  1  0
 15 17  1  0
 17 18  1  0
 18 19  1  0
 18 20  1  0
 20 21  1  0
 21 22  1  0
 22 23  1  0
 23 24  1  0
 19 25  1  0
 22 25  1  0
 25 26  1  0
 26 27  1  0
 26 28  1  0
 26 29  1  0
  1 30  1  0
  1 31  1  0
  2 32  1  0
  2 33  1  0
  3 34  1  0
  5 35  1  0
  5 36  1  0
  6 37  1  0
  6 38  1  0
  7 39  1  0
  9 40  1  0
 10 41  1  0
 11 42  1  0
 11 43  1  0
 13 44  1  0
 14 45  1  0
 14 46  1  0
 14 47  1  0
 15 48  1  1
 16 49  1  0
 17 50  1  0
 18 51  1  6
 19 52  1  0
 19 53  1  0
 20 54  1  0
 20 55  1  0
 21 56  1  0
 21 57  1  0
 22 58  1  0
 23 59  1  0
 23 60  1  0
 24 61  1  0
 24 62  1  0
 25 63  1  0
M  END
>  <PDBID>  (1) 
1Z95

>  <PDB ID>  (1) 
1Z95

>  <Generic Name>  (1) 
Bicalutamide

>  <Brand Name>  (1) 
Accel-bicalutamide Tablets USP#Ach-bicalutamide#Act Bicalutamide#Ag-bicalutamide#Apo-bicalutamide#Ava-bicalutamide#Bicalutamide#Bicalutamide Tablets#Casodex#Dom-bicalutamide#Jamp-bicalutamide#Med-bicalutamide#Mylan-bicalutamide#Ntp-bicalutamide#Nu-bicalutamide#PHL-bicalutamide#PMS-bicalutamide#Pro-bicalutamide - 50#Ran-bicalutamide#Ratio-bicalutamide#Sandoz Bicalutamide#Teva-bicalutamide#Van-bicalutamide

>  <DrugBank ID>  (1) 
DB01128

>  <ATC Codes>  (1) 
L02BB03

>  <Ligand ID>  (1) 
0U9,198

>  <Target Name>  (1) 
Androgen receptor

>  <UniProt ID>  (1) 
P10275

>  <PDB ID.1>  (1) 
1Z95

>  <Seq. Identity>  (1) 
100%

$$$$
