PDB_DB00701_05
     RDKit          3D

 86 88  0  0  0  0  0  0  0  0999 V2000
   -2.8262    2.6665    1.4582 C   0  0  0  0  0  0  0  0  0  0  0  0
   -4.5463    3.8977    0.4249 C   0  0  0  0  0  0  0  0  0  0  0  0
   -3.6684    1.2940   -1.6189 C   0  0  2  0  0  0  0  0  0  0  0  0
   -3.5170    2.8145    0.1362 C   0  0  2  0  0  0  0  0  0  0  0  0
   -2.1671   -0.4359   -0.7969 C   0  0  2  0  0  0  0  0  0  0  0  0
   -0.9488    0.3704   -1.1816 C   0  0  1  0  0  0  0  0  0  0  0  0
   -1.8784   -1.9024   -0.9692 C   0  0  0  0  0  0  0  0  0  0  0  0
   -3.0700   -2.7730   -0.6027 C   0  0  0  0  0  0  0  0  0  0  0  0
   -3.4878   -2.5814    0.8232 C   0  0  0  0  0  0  0  0  0  0  0  0
   -2.5356   -4.2119   -0.6960 C   0  0  0  0  0  0  0  0  0  0  0  0
   -4.6115   -3.5533    1.1154 C   0  0  0  0  0  0  0  0  0  0  0  0
   -3.6180   -5.2031   -0.3734 C   0  0  0  0  0  0  0  0  0  0  0  0
   -4.0670   -4.9559    1.0507 C   0  0  0  0  0  0  0  0  0  0  0  0
    0.1960    0.1131   -0.2785 C   0  0  0  0  0  0  0  0  0  0  0  0
    2.1230    0.4724   -1.7298 C   0  0  0  0  0  0  0  0  0  0  0  0
    2.8275   -0.8326   -1.7985 C   0  0  0  0  0  0  0  0  0  0  0  0
    3.6734    1.5197    0.9722 C   0  0  0  0  0  0  0  0  0  0  0  0
    4.5285    2.4351    0.2167 C   0  0  0  0  0  0  0  0  0  0  0  0
    5.9659    1.8931    0.3035 C   0  0  0  0  0  0  0  0  0  0  0  0
    6.2604    1.2438    1.6076 C   0  0  0  0  0  0  0  0  0  0  0  0
    5.4291    1.6794    2.7635 C   0  0  0  0  0  0  0  0  0  0  0  0
    3.9760    1.8733    2.4801 C   0  0  0  0  0  0  0  0  0  0  0  0
    2.0347   -2.0725   -1.6617 C   0  0  0  0  0  0  0  0  0  0  0  0
    3.6224   -0.9310   -3.1146 C   0  0  0  0  0  0  0  0  0  0  0  0
   -3.9090    4.5879    1.6127 C   0  0  0  0  0  0  0  0  0  0  0  0
   -3.2420   -0.0832   -1.6895 N   0  0  0  0  0  0  0  0  0  0  0  0
    1.4207    0.8220   -0.5712 N   0  0  0  0  0  0  0  0  0  0  0  0
    6.2849   -0.2169    1.5173 N   0  0  0  0  0  0  0  0  0  0  0  0
   -4.0875    1.6659   -0.3454 O   0  0  0  0  0  0  0  0  0  0  0  0
   -4.8622    1.3335   -2.4010 O   0  0  0  0  0  0  0  0  0  0  0  0
   -0.6613    0.0156   -2.4946 O   0  0  0  0  0  0  0  0  0  0  0  0
    1.2379    2.5881    1.4674 O   0  0  0  0  0  0  0  0  0  0  0  0
    1.6872    0.0417    1.9201 O   0  0  0  0  0  0  0  0  0  0  0  0
   -3.4937    3.4845    2.3700 O   0  0  0  0  0  0  0  0  0  0  0  0
    2.0451    1.5067    0.6795 S   0  0  0  0  0  0  0  0  0  0  0  0
   -2.9022    1.6125    1.8611 H   0  0  0  0  0  0  0  0  0  0  0  0
   -1.7696    3.0066    1.4364 H   0  0  0  0  0  0  0  0  0  0  0  0
   -4.5971    4.6362   -0.3999 H   0  0  0  0  0  0  0  0  0  0  0  0
   -5.5159    3.5050    0.7388 H   0  0  0  0  0  0  0  0  0  0  0  0
   -2.9376    1.9666   -2.0810 H   0  0  0  0  0  0  0  0  0  0  0  0
   -2.7994    3.2333   -0.6011 H   0  0  0  0  0  0  0  0  0  0  0  0
   -2.4731   -0.1946    0.2542 H   0  0  0  0  0  0  0  0  0  0  0  0
   -1.3010    1.4381   -1.1236 H   0  0  0  0  0  0  0  0  0  0  0  0
   -1.0647   -2.2509   -0.3075 H   0  0  0  0  0  0  0  0  0  0  0  0
   -1.6666   -2.0752   -2.0311 H   0  0  0  0  0  0  0  0  0  0  0  0
   -3.9204   -2.6812   -1.2804 H   0  0  0  0  0  0  0  0  0  0  0  0
   -3.8728   -1.5649    1.0473 H   0  0  0  0  0  0  0  0  0  0  0  0
   -2.6440   -2.7826    1.5176 H   0  0  0  0  0  0  0  0  0  0  0  0
   -1.7549   -4.2985    0.0891 H   0  0  0  0  0  0  0  0  0  0  0  0
   -2.0743   -4.3915   -1.6765 H   0  0  0  0  0  0  0  0  0  0  0  0
   -5.4020   -3.4602    0.3661 H   0  0  0  0  0  0  0  0  0  0  0  0
   -5.0433   -3.3471    2.1339 H   0  0  0  0  0  0  0  0  0  0  0  0
   -4.4565   -5.1821   -1.0846 H   0  0  0  0  0  0  0  0  0  0  0  0
   -3.1730   -6.2110   -0.4098 H   0  0  0  0  0  0  0  0  0  0  0  0
   -4.8460   -5.6439    1.3816 H   0  0  0  0  0  0  0  0  0  0  0  0
   -3.1848   -5.0991    1.7049 H   0  0  0  0  0  0  0  0  0  0  0  0
    0.3706   -0.9511   -0.1552 H   0  0  0  0  0  0  0  0  0  0  0  0
   -0.1267    0.5002    0.7474 H   0  0  0  0  0  0  0  0  0  0  0  0
    1.5260    0.5464   -2.6810 H   0  0  0  0  0  0  0  0  0  0  0  0
    2.9116    1.2595   -1.9064 H   0  0  0  0  0  0  0  0  0  0  0  0
    3.6373   -0.8820   -1.0065 H   0  0  0  0  0  0  0  0  0  0  0  0
    4.0951    0.4696    0.9407 H   0  0  0  0  0  0  0  0  0  0  0  0
    4.3218    2.6473   -0.8225 H   0  0  0  0  0  0  0  0  0  0  0  0
    4.5663    3.4157    0.7787 H   0  0  0  0  0  0  0  0  0  0  0  0
    6.0654    1.1243   -0.5151 H   0  0  0  0  0  0  0  0  0  0  0  0
    6.6449    2.7494    0.0722 H   0  0  0  0  0  0  0  0  0  0  0  0
    7.3283    1.5232    1.8628 H   0  0  0  0  0  0  0  0  0  0  0  0
    5.5652    0.8914    3.5642 H   0  0  0  0  0  0  0  0  0  0  0  0
    5.8718    2.6394    3.1624 H   0  0  0  0  0  0  0  0  0  0  0  0
    3.3037    1.2936    3.1245 H   0  0  0  0  0  0  0  0  0  0  0  0
    3.7069    2.9473    2.5411 H   0  0  0  0  0  0  0  0  0  0  0  0
    2.5874   -2.8795   -2.2567 H   0  0  0  0  0  0  0  0  0  0  0  0
    2.0265   -2.5135   -0.6388 H   0  0  0  0  0  0  0  0  0  0  0  0
    1.0368   -2.0739   -2.1112 H   0  0  0  0  0  0  0  0  0  0  0  0
    2.8803   -1.1738   -3.9021 H   0  0  0  0  0  0  0  0  0  0  0  0
    4.0617    0.0528   -3.3700 H   0  0  0  0  0  0  0  0  0  0  0  0
    4.3340   -1.7557   -3.0661 H   0  0  0  0  0  0  0  0  0  0  0  0
   -3.0251    5.1798    1.3467 H   0  0  0  0  0  0  0  0  0  0  0  0
   -4.6876    5.1642    2.1506 H   0  0  0  0  0  0  0  0  0  0  0  0
   -4.0419   -0.7217   -1.6927 H   0  0  0  0  0  0  0  0  0  0  0  0
    6.7759   -0.6279    2.3289 H   0  0  0  0  0  0  0  0  0  0  0  0
    6.7474   -0.4975    0.6122 H   0  0  0  0  0  0  0  0  0  0  0  0
   -5.4546    0.6246   -2.0295 H   0  0  0  0  0  0  0  0  0  0  0  0
   -1.4808    0.1233   -3.0346 H   0  0  0  0  0  0  0  0  0  0  0  0
    1.5201    2.7456    2.4041 H   0  0  0  0  0  0  0  0  0  0  0  0
    2.2158   -0.6025    1.4206 H   0  0  0  0  0  0  0  0  0  0  0  0
  1  4  1  0
  2  4  1  0
  5  6  1  0
  5  7  1  0
  7  8  1  0
  8  9  1  0
  8 10  1  0
  9 11  1  0
 10 12  1  0
 11 13  1  0
 12 13  1  0
  6 14  1  0
 15 16  1  0
 17 18  1  0
 18 19  1  0
 19 20  1  0
 20 21  1  0
 17 22  1  0
 21 22  1  0
 16 23  1  0
 16 24  1  0
  2 25  1  0
  3 26  1  0
  5 26  1  0
 14 27  1  0
 15 27  1  0
 20 28  1  0
  3 29  1  0
  4 29  1  0
  3 30  1  0
  6 31  1  0
  1 34  1  0
 25 34  1  0
 17 35  1  0
 27 35  1  0
 35 32  1  0
 33 35  1  0
  1 36  1  0
  1 37  1  0
  2 38  1  0
  2 39  1  0
  3 40  1  6
  4 41  1  6
  5 42  1  1
  6 43  1  6
  7 44  1  0
  7 45  1  0
  8 46  1  0
  9 47  1  0
  9 48  1  0
 10 49  1  0
 10 50  1  0
 11 51  1  0
 11 52  1  0
 12 53  1  0
 12 54  1  0
 13 55  1  0
 13 56  1  0
 14 57  1  0
 14 58  1  0
 15 59  1  0
 15 60  1  0
 16 61  1  0
 17 62  1  0
 18 63  1  0
 18 64  1  0
 19 65  1  0
 19 66  1  0
 20 67  1  0
 21 68  1  0
 21 69  1  0
 22 70  1  0
 22 71  1  0
 23 72  1  0
 23 73  1  0
 23 74  1  0
 24 75  1  0
 24 76  1  0
 24 77  1  0
 25 78  1  0
 25 79  1  0
 26 80  1  0
 28 81  1  0
 28 82  1  0
 30 83  1  0
 31 84  1  0
 32 85  1  0
 33 86  1  0
M  END
>  <PDBID>  (1) 
1HPV

>  <PDB ID>  (1) 
1HPV

>  <Generic Name>  (1) 
Amprenavir

>  <Brand Name>  (1) 
Agenerase#Agemerase#Prozei

>  <DrugBank ID>  (1) 
DB00701

>  <ATC Codes>  (1) 
J05AE05

>  <Ligand ID>  (1) 
478

>  <Target Name>  (1) 
Pol polyprotein

>  <UniProt ID>  (1) 
Q72874

>  <PDB ID.1>  (1) 
1HPV

>  <Seq. Identity>  (1) 
99%

$$$$
