PDB_DB00820_07
     RDKit          3D

132142  0  0  0  0  0  0  0  0999 V2000
   -2.9415   -4.3183    0.8024 C   0  0  0  0  0  0  0  0  0  0  0  0
   -4.0332   -3.3593    0.4283 C   0  0  0  0  0  0  0  0  0  0  0  0
   -3.4826   -2.1941   -0.4003 C   0  0  0  0  0  0  0  0  0  0  0  0
   -2.4285   -1.5611    0.4138 C   0  0  0  0  0  0  0  0  0  0  0  0
   -1.6623   -0.4616   -0.2265 C   0  0  0  0  0  0  0  0  0  0  0  0
   -0.5449   -0.3439    0.8315 C   0  0  0  0  0  0  0  0  0  0  0  0
   -0.2890   -1.6933    1.2028 N   0  0  0  0  0  0  0  0  0  0  0  0
   -1.2736   -2.5602    0.6005 C   0  0  0  0  0  0  0  0  0  0  0  0
   -1.7685   -3.6446    1.4801 C   0  0  0  0  0  0  0  0  0  0  0  0
    0.5571    0.4452    0.2395 C   0  0  2  0  0  0  0  0  0  0  0  0
    0.0112    1.5072   -0.5381 N   0  0  0  0  0  0  0  0  0  0  0  0
    0.8056    2.7003   -0.5283 C   0  0  0  0  0  0  0  0  0  0  0  0
    0.7884    3.2455   -1.8167 O   0  0  0  0  0  0  0  0  0  0  0  0
    0.2231    3.7984    0.3611 C   0  0  0  0  0  0  0  0  0  0  0  0
   -0.9341    4.3056   -0.3151 N   0  0  0  0  0  0  0  0  0  0  0  0
   -1.7884    3.1898   -0.6306 C   0  0  0  0  0  0  0  0  0  0  0  0
   -2.0130    2.9843   -1.9666 O   0  0  0  0  0  0  0  0  0  0  0  0
   -1.2980    1.9041    0.0059 C   0  0  1  0  0  0  0  0  0  0  0  0
   -2.3582    0.8585   -0.2579 C   0  0  0  0  0  0  0  0  0  0  0  0
   -1.6129    5.3552    0.3842 C   0  0  0  0  0  0  0  0  0  0  0  0
    1.5840   -0.4140   -0.4259 C   0  0  0  0  0  0  0  0  0  0  0  0
    2.6876    0.3241   -1.1055 C   0  0  0  0  0  0  0  0  0  0  0  0
    3.4983   -0.7316   -1.8882 C   0  0  0  0  0  0  0  0  0  0  0  0
    4.2235   -1.6352   -0.9126 C   0  0  0  0  0  0  0  0  0  0  0  0
    5.5133   -1.1539   -0.7706 O   0  0  0  0  0  0  0  0  0  0  0  0
    5.5855   -0.4319    0.3936 C   0  0  0  0  0  0  0  0  0  0  0  0
    4.4040   -0.5772    1.0747 O   0  0  0  0  0  0  0  0  0  0  0  0
    3.6705   -1.5532    0.4637 C   0  0  0  0  0  0  0  0  0  0  0  0
    2.1793   -1.3960    0.5364 C   0  0  0  0  0  0  0  0  0  0  0  0
   -2.9415   -4.3183    0.8024 C   0  0  0  0  0  0  0  0  0  0  0  0
   -4.0332   -3.3593    0.4283 C   0  0  0  0  0  0  0  0  0  0  0  0
   -3.4826   -2.1941   -0.4003 C   0  0  0  0  0  0  0  0  0  0  0  0
   -2.4285   -1.5611    0.4138 C   0  0  0  0  0  0  0  0  0  0  0  0
   -1.6623   -0.4616   -0.2265 C   0  0  0  0  0  0  0  0  0  0  0  0
   -0.5449   -0.3439    0.8315 C   0  0  0  0  0  0  0  0  0  0  0  0
   -0.2890   -1.6933    1.2028 N   0  0  0  0  0  0  0  0  0  0  0  0
   -1.2736   -2.5602    0.6005 C   0  0  0  0  0  0  0  0  0  0  0  0
   -1.7685   -3.6446    1.4801 C   0  0  0  0  0  0  0  0  0  0  0  0
    0.5571    0.4452    0.2395 C   0  0  2  0  0  0  0  0  0  0  0  0
    0.0112    1.5072   -0.5381 N   0  0  0  0  0  0  0  0  0  0  0  0
    0.8056    2.7003   -0.5283 C   0  0  0  0  0  0  0  0  0  0  0  0
    0.7884    3.2455   -1.8167 O   0  0  0  0  0  0  0  0  0  0  0  0
    0.2231    3.7984    0.3611 C   0  0  0  0  0  0  0  0  0  0  0  0
   -0.9341    4.3056   -0.3151 N   0  0  0  0  0  0  0  0  0  0  0  0
   -1.7884    3.1898   -0.6306 C   0  0  0  0  0  0  0  0  0  0  0  0
   -2.0130    2.9843   -1.9666 O   0  0  0  0  0  0  0  0  0  0  0  0
   -1.2980    1.9041    0.0059 C   0  0  1  0  0  0  0  0  0  0  0  0
   -2.3582    0.8585   -0.2579 C   0  0  0  0  0  0  0  0  0  0  0  0
   -1.6129    5.3552    0.3842 C   0  0  0  0  0  0  0  0  0  0  0  0
    1.5840   -0.4140   -0.4259 C   0  0  0  0  0  0  0  0  0  0  0  0
    2.6876    0.3241   -1.1055 C   0  0  0  0  0  0  0  0  0  0  0  0
    3.4983   -0.7316   -1.8882 C   0  0  0  0  0  0  0  0  0  0  0  0
    4.2235   -1.6352   -0.9126 C   0  0  0  0  0  0  0  0  0  0  0  0
    5.5133   -1.1539   -0.7706 O   0  0  0  0  0  0  0  0  0  0  0  0
    5.5855   -0.4319    0.3936 C   0  0  0  0  0  0  0  0  0  0  0  0
    4.4040   -0.5772    1.0747 O   0  0  0  0  0  0  0  0  0  0  0  0
    3.6705   -1.5532    0.4637 C   0  0  0  0  0  0  0  0  0  0  0  0
    2.1793   -1.3960    0.5364 C   0  0  0  0  0  0  0  0  0  0  0  0
   -3.3802   -5.0889    1.4547 H   0  0  0  0  0  0  0  0  0  0  0  0
   -2.5400   -4.7598   -0.1446 H   0  0  0  0  0  0  0  0  0  0  0  0
   -4.8082   -3.9086   -0.1038 H   0  0  0  0  0  0  0  0  0  0  0  0
   -4.4070   -2.8997    1.3807 H   0  0  0  0  0  0  0  0  0  0  0  0
   -3.0244   -2.6334   -1.3092 H   0  0  0  0  0  0  0  0  0  0  0  0
   -4.2842   -1.4864   -0.6040 H   0  0  0  0  0  0  0  0  0  0  0  0
   -2.7307   -1.2649    1.4292 H   0  0  0  0  0  0  0  0  0  0  0  0
   -1.1802   -0.7315   -1.1684 H   0  0  0  0  0  0  0  0  0  0  0  0
   -1.0510    0.1369    1.7080 H   0  0  0  0  0  0  0  0  0  0  0  0
   -0.2393   -1.8483    2.2367 H   0  0  0  0  0  0  0  0  0  0  0  0
   -0.8861   -2.9237   -0.3493 H   0  0  0  0  0  0  0  0  0  0  0  0
   -2.0333   -3.2535    2.4827 H   0  0  0  0  0  0  0  0  0  0  0  0
   -0.9694   -4.4205    1.5716 H   0  0  0  0  0  0  0  0  0  0  0  0
    1.0943    0.9433    1.1037 H   0  0  0  0  0  0  0  0  0  0  0  0
    1.8242    2.5420   -0.1293 H   0  0  0  0  0  0  0  0  0  0  0  0
    0.6342    2.5895   -2.5301 H   0  0  0  0  0  0  0  0  0  0  0  0
    0.0939    3.5092    1.3974 H   0  0  0  0  0  0  0  0  0  0  0  0
    0.9891    4.6140    0.3466 H   0  0  0  0  0  0  0  0  0  0  0  0
   -2.7877    3.3844   -0.1427 H   0  0  0  0  0  0  0  0  0  0  0  0
   -2.5683    3.7184   -2.3659 H   0  0  0  0  0  0  0  0  0  0  0  0
   -1.2475    2.0220    1.1271 H   0  0  0  0  0  0  0  0  0  0  0  0
   -3.1508    0.8774    0.5225 H   0  0  0  0  0  0  0  0  0  0  0  0
   -2.8802    1.0298   -1.2221 H   0  0  0  0  0  0  0  0  0  0  0  0
   -0.9916    5.8435    1.1563 H   0  0  0  0  0  0  0  0  0  0  0  0
   -1.9725    6.0915   -0.3834 H   0  0  0  0  0  0  0  0  0  0  0  0
   -2.5475    4.9304    0.8254 H   0  0  0  0  0  0  0  0  0  0  0  0
    1.0577   -0.9975   -1.2270 H   0  0  0  0  0  0  0  0  0  0  0  0
    3.4151    0.8203   -0.4692 H   0  0  0  0  0  0  0  0  0  0  0  0
    2.2824    0.9928   -1.8963 H   0  0  0  0  0  0  0  0  0  0  0  0
    4.1729   -0.1726   -2.5401 H   0  0  0  0  0  0  0  0  0  0  0  0
    2.7458   -1.3515   -2.4100 H   0  0  0  0  0  0  0  0  0  0  0  0
    4.2775   -2.6803   -1.2666 H   0  0  0  0  0  0  0  0  0  0  0  0
    5.7404    0.6635    0.2159 H   0  0  0  0  0  0  0  0  0  0  0  0
    6.4700   -0.8056    0.9635 H   0  0  0  0  0  0  0  0  0  0  0  0
    3.9139   -2.5393    0.9609 H   0  0  0  0  0  0  0  0  0  0  0  0
    1.7227   -2.4123    0.3475 H   0  0  0  0  0  0  0  0  0  0  0  0
    1.9438   -1.1196    1.5959 H   0  0  0  0  0  0  0  0  0  0  0  0
   -3.3802   -5.0889    1.4547 H   0  0  0  0  0  0  0  0  0  0  0  0
   -2.5400   -4.7598   -0.1446 H   0  0  0  0  0  0  0  0  0  0  0  0
   -4.8082   -3.9086   -0.1038 H   0  0  0  0  0  0  0  0  0  0  0  0
   -4.4070   -2.8997    1.3807 H   0  0  0  0  0  0  0  0  0  0  0  0
   -3.0244   -2.6334   -1.3092 H   0  0  0  0  0  0  0  0  0  0  0  0
   -4.2842   -1.4864   -0.6040 H   0  0  0  0  0  0  0  0  0  0  0  0
   -2.7307   -1.2649    1.4292 H   0  0  0  0  0  0  0  0  0  0  0  0
   -1.1802   -0.7315   -1.1684 H   0  0  0  0  0  0  0  0  0  0  0  0
   -1.0510    0.1369    1.7080 H   0  0  0  0  0  0  0  0  0  0  0  0
   -0.2393   -1.8483    2.2367 H   0  0  0  0  0  0  0  0  0  0  0  0
   -0.8861   -2.9237   -0.3493 H   0  0  0  0  0  0  0  0  0  0  0  0
   -2.0333   -3.2535    2.4827 H   0  0  0  0  0  0  0  0  0  0  0  0
   -0.9694   -4.4205    1.5716 H   0  0  0  0  0  0  0  0  0  0  0  0
    1.0943    0.9433    1.1037 H   0  0  0  0  0  0  0  0  0  0  0  0
    1.8242    2.5420   -0.1293 H   0  0  0  0  0  0  0  0  0  0  0  0
    0.6342    2.5895   -2.5301 H   0  0  0  0  0  0  0  0  0  0  0  0
    0.0939    3.5092    1.3974 H   0  0  0  0  0  0  0  0  0  0  0  0
    0.9891    4.6140    0.3466 H   0  0  0  0  0  0  0  0  0  0  0  0
   -2.7877    3.3844   -0.1427 H   0  0  0  0  0  0  0  0  0  0  0  0
   -2.5683    3.7184   -2.3659 H   0  0  0  0  0  0  0  0  0  0  0  0
   -1.2475    2.0220    1.1271 H   0  0  0  0  0  0  0  0  0  0  0  0
   -3.1508    0.8774    0.5225 H   0  0  0  0  0  0  0  0  0  0  0  0
   -2.8802    1.0298   -1.2221 H   0  0  0  0  0  0  0  0  0  0  0  0
   -0.9916    5.8435    1.1563 H   0  0  0  0  0  0  0  0  0  0  0  0
   -1.9725    6.0915   -0.3834 H   0  0  0  0  0  0  0  0  0  0  0  0
   -2.5475    4.9304    0.8254 H   0  0  0  0  0  0  0  0  0  0  0  0
    1.0577   -0.9975   -1.2270 H   0  0  0  0  0  0  0  0  0  0  0  0
    3.4151    0.8203   -0.4692 H   0  0  0  0  0  0  0  0  0  0  0  0
    2.2824    0.9928   -1.8963 H   0  0  0  0  0  0  0  0  0  0  0  0
    4.1729   -0.1726   -2.5401 H   0  0  0  0  0  0  0  0  0  0  0  0
    2.7458   -1.3515   -2.4100 H   0  0  0  0  0  0  0  0  0  0  0  0
    4.2775   -2.6803   -1.2666 H   0  0  0  0  0  0  0  0  0  0  0  0
    5.7404    0.6635    0.2159 H   0  0  0  0  0  0  0  0  0  0  0  0
    6.4700   -0.8056    0.9635 H   0  0  0  0  0  0  0  0  0  0  0  0
    3.9139   -2.5393    0.9609 H   0  0  0  0  0  0  0  0  0  0  0  0
    1.7227   -2.4123    0.3475 H   0  0  0  0  0  0  0  0  0  0  0  0
    1.9438   -1.1196    1.5959 H   0  0  0  0  0  0  0  0  0  0  0  0
  1  2  1  0
  2  3  1  0
  3  4  1  0
  4  5  1  0
  5  6  1  0
  6  7  1  0
  4  8  1  0
  7  8  1  0
  1  9  1  0
  8  9  1  0
  6 10  1  0
 10 11  1  0
 11 12  1  0
 12 13  1  0
 12 14  1  0
 14 15  1  0
 15 16  1  0
 16 17  1  0
 11 18  1  0
 16 18  1  0
  5 19  1  0
 18 19  1  0
 15 20  1  0
 10 21  1  0
 21 22  1  0
 22 23  1  0
 23 24  1  0
 24 25  1  0
 25 26  1  0
 26 27  1  0
 24 28  1  0
 27 28  1  0
 21 29  1  0
 28 29  1  0
 30 31  1  0
 31 32  1  0
 32 33  1  0
 33 34  1  0
 34 35  1  0
 35 36  1  0
 33 37  1  0
 36 37  1  0
 30 38  1  0
 37 38  1  0
 35 39  1  0
 39 40  1  0
 40 41  1  0
 41 42  1  0
 41 43  1  0
 43 44  1  0
 44 45  1  0
 45 46  1  0
 40 47  1  0
 45 47  1  0
 34 48  1  0
 47 48  1  0
 44 49  1  0
 39 50  1  0
 50 51  1  0
 51 52  1  0
 52 53  1  0
 53 54  1  0
 54 55  1  0
 55 56  1  0
 53 57  1  0
 56 57  1  0
 50 58  1  0
 57 58  1  0
  1 59  1  0
  1 60  1  0
  2 61  1  0
  2 62  1  0
  3 63  1  0
  3 64  1  0
  4 65  1  0
  5 66  1  0
  6 67  1  0
  7 68  1  0
  8 69  1  0
  9 70  1  0
  9 71  1  0
 10 72  1  1
 12 73  1  0
 13 74  1  0
 14 75  1  0
 14 76  1  0
 16 77  1  0
 17 78  1  0
 18 79  1  1
 19 80  1  0
 19 81  1  0
 20 82  1  0
 20 83  1  0
 20 84  1  0
 21 85  1  0
 22 86  1  0
 22 87  1  0
 23 88  1  0
 23 89  1  0
 24 90  1  0
 26 91  1  0
 26 92  1  0
 28 93  1  0
 29 94  1  0
 29 95  1  0
 30 96  1  0
 30 97  1  0
 31 98  1  0
 31 99  1  0
 32100  1  0
 32101  1  0
 33102  1  0
 34103  1  0
 35104  1  0
 36105  1  0
 37106  1  0
 38107  1  0
 38108  1  0
 39109  1  1
 41110  1  0
 42111  1  0
 43112  1  0
 43113  1  0
 45114  1  0
 46115  1  0
 47116  1  1
 48117  1  0
 48118  1  0
 49119  1  0
 49120  1  0
 49121  1  0
 50122  1  0
 51123  1  0
 51124  1  0
 52125  1  0
 52126  1  0
 53127  1  0
 55128  1  0
 55129  1  0
 57130  1  0
 58131  1  0
 58132  1  0
M  END
>  <PDBID>  (1) 
1UDU

>  <PDB ID>  (1) 
1UDU

>  <Generic Name>  (1) 
Tadalafil

>  <Brand Name>  (1) 
Act Tadalafil#Adcirca#Apo-tadalafil#Apo-tadalafil Pah#Auro-tadalafil#Cialis#Dom-tadalafil#Ipg-tadalafil#Jamp-tadalafil#Mar-tadalafil#Mint-tadalafil#Mylan-tadalafil#PMS-tadalafil#Priva-tadalafil#Ran-tadalafil#Riva-tadalafil#Tadalafil#Teva-tadalafil

>  <DrugBank ID>  (1) 
DB00820

>  <ATC Codes>  (1) 
G04BE08

>  <Ligand ID>  (1) 
CIA

>  <Target Name>  (1) 
cGMP-specific 3',5'-cyclic phosphodiesterase

>  <UniProt ID>  (1) 
O76074

>  <PDB ID.1>  (1) 
1UDU

>  <Seq. Identity>  (1) 
94%

$$$$
