PDB_DB00176_09
     RDKit          3D

 51 51  0  0  0  0  0  0  0  0999 V2000
    6.5842   -0.4078    0.0509 C   0  0  0  0  0  0  0  0  0  0  0  0
    5.2949   -0.1548    0.5170 O   0  0  0  0  0  0  0  0  0  0  0  0
    4.4210   -0.8305   -0.3166 C   0  0  0  0  0  0  0  0  0  0  0  0
    2.9679   -0.6181    0.1100 C   0  0  0  0  0  0  0  0  0  0  0  0
    2.5699    0.7939    0.0854 C   0  0  0  0  0  0  0  0  0  0  0  0
    1.1869    1.0708    0.5219 C   0  0  0  0  0  0  0  0  0  0  0  0
    0.0066    0.6170   -0.1825 C   0  0  0  0  0  0  0  0  0  0  0  0
   -1.2082    1.1005    0.5379 N   0  0  0  0  0  0  0  0  0  0  0  0
   -1.1772    2.4606    0.5469 O   0  0  0  0  0  0  0  0  0  0  0  0
   -2.3946    2.9102    0.0975 C   0  0  0  0  0  0  0  0  0  0  0  0
   -2.3537    4.4442    0.1098 C   0  0  0  0  0  0  0  0  0  0  0  0
   -3.6674    4.8666   -0.3750 N   0  0  0  0  0  0  0  0  0  0  0  0
   -0.2698   -0.7737   -0.5564 C   0  0  0  0  0  0  0  0  0  0  0  0
   -1.6699   -0.7196   -1.2697 C   0  0  0  0  0  0  0  0  0  0  0  0
   -2.7125   -1.2814   -0.3318 C   0  0  0  0  0  0  0  0  0  0  0  0
   -2.4799   -2.7850   -0.2696 C   0  0  0  0  0  0  0  0  0  0  0  0
   -1.0978   -3.0045    0.2523 C   0  0  0  0  0  0  0  0  0  0  0  0
   -0.3549   -1.7267    0.5885 C   0  0  0  0  0  0  0  0  0  0  0  0
   -3.4925   -3.4645    0.6230 C   0  0  0  0  0  0  0  0  0  0  0  0
   -4.7751   -3.2875    0.2050 F   0  0  0  0  0  0  0  0  0  0  0  0
   -3.3390   -2.9435    1.9033 F   0  0  0  0  0  0  0  0  0  0  0  0
   -3.1456   -4.8011    0.6821 F   0  0  0  0  0  0  0  0  0  0  0  0
    6.6453   -0.0314   -0.9951 H   0  0  0  0  0  0  0  0  0  0  0  0
    6.7283   -1.5161   -0.0033 H   0  0  0  0  0  0  0  0  0  0  0  0
    7.3624    0.0887    0.6369 H   0  0  0  0  0  0  0  0  0  0  0  0
    4.6191   -1.9166   -0.2050 H   0  0  0  0  0  0  0  0  0  0  0  0
    4.5763   -0.5539   -1.3696 H   0  0  0  0  0  0  0  0  0  0  0  0
    2.8902   -1.0322    1.1570 H   0  0  0  0  0  0  0  0  0  0  0  0
    2.3551   -1.2495   -0.5285 H   0  0  0  0  0  0  0  0  0  0  0  0
    3.3223    1.4043    0.6842 H   0  0  0  0  0  0  0  0  0  0  0  0
    2.7381    1.2422   -0.9595 H   0  0  0  0  0  0  0  0  0  0  0  0
    1.0678    0.8223    1.6414 H   0  0  0  0  0  0  0  0  0  0  0  0
    1.1109    2.2199    0.5951 H   0  0  0  0  0  0  0  0  0  0  0  0
   -0.0707    1.2281   -1.1548 H   0  0  0  0  0  0  0  0  0  0  0  0
   -1.1289    0.8267    1.5458 H   0  0  0  0  0  0  0  0  0  0  0  0
   -2.5526    2.5367   -0.9478 H   0  0  0  0  0  0  0  0  0  0  0  0
   -3.2632    2.5523    0.6780 H   0  0  0  0  0  0  0  0  0  0  0  0
   -2.1753    4.7471    1.1537 H   0  0  0  0  0  0  0  0  0  0  0  0
   -1.6022    4.8194   -0.6004 H   0  0  0  0  0  0  0  0  0  0  0  0
   -3.9195    4.2007   -1.1529 H   0  0  0  0  0  0  0  0  0  0  0  0
   -3.6795    5.8611   -0.6696 H   0  0  0  0  0  0  0  0  0  0  0  0
    0.4019   -1.1140   -1.3529 H   0  0  0  0  0  0  0  0  0  0  0  0
   -1.6448   -1.3907   -2.1483 H   0  0  0  0  0  0  0  0  0  0  0  0
   -1.8822    0.2851   -1.6294 H   0  0  0  0  0  0  0  0  0  0  0  0
   -3.6947   -1.0482   -0.7969 H   0  0  0  0  0  0  0  0  0  0  0  0
   -2.6248   -0.8038    0.6591 H   0  0  0  0  0  0  0  0  0  0  0  0
   -2.5990   -3.1554   -1.3180 H   0  0  0  0  0  0  0  0  0  0  0  0
   -1.1469   -3.5862    1.2152 H   0  0  0  0  0  0  0  0  0  0  0  0
   -0.5406   -3.5990   -0.4923 H   0  0  0  0  0  0  0  0  0  0  0  0
    0.6406   -2.0474    0.9074 H   0  0  0  0  0  0  0  0  0  0  0  0
   -0.8264   -1.2553    1.4785 H   0  0  0  0  0  0  0  0  0  0  0  0
  1  2  1  0
  2  3  1  0
  3  4  1  0
  4  5  1  0
  5  6  1  0
  6  7  1  0
  7  8  1  0
  8  9  1  0
  9 10  1  0
 10 11  1  0
 11 12  1  0
  7 13  1  0
 13 14  1  0
 14 15  1  0
 15 16  1  0
 16 17  1  0
 13 18  1  0
 17 18  1  0
 16 19  1  0
 19 20  1  0
 19 21  1  0
 19 22  1  0
  1 23  1  0
  1 24  1  0
  1 25  1  0
  3 26  1  0
  3 27  1  0
  4 28  1  0
  4 29  1  0
  5 30  1  0
  5 31  1  0
  6 32  1  0
  6 33  1  0
  7 34  1  0
  8 35  1  0
 10 36  1  0
 10 37  1  0
 11 38  1  0
 11 39  1  0
 12 40  1  0
 12 41  1  0
 13 42  1  0
 14 43  1  0
 14 44  1  0
 15 45  1  0
 15 46  1  0
 16 47  1  0
 17 48  1  0
 17 49  1  0
 18 50  1  0
 18 51  1  0
M  END
>  <PDBID>  (1) 
6AWP

>  <PDB ID>  (1) 
6AWP

>  <Generic Name>  (1) 
Fluvoxamine

>  <Brand Name>  (1) 
Act Fluvoxamine#Apo-fluvoxamine Tablets#Ava-fluvoxamine#Bci Fluvoxamine Tablets#Dom-fluvoxamine#Fluvoxamine Maleate#Fluvoxamine Maleate Extended-release#Fluvoxamine Tablets#Fluvoxamine-100#Fluvoxamine-50#Gen-fluvoxamine 100mg#Gen-fluvoxamine 50mg#Luvox#Luvox CR#Novo-fluvoxamine#Nu-fluvoxamine 100 Mg Tab#Nu-fluvoxamine 50 Mg Tab#PHL-fluvoxamine#PMS-fluvoxamine#Ratio-fluvoxamine#Riva-fluvox#Riva-fluvox 100mg Tablets#Riva-fluvox 50mg Tablets#Sandoz Fluvoxamine#Dumirox#Faverin#Fevarin#Floxyfral#Maveral

>  <DrugBank ID>  (1) 
DB00176

>  <ATC Codes>  (1) 
N06AB08

>  <Ligand ID>  (1) 
FVX

>  <Target Name>  (1) 
Sodium-dependent serotonin transporter

>  <UniProt ID>  (1) 
P31645

>  <PDB ID.1>  (1) 
6AWP

>  <Seq. Identity>  (1) 
99%

$$$$
