PDB_DB04787_05
     RDKit          3D

104108  0  0  0  0  0  0  0  0999 V2000
    2.4181    1.8096    1.7506 C   0  0  0  0  0  0  0  0  0  0  0  0
    2.9251    1.2724    0.4285 C   0  0  0  0  0  0  0  0  0  0  0  0
    2.0466    0.1951   -0.1328 C   0  0  2  0  0  0  0  0  0  0  0  0
    0.5939    0.4511    0.2193 C   0  0  0  0  0  0  0  0  0  0  0  0
   -0.2425   -0.4498   -0.6372 C   0  0  1  0  0  0  0  0  0  0  0  0
    0.4583   -1.6563   -1.1397 C   0  0  0  0  0  0  0  0  0  0  0  0
    1.5622   -2.1782   -0.3085 C   0  0  0  0  0  0  0  0  0  0  0  0
    2.3534   -1.1732    0.4428 C   0  0  0  0  0  0  0  0  0  0  0  0
    3.7749   -1.4184    0.4438 N   0  0  0  0  0  0  0  0  0  0  0  0
    4.5592   -0.3086    0.0005 C   0  0  0  0  0  0  0  0  0  0  0  0
    4.5624   -0.2284   -1.8020 S   0  0  0  0  0  0  0  0  0  0  0  0
    4.2272    0.8959    0.5887 O   0  0  0  0  0  0  0  0  0  0  0  0
   -1.5546   -0.8254    0.0626 C   0  0  2  0  0  0  0  0  0  0  0  0
   -2.3538   -1.7279   -0.8397 C   0  0  0  0  0  0  0  0  0  0  0  0
   -3.7696   -1.1680   -0.7795 C   0  0  0  0  0  0  0  0  0  0  0  0
   -3.5141    0.2890   -0.4881 C   0  0  0  0  0  0  0  0  0  0  0  0
   -2.3630    0.3229    0.3465 N   0  0  0  0  0  0  0  0  0  0  0  0
   -2.7073    0.2583    1.7736 C   0  0  0  0  0  0  0  0  0  0  0  0
   -4.7429    0.9048    0.1113 C   0  0  0  0  0  0  0  0  0  0  0  0
   -4.6147    2.2879    0.4287 N   0  0  0  0  0  0  0  0  0  0  0  0
    2.8661    2.4469   -0.5558 C   0  0  0  0  0  0  0  0  0  0  0  0
    2.7124    2.4512    1.2549 C   0  0  0  0  0  0  0  0  0  0  0  0
    2.8484    1.2316    0.3191 C   0  0  0  0  0  0  0  0  0  0  0  0
    1.8857    0.2004    0.8548 C   0  0  0  0  0  0  0  0  0  0  0  0
    0.4693    0.4837    0.5594 C   0  0  0  0  0  0  0  0  0  0  0  0
   -0.2237   -0.3453   -0.4364 C   0  0  1  0  0  0  0  0  0  0  0  0
    0.4725   -1.5651   -0.9229 C   0  0  0  0  0  0  0  0  0  0  0  0
    1.9609   -1.5223   -0.8613 C   0  0  0  0  0  0  0  0  0  0  0  0
    2.3284   -1.2168    0.5406 C   0  0  0  0  0  0  0  0  0  0  0  0
    3.6806   -1.3730    0.8958 N   0  0  0  0  0  0  0  0  0  0  0  0
    4.5318   -0.3924    0.3005 C   0  0  0  0  0  0  0  0  0  0  0  0
    4.8713   -0.9479   -1.4158 S   0  0  0  0  0  0  0  0  0  0  0  0
    4.1535    0.8872    0.3869 O   0  0  0  0  0  0  0  0  0  0  0  0
   -1.5899   -0.8358    0.0821 C   0  0  2  0  0  0  0  0  0  0  0  0
   -2.2985   -1.6762   -0.9208 C   0  0  0  0  0  0  0  0  0  0  0  0
   -3.6890   -1.0812   -0.9965 C   0  0  0  0  0  0  0  0  0  0  0  0
   -3.4405    0.3393   -0.5471 C   0  0  0  0  0  0  0  0  0  0  0  0
   -2.4338    0.2548    0.4592 N   0  0  0  0  0  0  0  0  0  0  0  0
   -2.9596   -0.0241    1.7832 C   0  0  0  0  0  0  0  0  0  0  0  0
   -4.7312    0.9611   -0.0733 C   0  0  0  0  0  0  0  0  0  0  0  0
   -4.5506    2.3082    0.3638 N   0  0  0  0  0  0  0  0  0  0  0  0
    2.5300    1.7251   -1.0498 C   0  0  0  0  0  0  0  0  0  0  0  0
    3.1658    2.5900    2.0662 H   0  0  0  0  0  0  0  0  0  0  0  0
    2.3785    1.0211    2.5224 H   0  0  0  0  0  0  0  0  0  0  0  0
    1.4508    2.3244    1.6586 H   0  0  0  0  0  0  0  0  0  0  0  0
    2.1135    0.1990   -1.2299 H   0  0  0  0  0  0  0  0  0  0  0  0
    0.4689    0.1216    1.2824 H   0  0  0  0  0  0  0  0  0  0  0  0
    0.3176    1.5076    0.1718 H   0  0  0  0  0  0  0  0  0  0  0  0
   -0.5619    0.1548   -1.5268 H   0  0  0  0  0  0  0  0  0  0  0  0
    0.8304   -1.4914   -2.1890 H   0  0  0  0  0  0  0  0  0  0  0  0
   -0.3077   -2.4804   -1.2479 H   0  0  0  0  0  0  0  0  0  0  0  0
    1.2036   -2.9792    0.4019 H   0  0  0  0  0  0  0  0  0  0  0  0
    2.2778   -2.7318   -0.9853 H   0  0  0  0  0  0  0  0  0  0  0  0
    2.0263   -1.1969    1.5104 H   0  0  0  0  0  0  0  0  0  0  0  0
    4.0228   -2.2424   -0.1347 H   0  0  0  0  0  0  0  0  0  0  0  0
    5.6249   -0.5224    0.3098 H   0  0  0  0  0  0  0  0  0  0  0  0
    4.8955   -1.5055   -2.2916 H   0  0  0  0  0  0  0  0  0  0  0  0
   -1.2743   -1.3972    0.9829 H   0  0  0  0  0  0  0  0  0  0  0  0
   -2.3282   -2.7926   -0.5162 H   0  0  0  0  0  0  0  0  0  0  0  0
   -2.0302   -1.6165   -1.9153 H   0  0  0  0  0  0  0  0  0  0  0  0
   -4.3313   -1.5761    0.0872 H   0  0  0  0  0  0  0  0  0  0  0  0
   -4.3018   -1.2726   -1.7391 H   0  0  0  0  0  0  0  0  0  0  0  0
   -3.2804    0.7826   -1.4455 H   0  0  0  0  0  0  0  0  0  0  0  0
   -1.8078   -0.0703    2.3595 H   0  0  0  0  0  0  0  0  0  0  0  0
   -2.9892    1.2452    2.1737 H   0  0  0  0  0  0  0  0  0  0  0  0
   -3.4707   -0.5299    1.9562 H   0  0  0  0  0  0  0  0  0  0  0  0
   -5.5773    0.7899   -0.6116 H   0  0  0  0  0  0  0  0  0  0  0  0
   -5.0610    0.3428    1.0232 H   0  0  0  0  0  0  0  0  0  0  0  0
   -3.6931    2.7093    0.1886 H   0  0  0  0  0  0  0  0  0  0  0  0
   -4.8723    2.5246    1.4142 H   0  0  0  0  0  0  0  0  0  0  0  0
    2.8572    1.9832   -1.5642 H   0  0  0  0  0  0  0  0  0  0  0  0
    1.9686    3.0534   -0.3449 H   0  0  0  0  0  0  0  0  0  0  0  0
    3.8001    3.0560   -0.5046 H   0  0  0  0  0  0  0  0  0  0  0  0
    3.2349    3.3245    0.8306 H   0  0  0  0  0  0  0  0  0  0  0  0
    3.2654    2.1509    2.1787 H   0  0  0  0  0  0  0  0  0  0  0  0
    1.6721    2.6156    1.5273 H   0  0  0  0  0  0  0  0  0  0  0  0
    2.0188    0.2469    1.9822 H   0  0  0  0  0  0  0  0  0  0  0  0
   -0.1609    0.4928    1.5017 H   0  0  0  0  0  0  0  0  0  0  0  0
    0.4074    1.5628    0.2218 H   0  0  0  0  0  0  0  0  0  0  0  0
   -0.5077    0.2486   -1.3581 H   0  0  0  0  0  0  0  0  0  0  0  0
    0.1697   -1.8090   -1.9821 H   0  0  0  0  0  0  0  0  0  0  0  0
    0.1443   -2.4687   -0.3377 H   0  0  0  0  0  0  0  0  0  0  0  0
    2.3395   -2.5273   -1.1485 H   0  0  0  0  0  0  0  0  0  0  0  0
    2.3293   -0.8189   -1.6120 H   0  0  0  0  0  0  0  0  0  0  0  0
    1.7044   -1.8829    1.2058 H   0  0  0  0  0  0  0  0  0  0  0  0
    4.0579   -2.3068    0.7018 H   0  0  0  0  0  0  0  0  0  0  0  0
    5.5318   -0.4982    0.8172 H   0  0  0  0  0  0  0  0  0  0  0  0
    5.1896   -2.3366   -1.3337 H   0  0  0  0  0  0  0  0  0  0  0  0
   -1.3361   -1.4805    0.9610 H   0  0  0  0  0  0  0  0  0  0  0  0
   -2.3541   -2.7473   -0.6062 H   0  0  0  0  0  0  0  0  0  0  0  0
   -1.8592   -1.6070   -1.9179 H   0  0  0  0  0  0  0  0  0  0  0  0
   -4.4018   -1.5571   -0.3052 H   0  0  0  0  0  0  0  0  0  0  0  0
   -4.0707   -1.1288   -2.0441 H   0  0  0  0  0  0  0  0  0  0  0  0
   -3.0213    0.8887   -1.4149 H   0  0  0  0  0  0  0  0  0  0  0  0
   -2.1517   -0.4848    2.4193 H   0  0  0  0  0  0  0  0  0  0  0  0
   -3.7439   -0.7788    1.6951 H   0  0  0  0  0  0  0  0  0  0  0  0
   -3.2632    0.8923    2.3220 H   0  0  0  0  0  0  0  0  0  0  0  0
   -5.4474    0.9089   -0.9297 H   0  0  0  0  0  0  0  0  0  0  0  0
   -5.1543    0.3392    0.7318 H   0  0  0  0  0  0  0  0  0  0  0  0
   -3.6402    2.7269    0.1661 H   0  0  0  0  0  0  0  0  0  0  0  0
   -4.9412    2.5045    1.3085 H   0  0  0  0  0  0  0  0  0  0  0  0
    3.3001    1.3678   -1.7963 H   0  0  0  0  0  0  0  0  0  0  0  0
    2.5967    2.8507   -1.1314 H   0  0  0  0  0  0  0  0  0  0  0  0
    1.5640    1.4490   -1.4529 H   0  0  0  0  0  0  0  0  0  0  0  0
  2  1  1  0
  2  3  1  0
  3  4  1  0
  4  5  1  0
  5  6  1  0
  6  7  1  0
  3  8  1  0
  7  8  1  0
  8  9  1  0
  9 10  1  0
 10 11  1  0
  2 12  1  0
 10 12  1  0
  5 13  1  0
 13 14  1  0
 14 15  1  0
 15 16  1  0
 13 17  1  0
 16 17  1  0
 17 18  1  0
 16 19  1  0
 19 20  1  0
  2 21  1  0
 23 22  1  0
 23 24  1  0
 24 25  1  0
 25 26  1  0
 26 27  1  0
 27 28  1  0
 24 29  1  0
 28 29  1  0
 29 30  1  0
 30 31  1  0
 31 32  1  0
 23 33  1  0
 31 33  1  0
 26 34  1  0
 34 35  1  0
 35 36  1  0
 36 37  1  0
 34 38  1  0
 37 38  1  0
 38 39  1  0
 37 40  1  0
 40 41  1  0
 23 42  1  0
  1 43  1  0
  1 44  1  0
  1 45  1  0
  3 46  1  6
  4 47  1  0
  4 48  1  0
  5 49  1  6
  6 50  1  0
  6 51  1  0
  7 52  1  0
  7 53  1  0
  8 54  1  0
  9 55  1  0
 10 56  1  0
 11 57  1  0
 13 58  1  1
 14 59  1  0
 14 60  1  0
 15 61  1  0
 15 62  1  0
 16 63  1  0
 18 64  1  0
 18 65  1  0
 18 66  1  0
 19 67  1  0
 19 68  1  0
 20 69  1  0
 20 70  1  0
 21 71  1  0
 21 72  1  0
 21 73  1  0
 22 74  1  0
 22 75  1  0
 22 76  1  0
 24 77  1  0
 25 78  1  0
 25 79  1  0
 26 80  1  6
 27 81  1  0
 27 82  1  0
 28 83  1  0
 28 84  1  0
 29 85  1  0
 30 86  1  0
 31 87  1  0
 32 88  1  0
 34 89  1  1
 35 90  1  0
 35 91  1  0
 36 92  1  0
 36 93  1  0
 37 94  1  0
 39 95  1  0
 39 96  1  0
 39 97  1  0
 40 98  1  0
 40 99  1  0
 41100  1  0
 41101  1  0
 42102  1  0
 42103  1  0
 42104  1  0
M  END
>  <PDBID>  (1) 
1ZUC

>  <PDB ID>  (1) 
1ZUC

>  <Generic Name>  (1) 
Tanaproget

>  <Brand Name>  (1) 
nan

>  <DrugBank ID>  (1) 
DB04787

>  <ATC Codes>  (1) 
nan

>  <Ligand ID>  (1) 
T98

>  <Target Name>  (1) 
Progesterone receptor

>  <UniProt ID>  (1) 
P06401

>  <PDB ID.1>  (1) 
1ZUC

>  <Seq. Identity>  (1) 
97%

$$$$
