PDB_DB00877_05
     RDKit          3D

162165  0  0  0  0  0  0  0  0999 V2000
    1.9507    1.6883    0.1087 C   0  0  0  0  0  0  0  0  0  0  0  0
    2.6782    0.7487   -0.5789 O   0  0  0  0  0  0  0  0  0  0  0  0
    0.6599    1.1959    0.2985 O   0  0  0  0  0  0  0  0  0  0  0  0
    1.9198    3.0333   -0.6182 C   0  0  2  0  0  0  0  0  0  0  0  0
    3.3094    3.3580   -1.0927 C   0  0  0  0  0  0  0  0  0  0  0  0
    4.1826    3.7337    0.0827 C   0  0  0  0  0  0  0  0  0  0  0  0
    3.5092    4.8451    0.8271 C   0  0  0  0  0  0  0  0  0  0  0  0
    2.1677    5.2320    0.1915 C   0  0  0  0  0  0  0  0  0  0  0  0
    1.3396    4.0423    0.2219 N   0  0  0  0  0  0  0  0  0  0  0  0
   -0.0154    4.3144   -0.2141 C   0  0  2  0  0  0  0  0  0  0  0  0
    0.0189    4.9858   -1.4113 O   0  0  0  0  0  0  0  0  0  0  0  0
   -0.7460    5.0130    0.8846 C   0  0  0  0  0  0  0  0  0  0  0  0
   -0.9539    4.0893    1.9106 O   0  0  0  0  0  0  0  0  0  0  0  0
   -2.0948    5.5460    0.4902 C   0  0  1  0  0  0  0  0  0  0  0  0
   -2.8032    4.5721   -0.2093 O   0  0  0  0  0  0  0  0  0  0  0  0
   -2.7716    5.8336    1.6986 O   0  0  0  0  0  0  0  0  0  0  0  0
   -1.8980    6.8102   -0.3041 C   0  0  1  0  0  0  0  0  0  0  0  0
   -2.7329    6.7296   -1.5569 C   0  0  0  0  0  0  0  0  0  0  0  0
   -4.1152    6.1669   -1.3077 C   0  0  0  0  0  0  0  0  0  0  0  0
   -4.1227    4.9756   -0.4081 C   0  0  1  0  0  0  0  0  0  0  0  0
   -4.9081    3.8081   -0.9265 C   0  0  0  0  0  0  0  0  0  0  0  0
   -6.3760    3.8859   -0.6399 C   0  0  2  0  0  0  0  0  0  0  0  0
   -6.6942    4.8099    0.3489 O   0  0  0  0  0  0  0  0  0  0  0  0
   -6.9770    2.5660   -0.2150 C   0  0  0  0  0  0  0  0  0  0  0  0
   -6.0865    1.3904   -0.4458 C   0  0  0  0  0  0  0  0  0  0  0  0
   -6.9709    0.1417   -0.4160 C   0  0  0  0  0  0  0  0  0  0  0  0
   -6.7056   -0.7076    0.7964 C   0  0  0  0  0  0  0  0  0  0  0  0
   -5.5244   -1.6355    0.5912 C   0  0  0  0  0  0  0  0  0  0  0  0
   -5.9597   -2.7697   -0.3295 C   0  0  0  0  0  0  0  0  0  0  0  0
   -5.3267   -4.0472    0.1670 C   0  0  2  0  0  0  0  0  0  0  0  0
   -4.4274   -4.5660   -0.9122 C   0  0  0  0  0  0  0  0  0  0  0  0
   -3.6921   -5.8286   -0.5270 C   0  0  2  0  0  0  0  0  0  0  0  0
   -2.2191   -5.5058   -0.5585 C   0  0  0  0  0  0  0  0  0  0  0  0
   -2.0980   -4.1824   -0.0875 O   0  0  0  0  0  0  0  0  0  0  0  0
   -1.3970   -6.4646    0.2323 C   0  0  2  0  0  0  0  0  0  0  0  0
   -2.0163   -6.9912    1.3372 O   0  0  0  0  0  0  0  0  0  0  0  0
   -0.0355   -5.8492    0.5848 C   0  0  2  0  0  0  0  0  0  0  0  0
   -0.2023   -4.7848    1.4316 O   0  0  0  0  0  0  0  0  0  0  0  0
    0.8131   -5.6003   -0.6082 C   0  0  0  0  0  0  0  0  0  0  0  0
    1.2717   -4.2150   -0.8128 C   0  0  0  0  0  0  0  0  0  0  0  0
    2.0649   -3.5632    0.2498 C   0  0  2  0  0  0  0  0  0  0  0  0
    2.6226   -2.2757   -0.3854 C   0  0  0  0  0  0  0  0  0  0  0  0
    1.5349   -1.7640   -1.1307 O   0  0  0  0  0  0  0  0  0  0  0  0
    2.9187   -1.2902    0.6856 C   0  0  0  0  0  0  0  0  0  0  0  0
    3.5232   -0.0099    0.2497 C   0  0  1  0  0  0  0  0  0  0  0  0
    4.8582   -0.0673   -0.3928 C   0  0  1  0  0  0  0  0  0  0  0  0
    5.8725   -0.8600    0.3891 C   0  0  0  0  0  0  0  0  0  0  0  0
    7.2057   -0.9131   -0.2595 C   0  0  1  0  0  0  0  0  0  0  0  0
    7.8783    0.3893   -0.4833 C   0  0  0  0  0  0  0  0  0  0  0  0
    9.3023    0.4208    0.0726 C   0  0  1  0  0  0  0  0  0  0  0  0
    9.3174    0.5157    1.4419 O   0  0  0  0  0  0  0  0  0  0  0  0
   10.1067   -0.7512   -0.4461 C   0  0  2  0  0  0  0  0  0  0  0  0
   10.3634   -0.5034   -1.8015 O   0  0  0  0  0  0  0  0  0  0  0  0
    9.3666   -2.0352   -0.2208 C   0  0  0  0  0  0  0  0  0  0  0  0
    8.0967   -1.8562    0.5502 C   0  0  0  0  0  0  0  0  0  0  0  0
   -2.3595    8.0347    0.4591 C   0  0  0  0  0  0  0  0  0  0  0  0
   -7.3778    2.5855    1.2492 C   0  0  0  0  0  0  0  0  0  0  0  0
   -6.4455   -5.0197    0.4881 C   0  0  0  0  0  0  0  0  0  0  0  0
   -4.0655   -6.9448   -1.4547 C   0  0  0  0  0  0  0  0  0  0  0  0
    1.9340   -6.6402   -0.7389 C   0  0  0  0  0  0  0  0  0  0  0  0
    3.2373   -4.3372    0.7438 C   0  0  0  0  0  0  0  0  0  0  0  0
    4.7538   -0.4358   -1.8334 C   0  0  0  0  0  0  0  0  0  0  0  0
   -7.5242    5.8263   -0.1603 C   0  0  0  0  0  0  0  0  0  0  0  0
   -2.1480   -8.3574    1.3385 C   0  0  0  0  0  0  0  0  0  0  0  0
    9.9019    1.6938    1.8933 C   0  0  0  0  0  0  0  0  0  0  0  0
   -3.4057    6.5641    1.6081 H   0  0  0  0  0  0  0  0  0  0  0  0
    0.1784   -4.9343    2.3514 H   0  0  0  0  0  0  0  0  0  0  0  0
    9.8066   -1.1163   -2.3515 H   0  0  0  0  0  0  0  0  0  0  0  0
    2.4056    1.8465    1.1107 H   0  0  0  0  0  0  0  0  0  0  0  0
    0.2367    1.0432   -0.5964 H   0  0  0  0  0  0  0  0  0  0  0  0
    1.3071    2.8474   -1.5419 H   0  0  0  0  0  0  0  0  0  0  0  0
    3.3333    4.1842   -1.8134 H   0  0  0  0  0  0  0  0  0  0  0  0
    3.6890    2.4606   -1.6234 H   0  0  0  0  0  0  0  0  0  0  0  0
    5.1706    4.0302   -0.3169 H   0  0  0  0  0  0  0  0  0  0  0  0
    4.3378    2.8863    0.7847 H   0  0  0  0  0  0  0  0  0  0  0  0
    4.1550    5.7518    0.7319 H   0  0  0  0  0  0  0  0  0  0  0  0
    3.3597    4.6519    1.8980 H   0  0  0  0  0  0  0  0  0  0  0  0
    1.7704    6.0444    0.8157 H   0  0  0  0  0  0  0  0  0  0  0  0
    2.3114    5.6410   -0.8201 H   0  0  0  0  0  0  0  0  0  0  0  0
   -0.5004    3.3268   -0.3680 H   0  0  0  0  0  0  0  0  0  0  0  0
    0.8312    4.8006   -1.9468 H   0  0  0  0  0  0  0  0  0  0  0  0
   -0.1879    5.8568    1.3406 H   0  0  0  0  0  0  0  0  0  0  0  0
   -0.1791    4.1046    2.5214 H   0  0  0  0  0  0  0  0  0  0  0  0
   -0.8545    6.9926   -0.5955 H   0  0  0  0  0  0  0  0  0  0  0  0
   -2.8996    7.7662   -1.9714 H   0  0  0  0  0  0  0  0  0  0  0  0
   -2.2764    6.1559   -2.3667 H   0  0  0  0  0  0  0  0  0  0  0  0
   -4.5490    5.9546   -2.3177 H   0  0  0  0  0  0  0  0  0  0  0  0
   -4.7326    7.0127   -0.8966 H   0  0  0  0  0  0  0  0  0  0  0  0
   -4.5983    5.2876    0.5553 H   0  0  0  0  0  0  0  0  0  0  0  0
   -4.4755    2.8944   -0.4236 H   0  0  0  0  0  0  0  0  0  0  0  0
   -4.7508    3.6344   -2.0102 H   0  0  0  0  0  0  0  0  0  0  0  0
   -6.8810    4.2223   -1.5800 H   0  0  0  0  0  0  0  0  0  0  0  0
   -7.9183    2.3893   -0.7842 H   0  0  0  0  0  0  0  0  0  0  0  0
   -5.5148    1.4343   -1.3957 H   0  0  0  0  0  0  0  0  0  0  0  0
   -5.4031    1.2961    0.4341 H   0  0  0  0  0  0  0  0  0  0  0  0
   -6.8049   -0.4833   -1.3112 H   0  0  0  0  0  0  0  0  0  0  0  0
   -8.0502    0.4069   -0.4003 H   0  0  0  0  0  0  0  0  0  0  0  0
   -6.6266   -0.1360    1.7319 H   0  0  0  0  0  0  0  0  0  0  0  0
   -7.5985   -1.3824    0.9164 H   0  0  0  0  0  0  0  0  0  0  0  0
   -5.2639   -2.0631    1.5710 H   0  0  0  0  0  0  0  0  0  0  0  0
   -4.7044   -1.0399    0.1566 H   0  0  0  0  0  0  0  0  0  0  0  0
   -5.5715   -2.4830   -1.3434 H   0  0  0  0  0  0  0  0  0  0  0  0
   -7.0610   -2.8515   -0.3882 H   0  0  0  0  0  0  0  0  0  0  0  0
   -4.7445   -3.8678    1.0942 H   0  0  0  0  0  0  0  0  0  0  0  0
   -3.7487   -3.7488   -1.2276 H   0  0  0  0  0  0  0  0  0  0  0  0
   -5.0769   -4.7677   -1.8139 H   0  0  0  0  0  0  0  0  0  0  0  0
   -4.0110   -6.0899    0.5027 H   0  0  0  0  0  0  0  0  0  0  0  0
   -1.8490   -5.4942   -1.6033 H   0  0  0  0  0  0  0  0  0  0  0  0
   -2.3746   -4.1496    0.8552 H   0  0  0  0  0  0  0  0  0  0  0  0
   -1.1337   -7.3281   -0.4460 H   0  0  0  0  0  0  0  0  0  0  0  0
    0.4746   -6.6586    1.1890 H   0  0  0  0  0  0  0  0  0  0  0  0
    0.1561   -5.8326   -1.5050 H   0  0  0  0  0  0  0  0  0  0  0  0
    1.8978   -4.2083   -1.7537 H   0  0  0  0  0  0  0  0  0  0  0  0
    0.4023   -3.5746   -1.0523 H   0  0  0  0  0  0  0  0  0  0  0  0
    1.4911   -3.2082    1.1271 H   0  0  0  0  0  0  0  0  0  0  0  0
    3.4394   -2.5541   -1.0418 H   0  0  0  0  0  0  0  0  0  0  0  0
    0.8227   -1.4387   -0.5385 H   0  0  0  0  0  0  0  0  0  0  0  0
    3.5108   -1.6863    1.5361 H   0  0  0  0  0  0  0  0  0  0  0  0
    1.9233   -1.0203    1.1534 H   0  0  0  0  0  0  0  0  0  0  0  0
    3.6081    0.6250    1.1873 H   0  0  0  0  0  0  0  0  0  0  0  0
    5.2562    0.9946   -0.3711 H   0  0  0  0  0  0  0  0  0  0  0  0
    5.5306   -1.9023    0.5555 H   0  0  0  0  0  0  0  0  0  0  0  0
    5.9416   -0.3996    1.4006 H   0  0  0  0  0  0  0  0  0  0  0  0
    7.0934   -1.4352   -1.2561 H   0  0  0  0  0  0  0  0  0  0  0  0
    7.9724    0.6180   -1.5693 H   0  0  0  0  0  0  0  0  0  0  0  0
    7.3613    1.2584   -0.0330 H   0  0  0  0  0  0  0  0  0  0  0  0
    9.7734    1.3345   -0.3453 H   0  0  0  0  0  0  0  0  0  0  0  0
   11.0711   -0.7393    0.1081 H   0  0  0  0  0  0  0  0  0  0  0  0
    9.0672   -2.4101   -1.2435 H   0  0  0  0  0  0  0  0  0  0  0  0
   10.0476   -2.7867    0.2285 H   0  0  0  0  0  0  0  0  0  0  0  0
    8.2208   -1.5413    1.5839 H   0  0  0  0  0  0  0  0  0  0  0  0
    7.6016   -2.8663    0.5891 H   0  0  0  0  0  0  0  0  0  0  0  0
   -1.9121    8.9441   -0.0256 H   0  0  0  0  0  0  0  0  0  0  0  0
   -2.0178    8.0542    1.5015 H   0  0  0  0  0  0  0  0  0  0  0  0
   -3.4606    8.1702    0.3517 H   0  0  0  0  0  0  0  0  0  0  0  0
   -6.5611    2.2560    1.9189 H   0  0  0  0  0  0  0  0  0  0  0  0
   -8.2498    1.9207    1.4509 H   0  0  0  0  0  0  0  0  0  0  0  0
   -7.6866    3.5972    1.5866 H   0  0  0  0  0  0  0  0  0  0  0  0
   -6.9068   -5.3932   -0.4339 H   0  0  0  0  0  0  0  0  0  0  0  0
   -7.1509   -4.4886    1.1427 H   0  0  0  0  0  0  0  0  0  0  0  0
   -5.9945   -5.8467    1.0755 H   0  0  0  0  0  0  0  0  0  0  0  0
   -4.7995   -7.6521   -0.9869 H   0  0  0  0  0  0  0  0  0  0  0  0
   -3.1856   -7.4864   -1.8596 H   0  0  0  0  0  0  0  0  0  0  0  0
   -4.5859   -6.5108   -2.3332 H   0  0  0  0  0  0  0  0  0  0  0  0
    2.4143   -6.8613    0.2121 H   0  0  0  0  0  0  0  0  0  0  0  0
    1.4584   -7.6130   -1.0672 H   0  0  0  0  0  0  0  0  0  0  0  0
    2.5992   -6.3484   -1.5549 H   0  0  0  0  0  0  0  0  0  0  0  0
    2.9749   -5.0031    1.6189 H   0  0  0  0  0  0  0  0  0  0  0  0
    3.9827   -3.6268    1.1605 H   0  0  0  0  0  0  0  0  0  0  0  0
    3.7742   -4.9028   -0.0468 H   0  0  0  0  0  0  0  0  0  0  0  0
    3.7051   -0.4708   -2.2003 H   0  0  0  0  0  0  0  0  0  0  0  0
    5.2493    0.3189   -2.5149 H   0  0  0  0  0  0  0  0  0  0  0  0
    5.2414   -1.3932   -2.1025 H   0  0  0  0  0  0  0  0  0  0  0  0
   -8.4771    5.3932   -0.5531 H   0  0  0  0  0  0  0  0  0  0  0  0
   -7.6622    6.6360    0.5537 H   0  0  0  0  0  0  0  0  0  0  0  0
   -7.0017    6.2392   -1.0494 H   0  0  0  0  0  0  0  0  0  0  0  0
   -1.1753   -8.8912    1.2881 H   0  0  0  0  0  0  0  0  0  0  0  0
   -2.6730   -8.6289    2.2954 H   0  0  0  0  0  0  0  0  0  0  0  0
   -2.8357   -8.6595    0.5296 H   0  0  0  0  0  0  0  0  0  0  0  0
   10.9572    1.6803    1.4996 H   0  0  0  0  0  0  0  0  0  0  0  0
    9.9428    1.6935    2.9962 H   0  0  0  0  0  0  0  0  0  0  0  0
    9.3381    2.5446    1.4958 H   0  0  0  0  0  0  0  0  0  0  0  0
  1  2  1  0
  1  3  1  0
  1  4  1  0
  4  5  1  0
  5  6  1  0
  6  7  1  0
  7  8  1  0
  4  9  1  0
  8  9  1  0
  9 10  1  0
 10 11  1  0
 10 12  1  0
 12 13  1  0
 12 14  1  0
 14 15  1  0
 14 16  1  1
 14 17  1  0
 17 18  1  0
 18 19  1  0
 15 20  1  0
 19 20  1  0
 20 21  1  0
 21 22  1  0
 22 23  1  0
 22 24  1  0
 24 25  1  0
 25 26  1  0
 26 27  1  0
 27 28  1  0
 28 29  1  0
 29 30  1  0
 30 31  1  0
 31 32  1  0
 32 33  1  0
 33 34  1  0
 33 35  1  0
 35 36  1  0
 35 37  1  0
 37 38  1  0
 37 39  1  0
 39 40  1  0
 40 41  1  0
 41 42  1  0
 42 43  1  0
 42 44  1  0
  2 45  1  0
 44 45  1  0
 45 46  1  0
 46 47  1  0
 47 48  1  0
 48 49  1  0
 49 50  1  0
 50 51  1  0
 50 52  1  0
 52 53  1  0
 52 54  1  0
 48 55  1  0
 54 55  1  0
 17 56  1  0
 24 57  1  0
 30 58  1  0
 32 59  1  0
 39 60  1  0
 41 61  1  0
 46 62  1  0
 23 63  1  0
 36 64  1  0
 51 65  1  0
 16 66  1  0
 38 67  1  0
 53 68  1  0
  1 69  1  0
  3 70  1  0
  4 71  1  6
  5 72  1  0
  5 73  1  0
  6 74  1  0
  6 75  1  0
  7 76  1  0
  7 77  1  0
  8 78  1  0
  8 79  1  0
 10 80  1  6
 11 81  1  0
 12 82  1  0
 13 83  1  0
 17 84  1  6
 18 85  1  0
 18 86  1  0
 19 87  1  0
 19 88  1  0
 20 89  1  1
 21 90  1  0
 21 91  1  0
 22 92  1  6
 24 93  1  0
 25 94  1  0
 25 95  1  0
 26 96  1  0
 26 97  1  0
 27 98  1  0
 27 99  1  0
 28100  1  0
 28101  1  0
 29102  1  0
 29103  1  0
 30104  1  1
 31105  1  0
 31106  1  0
 32107  1  1
 33108  1  0
 34109  1  0
 35110  1  6
 37111  1  1
 39112  1  0
 40113  1  0
 40114  1  0
 41115  1  1
 42116  1  0
 43117  1  0
 44118  1  0
 44119  1  0
 45120  1  1
 46121  1  6
 47122  1  0
 47123  1  0
 48124  1  6
 49125  1  0
 49126  1  0
 50127  1  6
 52128  1  1
 54129  1  0
 54130  1  0
 55131  1  0
 55132  1  0
 56133  1  0
 56134  1  0
 56135  1  0
 57136  1  0
 57137  1  0
 57138  1  0
 58139  1  0
 58140  1  0
 58141  1  0
 59142  1  0
 59143  1  0
 59144  1  0
 60145  1  0
 60146  1  0
 60147  1  0
 61148  1  0
 61149  1  0
 61150  1  0
 62151  1  0
 62152  1  0
 62153  1  0
 63154  1  0
 63155  1  0
 63156  1  0
 64157  1  0
 64158  1  0
 64159  1  0
 65160  1  0
 65161  1  0
 65162  1  0
M  END
>  <PDBID>  (1) 
1FKB

>  <PDB ID>  (1) 
1FKB

>  <Generic Name>  (1) 
Sirolimus

>  <Brand Name>  (1) 
Gd-sirolimus#Rapamune#Rapamune Oral Solution#Sirolimus

>  <DrugBank ID>  (1) 
DB00877

>  <ATC Codes>  (1) 
S01XA23#L04AA10

>  <Ligand ID>  (1) 
RAP

>  <Target Name>  (1) 
Peptidyl-prolyl cis-trans isomerase FKBP1A

>  <UniProt ID>  (1) 
P62942

>  <PDB ID.1>  (1) 
1FKB

>  <Seq. Identity>  (1) 
100%

$$$$
