PDB_DB08906_07
     RDKit          3D

160168  0  0  0  0  0  0  0  0999 V2000
   -1.6742    2.9756   -0.6920 C   0  0  0  0  0  0  0  0  0  0  0  0
   -1.5084    2.3553    0.6522 C   0  0  2  0  0  0  0  0  0  0  0  0
    0.0219    2.4328    0.9312 C   0  0  0  0  0  0  0  0  0  0  0  0
    0.4068    1.1268    0.3026 C   0  0  1  0  0  0  0  0  0  0  0  0
    1.8207    0.7360    0.4503 C   0  0  2  0  0  0  0  0  0  0  0  0
    2.6281    1.7201   -0.4247 C   0  0  0  0  0  0  0  0  0  0  0  0
    3.9478    1.1690   -0.8355 C   0  0  2  0  0  0  0  0  0  0  0  0
    4.0180    0.8251   -2.1658 F   0  0  0  0  0  0  0  0  0  0  0  0
    4.3453    0.0650    0.0853 C   0  0  0  0  0  0  0  0  0  0  0  0
    5.7883   -0.3271    0.0136 C   0  0  0  0  0  0  0  0  0  0  0  0
    6.1359   -1.4090   -0.9315 C   0  0  0  0  0  0  0  0  0  0  0  0
    7.3090   -2.0373   -0.4476 O   0  0  0  0  0  0  0  0  0  0  0  0
    5.1110   -2.4816   -1.0830 C   0  0  0  0  0  0  0  0  0  0  0  0
    3.7202   -1.9712   -1.2388 C   0  0  0  0  0  0  0  0  0  0  0  0
    3.3937   -1.1192   -0.0084 C   0  0  1  0  0  0  0  0  0  0  0  0
    3.6612   -1.9766    1.1886 C   0  0  0  0  0  0  0  0  0  0  0  0
    1.9919   -0.6507   -0.1670 C   0  0  2  0  0  0  0  0  0  0  0  0
    1.8180   -0.4136   -1.5475 F   0  0  0  0  0  0  0  0  0  0  0  0
    0.9496   -1.6383    0.2034 C   0  0  1  0  0  0  0  0  0  0  0  0
    1.2139   -2.3614    1.3660 O   0  0  0  0  0  0  0  0  0  0  0  0
   -0.4318   -1.1087    0.3104 C   0  0  0  0  0  0  0  0  0  0  0  0
   -0.5243    0.1965    1.0316 C   0  0  1  0  0  0  0  0  0  0  0  0
   -0.1999    0.0288    2.4640 C   0  0  0  0  0  0  0  0  0  0  0  0
   -1.8799    0.9117    0.7727 C   0  0  2  0  0  0  0  0  0  0  0  0
   -2.3554    0.2728   -0.3162 O   0  0  0  0  0  0  0  0  0  0  0  0
   -3.4843    0.6026   -0.9461 C   0  0  0  0  0  0  0  0  0  0  0  0
   -3.1827    0.8569   -2.3083 O   0  0  0  0  0  0  0  0  0  0  0  0
   -4.4800   -0.5811   -1.0326 C   0  0  0  0  0  0  0  0  0  0  0  0
   -5.7097   -0.2214   -1.8134 C   0  0  0  0  0  0  0  0  0  0  0  0
   -6.1607   -1.5651   -2.3296 C   0  0  0  0  0  0  0  0  0  0  0  0
   -5.0082   -2.4659   -1.9297 C   0  0  0  0  0  0  0  0  0  0  0  0
   -3.9123   -1.6210   -1.7216 O   0  0  0  0  0  0  0  0  0  0  0  0
   -2.7487    0.7497    2.0067 C   0  0  0  0  0  0  0  0  0  0  0  0
   -2.8061   -0.6137    2.3727 O   0  0  0  0  0  0  0  0  0  0  0  0
   -4.4055    1.4230    1.8826 S   0  0  0  0  0  0  0  0  0  0  0  0
   -4.5706    3.1761    1.7733 C   0  0  0  0  0  0  0  0  0  0  0  0
   -4.1197    3.8486    2.9037 F   0  0  0  0  0  0  0  0  0  0  0  0
   -1.6742    2.9756   -0.6920 C   0  0  0  0  0  0  0  0  0  0  0  0
   -1.5084    2.3553    0.6522 C   0  0  2  0  0  0  0  0  0  0  0  0
    0.0219    2.4328    0.9312 C   0  0  0  0  0  0  0  0  0  0  0  0
    0.4068    1.1268    0.3026 C   0  0  1  0  0  0  0  0  0  0  0  0
    1.8207    0.7360    0.4503 C   0  0  2  0  0  0  0  0  0  0  0  0
    2.6281    1.7201   -0.4247 C   0  0  0  0  0  0  0  0  0  0  0  0
    3.9478    1.1690   -0.8355 C   0  0  2  0  0  0  0  0  0  0  0  0
    4.0180    0.8251   -2.1658 F   0  0  0  0  0  0  0  0  0  0  0  0
    4.3453    0.0650    0.0853 C   0  0  0  0  0  0  0  0  0  0  0  0
    5.7883   -0.3271    0.0136 C   0  0  0  0  0  0  0  0  0  0  0  0
    6.1359   -1.4090   -0.9315 C   0  0  0  0  0  0  0  0  0  0  0  0
    7.3090   -2.0373   -0.4476 O   0  0  0  0  0  0  0  0  0  0  0  0
    5.1110   -2.4816   -1.0830 C   0  0  0  0  0  0  0  0  0  0  0  0
    3.7202   -1.9712   -1.2388 C   0  0  0  0  0  0  0  0  0  0  0  0
    3.3937   -1.1192   -0.0084 C   0  0  1  0  0  0  0  0  0  0  0  0
    3.6612   -1.9766    1.1886 C   0  0  0  0  0  0  0  0  0  0  0  0
    1.9919   -0.6507   -0.1670 C   0  0  2  0  0  0  0  0  0  0  0  0
    1.8180   -0.4136   -1.5475 F   0  0  0  0  0  0  0  0  0  0  0  0
    0.9496   -1.6383    0.2034 C   0  0  1  0  0  0  0  0  0  0  0  0
    1.2139   -2.3614    1.3660 O   0  0  0  0  0  0  0  0  0  0  0  0
   -0.4318   -1.1087    0.3104 C   0  0  0  0  0  0  0  0  0  0  0  0
   -0.5243    0.1965    1.0316 C   0  0  1  0  0  0  0  0  0  0  0  0
   -0.1999    0.0288    2.4640 C   0  0  0  0  0  0  0  0  0  0  0  0
   -1.8799    0.9117    0.7727 C   0  0  2  0  0  0  0  0  0  0  0  0
   -2.3554    0.2728   -0.3162 O   0  0  0  0  0  0  0  0  0  0  0  0
   -3.4843    0.6026   -0.9461 C   0  0  0  0  0  0  0  0  0  0  0  0
   -3.1827    0.8569   -2.3083 O   0  0  0  0  0  0  0  0  0  0  0  0
   -4.4800   -0.5811   -1.0326 C   0  0  0  0  0  0  0  0  0  0  0  0
   -5.7097   -0.2214   -1.8134 C   0  0  0  0  0  0  0  0  0  0  0  0
   -6.1607   -1.5651   -2.3296 C   0  0  0  0  0  0  0  0  0  0  0  0
   -5.0082   -2.4659   -1.9297 C   0  0  0  0  0  0  0  0  0  0  0  0
   -3.9123   -1.6210   -1.7216 O   0  0  0  0  0  0  0  0  0  0  0  0
   -2.7487    0.7497    2.0067 C   0  0  0  0  0  0  0  0  0  0  0  0
   -2.8061   -0.6137    2.3727 O   0  0  0  0  0  0  0  0  0  0  0  0
   -4.4055    1.4230    1.8826 S   0  0  0  0  0  0  0  0  0  0  0  0
   -4.5706    3.1761    1.7733 C   0  0  0  0  0  0  0  0  0  0  0  0
   -4.1197    3.8486    2.9037 F   0  0  0  0  0  0  0  0  0  0  0  0
   -2.6976    3.2816   -0.9647 H   0  0  0  0  0  0  0  0  0  0  0  0
   -1.1427    2.4620   -1.5132 H   0  0  0  0  0  0  0  0  0  0  0  0
   -1.1212    3.9732   -0.6231 H   0  0  0  0  0  0  0  0  0  0  0  0
   -1.9491    2.9928    1.4437 H   0  0  0  0  0  0  0  0  0  0  0  0
    0.2154    2.5074    2.0046 H   0  0  0  0  0  0  0  0  0  0  0  0
    0.4171    3.2844    0.3811 H   0  0  0  0  0  0  0  0  0  0  0  0
    0.1493    1.1423   -0.7545 H   0  0  0  0  0  0  0  0  0  0  0  0
    2.2566    0.8390    1.4419 H   0  0  0  0  0  0  0  0  0  0  0  0
    2.7079    2.6712    0.1446 H   0  0  0  0  0  0  0  0  0  0  0  0
    2.0483    1.9558   -1.3418 H   0  0  0  0  0  0  0  0  0  0  0  0
    4.7064    1.9900   -0.6972 H   0  0  0  0  0  0  0  0  0  0  0  0
    4.2119    0.4614    1.1366 H   0  0  0  0  0  0  0  0  0  0  0  0
    6.3609    0.5986   -0.2912 H   0  0  0  0  0  0  0  0  0  0  0  0
    6.2106   -0.5636    1.0350 H   0  0  0  0  0  0  0  0  0  0  0  0
    6.4221   -1.0053   -1.9293 H   0  0  0  0  0  0  0  0  0  0  0  0
    7.0470   -2.5386    0.3893 H   0  0  0  0  0  0  0  0  0  0  0  0
    5.1526   -3.2483   -0.2730 H   0  0  0  0  0  0  0  0  0  0  0  0
    5.3702   -3.0508   -2.0206 H   0  0  0  0  0  0  0  0  0  0  0  0
    3.0269   -2.8225   -1.2197 H   0  0  0  0  0  0  0  0  0  0  0  0
    3.5624   -1.4262   -2.1745 H   0  0  0  0  0  0  0  0  0  0  0  0
    4.7873   -1.9983    1.3122 H   0  0  0  0  0  0  0  0  0  0  0  0
    3.2776   -1.5896    2.1334 H   0  0  0  0  0  0  0  0  0  0  0  0
    3.4111   -3.0648    1.0147 H   0  0  0  0  0  0  0  0  0  0  0  0
    0.9353   -2.4190   -0.6172 H   0  0  0  0  0  0  0  0  0  0  0  0
    0.8940   -3.2958    1.2890 H   0  0  0  0  0  0  0  0  0  0  0  0
   -0.9009   -1.0109   -0.6881 H   0  0  0  0  0  0  0  0  0  0  0  0
   -1.0530   -1.8523    0.8692 H   0  0  0  0  0  0  0  0  0  0  0  0
    0.9188   -0.1778    2.4943 H   0  0  0  0  0  0  0  0  0  0  0  0
   -0.6107   -0.9283    2.8534 H   0  0  0  0  0  0  0  0  0  0  0  0
   -0.3118    0.8918    3.1158 H   0  0  0  0  0  0  0  0  0  0  0  0
   -4.0918    1.4314   -0.6073 H   0  0  0  0  0  0  0  0  0  0  0  0
   -3.5355    1.7327   -2.5898 H   0  0  0  0  0  0  0  0  0  0  0  0
   -4.8184   -0.8651   -0.0073 H   0  0  0  0  0  0  0  0  0  0  0  0
   -5.5291    0.5177   -2.6059 H   0  0  0  0  0  0  0  0  0  0  0  0
   -6.4656    0.2097   -1.0996 H   0  0  0  0  0  0  0  0  0  0  0  0
   -7.0998   -1.8744   -1.8296 H   0  0  0  0  0  0  0  0  0  0  0  0
   -6.2253   -1.4995   -3.4160 H   0  0  0  0  0  0  0  0  0  0  0  0
   -4.7761   -3.1718   -2.7279 H   0  0  0  0  0  0  0  0  0  0  0  0
   -5.2468   -3.0077   -1.0004 H   0  0  0  0  0  0  0  0  0  0  0  0
   -2.2547    1.2641    2.8472 H   0  0  0  0  0  0  0  0  0  0  0  0
   -3.6186   -0.7339    2.9145 H   0  0  0  0  0  0  0  0  0  0  0  0
   -5.6654    3.4362    1.6605 H   0  0  0  0  0  0  0  0  0  0  0  0
   -4.0948    3.5918    0.8849 H   0  0  0  0  0  0  0  0  0  0  0  0
   -2.6976    3.2816   -0.9647 H   0  0  0  0  0  0  0  0  0  0  0  0
   -1.1427    2.4620   -1.5132 H   0  0  0  0  0  0  0  0  0  0  0  0
   -1.1212    3.9732   -0.6231 H   0  0  0  0  0  0  0  0  0  0  0  0
   -1.9491    2.9928    1.4437 H   0  0  0  0  0  0  0  0  0  0  0  0
    0.2154    2.5074    2.0046 H   0  0  0  0  0  0  0  0  0  0  0  0
    0.4171    3.2844    0.3811 H   0  0  0  0  0  0  0  0  0  0  0  0
    0.1493    1.1423   -0.7545 H   0  0  0  0  0  0  0  0  0  0  0  0
    2.2566    0.8390    1.4419 H   0  0  0  0  0  0  0  0  0  0  0  0
    2.7079    2.6712    0.1446 H   0  0  0  0  0  0  0  0  0  0  0  0
    2.0483    1.9558   -1.3418 H   0  0  0  0  0  0  0  0  0  0  0  0
    4.7064    1.9900   -0.6972 H   0  0  0  0  0  0  0  0  0  0  0  0
    4.2119    0.4614    1.1366 H   0  0  0  0  0  0  0  0  0  0  0  0
    6.3609    0.5986   -0.2912 H   0  0  0  0  0  0  0  0  0  0  0  0
    6.2106   -0.5636    1.0350 H   0  0  0  0  0  0  0  0  0  0  0  0
    6.4221   -1.0053   -1.9293 H   0  0  0  0  0  0  0  0  0  0  0  0
    7.0470   -2.5386    0.3893 H   0  0  0  0  0  0  0  0  0  0  0  0
    5.1526   -3.2483   -0.2730 H   0  0  0  0  0  0  0  0  0  0  0  0
    5.3702   -3.0508   -2.0206 H   0  0  0  0  0  0  0  0  0  0  0  0
    3.0269   -2.8225   -1.2197 H   0  0  0  0  0  0  0  0  0  0  0  0
    3.5624   -1.4262   -2.1745 H   0  0  0  0  0  0  0  0  0  0  0  0
    4.7873   -1.9983    1.3122 H   0  0  0  0  0  0  0  0  0  0  0  0
    3.2776   -1.5896    2.1334 H   0  0  0  0  0  0  0  0  0  0  0  0
    3.4111   -3.0648    1.0147 H   0  0  0  0  0  0  0  0  0  0  0  0
    0.9353   -2.4190   -0.6172 H   0  0  0  0  0  0  0  0  0  0  0  0
    0.8940   -3.2958    1.2890 H   0  0  0  0  0  0  0  0  0  0  0  0
   -0.9009   -1.0109   -0.6881 H   0  0  0  0  0  0  0  0  0  0  0  0
   -1.0530   -1.8523    0.8692 H   0  0  0  0  0  0  0  0  0  0  0  0
    0.9188   -0.1778    2.4943 H   0  0  0  0  0  0  0  0  0  0  0  0
   -0.6107   -0.9283    2.8534 H   0  0  0  0  0  0  0  0  0  0  0  0
   -0.3118    0.8918    3.1158 H   0  0  0  0  0  0  0  0  0  0  0  0
   -4.0918    1.4314   -0.6073 H   0  0  0  0  0  0  0  0  0  0  0  0
   -3.5355    1.7327   -2.5898 H   0  0  0  0  0  0  0  0  0  0  0  0
   -4.8184   -0.8651   -0.0073 H   0  0  0  0  0  0  0  0  0  0  0  0
   -5.5291    0.5177   -2.6059 H   0  0  0  0  0  0  0  0  0  0  0  0
   -6.4656    0.2097   -1.0996 H   0  0  0  0  0  0  0  0  0  0  0  0
   -7.0998   -1.8744   -1.8296 H   0  0  0  0  0  0  0  0  0  0  0  0
   -6.2253   -1.4995   -3.4160 H   0  0  0  0  0  0  0  0  0  0  0  0
   -4.7761   -3.1718   -2.7279 H   0  0  0  0  0  0  0  0  0  0  0  0
   -5.2468   -3.0077   -1.0004 H   0  0  0  0  0  0  0  0  0  0  0  0
   -2.2547    1.2641    2.8472 H   0  0  0  0  0  0  0  0  0  0  0  0
   -3.6186   -0.7339    2.9145 H   0  0  0  0  0  0  0  0  0  0  0  0
   -5.6654    3.4362    1.6605 H   0  0  0  0  0  0  0  0  0  0  0  0
   -4.0948    3.5918    0.8849 H   0  0  0  0  0  0  0  0  0  0  0  0
  1  2  1  0
  2  3  1  0
  3  4  1  0
  4  5  1  0
  5  6  1  0
  6  7  1  0
  7  8  1  0
  7  9  1  0
  9 10  1  0
 10 11  1  0
 11 12  1  0
 11 13  1  0
 13 14  1  0
  9 15  1  0
 14 15  1  0
 15 16  1  1
  5 17  1  0
 15 17  1  0
 17 18  1  6
 17 19  1  0
 19 20  1  0
 19 21  1  0
  4 22  1  0
 21 22  1  0
 22 23  1  1
  2 24  1  0
 22 24  1  0
 24 25  1  6
 25 26  1  0
 26 27  1  0
 26 28  1  0
 28 29  1  0
 29 30  1  0
 30 31  1  0
 28 32  1  0
 31 32  1  0
 24 33  1  0
 33 34  1  0
 33 35  1  0
 35 36  1  0
 36 37  1  0
 38 39  1  0
 39 40  1  0
 40 41  1  0
 41 42  1  0
 42 43  1  0
 43 44  1  0
 44 45  1  0
 44 46  1  0
 46 47  1  0
 47 48  1  0
 48 49  1  0
 48 50  1  0
 50 51  1  0
 46 52  1  0
 51 52  1  0
 52 53  1  1
 42 54  1  0
 52 54  1  0
 54 55  1  6
 54 56  1  0
 56 57  1  0
 56 58  1  0
 41 59  1  0
 58 59  1  0
 59 60  1  1
 39 61  1  0
 59 61  1  0
 61 62  1  6
 62 63  1  0
 63 64  1  0
 63 65  1  0
 65 66  1  0
 66 67  1  0
 67 68  1  0
 65 69  1  0
 68 69  1  0
 61 70  1  0
 70 71  1  0
 70 72  1  0
 72 73  1  0
 73 74  1  0
  1 75  1  0
  1 76  1  0
  1 77  1  0
  2 78  1  1
  3 79  1  0
  3 80  1  0
  4 81  1  6
  5 82  1  1
  6 83  1  0
  6 84  1  0
  7 85  1  6
  9 86  1  0
 10 87  1  0
 10 88  1  0
 11 89  1  0
 12 90  1  0
 13 91  1  0
 13 92  1  0
 14 93  1  0
 14 94  1  0
 16 95  1  0
 16 96  1  0
 16 97  1  0
 19 98  1  6
 20 99  1  0
 21100  1  0
 21101  1  0
 23102  1  0
 23103  1  0
 23104  1  0
 26105  1  0
 27106  1  0
 28107  1  0
 29108  1  0
 29109  1  0
 30110  1  0
 30111  1  0
 31112  1  0
 31113  1  0
 33114  1  0
 34115  1  0
 36116  1  0
 36117  1  0
 38118  1  0
 38119  1  0
 38120  1  0
 39121  1  1
 40122  1  0
 40123  1  0
 41124  1  6
 42125  1  1
 43126  1  0
 43127  1  0
 44128  1  6
 46129  1  0
 47130  1  0
 47131  1  0
 48132  1  0
 49133  1  0
 50134  1  0
 50135  1  0
 51136  1  0
 51137  1  0
 53138  1  0
 53139  1  0
 53140  1  0
 56141  1  6
 57142  1  0
 58143  1  0
 58144  1  0
 60145  1  0
 60146  1  0
 60147  1  0
 63148  1  0
 64149  1  0
 65150  1  0
 66151  1  0
 66152  1  0
 67153  1  0
 67154  1  0
 68155  1  0
 68156  1  0
 70157  1  0
 71158  1  0
 73159  1  0
 73160  1  0
M  END
>  <PDBID>  (1) 
3CLD

>  <PDB ID>  (1) 
3CLD

>  <Generic Name>  (1) 
Fluticasone furoate

>  <Brand Name>  (1) 
Arnuity Ellipta#Avamys#Breo Ellipta#Flonase Sensimist Allergy Relief#Veramyst

>  <DrugBank ID>  (1) 
DB08906

>  <ATC Codes>  (1) 
R03AK10#R01AD12#R03BA09

>  <Ligand ID>  (1) 
GW6

>  <Target Name>  (1) 
Glucocorticoid receptor

>  <UniProt ID>  (1) 
P04150

>  <PDB ID.1>  (1) 
3CLD

>  <Seq. Identity>  (1) 
99%

$$$$
