PDB_DB00276_03
     RDKit          3D

138144  0  0  0  0  0  0  0  0999 V2000
    1.2597    1.0542    2.9383 C   0  0  0  0  0  0  0  0  0  0  0  0
    1.6930    0.2491    1.9153 O   0  0  0  0  0  0  0  0  0  0  0  0
    1.2016    0.7006    0.6877 C   0  0  0  0  0  0  0  0  0  0  0  0
    2.4963    1.3717    0.0778 C   0  0  0  0  0  0  0  0  0  0  0  0
    3.5875    0.3181    0.1644 C   0  0  0  0  0  0  0  0  0  0  0  0
    4.8251    0.9075   -0.1970 N   0  0  0  0  0  0  0  0  0  0  0  0
    6.1846    0.2598   -0.2245 S   0  0  0  0  0  0  0  0  0  0  0  0
    6.4738   -1.1874   -1.0364 C   0  0  0  0  0  0  0  0  0  0  0  0
    7.1142    0.3905    1.0745 O   0  0  0  0  0  0  0  0  0  0  0  0
    7.1203    1.3834   -1.3593 O   0  0  0  0  0  0  0  0  0  0  0  0
    3.1910   -0.8092   -0.7483 C   0  0  0  0  0  0  0  0  0  0  0  0
    1.8993   -1.4634   -0.2930 C   0  0  0  0  0  0  0  0  0  0  0  0
    0.7868   -0.3838   -0.2266 C   0  0  0  0  0  0  0  0  0  0  0  0
   -0.4275   -1.0145   -0.0138 N   0  0  0  0  0  0  0  0  0  0  0  0
   -1.6796   -0.4058   -0.1983 C   0  0  0  0  0  0  0  0  0  0  0  0
   -2.1072    0.7281    0.6545 C   0  0  0  0  0  0  0  0  0  0  0  0
   -2.0863    2.0844   -0.0327 C   0  0  0  0  0  0  0  0  0  0  0  0
   -2.0396    3.1540    1.0462 C   0  0  0  0  0  0  0  0  0  0  0  0
   -3.0440    2.8176    2.1148 C   0  0  0  0  0  0  0  0  0  0  0  0
   -4.1115    1.9255    1.5247 C   0  0  0  0  0  0  0  0  0  0  0  0
   -3.5833    0.5738    1.0956 C   0  0  0  0  0  0  0  0  0  0  0  0
   -4.4185    0.1495   -0.0028 N   0  0  0  0  0  0  0  0  0  0  0  0
   -4.0769   -1.1376   -0.5130 C   0  0  0  0  0  0  0  0  0  0  0  0
   -4.2527   -1.2438   -2.0158 C   0  0  0  0  0  0  0  0  0  0  0  0
   -3.9392   -2.6730   -2.4239 C   0  0  0  0  0  0  0  0  0  0  0  0
   -2.4709   -2.8942   -2.1466 C   0  0  0  0  0  0  0  0  0  0  0  0
   -2.2161   -2.7900   -0.6592 C   0  0  0  0  0  0  0  0  0  0  0  0
   -2.7220   -1.5366   -0.0309 C   0  0  0  0  0  0  0  0  0  0  0  0
    1.2597    1.0542    2.9383 C   0  0  0  0  0  0  0  0  0  0  0  0
    1.6930    0.2491    1.9153 O   0  0  0  0  0  0  0  0  0  0  0  0
    1.2016    0.7006    0.6877 C   0  0  0  0  0  0  0  0  0  0  0  0
    2.4963    1.3717    0.0778 C   0  0  0  0  0  0  0  0  0  0  0  0
    3.5875    0.3181    0.1644 C   0  0  0  0  0  0  0  0  0  0  0  0
    4.8251    0.9075   -0.1970 N   0  0  0  0  0  0  0  0  0  0  0  0
    6.1846    0.2598   -0.2245 S   0  0  0  0  0  0  0  0  0  0  0  0
    6.4738   -1.1874   -1.0364 C   0  0  0  0  0  0  0  0  0  0  0  0
    7.1142    0.3905    1.0745 O   0  0  0  0  0  0  0  0  0  0  0  0
    7.1203    1.3834   -1.3593 O   0  0  0  0  0  0  0  0  0  0  0  0
    3.1910   -0.8092   -0.7483 C   0  0  0  0  0  0  0  0  0  0  0  0
    1.8993   -1.4634   -0.2930 C   0  0  0  0  0  0  0  0  0  0  0  0
    0.7868   -0.3838   -0.2266 C   0  0  0  0  0  0  0  0  0  0  0  0
   -0.4275   -1.0145   -0.0138 N   0  0  0  0  0  0  0  0  0  0  0  0
   -1.6796   -0.4058   -0.1983 C   0  0  0  0  0  0  0  0  0  0  0  0
   -2.1072    0.7281    0.6545 C   0  0  0  0  0  0  0  0  0  0  0  0
   -2.0863    2.0844   -0.0327 C   0  0  0  0  0  0  0  0  0  0  0  0
   -2.0396    3.1540    1.0462 C   0  0  0  0  0  0  0  0  0  0  0  0
   -3.0440    2.8176    2.1148 C   0  0  0  0  0  0  0  0  0  0  0  0
   -4.1115    1.9255    1.5247 C   0  0  0  0  0  0  0  0  0  0  0  0
   -3.5833    0.5738    1.0956 C   0  0  0  0  0  0  0  0  0  0  0  0
   -4.4185    0.1495   -0.0028 N   0  0  0  0  0  0  0  0  0  0  0  0
   -4.0769   -1.1376   -0.5130 C   0  0  0  0  0  0  0  0  0  0  0  0
   -4.2527   -1.2438   -2.0158 C   0  0  0  0  0  0  0  0  0  0  0  0
   -3.9392   -2.6730   -2.4239 C   0  0  0  0  0  0  0  0  0  0  0  0
   -2.4709   -2.8942   -2.1466 C   0  0  0  0  0  0  0  0  0  0  0  0
   -2.2161   -2.7900   -0.6592 C   0  0  0  0  0  0  0  0  0  0  0  0
   -2.7220   -1.5366   -0.0309 C   0  0  0  0  0  0  0  0  0  0  0  0
    1.6685    0.7004    3.9305 H   0  0  0  0  0  0  0  0  0  0  0  0
    0.1720    1.1339    3.0758 H   0  0  0  0  0  0  0  0  0  0  0  0
    1.6386    2.1121    2.7955 H   0  0  0  0  0  0  0  0  0  0  0  0
    0.5381    1.5172    0.7984 H   0  0  0  0  0  0  0  0  0  0  0  0
    2.6935    2.2290    0.7148 H   0  0  0  0  0  0  0  0  0  0  0  0
    2.2394    1.6729   -0.9236 H   0  0  0  0  0  0  0  0  0  0  0  0
    3.6251    0.0092    1.2223 H   0  0  0  0  0  0  0  0  0  0  0  0
    4.7519    1.9564   -0.2062 H   0  0  0  0  0  0  0  0  0  0  0  0
    7.5719   -1.2752   -1.2931 H   0  0  0  0  0  0  0  0  0  0  0  0
    6.2703   -2.0731   -0.3972 H   0  0  0  0  0  0  0  0  0  0  0  0
    5.9673   -1.2830   -2.0191 H   0  0  0  0  0  0  0  0  0  0  0  0
    8.0627    0.1225    0.8844 H   0  0  0  0  0  0  0  0  0  0  0  0
    6.7062    1.1652   -2.2244 H   0  0  0  0  0  0  0  0  0  0  0  0
    3.9637   -1.5717   -0.7380 H   0  0  0  0  0  0  0  0  0  0  0  0
    3.0773   -0.4175   -1.7801 H   0  0  0  0  0  0  0  0  0  0  0  0
    1.5816   -2.1490   -1.0978 H   0  0  0  0  0  0  0  0  0  0  0  0
    2.0012   -1.8969    0.6983 H   0  0  0  0  0  0  0  0  0  0  0  0
    0.8488    0.0510   -1.2819 H   0  0  0  0  0  0  0  0  0  0  0  0
   -0.4124   -1.6646    0.8374 H   0  0  0  0  0  0  0  0  0  0  0  0
   -1.7575   -0.1379   -1.3007 H   0  0  0  0  0  0  0  0  0  0  0  0
   -1.5583    0.7516    1.6105 H   0  0  0  0  0  0  0  0  0  0  0  0
   -3.0022    2.2742   -0.6124 H   0  0  0  0  0  0  0  0  0  0  0  0
   -1.2326    2.2032   -0.7006 H   0  0  0  0  0  0  0  0  0  0  0  0
   -2.2470    4.1679    0.6067 H   0  0  0  0  0  0  0  0  0  0  0  0
   -1.0411    3.1234    1.5190 H   0  0  0  0  0  0  0  0  0  0  0  0
   -3.5553    3.7104    2.5183 H   0  0  0  0  0  0  0  0  0  0  0  0
   -2.5831    2.2723    2.9371 H   0  0  0  0  0  0  0  0  0  0  0  0
   -4.9114    1.7727    2.2882 H   0  0  0  0  0  0  0  0  0  0  0  0
   -4.6507    2.4298    0.6685 H   0  0  0  0  0  0  0  0  0  0  0  0
   -3.6168   -0.0836    1.9636 H   0  0  0  0  0  0  0  0  0  0  0  0
   -4.4557    0.8624   -0.7325 H   0  0  0  0  0  0  0  0  0  0  0  0
   -4.7845   -1.9173   -0.0980 H   0  0  0  0  0  0  0  0  0  0  0  0
   -3.5382   -0.5926   -2.5247 H   0  0  0  0  0  0  0  0  0  0  0  0
   -5.3036   -0.9926   -2.2310 H   0  0  0  0  0  0  0  0  0  0  0  0
   -4.4945   -3.3965   -1.7931 H   0  0  0  0  0  0  0  0  0  0  0  0
   -4.1395   -2.8618   -3.4831 H   0  0  0  0  0  0  0  0  0  0  0  0
   -1.8218   -2.2483   -2.7337 H   0  0  0  0  0  0  0  0  0  0  0  0
   -2.2429   -3.9493   -2.4328 H   0  0  0  0  0  0  0  0  0  0  0  0
   -2.7520   -3.6371   -0.1773 H   0  0  0  0  0  0  0  0  0  0  0  0
   -1.1317   -2.8944   -0.5263 H   0  0  0  0  0  0  0  0  0  0  0  0
   -2.8029   -1.7240    1.0665 H   0  0  0  0  0  0  0  0  0  0  0  0
    1.6685    0.7004    3.9305 H   0  0  0  0  0  0  0  0  0  0  0  0
    0.1720    1.1339    3.0758 H   0  0  0  0  0  0  0  0  0  0  0  0
    1.6386    2.1121    2.7955 H   0  0  0  0  0  0  0  0  0  0  0  0
    0.5381    1.5172    0.7984 H   0  0  0  0  0  0  0  0  0  0  0  0
    2.6935    2.2290    0.7148 H   0  0  0  0  0  0  0  0  0  0  0  0
    2.2394    1.6729   -0.9236 H   0  0  0  0  0  0  0  0  0  0  0  0
    3.6251    0.0092    1.2223 H   0  0  0  0  0  0  0  0  0  0  0  0
    4.7519    1.9564   -0.2062 H   0  0  0  0  0  0  0  0  0  0  0  0
    7.5719   -1.2752   -1.2931 H   0  0  0  0  0  0  0  0  0  0  0  0
    6.2703   -2.0731   -0.3972 H   0  0  0  0  0  0  0  0  0  0  0  0
    5.9673   -1.2830   -2.0191 H   0  0  0  0  0  0  0  0  0  0  0  0
    8.0627    0.1225    0.8844 H   0  0  0  0  0  0  0  0  0  0  0  0
    6.7062    1.1652   -2.2244 H   0  0  0  0  0  0  0  0  0  0  0  0
    3.9637   -1.5717   -0.7380 H   0  0  0  0  0  0  0  0  0  0  0  0
    3.0773   -0.4175   -1.7801 H   0  0  0  0  0  0  0  0  0  0  0  0
    1.5816   -2.1490   -1.0978 H   0  0  0  0  0  0  0  0  0  0  0  0
    2.0012   -1.8969    0.6983 H   0  0  0  0  0  0  0  0  0  0  0  0
    0.8488    0.0510   -1.2819 H   0  0  0  0  0  0  0  0  0  0  0  0
   -0.4124   -1.6646    0.8374 H   0  0  0  0  0  0  0  0  0  0  0  0
   -1.7575   -0.1379   -1.3007 H   0  0  0  0  0  0  0  0  0  0  0  0
   -1.5583    0.7516    1.6105 H   0  0  0  0  0  0  0  0  0  0  0  0
   -3.0022    2.2742   -0.6124 H   0  0  0  0  0  0  0  0  0  0  0  0
   -1.2326    2.2032   -0.7006 H   0  0  0  0  0  0  0  0  0  0  0  0
   -2.2470    4.1679    0.6067 H   0  0  0  0  0  0  0  0  0  0  0  0
   -1.0411    3.1234    1.5190 H   0  0  0  0  0  0  0  0  0  0  0  0
   -3.5553    3.7104    2.5183 H   0  0  0  0  0  0  0  0  0  0  0  0
   -2.5831    2.2723    2.9371 H   0  0  0  0  0  0  0  0  0  0  0  0
   -4.9114    1.7727    2.2882 H   0  0  0  0  0  0  0  0  0  0  0  0
   -4.6507    2.4298    0.6685 H   0  0  0  0  0  0  0  0  0  0  0  0
   -3.6168   -0.0836    1.9636 H   0  0  0  0  0  0  0  0  0  0  0  0
   -4.4557    0.8624   -0.7325 H   0  0  0  0  0  0  0  0  0  0  0  0
   -4.7845   -1.9173   -0.0980 H   0  0  0  0  0  0  0  0  0  0  0  0
   -3.5382   -0.5926   -2.5247 H   0  0  0  0  0  0  0  0  0  0  0  0
   -5.3036   -0.9926   -2.2310 H   0  0  0  0  0  0  0  0  0  0  0  0
   -4.4945   -3.3965   -1.7931 H   0  0  0  0  0  0  0  0  0  0  0  0
   -4.1395   -2.8618   -3.4831 H   0  0  0  0  0  0  0  0  0  0  0  0
   -1.8218   -2.2483   -2.7337 H   0  0  0  0  0  0  0  0  0  0  0  0
   -2.2429   -3.9493   -2.4328 H   0  0  0  0  0  0  0  0  0  0  0  0
   -2.7520   -3.6371   -0.1773 H   0  0  0  0  0  0  0  0  0  0  0  0
   -1.1317   -2.8944   -0.5263 H   0  0  0  0  0  0  0  0  0  0  0  0
   -2.8029   -1.7240    1.0665 H   0  0  0  0  0  0  0  0  0  0  0  0
  1  2  1  0
  2  3  1  0
  3  4  1  0
  4  5  1  0
  5  6  1  0
  6  7  1  0
  7  8  1  0
  7  9  1  0
  7 10  1  0
  5 11  1  0
 11 12  1  0
  3 13  1  0
 12 13  1  0
 13 14  1  0
 14 15  1  0
 15 16  1  0
 16 17  1  0
 17 18  1  0
 18 19  1  0
 19 20  1  0
 16 21  1  0
 20 21  1  0
 21 22  1  0
 22 23  1  0
 23 24  1  0
 24 25  1  0
 25 26  1  0
 26 27  1  0
 15 28  1  0
 23 28  1  0
 27 28  1  0
 29 30  1  0
 30 31  1  0
 31 32  1  0
 32 33  1  0
 33 34  1  0
 34 35  1  0
 35 36  1  0
 35 37  1  0
 35 38  1  0
 33 39  1  0
 39 40  1  0
 31 41  1  0
 40 41  1  0
 41 42  1  0
 42 43  1  0
 43 44  1  0
 44 45  1  0
 45 46  1  0
 46 47  1  0
 47 48  1  0
 44 49  1  0
 48 49  1  0
 49 50  1  0
 50 51  1  0
 51 52  1  0
 52 53  1  0
 53 54  1  0
 54 55  1  0
 43 56  1  0
 51 56  1  0
 55 56  1  0
  1 57  1  0
  1 58  1  0
  1 59  1  0
  3 60  1  0
  4 61  1  0
  4 62  1  0
  5 63  1  0
  6 64  1  0
  8 65  1  0
  8 66  1  0
  8 67  1  0
  9 68  1  0
 10 69  1  0
 11 70  1  0
 11 71  1  0
 12 72  1  0
 12 73  1  0
 13 74  1  0
 14 75  1  0
 15 76  1  0
 16 77  1  0
 17 78  1  0
 17 79  1  0
 18 80  1  0
 18 81  1  0
 19 82  1  0
 19 83  1  0
 20 84  1  0
 20 85  1  0
 21 86  1  0
 22 87  1  0
 23 88  1  0
 24 89  1  0
 24 90  1  0
 25 91  1  0
 25 92  1  0
 26 93  1  0
 26 94  1  0
 27 95  1  0
 27 96  1  0
 28 97  1  0
 29 98  1  0
 29 99  1  0
 29100  1  0
 31101  1  0
 32102  1  0
 32103  1  0
 33104  1  0
 34105  1  0
 36106  1  0
 36107  1  0
 36108  1  0
 37109  1  0
 38110  1  0
 39111  1  0
 39112  1  0
 40113  1  0
 40114  1  0
 41115  1  0
 42116  1  0
 43117  1  0
 44118  1  0
 45119  1  0
 45120  1  0
 46121  1  0
 46122  1  0
 47123  1  0
 47124  1  0
 48125  1  0
 48126  1  0
 49127  1  0
 50128  1  0
 51129  1  0
 52130  1  0
 52131  1  0
 53132  1  0
 53133  1  0
 54134  1  0
 54135  1  0
 55136  1  0
 55137  1  0
 56138  1  0
M  END
>  <PDBID>  (1) 
4G0U

>  <PDB ID>  (1) 
4G0U

>  <Generic Name>  (1) 
Amsacrine

>  <Brand Name>  (1) 
Amsa Pd Inj 50mg/ml#AMSA P-D#Amekrin#Amsidine#Amsidyl

>  <DrugBank ID>  (1) 
DB00276

>  <ATC Codes>  (1) 
L01XX01

>  <Ligand ID>  (1) 
ASW

>  <Target Name>  (1) 
DNA topoisomerase 2-alpha

>  <UniProt ID>  (1) 
P11388

>  <PDB ID.1>  (1) 
4G0U

>  <Seq. Identity>  (1) 
78%

$$$$
