PDB_DB01336_00
     RDKit          3D

  0  0  0  0  0  0  0  0  0  0999 V3000
M  V30 BEGIN CTAB
M  V30 COUNTS 960 1008 0 0 0
M  V30 BEGIN ATOM
M  V30 1 N -4.86923 -2.3915 0.571642 0 CHG=1
M  V30 2 C -5.64549 -2.12753 -0.614945 0
M  V30 3 C -6.17426 -0.733086 -0.453979 0
M  V30 4 C -5.15552 0.300939 -0.144505 0
M  V30 5 C -3.86696 -0.160272 0.402903 0
M  V30 6 C -3.61314 -1.62221 0.475601 0 CFG=2
M  V30 7 C -4.97068 1.13313 -1.42549 0
M  V30 8 C -4.24677 2.38805 -1.07692 0
M  V30 9 C -3.05941 2.09618 -0.144683 0
M  V30 10 C -2.76757 0.595901 -0.356481 0
M  V30 11 O -2.01454 2.80453 -0.589438 0
M  V30 12 C -1.06613 3.30238 0.254927 0
M  V30 13 C -1.24661 3.12929 1.70539 0
M  V30 14 C 0.153967 2.91101 2.32346 0
M  V30 15 C 0.554203 1.54564 1.75091 0
M  V30 16 C 0.916831 1.73551 0.286979 0
M  V30 17 C 0.317452 2.98768 -0.270651 0
M  V30 18 C 2.42171 1.701 0.223444 0
M  V30 19 C 2.99275 1.04258 -0.998627 0 CFG=1
M  V30 20 N 3.69176 1.97347 -1.86344 0 CHG=1
M  V30 21 C 5.04458 1.52787 -2.21541 0
M  V30 22 C 5.88831 1.21357 -1.01067 0
M  V30 23 C 5.08581 0.409501 0.0353327 0 CFG=1
M  V30 24 C 3.91102 -0.110979 -0.730789 0
M  V30 25 C 5.98256 -0.589583 0.648067 0
M  V30 26 C 5.40163 -1.89672 1.04439 0
M  V30 27 C 4.32563 -2.40289 0.0854009 0
M  V30 28 C 3.26617 -1.33674 -0.121431 0
M  V30 29 O 2.29988 -1.81064 -0.941055 0
M  V30 30 C 1.42651 -2.76007 -0.433876 0
M  V30 31 C 0.586688 -3.2141 -1.59345 0
M  V30 32 C -0.831764 -3.53237 -1.28014 0
M  V30 33 C -1.36344 -2.31047 -0.499376 0
M  V30 34 C -0.759177 -2.46748 0.845012 0
M  V30 35 C 0.73462 -2.24093 0.748865 0
M  V30 36 C -2.82463 -2.22567 -0.62224 0
M  V30 37 O -5.14585 3.25963 -0.488871 0
M  V30 38 C -5.36834 4.41108 -1.20311 0
M  V30 39 O -1.77404 4.29901 2.26177 0
M  V30 40 O 4.92626 -1.83337 2.35007 0
M  V30 41 C 5.59295 -2.72651 3.18713 0
M  V30 42 O 4.87315 -2.90572 -1.0589 0
M  V30 43 C -5.52437 -1.93854 1.78392 0
M  V30 44 C 2.9889 2.1522 -3.12108 0
M  V30 45 C 3.89734 3.28757 -1.29949 0
M  V30 46 C 4.80156 -4.21931 -1.33767 0
M  V30 47 C -4.54658 -3.78352 0.744305 0
M  V30 48 C -2.81409 4.12433 3.12396 0
M  V30 49 N -4.19521 -2.49176 1.00295 0 CHG=1
M  V30 50 C -5.46799 -2.28493 0.335842 0
M  V30 51 C -5.93359 -0.908803 0.671752 0
M  V30 52 C -4.88602 0.0846985 0.368069 0 CFG=1
M  V30 53 C -3.46663 -0.31149 0.475503 0 CFG=1
M  V30 54 C -3.15266 -1.76022 0.28958 0 CFG=2
M  V30 55 C -5.20211 0.693524 -1.00821 0
M  V30 56 C -4.55133 2.0306 -1.0198 0 CFG=1
M  V30 57 C -3.22722 2.05118 -0.219996 0
M  V30 58 C -2.66268 0.630815 -0.397647 0
M  V30 59 O -2.50816 3.02097 -0.819733 0
M  V30 60 C -1.37158 3.5163 -0.176313 0
M  V30 61 C -1.45443 3.58501 1.29389 0
M  V30 62 C -0.0130094 3.71406 1.84065 0
M  V30 63 C 0.592394 2.35743 1.45014 0
M  V30 64 C 0.978986 2.4981 -0.032359 0 CFG=2
M  V30 65 C -0.198015 2.95073 -0.848433 0
M  V30 66 C 1.53742 1.2201 -0.501354 0
M  V30 67 C 3.00685 1.02989 -0.575457 0 CFG=1
M  V30 68 N 3.81713 2.17025 -0.809189 0 CHG=1
M  V30 69 C 5.10606 1.62022 -1.28516 0
M  V30 70 C 5.82069 0.879796 -0.232264 0
M  V30 71 C 4.94817 0.25201 0.841168 0 CFG=1
M  V30 72 C 3.51965 0.102684 0.526323 0 CFG=2
M  V30 73 C 5.67874 -0.965317 1.31443 0
M  V30 74 C 4.85865 -2.20809 1.40601 0 CFG=1
M  V30 75 C 4.1143 -2.31239 0.074963 0
M  V30 76 C 3.02074 -1.27542 0.205688 0 CFG=2
M  V30 77 O 2.26356 -1.35827 -0.956307 0
M  V30 78 C 1.44551 -2.4539 -1.00436 0
M  V30 79 C 0.477131 -2.60744 0.113682 0
M  V30 80 C -0.707507 -3.44197 -0.405945 0
M  V30 81 C -1.51488 -2.73927 -1.41183 0
M  V30 82 C -0.619332 -1.65149 -2.03099 0
M  V30 83 C 0.687569 -2.37767 -2.33928 0
M  V30 84 C -2.86682 -2.24731 -1.06499 0
M  V30 85 O -4.31261 2.39923 -2.33425 0
M  V30 86 C -5.00303 3.56555 -2.65986 0
M  V30 87 O -2.14172 4.76289 1.65538 0
M  V30 88 O 5.71112 -3.30404 1.47031 0
M  V30 89 C 5.42198 -4.14917 2.53777 0
M  V30 90 O 4.93717 -2.14827 -0.998855 0
M  V30 91 C -4.2409 -2.04933 2.38739 0
M  V30 92 C 3.25844 2.86444 -1.96698 0
M  V30 93 C 4.13473 3.03643 0.262683 0
M  V30 94 C 5.02469 -3.2187 -1.84755 0
M  V30 95 C -4.01071 -3.91143 1.06292 0
M  V30 96 C -3.0985 4.61652 2.60646 0
M  V30 97 N -4.57947 -2.71376 0.0738675 0 CHG=1
M  V30 98 C -5.65705 -2.49163 -0.852631 0
M  V30 99 C -5.76483 -1.07436 -1.34586 0
M  V30 100 C -5.16382 -0.0761462 -0.42199 0
M  V30 101 C -3.82362 -0.454939 0.108474 0
M  V30 102 C -3.41709 -1.86678 -0.184938 0 CFG=2
M  V30 103 C -5.07166 1.26214 -1.16941 0
M  V30 104 C -4.4669 2.3192 -0.274815 0
M  V30 105 C -3.06505 1.92662 0.2212 0
M  V30 106 C -2.81439 0.545942 -0.336969 0
M  V30 107 O -2.20213 2.78199 -0.375453 0
M  V30 108 C -1.0692 3.18257 0.295085 0
M  V30 109 C -1.20018 3.4734 1.7382 0
M  V30 110 C 0.247219 3.65926 2.2538 0
M  V30 111 C 0.757586 2.22954 2.29771 0
M  V30 112 C 0.949254 1.71524 0.876401 0
M  V30 113 C 0.159887 2.43508 -0.137486 0
M  V30 114 C 2.44772 1.71721 0.664149 0
M  V30 115 C 2.95352 1.15169 -0.599761 0 CFG=1
M  V30 116 N 3.6536 2.09216 -1.44751 0 CHG=1
M  V30 117 C 4.95799 1.631 -1.89537 0
M  V30 118 C 5.86771 1.20457 -0.79554 0
M  V30 119 C 5.09294 0.400507 0.260872 0
M  V30 120 C 3.85238 -0.0747459 -0.415909 0 CFG=1
M  V30 121 C 5.98104 -0.653866 0.835237 0
M  V30 122 C 5.52792 -2.05515 0.498692 0
M  V30 123 C 4.08409 -2.11189 1.02195 0
M  V30 124 C 3.17814 -1.25677 0.159421 0 CFG=2
M  V30 125 O 2.7378 -2.1413 -0.859687 0
M  V30 126 C 1.39092 -2.14089 -0.992506 0
M  V30 127 C 0.638359 -3.29153 -0.405166 0
M  V30 128 C -0.799124 -2.77639 -0.200235 0
M  V30 129 C -1.36906 -2.49326 -1.54419 0
M  V30 130 C -0.508797 -1.52966 -2.33901 0
M  V30 131 C 0.908652 -2.0596 -2.4487 0
M  V30 132 C -2.81303 -2.09055 -1.53665 0
M  V30 133 O -5.34738 2.53782 0.77561 0
M  V30 134 C -5.90406 3.81998 0.742981 0
M  V30 135 O -1.90798 4.65969 1.91459 0
M  V30 136 O 6.24152 -2.97744 1.23078 0
M  V30 137 C 6.84849 -3.94799 0.441423 0
M  V30 138 O 3.68578 -3.41815 1.13722 0
M  V30 139 C -4.94554 -2.51513 1.46212 0
M  V30 140 C 2.90187 2.40293 -2.64868 0
M  V30 141 C 3.93078 3.3676 -0.795276 0
M  V30 142 C 3.45739 -3.84999 2.41866 0
M  V30 143 C -4.24914 -4.13851 -0.0479856 0
M  V30 144 C -2.91076 4.60816 2.84433 0
M  V30 145 N -4.69647 -2.58445 0.486763 0 CHG=1
M  V30 146 C -5.67127 -2.47274 -0.566849 0
M  V30 147 C -5.65792 -1.17297 -1.29163 0
M  V30 148 C -5.14981 -0.0800189 -0.375071 0
M  V30 149 C -3.79298 -0.381499 0.197916 0
M  V30 150 C -3.44699 -1.85867 0.193324 0 CFG=2
M  V30 151 C -5.17505 1.198 -1.15829 0
M  V30 152 C -4.40474 2.32216 -0.519503 0
M  V30 153 C -3.04383 1.92041 0.00336036 0
M  V30 154 C -2.80694 0.485985 -0.515255 0
M  V30 155 O -2.06633 2.70758 -0.473227 0
M  V30 156 C -1.17348 3.31668 0.334396 0 CFG=1
M  V30 157 C -1.45081 3.37879 1.79434 0 CFG=1
M  V30 158 C -0.13025 3.88002 2.43793 0
M  V30 159 C 0.773544 2.66612 2.43599 0
M  V30 160 C 0.951886 2.11315 1.03849 0
M  V30 161 C 0.225931 2.87694 -0.00238417 0
M  V30 162 C 2.4555 2.25916 0.751722 0
M  V30 163 C 2.92841 1.27949 -0.312287 0 CFG=1
M  V30 164 N 3.68446 1.90784 -1.34139 0 CHG=1
M  V30 165 C 4.84563 1.18721 -1.79044 0
M  V30 166 C 5.78586 0.814136 -0.669581 0
M  V30 167 C 5.03951 0.426307 0.545859 0
M  V30 168 C 3.58261 0.110892 0.348697 0
M  V30 169 C 5.62167 -0.653283 1.38465 0
M  V30 170 C 5.56061 -1.95702 0.678889 0
M  V30 171 C 4.47455 -2.15761 -0.296239 0
M  V30 172 C 3.30969 -1.21828 -0.274498 0
M  V30 173 O 2.27987 -1.81128 0.368709 0
M  V30 174 C 1.10285 -2.08748 -0.16146 0
M  V30 175 C 0.632351 -3.53696 0.103538 0
M  V30 176 C -0.900681 -3.4132 0.17229 0
M  V30 177 C -1.48328 -2.9284 -1.10716 0
M  V30 178 C -0.563229 -2.1621 -2.00331 0
M  V30 179 C 0.832922 -1.93858 -1.60818 0
M  V30 180 C -2.84963 -2.34466 -1.05561 0
M  V30 181 O -5.15603 3.04895 0.380413 0
M  V30 182 C -5.42469 4.34153 0.0201183 0
M  V30 183 O -2.36168 4.37675 2.13717 0
M  V30 184 O 5.47966 -2.93311 1.70616 0
M  V30 185 C 6.57777 -3.76912 1.73352 0
M  V30 186 O 5.02912 -2.20204 -1.57787 0
M  V30 187 C -5.24556 -2.29357 1.76444 0
M  V30 188 C 2.86166 2.1055 -2.55131 0
M  V30 189 C 4.14359 3.25629 -1.00413 0
M  V30 190 C 4.91936 -3.43517 -2.18375 0
M  V30 191 C -4.40608 -4.03114 0.554743 0
M  V30 192 C -3.2898 4.01863 3.07519 0
M  V30 193 N -4.76162 -2.71082 0.439323 0 CHG=1
M  V30 194 C -5.83447 -2.51499 -0.467659 0
M  V30 195 C -5.92824 -1.13915 -1.07595 0
M  V30 196 C -5.27992 -0.0840673 -0.251199 0 CFG=1
M  V30 197 C -3.97266 -0.476351 0.341761 0
M  V30 198 C -3.57279 -1.91778 0.097511 0 CFG=2
M  V30 199 C -5.02589 1.17931 -1.0626 0
M  V30 200 C -4.42528 2.24692 -0.166244 0
M  V30 201 C -3.00277 1.86748 0.277709 0
M  V30 202 C -2.82754 0.403687 -0.073208 0
M  V30 203 O -2.16246 2.60177 -0.483378 0
M  V30 204 C -1.02161 3.12485 0.0272264 0 CFG=1
M  V30 205 C -1.05229 3.65123 1.41447 0
M  V30 206 C 0.323587 4.32742 1.64594 0
M  V30 207 C 1.30961 3.20635 1.64702 0
M  V30 208 C 1.46681 2.62371 0.228154 0 CFG=2
M  V30 209 C 0.120944 2.22471 -0.327064 0
M  V30 210 C 2.34551 1.43208 0.388623 0
M  V30 211 C 3.0595 0.961839 -0.833205 0 CFG=1
M  V30 212 N 3.86675 1.95689 -1.47589 0 CHG=1
M  V30 213 C 5.07037 1.36147 -2.07398 0
M  V30 214 C 5.9982 0.780179 -1.07273 0
M  V30 215 C 5.15374 0.117018 0.0264962 0 CFG=1
M  V30 216 C 3.86391 -0.28729 -0.619491 0
M  V30 217 C 6.0082 -1.02487 0.520196 0
M  V30 218 C 5.11914 -1.79826 1.50402 0 CFG=1
M  V30 219 C 4.0986 -2.45918 0.608576 0
M  V30 220 C 3.14398 -1.43325 -0.0208566 0 CFG=2
M  V30 221 O 2.53427 -2.2007 -1.04784 0
M  V30 222 C 1.18007 -2.18565 -1.02218 0
M  V30 223 C 0.509973 -3.37988 -0.386031 0
M  V30 224 C -0.927408 -2.92645 -0.0889522 0
M  V30 225 C -1.62649 -2.63272 -1.36959 0
M  V30 226 C -0.83155 -1.63021 -2.21088 0
M  V30 227 C 0.592091 -2.15153 -2.44209 0
M  V30 228 C -3.04176 -2.1998 -1.26125 0
M  V30 229 O -5.26235 2.44553 0.912631 0
M  V30 230 C -5.81439 3.71737 0.83321 0
M  V30 231 O -1.95015 4.71461 1.47447 0
M  V30 232 O 5.89414 -2.77852 2.07013 0
M  V30 233 C 5.89455 -2.66899 3.47995 0
M  V30 234 O 4.78794 -3.03411 -0.457852 0
M  V30 235 C -5.08115 -2.40688 1.82724 0
M  V30 236 C 3.15569 2.58086 -2.60383 0
M  V30 237 C 4.34367 3.02043 -0.640089 0
M  V30 238 C 4.51778 -4.39739 -0.58293 0
M  V30 239 C -4.41775 -4.12964 0.437322 0
M  V30 240 C -2.77479 4.73071 2.56134 0
M  V30 241 N -4.68288 -2.38325 0.16295 0 CHG=1
M  V30 242 C -5.45804 -2.30072 -1.0296 0
M  V30 243 C -6.00023 -0.868127 -1.13203 0
M  V30 244 C -4.75933 -0.037152 -1.37873 0 CFG=2
M  V30 245 C -3.90595 -0.124912 -0.140947 0
M  V30 246 C -3.51276 -1.52913 0.2057 0 CFG=2
M  V30 247 C -5.12245 1.33099 -1.75118 0
M  V30 248 C -4.48762 2.47127 -1.04766 0
M  V30 249 C -3.25088 2.20729 -0.259748 0
M  V30 250 C -2.72587 0.772825 -0.457383 0
M  V30 251 O -2.26164 3.0464 -0.658024 0
M  V30 252 C -1.17953 3.25162 0.167737 0
M  V30 253 C -1.44553 3.3237 1.62057 0 CFG=1
M  V30 254 C -0.0612964 3.34115 2.30745 0
M  V30 255 C 0.401649 1.88655 2.12671 0
M  V30 256 C 0.726129 1.6175 0.677017 0 CFG=1
M  V30 257 C 0.0032633 2.46957 -0.289979 0
M  V30 258 C 2.23808 1.69332 0.582379 0
M  V30 259 C 2.84365 1.03985 -0.592477 0 CFG=1
M  V30 260 N 3.53732 1.93107 -1.50068 0 CHG=1
M  V30 261 C 4.8609 1.46001 -1.88316 0
M  V30 262 C 5.76576 1.1951 -0.702626 0
M  V30 263 C 4.99434 0.549694 0.422139 0 CFG=1
M  V30 264 C 3.7577 -0.0505626 -0.225719 0
M  V30 265 C 5.83497 -0.541151 1.0602 0
M  V30 266 C 5.6937 -1.73531 0.150853 0
M  V30 267 C 4.29706 -2.32799 0.397114 0
M  V30 268 C 3.24771 -1.22969 0.533447 0
M  V30 269 O 2.08422 -1.66012 -0.0130595 0
M  V30 270 C 1.45433 -2.70053 0.678209 0
M  V30 271 C 0.897693 -3.62049 -0.345234 0
M  V30 272 C -0.606888 -3.66448 -0.413167 0
M  V30 273 C -1.08565 -2.234 -0.131405 0
M  V30 274 C -0.926526 -2.08141 1.34606 0
M  V30 275 C 0.532259 -2.16089 1.69367 0
M  V30 276 C -2.43906 -2.07835 -0.681549 0
M  V30 277 O -5.44602 3.03664 -0.20803 0
M  V30 278 C -5.79677 4.32803 -0.561267 0
M  V30 279 O -2.01387 4.55443 1.95318 0
M  V30 280 O 6.61658 -2.71061 0.482086 0
M  V30 281 C 7.45576 -3.02473 -0.589895 0
M  V30 282 O 4.09521 -3.18554 -0.654372 0
M  V30 283 C -5.58362 -2.10544 1.29045 0
M  V30 284 C 2.79396 2.1289 -2.72858 0
M  V30 285 C 3.78676 3.26036 -0.945403 0
M  V30 286 C 4.20903 -4.52168 -0.402264 0
M  V30 287 C -4.32768 -3.80049 0.308865 0
M  V30 288 C -3.07299 4.48949 2.81499 0
M  V30 289 N -4.56136 -2.79919 0.629684 0 CHG=1
M  V30 290 C -5.63521 -2.69045 -0.285721 0
M  V30 291 C -5.77065 -1.34397 -0.952367 0
M  V30 292 C -5.18806 -0.226823 -0.157063 0
M  V30 293 C -3.90965 -0.516529 0.528883 0
M  V30 294 C -3.41404 -1.93623 0.287861 0 CFG=2
M  V30 295 C -4.99253 0.983562 -1.05952 0
M  V30 296 C -4.54085 2.12967 -0.160226 0
M  V30 297 C -3.09094 1.87805 0.29588 0
M  V30 298 C -2.77381 0.414179 0.293463 0
M  V30 299 O -2.31033 2.54138 -0.592879 0
M  V30 300 C -1.19252 3.18616 -0.208513 0 CFG=1
M  V30 301 C -1.25259 4.08115 0.976718 0
M  V30 302 C 0.0397276 4.93285 0.874442 0
M  V30 303 C 1.15173 3.99251 1.15753 0
M  V30 304 C 1.30582 2.92823 0.0538775 0 CFG=2
M  V30 305 C -0.0195498 2.24245 -0.197313 0
M  V30 306 C 2.259 1.95761 0.613869 0
M  V30 307 C 3.10369 1.14534 -0.289275 0 CFG=1
M  V30 308 N 4.01222 1.84226 -1.13482 0 CHG=1
M  V30 309 C 5.01875 0.872152 -1.58788 0
M  V30 310 C 5.95578 0.461936 -0.517898 0
M  V30 311 C 5.20458 0.196749 0.729169 0
M  V30 312 C 3.71321 0.046357 0.559902 0
M  V30 313 C 5.71724 -0.948187 1.5519 0
M  V30 314 C 5.44545 -2.28676 0.976102 0
M  V30 315 C 4.45727 -2.26858 -0.156832 0 CFG=2
M  V30 316 C 3.2752 -1.33098 0.138239 0 CFG=2
M  V30 317 O 2.48059 -1.37133 -0.961934 0
M  V30 318 C 1.16783 -1.61289 -0.835038 0
M  V30 319 C 0.726986 -2.88667 -0.213212 0
M  V30 320 C -0.769484 -2.69222 0.10379 0
M  V30 321 C -1.49972 -2.68926 -1.20195 0
M  V30 322 C -0.838338 -1.99061 -2.32737 0
M  V30 323 C 0.594357 -1.70217 -2.26254 0
M  V30 324 C -2.92521 -2.19449 -1.08472 0
M  V30 325 O -5.4086 2.25165 0.90094 0
M  V30 326 C -6.09297 3.45644 0.791333 0
M  V30 327 O -2.27214 4.9961 0.883243 0
M  V30 328 O 4.88971 -3.08676 1.99203 0
M  V30 329 C 5.68423 -4.21994 2.18789 0
M  V30 330 O 3.89675 -3.55353 -0.216352 0
M  V30 331 C -4.90584 -2.49265 2.0021 0
M  V30 332 C 3.33639 2.24528 -2.38176 0
M  V30 333 C 4.61027 3.02304 -0.601308 0
M  V30 334 C 4.07324 -4.1332 -1.47128 0
M  V30 335 C -4.0934 -4.19466 0.643699 0
M  V30 336 C -2.99972 5.20385 2.03007 0
M  V30 337 N -4.90431 -2.60972 -0.102762 0 CHG=1
M  V30 338 C -5.65025 -2.28955 -1.28854 0
M  V30 339 C -5.4997 -0.90096 -1.78027 0
M  V30 340 C -5.24207 -0.00951249 -0.586407 0
M  V30 341 C -3.97964 -0.398531 0.158096 0
M  V30 342 C -3.64708 -1.87341 0.0275936 0 CFG=2
M  V30 343 C -5.12905 1.45053 -1.01248 0
M  V30 344 C -4.56991 2.21198 0.17216 0
M  V30 345 C -3.07684 1.90441 0.347062 0
M  V30 346 C -2.87764 0.51857 -0.287008 0
M  V30 347 O -2.41054 2.79858 -0.436645 0
M  V30 348 C -1.23153 3.30174 -0.0186962 0 CFG=1
M  V30 349 C -1.23636 4.26463 1.11128 0 CFG=1
M  V30 350 C 0.0678012 5.07502 0.982913 0
M  V30 351 C 1.20024 4.14864 1.22346 0
M  V30 352 C 1.20741 2.91503 0.3345 0 CFG=2
M  V30 353 C -0.156279 2.25889 0.283922 0
M  V30 354 C 2.24577 1.99588 0.891995 0
M  V30 355 C 2.99007 1.1595 -0.117136 0 CFG=1
M  V30 356 N 3.94146 1.89787 -0.903048 0 CHG=1
M  V30 357 C 5.08745 1.10484 -1.31425 0
M  V30 358 C 5.89973 0.618763 -0.169373 0
M  V30 359 C 5.03175 0.112429 0.918629 0
M  V30 360 C 3.59075 -0.082351 0.539543 0
M  V30 361 C 5.49965 -1.14706 1.58029 0
M  V30 362 C 5.55424 -2.23786 0.568652 0
M  V30 363 C 4.38135 -2.32563 -0.3566 0
M  V30 364 C 3.27633 -1.35279 -0.157332 0
M  V30 365 O 2.22644 -2.02074 0.472755 0
M  V30 366 C 1.02173 -2.00995 -0.133134 0
M  V30 367 C -0.0343379 -2.27006 0.931898 0
M  V30 368 C -1.00431 -3.34101 0.490306 0
M  V30 369 C -1.61737 -3.15983 -0.835111 0
M  V30 370 C -0.498896 -2.92049 -1.85039 0
M  V30 371 C 0.866528 -3.04668 -1.23231 0
M  V30 372 C -2.69116 -2.1919 -1.04318 0
M  V30 373 O -5.31992 1.84792 1.26607 0
M  V30 374 C -6.09703 2.84502 1.80298 0
M  V30 375 O -2.32618 5.08549 1.21341 0
M  V30 376 O 5.75819 -3.43088 1.27789 0
M  V30 377 C 6.99303 -3.99607 1.07327 0
M  V30 378 O 4.89084 -2.34506 -1.65733 0
M  V30 379 C -5.69934 -2.49754 1.10305 0
M  V30 380 C 3.31618 2.33362 -2.16532 0
M  V30 381 C 4.4503 3.09144 -0.287452 0
M  V30 382 C 4.76117 -3.54609 -2.30183 0
M  V30 383 C -4.56104 -4.02065 -0.233003 0
M  V30 384 C -2.93187 5.0394 2.46826 0
M  V30 385 H -6.51354 -2.82278 -0.626286 0
M  V30 386 H -5.03117 -2.27672 -1.50108 0
M  V30 387 H -6.9545 -0.785417 0.362265 0
M  V30 388 H -6.77029 -0.482557 -1.37059 0
M  V30 389 H -5.65611 1.04181 0.553364 0
M  V30 390 H -3.76869 0.239583 1.45895 0
M  V30 391 H -3.10796 -1.90573 1.44893 0
M  V30 392 H -6.01985 1.41588 -1.71313 0
M  V30 393 H -4.57256 0.556878 -2.25387 0
M  V30 394 H -3.8916 2.84255 -2.02325 0
M  V30 395 H -3.42153 2.23241 0.867421 0
M  V30 396 H -2.73306 0.34914 -1.41266 0
M  V30 397 H -1.79167 0.45302 0.091508 0
M  V30 398 H -1.14715 4.42871 0.0771019 0
M  V30 399 H -1.80641 2.2422 2.05516 0
M  V30 400 H 0.0907023 2.85302 3.41637 0
M  V30 401 H 0.890193 3.6292 1.9483 0
M  V30 402 H 1.39224 1.17309 2.34957 0
M  V30 403 H -0.293449 0.853114 1.88846 0
M  V30 404 H 0.511492 0.865819 -0.256409 0
M  V30 405 H 1.01258 3.81708 -0.0649025 0
M  V30 406 H 0.24849 2.89448 -1.36437 0
M  V30 407 H 2.73289 2.76921 0.354 0
M  V30 408 H 2.79285 1.2083 1.16588 0
M  V30 409 H 2.13053 0.644465 -1.57982 0
M  V30 410 H 5.07954 0.804348 -3.02769 0
M  V30 411 H 5.53816 2.44889 -2.66304 0
M  V30 412 H 6.32862 2.12539 -0.551669 0
M  V30 413 H 6.74525 0.600198 -1.3677 0
M  V30 414 H 4.78995 1.17398 0.788643 0
M  V30 415 H 4.25035 -0.455381 -1.73803 0
M  V30 416 H 6.4098 -0.136334 1.59463 0
M  V30 417 H 6.91089 -0.700706 0.0111631 0
M  V30 418 H 6.20406 -2.6623 1.02913 0
M  V30 419 H 3.8525 -3.23483 0.60804 0
M  V30 420 H 2.92013 -1.05037 0.882468 0
M  V30 421 H 2.02752 -3.65155 -0.113646 0
M  V30 422 H 0.562995 -2.39042 -2.36886 0
M  V30 423 H 1.12012 -4.04256 -2.10086 0
M  V30 424 H -1.38308 -3.66881 -2.21162 0
M  V30 425 H -0.898306 -4.41082 -0.587452 0
M  V30 426 H -0.914852 -1.43418 -1.05531 0
M  V30 427 H -0.980294 -3.49292 1.21709 0
M  V30 428 H -1.09879 -1.6976 1.60001 0
M  V30 429 H 1.13578 -2.75017 1.68936 0
M  V30 430 H 0.90905 -1.14413 0.832957 0
M  V30 431 H -3.09254 -1.65332 -1.56179 0
M  V30 432 H -3.19472 -3.26882 -0.866446 0
M  V30 433 H -4.44513 5.02052 -1.36803 0
M  V30 434 H -5.99604 5.07041 -0.530205 0
M  V30 435 H -5.97167 4.27747 -2.10451 0
M  V30 436 H 5.17673 -2.63315 4.20488 0
M  V30 437 H 6.65645 -2.45021 3.2172 0
M  V30 438 H 5.43552 -3.74742 2.78287 0
M  V30 439 H -5.37757 -0.882866 2.00473 0
M  V30 440 H -6.59774 -2.23174 1.8054 0
M  V30 441 H -5.05321 -2.50745 2.62767 0
M  V30 442 H 2.37201 1.26288 -3.38465 0
M  V30 443 H 3.71316 2.25633 -3.97741 0
M  V30 444 H 2.32796 3.02047 -3.01897 0
M  V30 445 H 3.00823 3.93488 -1.29466 0
M  V30 446 H 4.57371 3.79877 -2.06269 0
M  V30 447 H 4.51064 3.30566 -0.383634 0
M  V30 448 H 5.29037 -4.51822 -2.29333 0
M  V30 449 H 5.4105 -4.76506 -0.552486 0
M  V30 450 H 3.78998 -4.65999 -1.24469 0
M  V30 451 H -5.14745 -4.23279 1.57184 0
M  V30 452 H -3.47724 -3.92712 1.06596 0
M  V30 453 H -4.77688 -4.39508 -0.158956 0
M  V30 454 H -3.71357 3.64181 2.71908 0
M  V30 455 H -2.53016 3.66212 4.0934 0
M  V30 456 H -3.15683 5.16362 3.41414 0
M  V30 457 H -6.20418 -3.00079 0.764452 0
M  V30 458 H -5.37965 -2.3549 -0.74721 0
M  V30 459 H -6.38181 -0.826757 1.70654 0
M  V30 460 H -6.84193 -0.727302 0.0173319 0
M  V30 461 H -5.09337 0.951883 1.07132 0
M  V30 462 H -3.13703 -0.03783 1.52736 0
M  V30 463 H -2.22037 -1.97486 0.900374 0
M  V30 464 H -6.32801 0.790123 -1.00524 0
M  V30 465 H -4.96179 0.0314541 -1.83144 0
M  V30 466 H -5.24346 2.77284 -0.557242 0
M  V30 467 H -3.53711 2.22016 0.808707 0
M  V30 468 H -1.62732 0.586187 0.0202336 0
M  V30 469 H -2.70521 0.431764 -1.46222 0
M  V30 470 H -1.41227 4.62256 -0.499737 0
M  V30 471 H -1.84546 2.71101 1.82935 0
M  V30 472 H -0.00894159 3.85806 2.92134 0
M  V30 473 H 0.457003 4.52722 1.26063 0
M  V30 474 H 1.50185 2.26152 2.0574 0
M  V30 475 H -0.148882 1.58081 1.62307 0
M  V30 476 H 1.68927 3.36475 -0.0240137 0
M  V30 477 H 0.173553 3.6472 -1.64877 0
M  V30 478 H -0.499626 2.0559 -1.47288 0
M  V30 479 H 1.13482 0.401723 0.148048 0
M  V30 480 H 1.04827 1.00923 -1.50596 0
M  V30 481 H 3.16581 0.394954 -1.51266 0
M  V30 482 H 4.8399 0.920551 -2.12898 0
M  V30 483 H 5.71382 2.41483 -1.72025 0
M  V30 484 H 6.47108 0.103396 -0.736028 0
M  V30 485 H 6.5937 1.57754 0.213108 0
M  V30 486 H 5.0314 0.984711 1.70783 0
M  V30 487 H 2.8985 0.427919 1.42205 0
M  V30 488 H 6.1606 -0.841308 2.33129 0
M  V30 489 H 6.5651 -1.22974 0.660133 0
M  V30 490 H 4.10191 -2.18277 2.19628 0
M  V30 491 H 3.65482 -3.29961 0.0639868 0
M  V30 492 H 2.34105 -1.69587 1.00844 0
M  V30 493 H 1.99371 -3.43656 -1.0795 0
M  V30 494 H 0.147283 -1.71111 0.622671 0
M  V30 495 H 0.941559 -3.26919 0.904044 0
M  V30 496 H -0.190122 -4.3492 -0.851061 0
M  V30 497 H -1.19556 -3.82044 0.486818 0
M  V30 498 H -1.64654 -3.44393 -2.2946 0
M  V30 499 H -0.356741 -0.886896 -1.30656 0
M  V30 500 H -1.08004 -1.30723 -2.95573 0
M  V30 501 H 1.2802 -1.85889 -3.10078 0
M  V30 502 H 0.438234 -3.39563 -2.70268 0
M  V30 503 H -3.12756 -1.50465 -1.88298 0
M  V30 504 H -3.59354 -3.07425 -1.29851 0
M  V30 505 H -4.65574 4.37909 -1.97945 0
M  V30 506 H -4.78653 3.79292 -3.72385 0
M  V30 507 H -6.07465 3.41867 -2.52477 0
M  V30 508 H 5.5239 -3.56958 3.47928 0
M  V30 509 H 4.42783 -4.59622 2.40387 0
M  V30 510 H 6.16786 -4.96639 2.50974 0
M  V30 511 H -4.56269 -1.03356 2.55187 0
M  V30 512 H -4.94729 -2.73941 2.91232 0
M  V30 513 H -3.23329 -2.25869 2.80987 0
M  V30 514 H 2.27353 2.44835 -2.2684 0
M  V30 515 H 3.89661 2.7808 -2.87466 0
M  V30 516 H 3.1997 3.97697 -1.77928 0
M  V30 517 H 3.6529 2.86624 1.22355 0
M  V30 518 H 3.96478 4.09465 -0.110708 0
M  V30 519 H 5.24137 3.06919 0.516171 0
M  V30 520 H 5.39687 -4.14982 -1.3839 0
M  V30 521 H 5.6996 -2.97825 -2.71966 0
M  V30 522 H 4.04125 -3.43168 -2.31156 0
M  V30 523 H -4.93131 -4.3174 1.58942 0
M  V30 524 H -3.1874 -4.2351 1.73189 0
M  V30 525 H -4.03613 -4.43929 0.0914074 0
M  V30 526 H -3.90485 3.93745 2.32486 0
M  V30 527 H -2.70331 4.42634 3.6298 0
M  V30 528 H -3.59493 5.62938 2.70798 0
M  V30 529 H -6.59023 -2.83803 -0.358581 0
M  V30 530 H -5.50226 -3.13848 -1.73553 0
M  V30 531 H -6.87091 -0.849547 -1.39894 0
M  V30 532 H -5.41343 -0.986871 -2.39627 0
M  V30 533 H -5.9016 0.152533 0.40307 0
M  V30 534 H -3.87883 -0.360394 1.23347 0
M  V30 535 H -2.68629 -2.16041 0.626807 0
M  V30 536 H -6.13016 1.57526 -1.3277 0
M  V30 537 H -4.61841 1.17465 -2.15497 0
M  V30 538 H -4.44837 3.25611 -0.869598 0
M  V30 539 H -3.13204 1.94081 1.31349 0
M  V30 540 H -2.78765 0.671441 -1.43736 0
M  V30 541 H -1.81857 0.150719 -0.0446068 0
M  V30 542 H -0.904868 4.22904 -0.152382 0
M  V30 543 H -1.61066 2.71186 2.39057 0
M  V30 544 H 0.243065 4.08238 3.26222 0
M  V30 545 H 0.849311 4.2066 1.52089 0
M  V30 546 H 1.66635 2.1343 2.91261 0
M  V30 547 H -0.0326912 1.64781 2.81578 0
M  V30 548 H 0.616643 0.64945 0.923991 0
M  V30 549 H 0.870327 3.05677 -0.72958 0
M  V30 550 H -0.195943 1.68041 -0.903527 0
M  V30 551 H 2.78313 2.74654 0.895754 0
M  V30 552 H 2.87176 1.09126 1.50658 0
M  V30 553 H 2.07908 0.792304 -1.19858 0
M  V30 554 H 5.44473 2.55816 -2.33611 0
M  V30 555 H 4.91044 0.947818 -2.76852 0
M  V30 556 H 6.42255 2.0354 -0.324217 0
M  V30 557 H 6.62883 0.503264 -1.20107 0
M  V30 558 H 4.8532 1.11749 1.05532 0
M  V30 559 H 4.15995 -0.37563 -1.46162 0
M  V30 560 H 7.01936 -0.502864 0.479057 0
M  V30 561 H 5.99765 -0.596684 1.95407 0
M  V30 562 H 5.58058 -2.27252 -0.574732 0
M  V30 563 H 4.13419 -1.66918 2.03773 0
M  V30 564 H 2.30163 -1.02504 0.775104 0
M  V30 565 H 1.00423 -1.21737 -0.491651 0
M  V30 566 H 1.03866 -3.70056 0.526772 0
M  V30 567 H 0.55415 -4.08749 -1.19059 0
M  V30 568 H -1.31328 -3.61906 0.286123 0
M  V30 569 H -0.677517 -1.89267 0.4546 0
M  V30 570 H -1.30033 -3.46549 -2.11932 0
M  V30 571 H -0.384118 -0.542615 -1.81748 0
M  V30 572 H -0.965331 -1.38816 -3.34349 0
M  V30 573 H 1.50087 -1.26893 -2.97499 0
M  V30 574 H 0.96494 -3.0385 -2.94679 0
M  V30 575 H -2.89157 -1.18395 -2.20778 0
M  V30 576 H -3.44394 -2.84044 -2.05981 0
M  V30 577 H -6.58583 3.89837 1.61157 0
M  V30 578 H -5.14709 4.6034 0.683934 0
M  V30 579 H -6.56933 3.8518 -0.164044 0
M  V30 580 H 7.38993 -4.6301 1.12411 0
M  V30 581 H 7.58594 -3.52873 -0.262338 0
M  V30 582 H 6.12854 -4.56215 -0.117926 0
M  V30 583 H -5.81719 -1.87761 1.62342 0
M  V30 584 H -5.23395 -3.51164 1.91115 0
M  V30 585 H -4.04182 -2.21862 2.03781 0
M  V30 586 H 2.0813 1.66567 -2.76885 0
M  V30 587 H 3.54399 2.3752 -3.5436 0
M  V30 588 H 2.4049 3.38736 -2.53513 0
M  V30 589 H 3.04479 4.01029 -0.682989 0
M  V30 590 H 4.568 3.91796 -1.55462 0
M  V30 591 H 4.56751 3.28667 0.0877813 0
M  V30 592 H 4.34658 -3.78248 3.07876 0
M  V30 593 H 2.55829 -3.38084 2.87872 0
M  V30 594 H 3.2166 -4.94804 2.34947 0
M  V30 595 H -5.20335 -4.65457 0.276766 0
M  V30 596 H -3.50808 -4.45802 0.70689 0
M  V30 597 H -4.07369 -4.47146 -1.06482 0
M  V30 598 H -3.66799 3.86728 2.58992 0
M  V30 599 H -2.55021 4.53861 3.89164 0
M  V30 600 H -3.43674 5.60625 2.79309 0
M  V30 601 H -6.67501 -2.61425 -0.0642832 0
M  V30 602 H -5.6238 -3.29426 -1.31124 0
M  V30 603 H -6.73144 -0.89472 -1.51383 0
M  V30 604 H -5.15659 -1.18726 -2.26443 0
M  V30 605 H -5.92702 0.0184985 0.428018 0
M  V30 606 H -3.8124 0.019487 1.25367 0
M  V30 607 H -2.85292 -1.99203 1.12778 0
M  V30 608 H -6.24243 1.52785 -1.21625 0
M  V30 609 H -4.86823 0.984186 -2.20198 0
M  V30 610 H -4.19909 3.03748 -1.36642 0
M  V30 611 H -3.12386 1.80121 1.08789 0
M  V30 612 H -2.9627 0.575761 -1.60923 0
M  V30 613 H -1.75169 0.217662 -0.302828 0
M  V30 614 H -1.1982 4.41419 0.0106137 0
M  V30 615 H -1.62049 2.425 2.30671 0
M  V30 616 H -0.291739 4.16982 3.47577 0
M  V30 617 H 0.336684 4.65741 1.80042 0
M  V30 618 H 1.70921 2.90096 2.95431 0
M  V30 619 H 0.25403 1.87741 3.02912 0
M  V30 620 H 0.729989 1.03297 0.968881 0
M  V30 621 H 0.88869 3.72789 -0.339085 0
M  V30 622 H 0.183229 2.21752 -0.919631 0
M  V30 623 H 2.60787 3.3028 0.501611 0
M  V30 624 H 2.99069 2.02423 1.70374 0
M  V30 625 H 1.98027 0.893663 -0.777749 0
M  V30 626 H 5.42191 1.91591 -2.43867 0
M  V30 627 H 4.61504 0.35173 -2.48162 0
M  V30 628 H 6.45968 1.70038 -0.460741 0
M  V30 629 H 6.48504 0.0563341 -1.07281 0
M  V30 630 H 5.02714 1.33919 1.22326 0
M  V30 631 H 3.17706 0.0583916 1.40619 0
M  V30 632 H 6.67736 -0.395792 1.59372 0
M  V30 633 H 5.01152 -0.71312 2.31349 0
M  V30 634 H 6.55465 -2.19477 0.186567 0
M  V30 635 H 4.08267 -3.21316 -0.14374 0
M  V30 636 H 3.02897 -1.02116 -1.32684 0
M  V30 637 H 0.356961 -1.39921 0.354199 0
M  V30 638 H 0.929716 -4.19427 -0.719177 0
M  V30 639 H 1.00223 -3.908 1.05714 0
M  V30 640 H -1.22597 -4.44362 0.464684 0
M  V30 641 H -1.04165 -2.80538 1.06335 0
M  V30 642 H -1.63126 -3.90793 -1.68365 0
M  V30 643 H -0.553559 -2.53871 -3.07395 0
M  V30 644 H -1.05484 -1.14803 -2.14361 0
M  V30 645 H 1.16857 -0.953779 -2.05164 0
M  V30 646 H 1.4831 -2.69937 -2.13743 0
M  V30 647 H -2.82883 -1.44175 -1.74971 0
M  V30 648 H -3.63418 -2.96809 -1.59379 0
M  V30 649 H -6.03115 4.79604 0.83173 0
M  V30 650 H -4.56388 4.97953 -0.15296 0
M  V30 651 H -6.06997 4.40738 -0.896324 0
M  V30 652 H 6.40395 -4.48039 2.56618 0
M  V30 653 H 7.52165 -3.23427 1.97246 0
M  V30 654 H 6.66922 -4.40252 0.817326 0
M  V30 655 H -4.95045 -1.34568 2.22271 0
M  V30 656 H -6.36659 -2.21829 1.63677 0
M  V30 657 H -5.11188 -3.08459 2.5298 0
M  V30 658 H 2.384 1.16831 -2.84096 0
M  V30 659 H 3.56035 2.37882 -3.38784 0
M  V30 660 H 2.16802 2.9563 -2.42458 0
M  V30 661 H 3.36468 4.02082 -1.24375 0
M  V30 662 H 4.98126 3.50383 -1.7237 0
M  V30 663 H 4.57543 3.34064 -0.0130121 0
M  V30 664 H 5.34682 -3.4851 -3.18168 0
M  V30 665 H 5.40845 -4.2483 -1.58226 0
M  V30 666 H 3.84261 -3.72792 -2.25771 0
M  V30 667 H -5.34508 -4.48031 0.994065 0
M  V30 668 H -3.61759 -4.21151 1.28172 0
M  V30 669 H -4.28186 -4.49161 -0.415032 0
M  V30 670 H -3.94768 3.18238 2.8353 0
M  V30 671 H -2.86809 3.8729 4.09152 0
M  V30 672 H -3.97808 4.90911 3.18424 0
M  V30 673 H -6.78731 -2.79662 0.0684276 0
M  V30 674 H -5.74926 -3.24789 -1.29982 0
M  V30 675 H -7.03377 -0.909437 -1.13994 0
M  V30 676 H -5.59192 -1.1182 -2.14483 0
M  V30 677 H -6.03951 0.24625 0.519236 0
M  V30 678 H -4.06652 -0.36532 1.45239 0
M  V30 679 H -2.83694 -2.16864 0.903432 0
M  V30 680 H -6.0297 1.56023 -1.34726 0
M  V30 681 H -4.46734 1.01955 -1.9796 0
M  V30 682 H -4.43011 3.16995 -0.779896 0
M  V30 683 H -2.96093 1.97773 1.35216 0
M  V30 684 H -2.7075 0.407935 -1.17439 0
M  V30 685 H -1.95272 -0.0200263 0.475062 0
M  V30 686 H -0.83062 4.05879 -0.608454 0
M  V30 687 H -1.12977 2.93507 2.22731 0
M  V30 688 H 0.35081 4.84307 2.60625 0
M  V30 689 H 0.558215 4.98629 0.772868 0
M  V30 690 H 2.32073 3.53241 1.96206 0
M  V30 691 H 0.959515 2.3362 2.26523 0
M  V30 692 H 1.83382 3.43942 -0.380958 0
M  V30 693 H 0.218018 2.26549 -1.45398 0
M  V30 694 H -0.00670922 1.166 -0.097202 0
M  V30 695 H 3.0141 1.48492 1.29815 0
M  V30 696 H 1.6193 0.611811 0.677678 0
M  V30 697 H 2.25394 0.684114 -1.57875 0
M  V30 698 H 4.84781 0.740993 -2.9554 0
M  V30 699 H 5.60712 2.26256 -2.50765 0
M  V30 700 H 6.72765 1.48806 -0.640415 0
M  V30 701 H 6.60569 -0.00505727 -1.5887 0
M  V30 702 H 5.01769 0.803209 0.882066 0
M  V30 703 H 4.15233 -0.635114 -1.6613 0
M  V30 704 H 6.87841 -0.596129 1.0154 0
M  V30 705 H 6.27022 -1.74157 -0.281478 0
M  V30 706 H 4.64927 -1.11769 2.24402 0
M  V30 707 H 3.48568 -3.20488 1.1271 0
M  V30 708 H 2.43325 -1.21946 0.783697 0
M  V30 709 H 0.811518 -1.29576 -0.505065 0
M  V30 710 H 0.946815 -3.68005 0.565451 0
M  V30 711 H 0.471607 -4.26065 -1.04736 0
M  V30 712 H -1.39606 -3.83879 0.359204 0
M  V30 713 H -0.822501 -2.10614 0.617072 0
M  V30 714 H -1.54671 -3.58565 -1.98008 0
M  V30 715 H -0.648707 -0.677038 -1.63139 0
M  V30 716 H -1.33959 -1.34875 -3.12699 0
M  V30 717 H 1.11829 -1.40696 -3.03543 0
M  V30 718 H 0.539889 -3.15639 -2.88258 0
M  V30 719 H -3.21167 -1.36432 -1.98769 0
M  V30 720 H -3.69576 -3.01837 -1.69661 0
M  V30 721 H -6.38218 3.7576 -0.123149 0
M  V30 722 H -6.4738 3.87363 1.71808 0
M  V30 723 H -5.07473 4.52925 0.821679 0
M  V30 724 H 6.51817 -3.45837 3.92238 0
M  V30 725 H 4.82206 -2.76243 3.787 0
M  V30 726 H 6.20529 -1.6439 3.76944 0
M  V30 727 H -5.82945 -1.6317 1.96409 0
M  V30 728 H -5.4589 -3.33541 2.35211 0
M  V30 729 H -4.11558 -2.19393 2.34129 0
M  V30 730 H 2.18943 2.06693 -2.79738 0
M  V30 731 H 3.72041 2.50605 -3.55725 0
M  V30 732 H 3.0287 3.68134 -2.44036 0
M  V30 733 H 4.04841 2.98577 0.404287 0
M  V30 734 H 4.05303 4.0425 -1.02903 0
M  V30 735 H 5.47338 3.09658 -0.610685 0
M  V30 736 H 5.11913 -4.74394 -1.46013 0
M  V30 737 H 4.92225 -4.9034 0.314923 0
M  V30 738 H 3.44306 -4.59589 -0.755541 0
M  V30 739 H -5.3221 -4.65364 0.875641 0
M  V30 740 H -3.58779 -4.35622 1.14675 0
M  V30 741 H -4.30335 -4.56016 -0.556989 0
M  V30 742 H -3.44217 3.86299 2.68985 0
M  V30 743 H -2.25158 4.98941 3.51496 0
M  V30 744 H -3.47545 5.60383 2.40065 0
M  V30 745 H -6.31026 -2.97102 -0.938998 0
M  V30 746 H -4.88713 -2.47587 -1.95665 0
M  V30 747 H -6.41305 -0.553672 -0.129441 0
M  V30 748 H -6.75767 -0.761337 -1.90997 0
M  V30 749 H -4.21354 -0.564318 -2.20231 0
M  V30 750 H -4.45336 0.35089 0.690744 0
M  V30 751 H -3.21965 -1.52046 1.28394 0
M  V30 752 H -6.25025 1.44458 -1.73514 0
M  V30 753 H -4.90906 1.45031 -2.86076 0
M  V30 754 H -4.2767 3.29294 -1.80264 0
M  V30 755 H -3.51221 2.27881 0.817184 0
M  V30 756 H -1.90697 0.659026 0.237933 0
M  V30 757 H -2.3895 0.644143 -1.49725 0
M  V30 758 H -0.9064 4.33854 -0.0868324 0
M  V30 759 H -1.95303 2.48345 2.09666 0
M  V30 760 H -0.150522 3.53656 3.37588 0
M  V30 761 H 0.640072 3.96655 1.74944 0
M  V30 762 H 1.22387 1.72737 2.82205 0
M  V30 763 H -0.455221 1.2639 2.46679 0
M  V30 764 H 0.476717 0.541735 0.493412 0
M  V30 765 H 0.769719 3.10504 -0.799718 0
M  V30 766 H -0.333927 1.80952 -1.15147 0
M  V30 767 H 2.47954 2.76843 0.708577 0
M  V30 768 H 2.60892 1.21076 1.53783 0
M  V30 769 H 2.00557 0.584321 -1.20205 0
M  V30 770 H 5.33396 2.34708 -2.40748 0
M  V30 771 H 4.86103 0.678394 -2.65291 0
M  V30 772 H 6.26631 2.13856 -0.364936 0
M  V30 773 H 6.5839 0.535777 -1.05185 0
M  V30 774 H 4.80252 1.28588 1.18946 0
M  V30 775 H 4.13993 -0.493687 -1.20306 0
M  V30 776 H 6.87687 -0.190155 1.14931 0
M  V30 777 H 5.39104 -0.788157 2.03659 0
M  V30 778 H 5.86778 -1.47335 -0.897485 0
M  V30 779 H 4.43033 -2.92233 1.32048 0
M  V30 780 H 3.18998 -1.02089 1.62663 0
M  V30 781 H 2.27013 -3.23998 1.26556 0
M  V30 782 H 1.24737 -3.33791 -1.36 0
M  V30 783 H 1.31818 -4.64766 -0.182531 0
M  V30 784 H -0.908392 -3.96813 -1.41312 0
M  V30 785 H -0.946386 -4.35905 0.386649 0
M  V30 786 H -0.348761 -1.57961 -0.658123 0
M  V30 787 H -1.51997 -2.89407 1.83796 0
M  V30 788 H -1.27581 -1.09129 1.72423 0
M  V30 789 H 0.560612 -2.86088 2.59883 0
M  V30 790 H 0.874548 -1.16854 2.04677 0
M  V30 791 H -2.38442 -1.38074 -1.57187 0
M  V30 792 H -2.76855 -3.03753 -1.15313 0
M  V30 793 H -6.20932 4.27879 -1.61163 0
M  V30 794 H -6.5889 4.75849 0.0424671 0
M  V30 795 H -4.93171 5.01617 -0.577878 0
M  V30 796 H 8.15244 -3.80778 -0.227708 0
M  V30 797 H 8.07397 -2.14069 -0.857926 0
M  V30 798 H 6.9056 -3.42742 -1.45481 0
M  V30 799 H -5.50642 -1.0897 1.66926 0
M  V30 800 H -6.63606 -2.34535 1.00349 0
M  V30 801 H -5.3489 -2.79022 2.13662 0
M  V30 802 H 2.02824 1.33925 -2.88291 0
M  V30 803 H 3.51266 2.19311 -3.56039 0
M  V30 804 H 2.2653 3.1062 -2.65554 0
M  V30 805 H 2.93383 3.93815 -1.00595 0
M  V30 806 H 4.53695 3.71808 -1.67231 0
M  V30 807 H 4.31553 3.25991 0.00562055 0
M  V30 808 H 3.98912 -5.04699 -1.37907 0
M  V30 809 H 3.58007 -4.96259 0.356167 0
M  V30 810 H 5.25891 -4.84181 -0.182856 0
M  V30 811 H -5.17345 -4.34436 0.82762 0
M  V30 812 H -3.44254 -3.97177 0.91675 0
M  V30 813 H -4.28939 -4.30986 -0.69965 0
M  V30 814 H -3.94289 3.91514 2.48258 0
M  V30 815 H -2.79891 4.15186 3.83778 0
M  V30 816 H -3.42723 5.55243 2.95946 0
M  V30 817 H -6.5797 -2.96831 0.269332 0
M  V30 818 H -5.54315 -3.47782 -1.07109 0
M  V30 819 H -6.88504 -1.17085 -1.05363 0
M  V30 820 H -5.42665 -1.37215 -2.02127 0
M  V30 821 H -5.99558 0.106287 0.564217 0
M  V30 822 H -4.12394 -0.486976 1.64125 0
M  V30 823 H -2.6898 -2.1454 1.10209 0
M  V30 824 H -5.98755 1.2613 -1.44127 0
M  V30 825 H -4.28544 0.810272 -1.86685 0
M  V30 826 H -4.62714 3.03279 -0.791571 0
M  V30 827 H -3.05536 2.25195 1.33087 0
M  V30 828 H -2.2189 0.210908 -0.647093 0
M  V30 829 H -2.07627 0.248685 1.17499 0
M  V30 830 H -0.945607 3.89366 -1.07302 0
M  V30 831 H -1.14842 3.59478 1.96213 0
M  V30 832 H -0.00757771 5.68031 1.66418 0
M  V30 833 H 0.150184 5.32754 -0.147198 0
M  V30 834 H 2.12993 4.45416 1.3071 0
M  V30 835 H 0.887127 3.41743 2.08211 0
M  V30 836 H 1.61466 3.47849 -0.833908 0
M  V30 837 H 0.0465087 1.81131 -1.21996 0
M  V30 838 H -0.115359 1.3915 0.491363 0
M  V30 839 H 1.64607 1.21196 1.21276 0
M  V30 840 H 2.9341 2.38886 1.40815 0
M  V30 841 H 2.42131 0.601233 -1.015 0
M  V30 842 H 5.61338 1.43738 -2.36491 0
M  V30 843 H 4.50674 0.07387 -2.12944 0
M  V30 844 H 6.70554 1.30126 -0.39671 0
M  V30 845 H 6.56328 -0.38373 -0.895027 0
M  V30 846 H 5.35562 1.10712 1.38851 0
M  V30 847 H 3.36526 0.123207 1.6418 0
M  V30 848 H 6.82626 -0.79408 1.67584 0
M  V30 849 H 5.30499 -0.813185 2.58443 0
M  V30 850 H 6.3618 -2.77502 0.608832 0
M  V30 851 H 4.88776 -2.07484 -1.1379 0
M  V30 852 H 2.7182 -1.8782 0.957241 0
M  V30 853 H 0.579147 -0.767593 -0.368255 0
M  V30 854 H 1.19222 -3.19393 0.70801 0
M  V30 855 H 0.77598 -3.74407 -0.926922 0
M  V30 856 H -1.1512 -3.47601 0.75716 0
M  V30 857 H -0.779213 -1.67598 0.600037 0
M  V30 858 H -1.57459 -3.78279 -1.49083 0
M  V30 859 H -1.37875 -1.01533 -2.52236 0
M  V30 860 H -1.03108 -2.5626 -3.28461 0
M  V30 861 H 0.850782 -0.809222 -2.84589 0
M  V30 862 H 1.15875 -2.56435 -2.72493 0
M  V30 863 H -3.05532 -1.27864 -1.72937 0
M  V30 864 H -3.64655 -2.92265 -1.56727 0
M  V30 865 H -6.67941 3.4982 -0.162835 0
M  V30 866 H -6.82418 3.587 1.62973 0
M  V30 867 H -5.46121 4.34501 0.788498 0
M  V30 868 H 5.2503 -4.83835 2.97636 0
M  V30 869 H 6.71016 -3.94169 2.52107 0
M  V30 870 H 5.78558 -4.72354 1.21899 0
M  V30 871 H -5.67827 -1.7196 2.10285 0
M  V30 872 H -5.34198 -3.40971 2.49881 0
M  V30 873 H -3.97937 -2.28572 2.58556 0
M  V30 874 H 2.31241 1.81981 -2.42088 0
M  V30 875 H 3.845 1.86946 -3.29284 0
M  V30 876 H 3.32739 3.35503 -2.50391 0
M  V30 877 H 4.16409 3.96129 -1.05084 0
M  V30 878 H 5.69699 3.09348 -0.905974 0
M  V30 879 H 4.55566 3.16517 0.474939 0
M  V30 880 H 5.16759 -4.20769 -1.67963 0
M  V30 881 H 3.66608 -5.1637 -1.43206 0
M  V30 882 H 3.52128 -3.60114 -2.2676 0
M  V30 883 H -5.02101 -4.7927 0.883217 0
M  V30 884 H -3.40585 -4.36409 1.47289 0
M  V30 885 H -3.75631 -4.53872 -0.331359 0
M  V30 886 H -3.51012 4.30869 2.42986 0
M  V30 887 H -2.43742 5.75519 2.8132 0
M  V30 888 H -3.83738 5.9049 1.74101 0
M  V30 889 H -6.73301 -2.50267 -1.04444 0
M  V30 890 H -5.41801 -2.99185 -2.14037 0
M  V30 891 H -6.49726 -0.572806 -2.1861 0
M  V30 892 H -4.78827 -0.754928 -2.60249 0
M  V30 893 H -6.14653 -0.0662476 0.0543905 0
M  V30 894 H -4.17228 -0.156037 1.22878 0
M  V30 895 H -3.26985 -2.18519 1.0492 0
M  V30 896 H -6.16965 1.82804 -1.15817 0
M  V30 897 H -4.60036 1.60294 -1.9469 0
M  V30 898 H -4.74525 3.28557 -0.0479437 0
M  V30 899 H -2.82243 1.90332 1.4058 0
M  V30 900 H -1.91033 0.140548 0.0859464 0
M  V30 901 H -2.87093 0.700479 -1.3772 0
M  V30 902 H -0.793543 3.86696 -0.903463 0
M  V30 903 H -1.07979 3.71272 2.08622 0
M  V30 904 H 0.0424435 5.8083 1.81317 0
M  V30 905 H 0.109786 5.61912 0.029136 0
M  V30 906 H 2.16824 4.67075 1.09096 0
M  V30 907 H 1.15656 3.78588 2.26805 0
M  V30 908 H 1.40247 3.29049 -0.678887 0
M  V30 909 H -0.142755 1.59864 -0.619301 0
M  V30 910 H -0.383765 1.64976 1.15595 0
M  V30 911 H 2.88565 2.5158 1.59645 0
M  V30 912 H 1.6742 1.2434 1.51841 0
M  V30 913 H 2.22764 0.779489 -0.829347 0
M  V30 914 H 5.73499 1.83481 -1.8903 0
M  V30 915 H 4.81702 0.348038 -2.07232 0
M  V30 916 H 6.55045 1.47963 0.169626 0
M  V30 917 H 6.6257 -0.131252 -0.559343 0
M  V30 918 H 5.05353 0.884858 1.74583 0
M  V30 919 H 3.06442 -0.136988 1.54713 0
M  V30 920 H 6.52976 -0.973033 1.96636 0
M  V30 921 H 4.78599 -1.36108 2.41556 0
M  V30 922 H 6.52435 -2.0878 0.00586951 0
M  V30 923 H 3.98068 -3.3808 -0.228533 0
M  V30 924 H 2.87709 -1.08389 -1.1806 0
M  V30 925 H 0.711631 -1.04322 -0.605838 0
M  V30 926 H -0.512019 -1.35263 1.29583 0
M  V30 927 H 0.449459 -2.707 1.86064 0
M  V30 928 H -0.361294 -4.2756 0.413758 0
M  V30 929 H -1.70855 -3.60061 1.3074 0
M  V30 930 H -1.99386 -4.19221 -1.1334 0
M  V30 931 H -0.59298 -1.8382 -2.15365 0
M  V30 932 H -0.61447 -3.49637 -2.76698 0
M  V30 933 H 1.58175 -2.71777 -2.03738 0
M  V30 934 H 1.15382 -4.05223 -0.938928 0
M  V30 935 H -2.2258 -1.2236 -1.39641 0
M  V30 936 H -3.29682 -2.51449 -1.94518 0
M  V30 937 H -6.67739 2.50672 2.67244 0
M  V30 938 H -5.44651 3.6938 2.08322 0
M  V30 939 H -6.81036 3.24133 1.04619 0
M  V30 940 H 7.03775 -4.91798 1.6752 0
M  V30 941 H 7.83587 -3.34617 1.43799 0
M  V30 942 H 7.15435 -4.31131 0.0168241 0
M  V30 943 H -6.75554 -2.22393 0.901436 0
M  V30 944 H -5.76849 -3.47411 1.66722 0
M  V30 945 H -5.19501 -1.81067 1.813 0
M  V30 946 H 2.33876 1.83801 -2.32808 0
M  V30 947 H 3.92578 2.06042 -3.05293 0
M  V30 948 H 3.21547 3.43449 -2.22352 0
M  V30 949 H 4.6647 3.04093 0.768505 0
M  V30 950 H 3.78882 3.94876 -0.513998 0
M  V30 951 H 5.42172 3.34514 -0.798316 0
M  V30 952 H 5.15409 -3.56924 -3.31498 0
M  V30 953 H 5.19992 -4.35957 -1.65183 0
M  V30 954 H 3.68355 -3.80231 -2.36396 0
M  V30 955 H -5.47865 -4.63454 0.0216703 0
M  V30 956 H -3.78643 -4.365 0.443761 0
M  V30 957 H -4.375 -4.28651 -1.30573 0
M  V30 958 H -2.25688 5.34144 3.27757 0
M  V30 959 H -3.86378 5.60194 2.44276 0
M  V30 960 H -3.13032 3.9414 2.64824 0
M  V30 END ATOM
M  V30 BEGIN BOND
M  V30 1 1 1 2
M  V30 2 1 2 3
M  V30 3 1 3 4
M  V30 4 1 4 5
M  V30 5 1 1 6
M  V30 6 1 5 6
M  V30 7 1 4 7
M  V30 8 1 7 8
M  V30 9 1 8 9
M  V30 10 1 5 10
M  V30 11 1 9 10
M  V30 12 1 9 11
M  V30 13 1 11 12
M  V30 14 1 12 13
M  V30 15 1 13 14
M  V30 16 1 14 15
M  V30 17 1 15 16
M  V30 18 1 12 17
M  V30 19 1 16 17
M  V30 20 1 16 18
M  V30 21 1 18 19
M  V30 22 1 19 20
M  V30 23 1 20 21
M  V30 24 1 21 22
M  V30 25 1 22 23
M  V30 26 1 19 24
M  V30 27 1 23 24
M  V30 28 1 23 25
M  V30 29 1 25 26
M  V30 30 1 26 27
M  V30 31 1 24 28
M  V30 32 1 27 28
M  V30 33 1 28 29
M  V30 34 1 29 30
M  V30 35 1 30 31
M  V30 36 1 31 32
M  V30 37 1 32 33
M  V30 38 1 33 34
M  V30 39 1 30 35
M  V30 40 1 34 35
M  V30 41 1 6 36
M  V30 42 1 33 36
M  V30 43 1 8 37
M  V30 44 1 37 38
M  V30 45 1 13 39
M  V30 46 1 26 40
M  V30 47 1 40 41
M  V30 48 1 27 42
M  V30 49 1 1 43
M  V30 50 1 20 44
M  V30 51 1 20 45
M  V30 52 1 42 46
M  V30 53 1 1 47
M  V30 54 1 39 48
M  V30 55 1 49 50
M  V30 56 1 50 51
M  V30 57 1 51 52
M  V30 58 1 52 53
M  V30 59 1 49 54
M  V30 60 1 53 54
M  V30 61 1 52 55
M  V30 62 1 55 56
M  V30 63 1 56 57
M  V30 64 1 53 58
M  V30 65 1 57 58
M  V30 66 1 57 59
M  V30 67 1 59 60
M  V30 68 1 60 61
M  V30 69 1 61 62
M  V30 70 1 62 63
M  V30 71 1 63 64
M  V30 72 1 60 65
M  V30 73 1 64 65
M  V30 74 1 64 66
M  V30 75 1 66 67
M  V30 76 1 67 68
M  V30 77 1 68 69
M  V30 78 1 69 70
M  V30 79 1 70 71
M  V30 80 1 67 72
M  V30 81 1 71 72
M  V30 82 1 71 73
M  V30 83 1 73 74
M  V30 84 1 74 75
M  V30 85 1 72 76
M  V30 86 1 75 76
M  V30 87 1 76 77
M  V30 88 1 77 78
M  V30 89 1 78 79
M  V30 90 1 79 80
M  V30 91 1 80 81
M  V30 92 1 81 82
M  V30 93 1 78 83
M  V30 94 1 82 83
M  V30 95 1 54 84
M  V30 96 1 81 84
M  V30 97 1 56 85
M  V30 98 1 85 86
M  V30 99 1 61 87
M  V30 100 1 74 88
M  V30 101 1 88 89
M  V30 102 1 75 90
M  V30 103 1 49 91
M  V30 104 1 68 92
M  V30 105 1 68 93
M  V30 106 1 90 94
M  V30 107 1 49 95
M  V30 108 1 87 96
M  V30 109 1 97 98
M  V30 110 1 98 99
M  V30 111 1 99 100
M  V30 112 1 100 101
M  V30 113 1 97 102
M  V30 114 1 101 102
M  V30 115 1 100 103
M  V30 116 1 103 104
M  V30 117 1 104 105
M  V30 118 1 101 106
M  V30 119 1 105 106
M  V30 120 1 105 107
M  V30 121 1 107 108
M  V30 122 1 108 109
M  V30 123 1 109 110
M  V30 124 1 110 111
M  V30 125 1 111 112
M  V30 126 1 108 113
M  V30 127 1 112 113
M  V30 128 1 112 114
M  V30 129 1 114 115
M  V30 130 1 115 116
M  V30 131 1 116 117
M  V30 132 1 117 118
M  V30 133 1 118 119
M  V30 134 1 115 120
M  V30 135 1 119 120
M  V30 136 1 119 121
M  V30 137 1 121 122
M  V30 138 1 122 123
M  V30 139 1 120 124
M  V30 140 1 123 124
M  V30 141 1 124 125
M  V30 142 1 125 126
M  V30 143 1 126 127
M  V30 144 1 127 128
M  V30 145 1 128 129
M  V30 146 1 129 130
M  V30 147 1 126 131
M  V30 148 1 130 131
M  V30 149 1 102 132
M  V30 150 1 129 132
M  V30 151 1 104 133
M  V30 152 1 133 134
M  V30 153 1 109 135
M  V30 154 1 122 136
M  V30 155 1 136 137
M  V30 156 1 123 138
M  V30 157 1 97 139
M  V30 158 1 116 140
M  V30 159 1 116 141
M  V30 160 1 138 142
M  V30 161 1 97 143
M  V30 162 1 135 144
M  V30 163 1 145 146
M  V30 164 1 146 147
M  V30 165 1 147 148
M  V30 166 1 148 149
M  V30 167 1 145 150
M  V30 168 1 149 150
M  V30 169 1 148 151
M  V30 170 1 151 152
M  V30 171 1 152 153
M  V30 172 1 149 154
M  V30 173 1 153 154
M  V30 174 1 153 155
M  V30 175 1 155 156
M  V30 176 1 156 157
M  V30 177 1 157 158
M  V30 178 1 158 159
M  V30 179 1 159 160
M  V30 180 1 156 161
M  V30 181 1 160 161
M  V30 182 1 160 162
M  V30 183 1 162 163
M  V30 184 1 163 164
M  V30 185 1 164 165
M  V30 186 1 165 166
M  V30 187 1 166 167
M  V30 188 1 163 168
M  V30 189 1 167 168
M  V30 190 1 167 169
M  V30 191 1 169 170
M  V30 192 1 170 171
M  V30 193 1 168 172
M  V30 194 1 171 172
M  V30 195 1 172 173
M  V30 196 1 173 174
M  V30 197 1 174 175
M  V30 198 1 175 176
M  V30 199 1 176 177
M  V30 200 1 177 178
M  V30 201 1 174 179
M  V30 202 1 178 179
M  V30 203 1 150 180
M  V30 204 1 177 180
M  V30 205 1 152 181
M  V30 206 1 181 182
M  V30 207 1 157 183
M  V30 208 1 170 184
M  V30 209 1 184 185
M  V30 210 1 171 186
M  V30 211 1 145 187
M  V30 212 1 164 188
M  V30 213 1 164 189
M  V30 214 1 186 190
M  V30 215 1 145 191
M  V30 216 1 183 192
M  V30 217 1 193 194
M  V30 218 1 194 195
M  V30 219 1 195 196
M  V30 220 1 196 197
M  V30 221 1 193 198
M  V30 222 1 197 198
M  V30 223 1 196 199
M  V30 224 1 199 200
M  V30 225 1 200 201
M  V30 226 1 197 202
M  V30 227 1 201 202
M  V30 228 1 201 203
M  V30 229 1 203 204
M  V30 230 1 204 205
M  V30 231 1 205 206
M  V30 232 1 206 207
M  V30 233 1 207 208
M  V30 234 1 204 209
M  V30 235 1 208 209
M  V30 236 1 208 210
M  V30 237 1 210 211
M  V30 238 1 211 212
M  V30 239 1 212 213
M  V30 240 1 213 214
M  V30 241 1 214 215
M  V30 242 1 211 216
M  V30 243 1 215 216
M  V30 244 1 215 217
M  V30 245 1 217 218
M  V30 246 1 218 219
M  V30 247 1 216 220
M  V30 248 1 219 220
M  V30 249 1 220 221
M  V30 250 1 221 222
M  V30 251 1 222 223
M  V30 252 1 223 224
M  V30 253 1 224 225
M  V30 254 1 225 226
M  V30 255 1 222 227
M  V30 256 1 226 227
M  V30 257 1 198 228
M  V30 258 1 225 228
M  V30 259 1 200 229
M  V30 260 1 229 230
M  V30 261 1 205 231
M  V30 262 1 218 232
M  V30 263 1 232 233
M  V30 264 1 219 234
M  V30 265 1 193 235
M  V30 266 1 212 236
M  V30 267 1 212 237
M  V30 268 1 234 238
M  V30 269 1 193 239
M  V30 270 1 231 240
M  V30 271 1 241 242
M  V30 272 1 242 243
M  V30 273 1 243 244
M  V30 274 1 244 245
M  V30 275 1 241 246
M  V30 276 1 245 246
M  V30 277 1 244 247
M  V30 278 1 247 248
M  V30 279 1 248 249
M  V30 280 1 245 250
M  V30 281 1 249 250
M  V30 282 1 249 251
M  V30 283 1 251 252
M  V30 284 1 252 253
M  V30 285 1 253 254
M  V30 286 1 254 255
M  V30 287 1 255 256
M  V30 288 1 252 257
M  V30 289 1 256 257
M  V30 290 1 256 258
M  V30 291 1 258 259
M  V30 292 1 259 260
M  V30 293 1 260 261
M  V30 294 1 261 262
M  V30 295 1 262 263
M  V30 296 1 259 264
M  V30 297 1 263 264
M  V30 298 1 263 265
M  V30 299 1 265 266
M  V30 300 1 266 267
M  V30 301 1 264 268
M  V30 302 1 267 268
M  V30 303 1 268 269
M  V30 304 1 269 270
M  V30 305 1 270 271
M  V30 306 1 271 272
M  V30 307 1 272 273
M  V30 308 1 273 274
M  V30 309 1 270 275
M  V30 310 1 274 275
M  V30 311 1 246 276
M  V30 312 1 273 276
M  V30 313 1 248 277
M  V30 314 1 277 278
M  V30 315 1 253 279
M  V30 316 1 266 280
M  V30 317 1 280 281
M  V30 318 1 267 282
M  V30 319 1 241 283
M  V30 320 1 260 284
M  V30 321 1 260 285
M  V30 322 1 282 286
M  V30 323 1 241 287
M  V30 324 1 279 288
M  V30 325 1 289 290
M  V30 326 1 290 291
M  V30 327 1 291 292
M  V30 328 1 292 293
M  V30 329 1 289 294
M  V30 330 1 293 294
M  V30 331 1 292 295
M  V30 332 1 295 296
M  V30 333 1 296 297
M  V30 334 1 293 298
M  V30 335 1 297 298
M  V30 336 1 297 299
M  V30 337 1 299 300
M  V30 338 1 300 301
M  V30 339 1 301 302
M  V30 340 1 302 303
M  V30 341 1 303 304
M  V30 342 1 300 305
M  V30 343 1 304 305
M  V30 344 1 304 306
M  V30 345 1 306 307
M  V30 346 1 307 308
M  V30 347 1 308 309
M  V30 348 1 309 310
M  V30 349 1 310 311
M  V30 350 1 307 312
M  V30 351 1 311 312
M  V30 352 1 311 313
M  V30 353 1 313 314
M  V30 354 1 314 315
M  V30 355 1 312 316
M  V30 356 1 315 316
M  V30 357 1 316 317
M  V30 358 1 317 318
M  V30 359 1 318 319
M  V30 360 1 319 320
M  V30 361 1 320 321
M  V30 362 1 321 322
M  V30 363 1 318 323
M  V30 364 1 322 323
M  V30 365 1 294 324
M  V30 366 1 321 324
M  V30 367 1 296 325
M  V30 368 1 325 326
M  V30 369 1 301 327
M  V30 370 1 314 328
M  V30 371 1 328 329
M  V30 372 1 315 330
M  V30 373 1 289 331
M  V30 374 1 308 332
M  V30 375 1 308 333
M  V30 376 1 330 334
M  V30 377 1 289 335
M  V30 378 1 327 336
M  V30 379 1 337 338
M  V30 380 1 338 339
M  V30 381 1 339 340
M  V30 382 1 340 341
M  V30 383 1 337 342
M  V30 384 1 341 342
M  V30 385 1 340 343
M  V30 386 1 343 344
M  V30 387 1 344 345
M  V30 388 1 341 346
M  V30 389 1 345 346
M  V30 390 1 345 347
M  V30 391 1 347 348
M  V30 392 1 348 349
M  V30 393 1 349 350
M  V30 394 1 350 351
M  V30 395 1 351 352
M  V30 396 1 348 353
M  V30 397 1 352 353
M  V30 398 1 352 354
M  V30 399 1 354 355
M  V30 400 1 355 356
M  V30 401 1 356 357
M  V30 402 1 357 358
M  V30 403 1 358 359
M  V30 404 1 355 360
M  V30 405 1 359 360
M  V30 406 1 359 361
M  V30 407 1 361 362
M  V30 408 1 362 363
M  V30 409 1 360 364
M  V30 410 1 363 364
M  V30 411 1 364 365
M  V30 412 1 365 366
M  V30 413 1 366 367
M  V30 414 1 367 368
M  V30 415 1 368 369
M  V30 416 1 369 370
M  V30 417 1 366 371
M  V30 418 1 370 371
M  V30 419 1 342 372
M  V30 420 1 369 372
M  V30 421 1 344 373
M  V30 422 1 373 374
M  V30 423 1 349 375
M  V30 424 1 362 376
M  V30 425 1 376 377
M  V30 426 1 363 378
M  V30 427 1 337 379
M  V30 428 1 356 380
M  V30 429 1 356 381
M  V30 430 1 378 382
M  V30 431 1 337 383
M  V30 432 1 375 384
M  V30 433 1 2 385
M  V30 434 1 2 386
M  V30 435 1 3 387
M  V30 436 1 3 388
M  V30 437 1 4 389
M  V30 438 1 5 390
M  V30 439 1 6 391 CFG=1
M  V30 440 1 7 392
M  V30 441 1 7 393
M  V30 442 1 8 394
M  V30 443 1 9 395
M  V30 444 1 10 396
M  V30 445 1 10 397
M  V30 446 1 12 398
M  V30 447 1 13 399
M  V30 448 1 14 400
M  V30 449 1 14 401
M  V30 450 1 15 402
M  V30 451 1 15 403
M  V30 452 1 16 404
M  V30 453 1 17 405
M  V30 454 1 17 406
M  V30 455 1 18 407
M  V30 456 1 18 408
M  V30 457 1 19 409 CFG=3
M  V30 458 1 21 410
M  V30 459 1 21 411
M  V30 460 1 22 412
M  V30 461 1 22 413
M  V30 462 1 23 414 CFG=1
M  V30 463 1 24 415
M  V30 464 1 25 416
M  V30 465 1 25 417
M  V30 466 1 26 418
M  V30 467 1 27 419
M  V30 468 1 28 420
M  V30 469 1 30 421
M  V30 470 1 31 422
M  V30 471 1 31 423
M  V30 472 1 32 424
M  V30 473 1 32 425
M  V30 474 1 33 426
M  V30 475 1 34 427
M  V30 476 1 34 428
M  V30 477 1 35 429
M  V30 478 1 35 430
M  V30 479 1 36 431
M  V30 480 1 36 432
M  V30 481 1 38 433
M  V30 482 1 38 434
M  V30 483 1 38 435
M  V30 484 1 41 436
M  V30 485 1 41 437
M  V30 486 1 41 438
M  V30 487 1 43 439
M  V30 488 1 43 440
M  V30 489 1 43 441
M  V30 490 1 44 442
M  V30 491 1 44 443
M  V30 492 1 44 444
M  V30 493 1 45 445
M  V30 494 1 45 446
M  V30 495 1 45 447
M  V30 496 1 46 448
M  V30 497 1 46 449
M  V30 498 1 46 450
M  V30 499 1 47 451
M  V30 500 1 47 452
M  V30 501 1 47 453
M  V30 502 1 48 454
M  V30 503 1 48 455
M  V30 504 1 48 456
M  V30 505 1 50 457
M  V30 506 1 50 458
M  V30 507 1 51 459
M  V30 508 1 51 460
M  V30 509 1 52 461 CFG=1
M  V30 510 1 53 462 CFG=1
M  V30 511 1 54 463 CFG=1
M  V30 512 1 55 464
M  V30 513 1 55 465
M  V30 514 1 56 466 CFG=1
M  V30 515 1 57 467
M  V30 516 1 58 468
M  V30 517 1 58 469
M  V30 518 1 60 470
M  V30 519 1 61 471
M  V30 520 1 62 472
M  V30 521 1 62 473
M  V30 522 1 63 474
M  V30 523 1 63 475
M  V30 524 1 64 476 CFG=1
M  V30 525 1 65 477
M  V30 526 1 65 478
M  V30 527 1 66 479
M  V30 528 1 66 480
M  V30 529 1 67 481 CFG=3
M  V30 530 1 69 482
M  V30 531 1 69 483
M  V30 532 1 70 484
M  V30 533 1 70 485
M  V30 534 1 71 486 CFG=1
M  V30 535 1 72 487 CFG=1
M  V30 536 1 73 488
M  V30 537 1 73 489
M  V30 538 1 74 490 CFG=1
M  V30 539 1 75 491
M  V30 540 1 76 492 CFG=1
M  V30 541 1 78 493
M  V30 542 1 79 494
M  V30 543 1 79 495
M  V30 544 1 80 496
M  V30 545 1 80 497
M  V30 546 1 81 498
M  V30 547 1 82 499
M  V30 548 1 82 500
M  V30 549 1 83 501
M  V30 550 1 83 502
M  V30 551 1 84 503
M  V30 552 1 84 504
M  V30 553 1 86 505
M  V30 554 1 86 506
M  V30 555 1 86 507
M  V30 556 1 89 508
M  V30 557 1 89 509
M  V30 558 1 89 510
M  V30 559 1 91 511
M  V30 560 1 91 512
M  V30 561 1 91 513
M  V30 562 1 92 514
M  V30 563 1 92 515
M  V30 564 1 92 516
M  V30 565 1 93 517
M  V30 566 1 93 518
M  V30 567 1 93 519
M  V30 568 1 94 520
M  V30 569 1 94 521
M  V30 570 1 94 522
M  V30 571 1 95 523
M  V30 572 1 95 524
M  V30 573 1 95 525
M  V30 574 1 96 526
M  V30 575 1 96 527
M  V30 576 1 96 528
M  V30 577 1 98 529
M  V30 578 1 98 530
M  V30 579 1 99 531
M  V30 580 1 99 532
M  V30 581 1 100 533
M  V30 582 1 101 534
M  V30 583 1 102 535 CFG=1
M  V30 584 1 103 536
M  V30 585 1 103 537
M  V30 586 1 104 538
M  V30 587 1 105 539
M  V30 588 1 106 540
M  V30 589 1 106 541
M  V30 590 1 108 542
M  V30 591 1 109 543
M  V30 592 1 110 544
M  V30 593 1 110 545
M  V30 594 1 111 546
M  V30 595 1 111 547
M  V30 596 1 112 548
M  V30 597 1 113 549
M  V30 598 1 113 550
M  V30 599 1 114 551
M  V30 600 1 114 552
M  V30 601 1 115 553 CFG=3
M  V30 602 1 117 554
M  V30 603 1 117 555
M  V30 604 1 118 556
M  V30 605 1 118 557
M  V30 606 1 119 558
M  V30 607 1 120 559 CFG=3
M  V30 608 1 121 560
M  V30 609 1 121 561
M  V30 610 1 122 562
M  V30 611 1 123 563
M  V30 612 1 124 564 CFG=1
M  V30 613 1 126 565
M  V30 614 1 127 566
M  V30 615 1 127 567
M  V30 616 1 128 568
M  V30 617 1 128 569
M  V30 618 1 129 570
M  V30 619 1 130 571
M  V30 620 1 130 572
M  V30 621 1 131 573
M  V30 622 1 131 574
M  V30 623 1 132 575
M  V30 624 1 132 576
M  V30 625 1 134 577
M  V30 626 1 134 578
M  V30 627 1 134 579
M  V30 628 1 137 580
M  V30 629 1 137 581
M  V30 630 1 137 582
M  V30 631 1 139 583
M  V30 632 1 139 584
M  V30 633 1 139 585
M  V30 634 1 140 586
M  V30 635 1 140 587
M  V30 636 1 140 588
M  V30 637 1 141 589
M  V30 638 1 141 590
M  V30 639 1 141 591
M  V30 640 1 142 592
M  V30 641 1 142 593
M  V30 642 1 142 594
M  V30 643 1 143 595
M  V30 644 1 143 596
M  V30 645 1 143 597
M  V30 646 1 144 598
M  V30 647 1 144 599
M  V30 648 1 144 600
M  V30 649 1 146 601
M  V30 650 1 146 602
M  V30 651 1 147 603
M  V30 652 1 147 604
M  V30 653 1 148 605
M  V30 654 1 149 606
M  V30 655 1 150 607 CFG=1
M  V30 656 1 151 608
M  V30 657 1 151 609
M  V30 658 1 152 610
M  V30 659 1 153 611
M  V30 660 1 154 612
M  V30 661 1 154 613
M  V30 662 1 156 614 CFG=3
M  V30 663 1 157 615 CFG=1
M  V30 664 1 158 616
M  V30 665 1 158 617
M  V30 666 1 159 618
M  V30 667 1 159 619
M  V30 668 1 160 620
M  V30 669 1 161 621
M  V30 670 1 161 622
M  V30 671 1 162 623
M  V30 672 1 162 624
M  V30 673 1 163 625 CFG=3
M  V30 674 1 165 626
M  V30 675 1 165 627
M  V30 676 1 166 628
M  V30 677 1 166 629
M  V30 678 1 167 630
M  V30 679 1 168 631
M  V30 680 1 169 632
M  V30 681 1 169 633
M  V30 682 1 170 634
M  V30 683 1 171 635
M  V30 684 1 172 636
M  V30 685 1 174 637
M  V30 686 1 175 638
M  V30 687 1 175 639
M  V30 688 1 176 640
M  V30 689 1 176 641
M  V30 690 1 177 642
M  V30 691 1 178 643
M  V30 692 1 178 644
M  V30 693 1 179 645
M  V30 694 1 179 646
M  V30 695 1 180 647
M  V30 696 1 180 648
M  V30 697 1 182 649
M  V30 698 1 182 650
M  V30 699 1 182 651
M  V30 700 1 185 652
M  V30 701 1 185 653
M  V30 702 1 185 654
M  V30 703 1 187 655
M  V30 704 1 187 656
M  V30 705 1 187 657
M  V30 706 1 188 658
M  V30 707 1 188 659
M  V30 708 1 188 660
M  V30 709 1 189 661
M  V30 710 1 189 662
M  V30 711 1 189 663
M  V30 712 1 190 664
M  V30 713 1 190 665
M  V30 714 1 190 666
M  V30 715 1 191 667
M  V30 716 1 191 668
M  V30 717 1 191 669
M  V30 718 1 192 670
M  V30 719 1 192 671
M  V30 720 1 192 672
M  V30 721 1 194 673
M  V30 722 1 194 674
M  V30 723 1 195 675
M  V30 724 1 195 676
M  V30 725 1 196 677 CFG=1
M  V30 726 1 197 678
M  V30 727 1 198 679 CFG=1
M  V30 728 1 199 680
M  V30 729 1 199 681
M  V30 730 1 200 682
M  V30 731 1 201 683
M  V30 732 1 202 684
M  V30 733 1 202 685
M  V30 734 1 204 686 CFG=3
M  V30 735 1 205 687
M  V30 736 1 206 688
M  V30 737 1 206 689
M  V30 738 1 207 690
M  V30 739 1 207 691
M  V30 740 1 208 692 CFG=3
M  V30 741 1 209 693
M  V30 742 1 209 694
M  V30 743 1 210 695
M  V30 744 1 210 696
M  V30 745 1 211 697 CFG=3
M  V30 746 1 213 698
M  V30 747 1 213 699
M  V30 748 1 214 700
M  V30 749 1 214 701
M  V30 750 1 215 702 CFG=1
M  V30 751 1 216 703
M  V30 752 1 217 704
M  V30 753 1 217 705
M  V30 754 1 218 706 CFG=1
M  V30 755 1 219 707
M  V30 756 1 220 708 CFG=1
M  V30 757 1 222 709
M  V30 758 1 223 710
M  V30 759 1 223 711
M  V30 760 1 224 712
M  V30 761 1 224 713
M  V30 762 1 225 714
M  V30 763 1 226 715
M  V30 764 1 226 716
M  V30 765 1 227 717
M  V30 766 1 227 718
M  V30 767 1 228 719
M  V30 768 1 228 720
M  V30 769 1 230 721
M  V30 770 1 230 722
M  V30 771 1 230 723
M  V30 772 1 233 724
M  V30 773 1 233 725
M  V30 774 1 233 726
M  V30 775 1 235 727
M  V30 776 1 235 728
M  V30 777 1 235 729
M  V30 778 1 236 730
M  V30 779 1 236 731
M  V30 780 1 236 732
M  V30 781 1 237 733
M  V30 782 1 237 734
M  V30 783 1 237 735
M  V30 784 1 238 736
M  V30 785 1 238 737
M  V30 786 1 238 738
M  V30 787 1 239 739
M  V30 788 1 239 740
M  V30 789 1 239 741
M  V30 790 1 240 742
M  V30 791 1 240 743
M  V30 792 1 240 744
M  V30 793 1 242 745
M  V30 794 1 242 746
M  V30 795 1 243 747
M  V30 796 1 243 748
M  V30 797 1 244 749 CFG=3
M  V30 798 1 245 750
M  V30 799 1 246 751 CFG=1
M  V30 800 1 247 752
M  V30 801 1 247 753
M  V30 802 1 248 754
M  V30 803 1 249 755
M  V30 804 1 250 756
M  V30 805 1 250 757
M  V30 806 1 252 758
M  V30 807 1 253 759 CFG=1
M  V30 808 1 254 760
M  V30 809 1 254 761
M  V30 810 1 255 762
M  V30 811 1 255 763
M  V30 812 1 256 764 CFG=3
M  V30 813 1 257 765
M  V30 814 1 257 766
M  V30 815 1 258 767
M  V30 816 1 258 768
M  V30 817 1 259 769 CFG=3
M  V30 818 1 261 770
M  V30 819 1 261 771
M  V30 820 1 262 772
M  V30 821 1 262 773
M  V30 822 1 263 774 CFG=1
M  V30 823 1 264 775
M  V30 824 1 265 776
M  V30 825 1 265 777
M  V30 826 1 266 778
M  V30 827 1 267 779
M  V30 828 1 268 780
M  V30 829 1 270 781
M  V30 830 1 271 782
M  V30 831 1 271 783
M  V30 832 1 272 784
M  V30 833 1 272 785
M  V30 834 1 273 786
M  V30 835 1 274 787
M  V30 836 1 274 788
M  V30 837 1 275 789
M  V30 838 1 275 790
M  V30 839 1 276 791
M  V30 840 1 276 792
M  V30 841 1 278 793
M  V30 842 1 278 794
M  V30 843 1 278 795
M  V30 844 1 281 796
M  V30 845 1 281 797
M  V30 846 1 281 798
M  V30 847 1 283 799
M  V30 848 1 283 800
M  V30 849 1 283 801
M  V30 850 1 284 802
M  V30 851 1 284 803
M  V30 852 1 284 804
M  V30 853 1 285 805
M  V30 854 1 285 806
M  V30 855 1 285 807
M  V30 856 1 286 808
M  V30 857 1 286 809
M  V30 858 1 286 810
M  V30 859 1 287 811
M  V30 860 1 287 812
M  V30 861 1 287 813
M  V30 862 1 288 814
M  V30 863 1 288 815
M  V30 864 1 288 816
M  V30 865 1 290 817
M  V30 866 1 290 818
M  V30 867 1 291 819
M  V30 868 1 291 820
M  V30 869 1 292 821
M  V30 870 1 293 822
M  V30 871 1 294 823 CFG=1
M  V30 872 1 295 824
M  V30 873 1 295 825
M  V30 874 1 296 826
M  V30 875 1 297 827
M  V30 876 1 298 828
M  V30 877 1 298 829
M  V30 878 1 300 830 CFG=3
M  V30 879 1 301 831
M  V30 880 1 302 832
M  V30 881 1 302 833
M  V30 882 1 303 834
M  V30 883 1 303 835
M  V30 884 1 304 836 CFG=3
M  V30 885 1 305 837
M  V30 886 1 305 838
M  V30 887 1 306 839
M  V30 888 1 306 840
M  V30 889 1 307 841 CFG=3
M  V30 890 1 309 842
M  V30 891 1 309 843
M  V30 892 1 310 844
M  V30 893 1 310 845
M  V30 894 1 311 846
M  V30 895 1 312 847
M  V30 896 1 313 848
M  V30 897 1 313 849
M  V30 898 1 314 850
M  V30 899 1 315 851 CFG=3
M  V30 900 1 316 852 CFG=1
M  V30 901 1 318 853
M  V30 902 1 319 854
M  V30 903 1 319 855
M  V30 904 1 320 856
M  V30 905 1 320 857
M  V30 906 1 321 858
M  V30 907 1 322 859
M  V30 908 1 322 860
M  V30 909 1 323 861
M  V30 910 1 323 862
M  V30 911 1 324 863
M  V30 912 1 324 864
M  V30 913 1 326 865
M  V30 914 1 326 866
M  V30 915 1 326 867
M  V30 916 1 329 868
M  V30 917 1 329 869
M  V30 918 1 329 870
M  V30 919 1 331 871
M  V30 920 1 331 872
M  V30 921 1 331 873
M  V30 922 1 332 874
M  V30 923 1 332 875
M  V30 924 1 332 876
M  V30 925 1 333 877
M  V30 926 1 333 878
M  V30 927 1 333 879
M  V30 928 1 334 880
M  V30 929 1 334 881
M  V30 930 1 334 882
M  V30 931 1 335 883
M  V30 932 1 335 884
M  V30 933 1 335 885
M  V30 934 1 336 886
M  V30 935 1 336 887
M  V30 936 1 336 888
M  V30 937 1 338 889
M  V30 938 1 338 890
M  V30 939 1 339 891
M  V30 940 1 339 892
M  V30 941 1 340 893
M  V30 942 1 341 894
M  V30 943 1 342 895 CFG=1
M  V30 944 1 343 896
M  V30 945 1 343 897
M  V30 946 1 344 898
M  V30 947 1 345 899
M  V30 948 1 346 900
M  V30 949 1 346 901
M  V30 950 1 348 902 CFG=3
M  V30 951 1 349 903 CFG=1
M  V30 952 1 350 904
M  V30 953 1 350 905
M  V30 954 1 351 906
M  V30 955 1 351 907
M  V30 956 1 352 908 CFG=3
M  V30 957 1 353 909
M  V30 958 1 353 910
M  V30 959 1 354 911
M  V30 960 1 354 912
M  V30 961 1 355 913 CFG=3
M  V30 962 1 357 914
M  V30 963 1 357 915
M  V30 964 1 358 916
M  V30 965 1 358 917
M  V30 966 1 359 918
M  V30 967 1 360 919
M  V30 968 1 361 920
M  V30 969 1 361 921
M  V30 970 1 362 922
M  V30 971 1 363 923
M  V30 972 1 364 924
M  V30 973 1 366 925
M  V30 974 1 367 926
M  V30 975 1 367 927
M  V30 976 1 368 928
M  V30 977 1 368 929
M  V30 978 1 369 930
M  V30 979 1 370 931
M  V30 980 1 370 932
M  V30 981 1 371 933
M  V30 982 1 371 934
M  V30 983 1 372 935
M  V30 984 1 372 936
M  V30 985 1 374 937
M  V30 986 1 374 938
M  V30 987 1 374 939
M  V30 988 1 377 940
M  V30 989 1 377 941
M  V30 990 1 377 942
M  V30 991 1 379 943
M  V30 992 1 379 944
M  V30 993 1 379 945
M  V30 994 1 380 946
M  V30 995 1 380 947
M  V30 996 1 380 948
M  V30 997 1 381 949
M  V30 998 1 381 950
M  V30 999 1 381 951
M  V30 1000 1 382 952
M  V30 1001 1 382 953
M  V30 1002 1 382 954
M  V30 1003 1 383 955
M  V30 1004 1 383 956
M  V30 1005 1 383 957
M  V30 1006 1 384 958
M  V30 1007 1 384 959
M  V30 1008 1 384 960
M  V30 END BOND
M  V30 END CTAB
M  END
>  <PDBID>  (1) 
3PEO

>  <PDB ID>  (1) 
3PEO

>  <Generic Name>  (1) 
Metocurine

>  <Brand Name>  (1) 
nan

>  <DrugBank ID>  (1) 
DB01336

>  <ATC Codes>  (1) 
M03AA04

>  <Ligand ID>  (1) 
CU9

>  <Target Name>  (1) 
Neuronal acetylcholine receptor subunit alpha-2

>  <UniProt ID>  (1) 
Q15822

>  <PDB ID.1>  (1) 
3PEO

>  <Seq. Identity>  (1) 
30%

$$$$
