PDB_DB00147_05
     RDKit          3D

 58 58  0  0  0  0  0  0  0  0999 V2000
    3.0283   -1.8792    0.1440 O   0  0  0  0  0  0  0  0  0  0  0  0
    2.4792   -0.7801   -0.5496 C   0  0  0  0  0  0  0  0  0  0  0  0
    1.1038   -0.4816    0.0643 C   0  0  0  0  0  0  0  0  0  0  0  0
    0.2737   -1.7076   -0.1092 C   0  0  0  0  0  0  0  0  0  0  0  0
   -1.1285   -1.5208    0.0470 N   0  0  0  0  0  0  0  0  0  0  0  0
   -1.4950   -0.1860    0.4704 C   0  0  0  0  0  0  0  0  0  0  0  0
   -0.9812    0.7741   -0.5619 C   0  0  0  0  0  0  0  0  0  0  0  0
    0.5211    0.7619   -0.5061 C   0  0  0  0  0  0  0  0  0  0  0  0
    0.9545    1.9747    0.3287 C   0  0  0  0  0  0  0  0  0  0  0  0
    0.4992    1.7984    1.6361 O   0  0  0  0  0  0  0  0  0  0  0  0
   -1.3622    0.4188   -1.8510 O   0  0  0  0  0  0  0  0  0  0  0  0
   -2.9892   -0.1400    0.6261 C   0  0  0  0  0  0  0  0  0  0  0  0
    3.0283   -1.8792    0.1440 O   0  0  0  0  0  0  0  0  0  0  0  0
    2.4792   -0.7801   -0.5496 C   0  0  0  0  0  0  0  0  0  0  0  0
    1.1038   -0.4816    0.0643 C   0  0  0  0  0  0  0  0  0  0  0  0
    0.2737   -1.7076   -0.1092 C   0  0  0  0  0  0  0  0  0  0  0  0
   -1.1285   -1.5208    0.0470 N   0  0  0  0  0  0  0  0  0  0  0  0
   -1.4950   -0.1860    0.4704 C   0  0  0  0  0  0  0  0  0  0  0  0
   -0.9812    0.7741   -0.5619 C   0  0  0  0  0  0  0  0  0  0  0  0
    0.5211    0.7619   -0.5061 C   0  0  0  0  0  0  0  0  0  0  0  0
    0.9545    1.9747    0.3287 C   0  0  0  0  0  0  0  0  0  0  0  0
    0.4992    1.7984    1.6361 O   0  0  0  0  0  0  0  0  0  0  0  0
   -1.3622    0.4188   -1.8510 O   0  0  0  0  0  0  0  0  0  0  0  0
   -2.9892   -0.1400    0.6261 C   0  0  0  0  0  0  0  0  0  0  0  0
    2.6064   -1.9215    1.0204 H   0  0  0  0  0  0  0  0  0  0  0  0
    3.1338    0.0938   -0.5405 H   0  0  0  0  0  0  0  0  0  0  0  0
    2.3695   -1.1203   -1.5973 H   0  0  0  0  0  0  0  0  0  0  0  0
    1.2491   -0.3230    1.1568 H   0  0  0  0  0  0  0  0  0  0  0  0
    0.6005   -2.4391    0.6881 H   0  0  0  0  0  0  0  0  0  0  0  0
    0.4502   -2.2337   -1.0821 H   0  0  0  0  0  0  0  0  0  0  0  0
   -1.7045   -1.8658   -0.7396 H   0  0  0  0  0  0  0  0  0  0  0  0
   -1.0117    0.0131    1.4285 H   0  0  0  0  0  0  0  0  0  0  0  0
   -1.3492    1.8155   -0.4023 H   0  0  0  0  0  0  0  0  0  0  0  0
    0.9391    0.9247   -1.5232 H   0  0  0  0  0  0  0  0  0  0  0  0
    0.4725    2.8965   -0.0692 H   0  0  0  0  0  0  0  0  0  0  0  0
    2.0603    2.0758    0.3111 H   0  0  0  0  0  0  0  0  0  0  0  0
    0.1573    2.6318    1.9954 H   0  0  0  0  0  0  0  0  0  0  0  0
   -0.7675    0.9274   -2.4889 H   0  0  0  0  0  0  0  0  0  0  0  0
   -3.5030   -0.4777   -0.2862 H   0  0  0  0  0  0  0  0  0  0  0  0
   -3.3557    0.8497    0.9666 H   0  0  0  0  0  0  0  0  0  0  0  0
   -3.2509   -0.8797    1.4235 H   0  0  0  0  0  0  0  0  0  0  0  0
    2.6064   -1.9215    1.0204 H   0  0  0  0  0  0  0  0  0  0  0  0
    3.1338    0.0938   -0.5405 H   0  0  0  0  0  0  0  0  0  0  0  0
    2.3695   -1.1203   -1.5973 H   0  0  0  0  0  0  0  0  0  0  0  0
    1.2491   -0.3230    1.1568 H   0  0  0  0  0  0  0  0  0  0  0  0
    0.6005   -2.4391    0.6881 H   0  0  0  0  0  0  0  0  0  0  0  0
    0.4502   -2.2337   -1.0821 H   0  0  0  0  0  0  0  0  0  0  0  0
   -1.7045   -1.8658   -0.7396 H   0  0  0  0  0  0  0  0  0  0  0  0
   -1.0117    0.0131    1.4285 H   0  0  0  0  0  0  0  0  0  0  0  0
   -1.3492    1.8155   -0.4023 H   0  0  0  0  0  0  0  0  0  0  0  0
    0.9391    0.9247   -1.5232 H   0  0  0  0  0  0  0  0  0  0  0  0
    0.4725    2.8965   -0.0692 H   0  0  0  0  0  0  0  0  0  0  0  0
    2.0603    2.0758    0.3111 H   0  0  0  0  0  0  0  0  0  0  0  0
    0.1573    2.6318    1.9954 H   0  0  0  0  0  0  0  0  0  0  0  0
   -0.7675    0.9274   -2.4889 H   0  0  0  0  0  0  0  0  0  0  0  0
   -3.5030   -0.4777   -0.2862 H   0  0  0  0  0  0  0  0  0  0  0  0
   -3.3557    0.8497    0.9666 H   0  0  0  0  0  0  0  0  0  0  0  0
   -3.2509   -0.8797    1.4235 H   0  0  0  0  0  0  0  0  0  0  0  0
  1  2  1  0
  2  3  1  0
  3  4  1  0
  4  5  1  0
  5  6  1  0
  6  7  1  0
  3  8  1  0
  7  8  1  0
  8  9  1  0
  9 10  1  0
  7 11  1  0
  6 12  1  0
 13 14  1  0
 14 15  1  0
 15 16  1  0
 16 17  1  0
 17 18  1  0
 18 19  1  0
 15 20  1  0
 19 20  1  0
 20 21  1  0
 21 22  1  0
 19 23  1  0
 18 24  1  0
  1 25  1  0
  2 26  1  0
  2 27  1  0
  3 28  1  0
  4 29  1  0
  4 30  1  0
  5 31  1  0
  6 32  1  0
  7 33  1  0
  8 34  1  0
  9 35  1  0
  9 36  1  0
 10 37  1  0
 11 38  1  0
 12 39  1  0
 12 40  1  0
 12 41  1  0
 13 42  1  0
 14 43  1  0
 14 44  1  0
 15 45  1  0
 16 46  1  0
 16 47  1  0
 17 48  1  0
 18 49  1  0
 19 50  1  0
 20 51  1  0
 21 52  1  0
 21 53  1  0
 22 54  1  0
 23 55  1  0
 24 56  1  0
 24 57  1  0
 24 58  1  0
M  END
>  <PDBID>  (1) 
3FHX

>  <PDB ID>  (1) 
3FHX

>  <Generic Name>  (1) 
Pyridoxal

>  <Brand Name>  (1) 
nan

>  <DrugBank ID>  (1) 
DB00147

>  <ATC Codes>  (1) 
nan

>  <Ligand ID>  (1) 
PXL

>  <Target Name>  (1) 
Pyridoxal kinase

>  <UniProt ID>  (1) 
O00764

>  <PDB ID.1>  (1) 
3FHX

>  <Seq. Identity>  (1) 
100%

$$$$
