PDB_DB03849_08
     RDKit          3D

124128  0  0  0  0  0  0  0  0999 V2000
    6.4079    0.4570   -0.2973 O   0  0  0  0  0  0  0  0  0  0  0  0
    5.3649    0.8040   -1.1438 C   0  0  0  0  0  0  0  0  0  0  0  0
    4.9882    2.1350   -1.0290 O   0  0  0  0  0  0  0  0  0  0  0  0
    4.1879   -0.0825   -0.8255 C   0  0  0  0  0  0  0  0  0  0  0  0
    3.0375    0.3058   -1.7646 C   0  0  0  0  0  0  0  0  0  0  0  0
    1.8354   -0.5381   -1.5813 C   0  0  0  0  0  0  0  0  0  0  0  0
    3.6362    0.2138    0.5718 C   0  0  0  0  0  0  0  0  0  0  0  0
    2.5649   -0.7769    0.8369 C   0  0  0  0  0  0  0  0  0  0  0  0
    1.4819   -0.8745   -0.1615 C   0  0  0  0  0  0  0  0  0  0  0  0
    1.0711   -2.3612   -0.2031 C   0  0  0  0  0  0  0  0  0  0  0  0
    2.2786   -3.0370   -0.7104 N   0  0  0  0  0  0  0  0  0  0  0  0
    0.2065   -0.1407    0.2201 C   0  0  0  0  0  0  0  0  0  0  0  0
    0.3639    1.3582    0.0928 C   0  0  0  0  0  0  0  0  0  0  0  0
   -1.0172    1.9690    0.2969 C   0  0  0  0  0  0  0  0  0  0  0  0
   -1.4395    1.6150    1.7267 C   0  0  0  0  0  0  0  0  0  0  0  0
   -2.5383    2.3509    2.0382 O   0  0  0  0  0  0  0  0  0  0  0  0
   -2.3877    3.1964    3.1241 C   0  0  0  0  0  0  0  0  0  0  0  0
   -1.7322    0.1056    1.6618 C   0  0  0  0  0  0  0  0  0  0  0  0
   -0.3180   -0.4909    1.5685 C   0  0  0  0  0  0  0  0  0  0  0  0
   -2.4571   -0.0844    0.5227 O   0  0  0  0  0  0  0  0  0  0  0  0
   -3.7055   -0.6038    0.6528 C   0  0  0  0  0  0  0  0  0  0  0  0
   -3.7582   -1.9451   -0.0371 C   0  0  0  0  0  0  0  0  0  0  0  0
   -4.7027   -1.8202   -1.1962 C   0  0  0  0  0  0  0  0  0  0  0  0
   -5.1465   -0.3987   -1.2892 C   0  0  0  0  0  0  0  0  0  0  0  0
   -4.8283    0.1584    0.0630 C   0  0  0  0  0  0  0  0  0  0  0  0
    6.4079    0.4570   -0.2973 O   0  0  0  0  0  0  0  0  0  0  0  0
    5.3649    0.8040   -1.1438 C   0  0  0  0  0  0  0  0  0  0  0  0
    4.9882    2.1350   -1.0290 O   0  0  0  0  0  0  0  0  0  0  0  0
    4.1879   -0.0825   -0.8255 C   0  0  0  0  0  0  0  0  0  0  0  0
    3.0375    0.3058   -1.7646 C   0  0  0  0  0  0  0  0  0  0  0  0
    1.8354   -0.5381   -1.5813 C   0  0  0  0  0  0  0  0  0  0  0  0
    3.6362    0.2138    0.5718 C   0  0  0  0  0  0  0  0  0  0  0  0
    2.5649   -0.7769    0.8369 C   0  0  0  0  0  0  0  0  0  0  0  0
    1.4819   -0.8745   -0.1615 C   0  0  0  0  0  0  0  0  0  0  0  0
    1.0711   -2.3612   -0.2031 C   0  0  0  0  0  0  0  0  0  0  0  0
    2.2786   -3.0370   -0.7104 N   0  0  0  0  0  0  0  0  0  0  0  0
    0.2065   -0.1407    0.2201 C   0  0  0  0  0  0  0  0  0  0  0  0
    0.3639    1.3582    0.0928 C   0  0  0  0  0  0  0  0  0  0  0  0
   -1.0172    1.9690    0.2969 C   0  0  0  0  0  0  0  0  0  0  0  0
   -1.4395    1.6150    1.7267 C   0  0  0  0  0  0  0  0  0  0  0  0
   -2.5383    2.3509    2.0382 O   0  0  0  0  0  0  0  0  0  0  0  0
   -2.3877    3.1964    3.1241 C   0  0  0  0  0  0  0  0  0  0  0  0
   -1.7322    0.1056    1.6618 C   0  0  0  0  0  0  0  0  0  0  0  0
   -0.3180   -0.4909    1.5685 C   0  0  0  0  0  0  0  0  0  0  0  0
   -2.4571   -0.0844    0.5227 O   0  0  0  0  0  0  0  0  0  0  0  0
   -3.7055   -0.6038    0.6528 C   0  0  0  0  0  0  0  0  0  0  0  0
   -3.7582   -1.9451   -0.0371 C   0  0  0  0  0  0  0  0  0  0  0  0
   -4.7027   -1.8202   -1.1962 C   0  0  0  0  0  0  0  0  0  0  0  0
   -5.1465   -0.3987   -1.2892 C   0  0  0  0  0  0  0  0  0  0  0  0
   -4.8283    0.1584    0.0630 C   0  0  0  0  0  0  0  0  0  0  0  0
    6.7082    1.2474    0.2220 H   0  0  0  0  0  0  0  0  0  0  0  0
    5.6567    0.5860   -2.1900 H   0  0  0  0  0  0  0  0  0  0  0  0
    5.1379    2.5951   -1.8831 H   0  0  0  0  0  0  0  0  0  0  0  0
    4.4164   -1.1482   -0.9522 H   0  0  0  0  0  0  0  0  0  0  0  0
    3.4586    0.1416   -2.7955 H   0  0  0  0  0  0  0  0  0  0  0  0
    2.9175    1.3812   -1.6621 H   0  0  0  0  0  0  0  0  0  0  0  0
    0.9733   -0.0269   -2.0578 H   0  0  0  0  0  0  0  0  0  0  0  0
    1.9848   -1.4560   -2.2276 H   0  0  0  0  0  0  0  0  0  0  0  0
    4.4283    0.0923    1.3285 H   0  0  0  0  0  0  0  0  0  0  0  0
    3.3309    1.2608    0.5696 H   0  0  0  0  0  0  0  0  0  0  0  0
    3.0727   -1.7709    1.0200 H   0  0  0  0  0  0  0  0  0  0  0  0
    2.1269   -0.5273    1.8482 H   0  0  0  0  0  0  0  0  0  0  0  0
    0.9458   -2.7784    0.8169 H   0  0  0  0  0  0  0  0  0  0  0  0
    0.2084   -2.5131   -0.8603 H   0  0  0  0  0  0  0  0  0  0  0  0
    2.8027   -3.5295    0.0255 H   0  0  0  0  0  0  0  0  0  0  0  0
    2.0343   -3.7335   -1.4505 H   0  0  0  0  0  0  0  0  0  0  0  0
   -0.5563   -0.4411   -0.5307 H   0  0  0  0  0  0  0  0  0  0  0  0
    1.0040    1.7680    0.8811 H   0  0  0  0  0  0  0  0  0  0  0  0
    0.6583    1.6330   -0.9247 H   0  0  0  0  0  0  0  0  0  0  0  0
   -1.0196    3.0621    0.1342 H   0  0  0  0  0  0  0  0  0  0  0  0
   -1.7441    1.4972   -0.3942 H   0  0  0  0  0  0  0  0  0  0  0  0
   -0.5629    1.7850    2.3816 H   0  0  0  0  0  0  0  0  0  0  0  0
   -3.3605    3.7287    3.2579 H   0  0  0  0  0  0  0  0  0  0  0  0
   -2.2541    2.5629    4.0237 H   0  0  0  0  0  0  0  0  0  0  0  0
   -1.6222    3.9611    3.0015 H   0  0  0  0  0  0  0  0  0  0  0  0
   -2.2115   -0.1755    2.5946 H   0  0  0  0  0  0  0  0  0  0  0  0
    0.2448    0.0194    2.4045 H   0  0  0  0  0  0  0  0  0  0  0  0
   -0.3093   -1.5508    1.7763 H   0  0  0  0  0  0  0  0  0  0  0  0
   -3.9003   -0.7826    1.7370 H   0  0  0  0  0  0  0  0  0  0  0  0
   -2.7659   -2.2476   -0.4589 H   0  0  0  0  0  0  0  0  0  0  0  0
   -4.0693   -2.7674    0.6252 H   0  0  0  0  0  0  0  0  0  0  0  0
   -5.6116   -2.4549   -1.0388 H   0  0  0  0  0  0  0  0  0  0  0  0
   -4.2274   -2.0876   -2.1746 H   0  0  0  0  0  0  0  0  0  0  0  0
   -4.6514    0.1789   -2.0970 H   0  0  0  0  0  0  0  0  0  0  0  0
   -6.2423   -0.2989   -1.4745 H   0  0  0  0  0  0  0  0  0  0  0  0
   -4.6668    1.2419   -0.0422 H   0  0  0  0  0  0  0  0  0  0  0  0
   -5.7288    0.0325    0.7012 H   0  0  0  0  0  0  0  0  0  0  0  0
    6.7082    1.2474    0.2220 H   0  0  0  0  0  0  0  0  0  0  0  0
    5.6567    0.5860   -2.1900 H   0  0  0  0  0  0  0  0  0  0  0  0
    5.1379    2.5951   -1.8831 H   0  0  0  0  0  0  0  0  0  0  0  0
    4.4164   -1.1482   -0.9522 H   0  0  0  0  0  0  0  0  0  0  0  0
    3.4586    0.1416   -2.7955 H   0  0  0  0  0  0  0  0  0  0  0  0
    2.9175    1.3812   -1.6621 H   0  0  0  0  0  0  0  0  0  0  0  0
    0.9733   -0.0269   -2.0578 H   0  0  0  0  0  0  0  0  0  0  0  0
    1.9848   -1.4560   -2.2276 H   0  0  0  0  0  0  0  0  0  0  0  0
    4.4283    0.0923    1.3285 H   0  0  0  0  0  0  0  0  0  0  0  0
    3.3309    1.2608    0.5696 H   0  0  0  0  0  0  0  0  0  0  0  0
    3.0727   -1.7709    1.0200 H   0  0  0  0  0  0  0  0  0  0  0  0
    2.1269   -0.5273    1.8482 H   0  0  0  0  0  0  0  0  0  0  0  0
    0.9458   -2.7784    0.8169 H   0  0  0  0  0  0  0  0  0  0  0  0
    0.2084   -2.5131   -0.8603 H   0  0  0  0  0  0  0  0  0  0  0  0
    2.8027   -3.5295    0.0255 H   0  0  0  0  0  0  0  0  0  0  0  0
    2.0343   -3.7335   -1.4505 H   0  0  0  0  0  0  0  0  0  0  0  0
   -0.5563   -0.4411   -0.5307 H   0  0  0  0  0  0  0  0  0  0  0  0
    1.0040    1.7680    0.8811 H   0  0  0  0  0  0  0  0  0  0  0  0
    0.6583    1.6330   -0.9247 H   0  0  0  0  0  0  0  0  0  0  0  0
   -1.0196    3.0621    0.1342 H   0  0  0  0  0  0  0  0  0  0  0  0
   -1.7441    1.4972   -0.3942 H   0  0  0  0  0  0  0  0  0  0  0  0
   -0.5629    1.7850    2.3816 H   0  0  0  0  0  0  0  0  0  0  0  0
   -3.3605    3.7287    3.2579 H   0  0  0  0  0  0  0  0  0  0  0  0
   -2.2541    2.5629    4.0237 H   0  0  0  0  0  0  0  0  0  0  0  0
   -1.6222    3.9611    3.0015 H   0  0  0  0  0  0  0  0  0  0  0  0
   -2.2115   -0.1755    2.5946 H   0  0  0  0  0  0  0  0  0  0  0  0
    0.2448    0.0194    2.4045 H   0  0  0  0  0  0  0  0  0  0  0  0
   -0.3093   -1.5508    1.7763 H   0  0  0  0  0  0  0  0  0  0  0  0
   -3.9003   -0.7826    1.7370 H   0  0  0  0  0  0  0  0  0  0  0  0
   -2.7659   -2.2476   -0.4589 H   0  0  0  0  0  0  0  0  0  0  0  0
   -4.0693   -2.7674    0.6252 H   0  0  0  0  0  0  0  0  0  0  0  0
   -5.6116   -2.4549   -1.0388 H   0  0  0  0  0  0  0  0  0  0  0  0
   -4.2274   -2.0876   -2.1746 H   0  0  0  0  0  0  0  0  0  0  0  0
   -4.6514    0.1789   -2.0970 H   0  0  0  0  0  0  0  0  0  0  0  0
   -6.2423   -0.2989   -1.4745 H   0  0  0  0  0  0  0  0  0  0  0  0
   -4.6668    1.2419   -0.0422 H   0  0  0  0  0  0  0  0  0  0  0  0
   -5.7288    0.0325    0.7012 H   0  0  0  0  0  0  0  0  0  0  0  0
  1  2  1  0
  2  3  1  0
  2  4  1  0
  4  5  1  0
  5  6  1  0
  4  7  1  0
  7  8  1  0
  6  9  1  0
  8  9  1  0
  9 10  1  0
 10 11  1  0
  9 12  1  0
 12 13  1  0
 13 14  1  0
 14 15  1  0
 15 16  1  0
 16 17  1  0
 15 18  1  0
 12 19  1  0
 18 19  1  0
 18 20  1  0
 20 21  1  0
 21 22  1  0
 22 23  1  0
 23 24  1  0
 21 25  1  0
 24 25  1  0
 26 27  1  0
 27 28  1  0
 27 29  1  0
 29 30  1  0
 30 31  1  0
 29 32  1  0
 32 33  1  0
 31 34  1  0
 33 34  1  0
 34 35  1  0
 35 36  1  0
 34 37  1  0
 37 38  1  0
 38 39  1  0
 39 40  1  0
 40 41  1  0
 41 42  1  0
 40 43  1  0
 37 44  1  0
 43 44  1  0
 43 45  1  0
 45 46  1  0
 46 47  1  0
 47 48  1  0
 48 49  1  0
 46 50  1  0
 49 50  1  0
  1 51  1  0
  2 52  1  0
  3 53  1  0
  4 54  1  0
  5 55  1  0
  5 56  1  0
  6 57  1  0
  6 58  1  0
  7 59  1  0
  7 60  1  0
  8 61  1  0
  8 62  1  0
 10 63  1  0
 10 64  1  0
 11 65  1  0
 11 66  1  0
 12 67  1  0
 13 68  1  0
 13 69  1  0
 14 70  1  0
 14 71  1  0
 15 72  1  0
 17 73  1  0
 17 74  1  0
 17 75  1  0
 18 76  1  0
 19 77  1  0
 19 78  1  0
 21 79  1  0
 22 80  1  0
 22 81  1  0
 23 82  1  0
 23 83  1  0
 24 84  1  0
 24 85  1  0
 25 86  1  0
 25 87  1  0
 26 88  1  0
 27 89  1  0
 28 90  1  0
 29 91  1  0
 30 92  1  0
 30 93  1  0
 31 94  1  0
 31 95  1  0
 32 96  1  0
 32 97  1  0
 33 98  1  0
 33 99  1  0
 35100  1  0
 35101  1  0
 36102  1  0
 36103  1  0
 37104  1  0
 38105  1  0
 38106  1  0
 39107  1  0
 39108  1  0
 40109  1  0
 42110  1  0
 42111  1  0
 42112  1  0
 43113  1  0
 44114  1  0
 44115  1  0
 46116  1  0
 47117  1  0
 47118  1  0
 48119  1  0
 48120  1  0
 49121  1  0
 49122  1  0
 50123  1  0
 50124  1  0
M  END
>  <PDBID>  (1) 
1XLX

>  <PDB ID>  (1) 
1XLX

>  <Generic Name>  (1) 
Cilomilast

>  <Brand Name>  (1) 
nan

>  <DrugBank ID>  (1) 
DB03849

>  <ATC Codes>  (1) 
nan

>  <Ligand ID>  (1) 
CIO

>  <Target Name>  (1) 
cAMP-specific 3',5'-cyclic phosphodiesterase 4B

>  <UniProt ID>  (1) 
Q07343

>  <PDB ID.1>  (1) 
1XLX

>  <Seq. Identity>  (1) 
97%

$$$$
