PDB_DB01232_05
     RDKit          3D

123127  0  0  0  0  0  0  0  0999 V2000
    3.9103   -0.6732   -0.2871 C   0  0  0  0  0  0  0  0  0  0  0  0
    4.1681   -0.8749    1.0996 O   0  0  0  0  0  0  0  0  0  0  0  0
    5.0205   -2.7460   -0.5988 N   0  0  0  0  0  0  0  0  0  0  0  0
    5.0428   -1.3693   -0.9953 C   0  0  2  0  0  0  0  0  0  0  0  0
    6.3318   -0.6511   -0.7767 C   0  0  0  0  0  0  0  0  0  0  0  0
    7.5477   -1.4075   -1.2106 C   0  0  0  0  0  0  0  0  0  0  0  0
    8.6382   -3.6428   -1.0530 C   0  0  0  0  0  0  0  0  0  0  0  0
    8.7694   -4.2462    0.3130 C   0  0  0  0  0  0  0  0  0  0  0  0
    8.1535   -3.4096    1.3862 C   0  0  0  0  0  0  0  0  0  0  0  0
    6.6885   -3.1742    1.1301 C   0  0  0  0  0  0  0  0  0  0  0  0
    7.3672   -2.8869   -1.2874 C   0  0  0  0  0  0  0  0  0  0  0  0
    6.3213   -3.3126   -0.3122 C   0  0  0  0  0  0  0  0  0  0  0  0
    3.8647    0.7418   -0.4462 N   0  0  0  0  0  0  0  0  0  0  0  0
    3.3329    1.4663    0.6476 C   0  0  2  0  0  0  0  0  0  0  0  0
    1.9149    1.2961    1.0174 C   0  0  0  0  0  0  0  0  0  0  0  0
    1.5912   -0.0123    1.3090 O   0  0  0  0  0  0  0  0  0  0  0  0
    3.9290    2.8343    0.7083 C   0  0  0  0  0  0  0  0  0  0  0  0
    3.7606    3.7149   -0.4702 C   0  0  1  0  0  0  0  0  0  0  0  0
    2.4365    3.9488   -0.7334 O   0  0  0  0  0  0  0  0  0  0  0  0
    4.3560    5.0155   -0.1154 N   0  0  0  0  0  0  0  0  0  0  0  0
   -0.9875    0.4224    0.2085 C   0  0  1  0  0  0  0  0  0  0  0  0
   -1.0856    0.5357   -1.1769 O   0  0  0  0  0  0  0  0  0  0  0  0
   -0.4174    1.7144    0.7842 C   0  0  1  0  0  0  0  0  0  0  0  0
    0.9126    2.0486    0.3583 N   0  0  0  0  0  0  0  0  0  0  0  0
   -1.3707    2.8198    0.9406 C   0  0  0  0  0  0  0  0  0  0  0  0
   -2.0911    3.3956   -0.1918 C   0  0  0  0  0  0  0  0  0  0  0  0
   -1.2569    4.0213   -1.2838 C   0  0  0  0  0  0  0  0  0  0  0  0
   -3.0291    4.4777    0.3785 C   0  0  0  0  0  0  0  0  0  0  0  0
   -0.5351    5.2523   -0.7925 C   0  0  0  0  0  0  0  0  0  0  0  0
   -2.2822    5.6858    0.8470 C   0  0  0  0  0  0  0  0  0  0  0  0
   -1.5537    6.2837   -0.3355 C   0  0  0  0  0  0  0  0  0  0  0  0
   -2.9504   -1.0826    0.5294 N   0  0  0  0  0  0  0  0  0  0  0  0
   -2.2436    0.1217    0.9344 C   0  0  0  0  0  0  0  0  0  0  0  0
   -3.6069   -0.8488   -0.7425 C   0  0  2  0  0  0  0  0  0  0  0  0
   -5.1150   -0.5855   -0.5117 C   0  0  0  0  0  0  0  0  0  0  0  0
   -5.7481   -0.3652   -1.7125 O   0  0  0  0  0  0  0  0  0  0  0  0
   -3.3945   -1.8722   -1.7835 C   0  0  0  0  0  0  0  0  0  0  0  0
   -3.4068   -3.3000   -1.2706 C   0  0  2  0  0  0  0  0  0  0  0  0
   -4.7145   -3.9605   -1.5002 C   0  0  0  0  0  0  0  0  0  0  0  0
   -5.1968   -4.8337   -0.4053 C   0  0  0  0  0  0  0  0  0  0  0  0
   -5.0725   -4.2646    0.9572 C   0  0  0  0  0  0  0  0  0  0  0  0
   -3.7109   -3.7714    1.2212 C   0  0  0  0  0  0  0  0  0  0  0  0
   -2.8319   -3.4408    0.0875 C   0  0  2  0  0  0  0  0  0  0  0  0
   -2.0331   -2.2009    0.4127 C   0  0  0  0  0  0  0  0  0  0  0  0
   -5.3004    0.4638    0.4605 N   0  0  0  0  0  0  0  0  0  0  0  0
   -6.6204    0.4608    1.0511 C   0  0  0  0  0  0  0  0  0  0  0  0
   -6.9297   -0.8043    1.8196 C   0  0  0  0  0  0  0  0  0  0  0  0
   -6.6960    1.6591    1.9898 C   0  0  0  0  0  0  0  0  0  0  0  0
   -7.6342    0.7111   -0.0420 C   0  0  0  0  0  0  0  0  0  0  0  0
    2.9740   -1.1987   -0.5124 H   0  0  0  0  0  0  0  0  0  0  0  0
    3.7687   -1.6870    1.4434 H   0  0  0  0  0  0  0  0  0  0  0  0
    4.4617   -3.3128   -1.2520 H   0  0  0  0  0  0  0  0  0  0  0  0
    4.8228   -1.3620   -2.1041 H   0  0  0  0  0  0  0  0  0  0  0  0
    6.4297   -0.2281    0.2425 H   0  0  0  0  0  0  0  0  0  0  0  0
    6.2913    0.2627   -1.4455 H   0  0  0  0  0  0  0  0  0  0  0  0
    8.3738   -1.1962   -0.4796 H   0  0  0  0  0  0  0  0  0  0  0  0
    7.9284   -1.0750   -2.2035 H   0  0  0  0  0  0  0  0  0  0  0  0
    9.5373   -2.9933   -1.2204 H   0  0  0  0  0  0  0  0  0  0  0  0
    8.7501   -4.5035   -1.7785 H   0  0  0  0  0  0  0  0  0  0  0  0
    8.4323   -5.3045    0.3628 H   0  0  0  0  0  0  0  0  0  0  0  0
    9.8726   -4.3063    0.5582 H   0  0  0  0  0  0  0  0  0  0  0  0
    8.3150   -3.9545    2.3538 H   0  0  0  0  0  0  0  0  0  0  0  0
    8.7371   -2.4694    1.5035 H   0  0  0  0  0  0  0  0  0  0  0  0
    6.4522   -2.1998    1.5917 H   0  0  0  0  0  0  0  0  0  0  0  0
    6.1151   -3.9412    1.7016 H   0  0  0  0  0  0  0  0  0  0  0  0
    7.0038   -3.1909   -2.3000 H   0  0  0  0  0  0  0  0  0  0  0  0
    6.1803   -4.4278   -0.4838 H   0  0  0  0  0  0  0  0  0  0  0  0
    3.6823    1.0943   -1.3895 H   0  0  0  0  0  0  0  0  0  0  0  0
    3.8851    0.9419    1.5571 H   0  0  0  0  0  0  0  0  0  0  0  0
    1.8872    1.7833    2.1040 H   0  0  0  0  0  0  0  0  0  0  0  0
    1.7849   -0.2322    2.2444 H   0  0  0  0  0  0  0  0  0  0  0  0
    3.5908    3.3268    1.6631 H   0  0  0  0  0  0  0  0  0  0  0  0
    5.0475    2.6900    0.9079 H   0  0  0  0  0  0  0  0  0  0  0  0
    4.3383    3.3780   -1.3603 H   0  0  0  0  0  0  0  0  0  0  0  0
    2.3672    4.2833   -1.6844 H   0  0  0  0  0  0  0  0  0  0  0  0
    4.2013    5.6710   -0.9263 H   0  0  0  0  0  0  0  0  0  0  0  0
    5.3808    4.8957    0.0376 H   0  0  0  0  0  0  0  0  0  0  0  0
   -0.2597   -0.3722    0.3894 H   0  0  0  0  0  0  0  0  0  0  0  0
   -0.5256   -0.1232   -1.6314 H   0  0  0  0  0  0  0  0  0  0  0  0
   -0.2278    1.3715    1.8812 H   0  0  0  0  0  0  0  0  0  0  0  0
    0.8901    1.8047   -0.7022 H   0  0  0  0  0  0  0  0  0  0  0  0
   -0.8027    3.6622    1.4312 H   0  0  0  0  0  0  0  0  0  0  0  0
   -2.1192    2.5367    1.7294 H   0  0  0  0  0  0  0  0  0  0  0  0
   -2.8045    2.7183   -0.7362 H   0  0  0  0  0  0  0  0  0  0  0  0
   -1.9942    4.3745   -2.0643 H   0  0  0  0  0  0  0  0  0  0  0  0
   -0.6060    3.3001   -1.7511 H   0  0  0  0  0  0  0  0  0  0  0  0
   -3.5989    4.0523    1.2185 H   0  0  0  0  0  0  0  0  0  0  0  0
   -3.7712    4.8135   -0.3767 H   0  0  0  0  0  0  0  0  0  0  0  0
    0.0003    5.6949   -1.6473 H   0  0  0  0  0  0  0  0  0  0  0  0
    0.0782    5.0242    0.0911 H   0  0  0  0  0  0  0  0  0  0  0  0
   -1.5853    5.5003    1.6863 H   0  0  0  0  0  0  0  0  0  0  0  0
   -3.0489    6.4264    1.1586 H   0  0  0  0  0  0  0  0  0  0  0  0
   -2.2851    6.5428   -1.1102 H   0  0  0  0  0  0  0  0  0  0  0  0
   -1.0120    7.2181   -0.0425 H   0  0  0  0  0  0  0  0  0  0  0  0
   -2.9711    0.9462    0.7945 H   0  0  0  0  0  0  0  0  0  0  0  0
   -2.0561    0.0200    2.0292 H   0  0  0  0  0  0  0  0  0  0  0  0
   -3.2589    0.1327   -1.1116 H   0  0  0  0  0  0  0  0  0  0  0  0
   -5.5139   -1.5093   -0.0645 H   0  0  0  0  0  0  0  0  0  0  0  0
   -5.2678    0.2518   -2.3193 H   0  0  0  0  0  0  0  0  0  0  0  0
   -2.4859   -1.6478   -2.4020 H   0  0  0  0  0  0  0  0  0  0  0  0
   -4.2498   -1.7863   -2.5190 H   0  0  0  0  0  0  0  0  0  0  0  0
   -2.6832   -3.8307   -1.9700 H   0  0  0  0  0  0  0  0  0  0  0  0
   -5.5050   -3.1934   -1.7213 H   0  0  0  0  0  0  0  0  0  0  0  0
   -4.7265   -4.5956   -2.4414 H   0  0  0  0  0  0  0  0  0  0  0  0
   -4.7197   -5.8429   -0.4227 H   0  0  0  0  0  0  0  0  0  0  0  0
   -6.2973   -5.0561   -0.5641 H   0  0  0  0  0  0  0  0  0  0  0  0
   -5.8589   -3.5051    1.1755 H   0  0  0  0  0  0  0  0  0  0  0  0
   -5.3082   -5.0941    1.6941 H   0  0  0  0  0  0  0  0  0  0  0  0
   -3.2016   -4.5201    1.9133 H   0  0  0  0  0  0  0  0  0  0  0  0
   -3.8313   -2.8859    1.9292 H   0  0  0  0  0  0  0  0  0  0  0  0
   -2.0207   -4.2618    0.0751 H   0  0  0  0  0  0  0  0  0  0  0  0
   -1.6139   -2.3717    1.4435 H   0  0  0  0  0  0  0  0  0  0  0  0
   -1.2668   -2.0456   -0.3587 H   0  0  0  0  0  0  0  0  0  0  0  0
   -5.2460    1.3836   -0.0713 H   0  0  0  0  0  0  0  0  0  0  0  0
   -7.5305   -0.4769    2.7151 H   0  0  0  0  0  0  0  0  0  0  0  0
   -7.5846   -1.4636    1.2515 H   0  0  0  0  0  0  0  0  0  0  0  0
   -6.0178   -1.2475    2.2209 H   0  0  0  0  0  0  0  0  0  0  0  0
   -6.9375    2.5694    1.4417 H   0  0  0  0  0  0  0  0  0  0  0  0
   -5.7926    1.7077    2.6231 H   0  0  0  0  0  0  0  0  0  0  0  0
   -7.5434    1.4371    2.7035 H   0  0  0  0  0  0  0  0  0  0  0  0
   -7.2179    1.2505   -0.9129 H   0  0  0  0  0  0  0  0  0  0  0  0
   -7.9859   -0.2991   -0.3872 H   0  0  0  0  0  0  0  0  0  0  0  0
   -8.4886    1.2912    0.3932 H   0  0  0  0  0  0  0  0  0  0  0  0
  1  2  1  0
  1  4  1  0
  3  4  1  0
  4  5  1  0
  5  6  1  0
  7  8  1  0
  8  9  1  0
  9 10  1  0
  6 11  1  0
  7 11  1  0
  3 12  1  0
 10 12  1  0
 11 12  1  0
  1 13  1  0
 13 14  1  0
 14 15  1  0
 15 16  1  0
 14 17  1  0
 17 18  1  0
 18 19  1  0
 18 20  1  0
 21 22  1  0
 21 23  1  0
 15 24  1  0
 23 24  1  0
 23 25  1  0
 25 26  1  0
 26 27  1  0
 26 28  1  0
 27 29  1  0
 28 30  1  0
 29 31  1  0
 30 31  1  0
 21 33  1  0
 32 33  1  0
 32 34  1  0
 34 35  1  0
 35 36  1  0
 34 37  1  0
 37 38  1  0
 38 39  1  0
 39 40  1  0
 40 41  1  0
 41 42  1  0
 38 43  1  0
 42 43  1  0
 32 44  1  0
 43 44  1  0
 35 45  1  0
 46 45  1  0
 46 47  1  0
 46 48  1  0
 46 49  1  0
  1 50  1  0
  2 51  1  0
  3 52  1  0
  4 53  1  6
  5 54  1  0
  5 55  1  0
  6 56  1  0
  6 57  1  0
  7 58  1  0
  7 59  1  0
  8 60  1  0
  8 61  1  0
  9 62  1  0
  9 63  1  0
 10 64  1  0
 10 65  1  0
 11 66  1  0
 12 67  1  0
 13 68  1  0
 14 69  1  1
 15 70  1  0
 16 71  1  0
 17 72  1  0
 17 73  1  0
 18 74  1  6
 19 75  1  0
 20 76  1  0
 20 77  1  0
 21 78  1  6
 22 79  1  0
 23 80  1  1
 24 81  1  0
 25 82  1  0
 25 83  1  0
 26 84  1  0
 27 85  1  0
 27 86  1  0
 28 87  1  0
 28 88  1  0
 29 89  1  0
 29 90  1  0
 30 91  1  0
 30 92  1  0
 31 93  1  0
 31 94  1  0
 33 95  1  0
 33 96  1  0
 34 97  1  6
 35 98  1  0
 36 99  1  0
 37100  1  0
 37101  1  0
 38102  1  6
 39103  1  0
 39104  1  0
 40105  1  0
 40106  1  0
 41107  1  0
 41108  1  0
 42109  1  0
 42110  1  0
 43111  1  6
 44112  1  0
 44113  1  0
 45114  1  0
 47115  1  0
 47116  1  0
 47117  1  0
 48118  1  0
 48119  1  0
 48120  1  0
 49121  1  0
 49122  1  0
 49123  1  0
M  END
>  <PDBID>  (1) 
1HXB

>  <PDB ID>  (1) 
1HXB

>  <Generic Name>  (1) 
Saquinavir

>  <Brand Name>  (1) 
Fortovase Roche#Invirase#Invirase - Cap 200mg#Fortovase#ROC

>  <DrugBank ID>  (1) 
DB01232

>  <ATC Codes>  (1) 
J05AE01

>  <Ligand ID>  (1) 
ROC

>  <Target Name>  (1) 
Pol polyprotein

>  <UniProt ID>  (1) 
Q72874

>  <PDB ID.1>  (1) 
1HXB

>  <Seq. Identity>  (1) 
100%

$$$$
