PDB_DB06603_01
     RDKit          3D

134138  0  0  0  0  0  0  0  0999 V2000
    6.8019    1.5630    0.9253 O   0  0  0  0  0  0  0  0  0  0  0  0
    7.4544    0.6258    0.1691 C   0  0  0  0  0  0  0  0  0  0  0  0
    8.6672    1.2137   -0.3731 N   0  0  0  0  0  0  0  0  0  0  0  0
    9.2572    0.2232   -1.1061 O   0  0  0  0  0  0  0  0  0  0  0  0
    6.6267    0.0350   -0.9448 C   0  0  0  0  0  0  0  0  0  0  0  0
    5.3986   -0.6622   -0.5028 C   0  0  0  0  0  0  0  0  0  0  0  0
    4.3923    0.1241    0.2416 C   0  0  0  0  0  0  0  0  0  0  0  0
    3.2351   -0.8315    0.5738 C   0  0  0  0  0  0  0  0  0  0  0  0
    2.1173   -0.0001    1.1645 C   0  0  0  0  0  0  0  0  0  0  0  0
    3.8894    1.3427   -0.4782 C   0  0  0  0  0  0  0  0  0  0  0  0
    2.4908    1.1640   -1.0204 C   0  0  0  0  0  0  0  0  0  0  0  0
    1.4828    0.7722    0.0363 C   0  0  0  0  0  0  0  0  0  0  0  0
    0.4255   -0.0652   -0.6546 C   0  0  0  0  0  0  0  0  0  0  0  0
   -0.6407   -0.4888    0.1871 N   0  0  0  0  0  0  0  0  0  0  0  0
   -1.5061    0.5710    0.6484 C   0  0  0  0  0  0  0  0  0  0  0  0
   -2.5992    0.0593    1.5419 C   0  0  0  0  0  0  0  0  0  0  0  0
   -3.4689   -0.9166    0.8700 C   0  0  0  0  0  0  0  0  0  0  0  0
   -4.2166   -0.4673   -0.3387 C   0  0  0  0  0  0  0  0  0  0  0  0
   -5.2875   -1.5486   -0.4022 C   0  0  0  0  0  0  0  0  0  0  0  0
   -5.7363   -1.5918    0.9659 N   0  0  0  0  0  0  0  0  0  0  0  0
   -4.5018   -1.5636    1.7376 C   0  0  0  0  0  0  0  0  0  0  0  0
   -4.7630   -0.8708    3.0300 C   0  0  0  0  0  0  0  0  0  0  0  0
   -6.3517   -1.3227   -1.3983 C   0  0  0  0  0  0  0  0  0  0  0  0
   -6.3939    0.0394   -1.9986 C   0  0  0  0  0  0  0  0  0  0  0  0
   -6.1172    1.0805   -0.9562 C   0  0  0  0  0  0  0  0  0  0  0  0
   -4.7820    0.9065   -0.2851 C   0  0  0  0  0  0  0  0  0  0  0  0
    6.8019    1.5630    0.9253 O   0  0  0  0  0  0  0  0  0  0  0  0
    7.4544    0.6258    0.1691 C   0  0  0  0  0  0  0  0  0  0  0  0
    8.6672    1.2137   -0.3731 N   0  0  0  0  0  0  0  0  0  0  0  0
    9.2572    0.2232   -1.1061 O   0  0  0  0  0  0  0  0  0  0  0  0
    6.6267    0.0350   -0.9448 C   0  0  0  0  0  0  0  0  0  0  0  0
    5.3986   -0.6622   -0.5028 C   0  0  0  0  0  0  0  0  0  0  0  0
    4.3923    0.1241    0.2416 C   0  0  0  0  0  0  0  0  0  0  0  0
    3.2351   -0.8315    0.5738 C   0  0  0  0  0  0  0  0  0  0  0  0
    2.1173   -0.0001    1.1645 C   0  0  0  0  0  0  0  0  0  0  0  0
    3.8894    1.3427   -0.4782 C   0  0  0  0  0  0  0  0  0  0  0  0
    2.4908    1.1640   -1.0204 C   0  0  0  0  0  0  0  0  0  0  0  0
    1.4828    0.7722    0.0363 C   0  0  0  0  0  0  0  0  0  0  0  0
    0.4255   -0.0652   -0.6546 C   0  0  0  0  0  0  0  0  0  0  0  0
   -0.6407   -0.4888    0.1871 N   0  0  0  0  0  0  0  0  0  0  0  0
   -1.5061    0.5710    0.6484 C   0  0  0  0  0  0  0  0  0  0  0  0
   -2.5992    0.0593    1.5419 C   0  0  0  0  0  0  0  0  0  0  0  0
   -3.4689   -0.9166    0.8700 C   0  0  0  0  0  0  0  0  0  0  0  0
   -4.2166   -0.4673   -0.3387 C   0  0  0  0  0  0  0  0  0  0  0  0
   -5.2875   -1.5486   -0.4022 C   0  0  0  0  0  0  0  0  0  0  0  0
   -5.7363   -1.5918    0.9659 N   0  0  0  0  0  0  0  0  0  0  0  0
   -4.5018   -1.5636    1.7376 C   0  0  0  0  0  0  0  0  0  0  0  0
   -4.7630   -0.8708    3.0300 C   0  0  0  0  0  0  0  0  0  0  0  0
   -6.3517   -1.3227   -1.3983 C   0  0  0  0  0  0  0  0  0  0  0  0
   -6.3939    0.0394   -1.9986 C   0  0  0  0  0  0  0  0  0  0  0  0
   -6.1172    1.0805   -0.9562 C   0  0  0  0  0  0  0  0  0  0  0  0
   -4.7820    0.9065   -0.2851 C   0  0  0  0  0  0  0  0  0  0  0  0
    6.9179    1.4078    1.8817 H   0  0  0  0  0  0  0  0  0  0  0  0
    7.8182   -0.1797    0.8731 H   0  0  0  0  0  0  0  0  0  0  0  0
    8.4278    1.9698   -1.0517 H   0  0  0  0  0  0  0  0  0  0  0  0
    9.7080    0.5867   -1.9237 H   0  0  0  0  0  0  0  0  0  0  0  0
    7.2738   -0.7009   -1.4667 H   0  0  0  0  0  0  0  0  0  0  0  0
    6.4529    0.8505   -1.6776 H   0  0  0  0  0  0  0  0  0  0  0  0
    5.7102   -1.5239    0.1354 H   0  0  0  0  0  0  0  0  0  0  0  0
    4.9383   -1.1277   -1.4127 H   0  0  0  0  0  0  0  0  0  0  0  0
    4.7802    0.4444    1.2296 H   0  0  0  0  0  0  0  0  0  0  0  0
    3.5576   -1.5445    1.3610 H   0  0  0  0  0  0  0  0  0  0  0  0
    2.9192   -1.4137   -0.2950 H   0  0  0  0  0  0  0  0  0  0  0  0
    2.5712    0.6768    1.9070 H   0  0  0  0  0  0  0  0  0  0  0  0
    1.3712   -0.6504    1.6193 H   0  0  0  0  0  0  0  0  0  0  0  0
    3.8659    2.2333    0.1837 H   0  0  0  0  0  0  0  0  0  0  0  0
    4.5214    1.6288   -1.3441 H   0  0  0  0  0  0  0  0  0  0  0  0
    2.5288    0.4610   -1.8559 H   0  0  0  0  0  0  0  0  0  0  0  0
    2.1662    2.1520   -1.4203 H   0  0  0  0  0  0  0  0  0  0  0  0
    0.9824    1.6572    0.4793 H   0  0  0  0  0  0  0  0  0  0  0  0
    0.0393    0.4820   -1.5291 H   0  0  0  0  0  0  0  0  0  0  0  0
    0.9440   -0.9683   -1.0309 H   0  0  0  0  0  0  0  0  0  0  0  0
   -0.4369   -1.2196    0.8706 H   0  0  0  0  0  0  0  0  0  0  0  0
   -1.8398    1.1433   -0.2195 H   0  0  0  0  0  0  0  0  0  0  0  0
   -0.8471    1.2557    1.2591 H   0  0  0  0  0  0  0  0  0  0  0  0
   -2.0752   -0.4892    2.3785 H   0  0  0  0  0  0  0  0  0  0  0  0
   -3.1157    0.8996    2.0389 H   0  0  0  0  0  0  0  0  0  0  0  0
   -2.7974   -1.7635    0.5202 H   0  0  0  0  0  0  0  0  0  0  0  0
   -3.6180   -0.5662   -1.2858 H   0  0  0  0  0  0  0  0  0  0  0  0
   -4.7259   -2.4980   -0.6267 H   0  0  0  0  0  0  0  0  0  0  0  0
   -6.2148   -0.6870    1.1749 H   0  0  0  0  0  0  0  0  0  0  0  0
   -4.2805   -2.6351    1.9727 H   0  0  0  0  0  0  0  0  0  0  0  0
   -3.9087   -0.9737    3.7419 H   0  0  0  0  0  0  0  0  0  0  0  0
   -5.6178   -1.3819    3.5202 H   0  0  0  0  0  0  0  0  0  0  0  0
   -5.0451    0.1927    2.9172 H   0  0  0  0  0  0  0  0  0  0  0  0
   -7.3511   -1.5713   -0.9433 H   0  0  0  0  0  0  0  0  0  0  0  0
   -6.2358   -2.0603   -2.2427 H   0  0  0  0  0  0  0  0  0  0  0  0
   -5.7387    0.1636   -2.8803 H   0  0  0  0  0  0  0  0  0  0  0  0
   -7.4529    0.2203   -2.3478 H   0  0  0  0  0  0  0  0  0  0  0  0
   -6.9438    1.1150   -0.2165 H   0  0  0  0  0  0  0  0  0  0  0  0
   -6.1755    2.0864   -1.4702 H   0  0  0  0  0  0  0  0  0  0  0  0
   -4.8685    1.3439    0.7278 H   0  0  0  0  0  0  0  0  0  0  0  0
   -4.0797    1.5931   -0.8437 H   0  0  0  0  0  0  0  0  0  0  0  0
    6.9179    1.4078    1.8817 H   0  0  0  0  0  0  0  0  0  0  0  0
    7.8182   -0.1797    0.8731 H   0  0  0  0  0  0  0  0  0  0  0  0
    8.4278    1.9698   -1.0517 H   0  0  0  0  0  0  0  0  0  0  0  0
    9.7080    0.5867   -1.9237 H   0  0  0  0  0  0  0  0  0  0  0  0
    7.2738   -0.7009   -1.4667 H   0  0  0  0  0  0  0  0  0  0  0  0
    6.4529    0.8505   -1.6776 H   0  0  0  0  0  0  0  0  0  0  0  0
    5.7102   -1.5239    0.1354 H   0  0  0  0  0  0  0  0  0  0  0  0
    4.9383   -1.1277   -1.4127 H   0  0  0  0  0  0  0  0  0  0  0  0
    4.7802    0.4444    1.2296 H   0  0  0  0  0  0  0  0  0  0  0  0
    3.5576   -1.5445    1.3610 H   0  0  0  0  0  0  0  0  0  0  0  0
    2.9192   -1.4137   -0.2950 H   0  0  0  0  0  0  0  0  0  0  0  0
    2.5712    0.6768    1.9070 H   0  0  0  0  0  0  0  0  0  0  0  0
    1.3712   -0.6504    1.6193 H   0  0  0  0  0  0  0  0  0  0  0  0
    3.8659    2.2333    0.1837 H   0  0  0  0  0  0  0  0  0  0  0  0
    4.5214    1.6288   -1.3441 H   0  0  0  0  0  0  0  0  0  0  0  0
    2.5288    0.4610   -1.8559 H   0  0  0  0  0  0  0  0  0  0  0  0
    2.1662    2.1520   -1.4203 H   0  0  0  0  0  0  0  0  0  0  0  0
    0.9824    1.6572    0.4793 H   0  0  0  0  0  0  0  0  0  0  0  0
    0.0393    0.4820   -1.5291 H   0  0  0  0  0  0  0  0  0  0  0  0
    0.9440   -0.9683   -1.0309 H   0  0  0  0  0  0  0  0  0  0  0  0
   -0.4369   -1.2196    0.8706 H   0  0  0  0  0  0  0  0  0  0  0  0
   -1.8398    1.1433   -0.2195 H   0  0  0  0  0  0  0  0  0  0  0  0
   -0.8471    1.2557    1.2591 H   0  0  0  0  0  0  0  0  0  0  0  0
   -2.0752   -0.4892    2.3785 H   0  0  0  0  0  0  0  0  0  0  0  0
   -3.1157    0.8996    2.0389 H   0  0  0  0  0  0  0  0  0  0  0  0
   -2.7974   -1.7635    0.5202 H   0  0  0  0  0  0  0  0  0  0  0  0
   -3.6180   -0.5662   -1.2858 H   0  0  0  0  0  0  0  0  0  0  0  0
   -4.7259   -2.4980   -0.6267 H   0  0  0  0  0  0  0  0  0  0  0  0
   -6.2148   -0.6870    1.1749 H   0  0  0  0  0  0  0  0  0  0  0  0
   -4.2805   -2.6351    1.9727 H   0  0  0  0  0  0  0  0  0  0  0  0
   -3.9087   -0.9737    3.7419 H   0  0  0  0  0  0  0  0  0  0  0  0
   -5.6178   -1.3819    3.5202 H   0  0  0  0  0  0  0  0  0  0  0  0
   -5.0451    0.1927    2.9172 H   0  0  0  0  0  0  0  0  0  0  0  0
   -7.3511   -1.5713   -0.9433 H   0  0  0  0  0  0  0  0  0  0  0  0
   -6.2358   -2.0603   -2.2427 H   0  0  0  0  0  0  0  0  0  0  0  0
   -5.7387    0.1636   -2.8803 H   0  0  0  0  0  0  0  0  0  0  0  0
   -7.4529    0.2203   -2.3478 H   0  0  0  0  0  0  0  0  0  0  0  0
   -6.9438    1.1150   -0.2165 H   0  0  0  0  0  0  0  0  0  0  0  0
   -6.1755    2.0864   -1.4702 H   0  0  0  0  0  0  0  0  0  0  0  0
   -4.8685    1.3439    0.7278 H   0  0  0  0  0  0  0  0  0  0  0  0
   -4.0797    1.5931   -0.8437 H   0  0  0  0  0  0  0  0  0  0  0  0
  1  2  1  0
  2  3  1  0
  4  3  1  0
  2  5  1  0
  5  6  1  0
  6  7  1  0
  7  8  1  0
  8  9  1  0
  7 10  1  0
 10 11  1  0
  9 12  1  0
 11 12  1  0
 12 13  1  0
 13 14  1  0
 14 15  1  0
 15 16  1  0
 16 17  1  0
 17 18  1  0
 18 19  1  0
 19 20  1  0
 17 21  1  0
 20 21  1  0
 21 22  1  0
 19 23  1  0
 23 24  1  0
 24 25  1  0
 18 26  1  0
 25 26  1  0
 27 28  1  0
 28 29  1  0
 30 29  1  0
 28 31  1  0
 31 32  1  0
 32 33  1  0
 33 34  1  0
 34 35  1  0
 33 36  1  0
 36 37  1  0
 35 38  1  0
 37 38  1  0
 38 39  1  0
 39 40  1  0
 40 41  1  0
 41 42  1  0
 42 43  1  0
 43 44  1  0
 44 45  1  0
 45 46  1  0
 43 47  1  0
 46 47  1  0
 47 48  1  0
 45 49  1  0
 49 50  1  0
 50 51  1  0
 44 52  1  0
 51 52  1  0
  1 53  1  0
  2 54  1  0
  3 55  1  0
  4 56  1  0
  5 57  1  0
  5 58  1  0
  6 59  1  0
  6 60  1  0
  7 61  1  0
  8 62  1  0
  8 63  1  0
  9 64  1  0
  9 65  1  0
 10 66  1  0
 10 67  1  0
 11 68  1  0
 11 69  1  0
 12 70  1  0
 13 71  1  0
 13 72  1  0
 14 73  1  0
 15 74  1  0
 15 75  1  0
 16 76  1  0
 16 77  1  0
 17 78  1  0
 18 79  1  0
 19 80  1  0
 20 81  1  0
 21 82  1  0
 22 83  1  0
 22 84  1  0
 22 85  1  0
 23 86  1  0
 23 87  1  0
 24 88  1  0
 24 89  1  0
 25 90  1  0
 25 91  1  0
 26 92  1  0
 26 93  1  0
 27 94  1  0
 28 95  1  0
 29 96  1  0
 30 97  1  0
 31 98  1  0
 31 99  1  0
 32100  1  0
 32101  1  0
 33102  1  0
 34103  1  0
 34104  1  0
 35105  1  0
 35106  1  0
 36107  1  0
 36108  1  0
 37109  1  0
 37110  1  0
 38111  1  0
 39112  1  0
 39113  1  0
 40114  1  0
 41115  1  0
 41116  1  0
 42117  1  0
 42118  1  0
 43119  1  0
 44120  1  0
 45121  1  0
 46122  1  0
 47123  1  0
 48124  1  0
 48125  1  0
 48126  1  0
 49127  1  0
 49128  1  0
 50129  1  0
 50130  1  0
 51131  1  0
 51132  1  0
 52133  1  0
 52134  1  0
M  END
>  <PDBID>  (1) 
5EF8

>  <PDB ID>  (1) 
5EF8

>  <Generic Name>  (1) 
Panobinostat

>  <Brand Name>  (1) 
Farydak

>  <DrugBank ID>  (1) 
DB06603

>  <ATC Codes>  (1) 
L01XX42

>  <Ligand ID>  (1) 
LBH

>  <Target Name>  (1) 
Histone deacetylase 9

>  <UniProt ID>  (1) 
Q9UKV0

>  <PDB ID.1>  (1) 
5EF8

>  <Seq. Identity>  (1) 
46%

$$$$
