PDB_DB00814_08
     RDKit          3D

104109  0  0  0  0  0  0  0  0999 V2000
    6.6553    1.1738    1.1086 C   0  0  0  0  0  0  0  0  0  0  0  0
    5.8393   -0.0830    1.2878 C   0  0  0  0  0  0  0  0  0  0  0  0
    4.1710    0.4030    1.7866 S   0  0  0  0  0  0  0  0  0  0  0  0
    5.5781   -0.6925   -0.0455 C   0  0  0  0  0  0  0  0  0  0  0  0
    4.2461   -1.1474   -0.1656 N   0  0  0  0  0  0  0  0  0  0  0  0
    3.3268   -0.0507    0.2000 C   0  0  0  0  0  0  0  0  0  0  0  0
    2.0406   -0.5810    0.4798 N   0  0  0  0  0  0  0  0  0  0  0  0
    1.1340   -0.4713   -0.6806 C   0  0  1  0  0  0  0  0  0  0  0  0
    0.8493   -1.7171   -1.1811 O   0  0  0  0  0  0  0  0  0  0  0  0
   -0.1610    0.1974   -0.1283 C   0  0  1  0  0  0  0  0  0  0  0  0
   -1.1680    0.3139   -1.2271 C   0  0  2  0  0  0  0  0  0  0  0  0
   -0.7549    1.3861   -2.0532 O   0  0  0  0  0  0  0  0  0  0  0  0
   -2.4986    0.7314   -0.6538 C   0  0  1  0  0  0  0  0  0  0  0  0
   -3.4785    1.2536   -1.6715 C   0  0  0  0  0  0  0  0  0  0  0  0
   -4.6571    1.8352   -0.8886 C   0  0  0  0  0  0  0  0  0  0  0  0
   -5.2782    0.8358    0.0280 C   0  0  0  0  0  0  0  0  0  0  0  0
   -4.2782    0.1065    0.8813 C   0  0  0  0  0  0  0  0  0  0  0  0
   -3.1813   -0.4725   -0.0224 C   0  0  2  0  0  0  0  0  0  0  0  0
   -2.0385   -1.4015    0.8004 S   0  0  0  0  0  0  0  0  0  0  0  0
   -1.6595   -3.0619   -0.0944 O   0  0  0  0  0  0  0  0  0  0  0  0
   -2.6387   -1.9576    2.4504 O   0  0  0  0  0  0  0  0  0  0  0  0
   -0.6218   -0.6096    0.9787 N   0  0  0  0  0  0  0  0  0  0  0  0
   -0.3711    0.0519    2.2303 C   0  0  0  0  0  0  0  0  0  0  0  0
    6.2896   -0.1708   -0.8601 C   0  0  0  0  0  0  0  0  0  0  0  0
    4.9603    0.0405   -0.2139 C   0  0  0  0  0  0  0  0  0  0  0  0
    3.5827   -0.0977   -1.4280 S   0  0  0  0  0  0  0  0  0  0  0  0
    4.6458   -1.2082    0.6062 C   0  0  0  0  0  0  0  0  0  0  0  0
    3.2491   -1.2714    0.7979 N   0  0  0  0  0  0  0  0  0  0  0  0
    2.5405   -1.2269   -0.4209 C   0  0  1  0  0  0  0  0  0  0  0  0
    1.1852   -0.8525   -0.4074 N   0  0  0  0  0  0  0  0  0  0  0  0
    1.0366    0.5115    0.0507 C   0  0  1  0  0  0  0  0  0  0  0  0
    1.4464    1.3072   -1.0390 O   0  0  0  0  0  0  0  0  0  0  0  0
   -0.4470    0.8285    0.2813 C   0  0  2  0  0  0  0  0  0  0  0  0
   -1.0363   -0.1266    1.2478 C   0  0  2  0  0  0  0  0  0  0  0  0
   -0.1512   -0.9651    1.8640 O   0  0  0  0  0  0  0  0  0  0  0  0
   -1.8917   -0.8462    0.2696 C   0  0  1  0  0  0  0  0  0  0  0  0
   -2.7674   -1.7932    0.9724 C   0  0  0  0  0  0  0  0  0  0  0  0
   -4.1560   -1.3395    1.2737 C   0  0  0  0  0  0  0  0  0  0  0  0
   -4.7796   -0.8624   -0.0178 C   0  0  0  0  0  0  0  0  0  0  0  0
   -3.8275   -0.2065   -0.9340 C   0  0  0  0  0  0  0  0  0  0  0  0
   -2.7127    0.3924   -0.1718 C   0  0  2  0  0  0  0  0  0  0  0  0
   -1.5206    1.4398   -0.8448 S   0  0  0  0  0  0  0  0  0  0  0  0
   -1.0822    0.4669   -2.3898 O   0  0  0  0  0  0  0  0  0  0  0  0
   -0.9337    3.0268   -1.6921 O   0  0  0  0  0  0  0  0  0  0  0  0
   -0.4373    2.1120    0.5409 N   0  0  0  0  0  0  0  0  0  0  0  0
   -1.0080    2.5944    1.6644 C   0  0  0  0  0  0  0  0  0  0  0  0
    6.4574    1.5469    0.0634 H   0  0  0  0  0  0  0  0  0  0  0  0
    6.2898    1.9769    1.7715 H   0  0  0  0  0  0  0  0  0  0  0  0
    7.7486    1.0147    1.1854 H   0  0  0  0  0  0  0  0  0  0  0  0
    6.3051   -0.7810    2.0186 H   0  0  0  0  0  0  0  0  0  0  0  0
    5.9776   -0.1016   -0.8993 H   0  0  0  0  0  0  0  0  0  0  0  0
    6.2181   -1.6361   -0.0604 H   0  0  0  0  0  0  0  0  0  0  0  0
    4.0441   -1.3908   -1.1397 H   0  0  0  0  0  0  0  0  0  0  0  0
    3.4092    0.7961   -0.4595 H   0  0  0  0  0  0  0  0  0  0  0  0
    2.0353   -1.5539    0.8346 H   0  0  0  0  0  0  0  0  0  0  0  0
    1.5669    0.1648   -1.4534 H   0  0  0  0  0  0  0  0  0  0  0  0
    0.9412   -1.7711   -2.1893 H   0  0  0  0  0  0  0  0  0  0  0  0
    0.1178    1.1984    0.2187 H   0  0  0  0  0  0  0  0  0  0  0  0
   -1.2777   -0.6118   -1.8281 H   0  0  0  0  0  0  0  0  0  0  0  0
   -0.4731    1.1055   -2.9371 H   0  0  0  0  0  0  0  0  0  0  0  0
   -2.3463    1.5128    0.1061 H   0  0  0  0  0  0  0  0  0  0  0  0
   -3.9181    0.3626   -2.2077 H   0  0  0  0  0  0  0  0  0  0  0  0
   -3.0761    1.9875   -2.3614 H   0  0  0  0  0  0  0  0  0  0  0  0
   -4.3542    2.7051   -0.2722 H   0  0  0  0  0  0  0  0  0  0  0  0
   -5.4685    2.1146   -1.6284 H   0  0  0  0  0  0  0  0  0  0  0  0
   -5.9484    1.3980    0.7337 H   0  0  0  0  0  0  0  0  0  0  0  0
   -5.9024    0.0759   -0.4643 H   0  0  0  0  0  0  0  0  0  0  0  0
   -4.7898   -0.7631    1.3467 H   0  0  0  0  0  0  0  0  0  0  0  0
   -3.8425    0.7738    1.6696 H   0  0  0  0  0  0  0  0  0  0  0  0
   -3.6978   -1.0135   -0.8367 H   0  0  0  0  0  0  0  0  0  0  0  0
   -2.5656   -3.4506   -0.0094 H   0  0  0  0  0  0  0  0  0  0  0  0
   -3.4857   -2.3632    2.2149 H   0  0  0  0  0  0  0  0  0  0  0  0
    0.6914    0.3572    2.2773 H   0  0  0  0  0  0  0  0  0  0  0  0
   -0.6626   -0.6382    3.0768 H   0  0  0  0  0  0  0  0  0  0  0  0
   -1.0489    0.9415    2.2861 H   0  0  0  0  0  0  0  0  0  0  0  0
    6.7262    0.7360   -1.3108 H   0  0  0  0  0  0  0  0  0  0  0  0
    6.2367   -1.0287   -1.5731 H   0  0  0  0  0  0  0  0  0  0  0  0
    7.0070   -0.4938   -0.0525 H   0  0  0  0  0  0  0  0  0  0  0  0
    4.8982    0.9569    0.3660 H   0  0  0  0  0  0  0  0  0  0  0  0
    5.1209   -2.1025    0.1671 H   0  0  0  0  0  0  0  0  0  0  0  0
    5.1123   -1.0179    1.6151 H   0  0  0  0  0  0  0  0  0  0  0  0
    2.9424   -0.7153    1.5859 H   0  0  0  0  0  0  0  0  0  0  0  0
    2.7033   -2.2329   -0.9248 H   0  0  0  0  0  0  0  0  0  0  0  0
    0.8337   -0.9530   -1.4100 H   0  0  0  0  0  0  0  0  0  0  0  0
    1.6468    0.6542    0.9270 H   0  0  0  0  0  0  0  0  0  0  0  0
    2.1176    1.9633   -0.7894 H   0  0  0  0  0  0  0  0  0  0  0  0
   -1.7247    0.3681    1.9908 H   0  0  0  0  0  0  0  0  0  0  0  0
   -0.1010   -1.8811    1.4619 H   0  0  0  0  0  0  0  0  0  0  0  0
   -1.3936   -1.2610   -0.6002 H   0  0  0  0  0  0  0  0  0  0  0  0
   -2.8471   -2.7471    0.3748 H   0  0  0  0  0  0  0  0  0  0  0  0
   -2.3135   -2.1265    1.9444 H   0  0  0  0  0  0  0  0  0  0  0  0
   -4.2116   -0.5883    2.0851 H   0  0  0  0  0  0  0  0  0  0  0  0
   -4.7357   -2.2163    1.6291 H   0  0  0  0  0  0  0  0  0  0  0  0
   -5.1871   -1.7697   -0.5278 H   0  0  0  0  0  0  0  0  0  0  0  0
   -5.6774   -0.2333    0.2072 H   0  0  0  0  0  0  0  0  0  0  0  0
   -4.3738    0.6215   -1.4670 H   0  0  0  0  0  0  0  0  0  0  0  0
   -3.4848   -0.8790   -1.7680 H   0  0  0  0  0  0  0  0  0  0  0  0
   -3.1262    0.6209    0.8508 H   0  0  0  0  0  0  0  0  0  0  0  0
   -2.8105    2.6721   -1.0096 H   0  0  0  0  0  0  0  0  0  0  0  0
   -1.7956    0.5746   -2.9674 H   0  0  0  0  0  0  0  0  0  0  0  0
   -0.1632    2.9448   -2.1503 H   0  0  0  0  0  0  0  0  0  0  0  0
   -0.6989    2.0970    2.6274 H   0  0  0  0  0  0  0  0  0  0  0  0
   -2.1381    2.6038    1.6394 H   0  0  0  0  0  0  0  0  0  0  0  0
   -0.7472    3.6803    1.8239 H   0  0  0  0  0  0  0  0  0  0  0  0
  1  2  1  0
  2  3  1  0
  2  4  1  0
  4  5  1  0
  3  6  1  0
  5  6  1  0
  6  7  1  0
  7  8  1  0
  8  9  1  0
  8 10  1  0
 10 11  1  0
 11 12  1  0
 11 13  1  0
 13 14  1  0
 14 15  1  0
 15 16  1  0
 16 17  1  0
 13 18  1  0
 17 18  1  0
 18 19  1  0
 19 20  1  0
 19 21  1  0
 10 22  1  0
 19 22  1  0
 22 23  1  0
 24 25  1  0
 25 26  1  0
 25 27  1  0
 27 28  1  0
 26 29  1  0
 28 29  1  0
 29 30  1  0
 30 31  1  0
 31 32  1  0
 31 33  1  0
 33 34  1  0
 34 35  1  0
 34 36  1  0
 36 37  1  0
 37 38  1  0
 38 39  1  0
 39 40  1  0
 36 41  1  0
 40 41  1  0
 41 42  1  0
 42 33  1  0
 42 43  1  0
 42 44  1  0
 33 45  1  1
 42 45  1  0
 45 46  1  0
  1 47  1  0
  1 48  1  0
  1 49  1  0
  2 50  1  0
  4 51  1  0
  4 52  1  0
  5 53  1  0
  6 54  1  0
  7 55  1  0
  8 56  1  6
  9 57  1  0
 10 58  1  1
 11 59  1  6
 12 60  1  0
 13 61  1  1
 14 62  1  0
 14 63  1  0
 15 64  1  0
 15 65  1  0
 16 66  1  0
 16 67  1  0
 17 68  1  0
 17 69  1  0
 18 70  1  6
 20 71  1  0
 21 72  1  0
 23 73  1  0
 23 74  1  0
 23 75  1  0
 24 76  1  0
 24 77  1  0
 24 78  1  0
 25 79  1  0
 27 80  1  0
 27 81  1  0
 28 82  1  0
 29 83  1  6
 30 84  1  0
 31 85  1  1
 32 86  1  0
 34 87  1  1
 35 88  1  0
 36 89  1  6
 37 90  1  0
 37 91  1  0
 38 92  1  0
 38 93  1  0
 39 94  1  0
 39 95  1  0
 40 96  1  0
 40 97  1  0
 41 98  1  1
 42 99  1  0
 43100  1  0
 44101  1  0
 46102  1  0
 46103  1  0
 46104  1  0
M  END
>  <PDBID>  (1) 
4O1Z

>  <PDB ID>  (1) 
4O1Z

>  <Generic Name>  (1) 
Meloxicam

>  <Brand Name>  (1) 
Act Meloxicam#Apo-meloxicam#Auro-meloxicam#Ava-meloxicam#Comfort Pac With Meloxicam#Dom-meloxicam#Meloxicam#Mobic#Mobicox#Mylan-meloxicam#Nu-meloxicam#PHL-meloxicam#PMS-meloxicam#Ratio-meloxicam#Teva-meloxicam#Trepoxicam-7.5#Vivlodex#Achefree#Acticam#Aflamid#Afloxx#Aglan#Ainecox#Aldoron#Alentum#Algiflex#Aliviodol#Anaxicam#Anposel#Antrend#Aponip#Areloger#Aremil#Armex#Arrox#Arsitec#Artex#Arthrobic#Arthrox#Articam#Artipro#Artriclox#Artrifilm#Artriflam#Artrilom#Artrilox#Artrox#Aspicam#Atiflam#Atrozan#Auroxicam#Axius

>  <DrugBank ID>  (1) 
DB00814

>  <ATC Codes>  (1) 
M01AC56#M01AC06

>  <Ligand ID>  (1) 
MXM

>  <Target Name>  (1) 
Prostaglandin G/H synthase 2

>  <UniProt ID>  (1) 
P35354

>  <PDB ID.1>  (1) 
4O1Z

>  <Seq. Identity>  (1) 
61%

$$$$
