PDB_DB01194_06
     RDKit          3D

 52 53  0  0  0  0  0  0  0  0999 V2000
    3.4479   -1.2489   -0.9084 C   0  0  0  0  0  0  0  0  0  0  0  0
   -1.1112    0.2492   -0.3272 C   0  0  0  0  0  0  0  0  0  0  0  0
   -0.9614   -0.0021    1.1482 C   0  0  1  0  0  0  0  0  0  0  0  0
   -0.0251    1.1744   -0.7785 C   0  0  2  0  0  0  0  0  0  0  0  0
    1.3180    0.7818   -0.1645 C   0  0  0  0  0  0  0  0  0  0  0  0
   -4.2044   -1.3953   -0.7019 S   0  0  0  0  0  0  0  0  0  0  0  0
    3.9068   -1.6119    0.5119 C   0  0  0  0  0  0  0  0  0  0  0  0
   -0.9670    4.6474    0.0957 C   0  0  0  0  0  0  0  0  0  0  0  0
   -0.6229    3.1863    0.4887 C   0  0  0  0  0  0  0  0  0  0  0  0
   -2.5560   -0.7023    1.5453 S   0  0  0  0  0  0  0  0  0  0  0  0
   -5.1682   -2.1665    0.4653 N   0  0  0  0  0  0  0  0  0  0  0  0
   -2.7925   -2.5434   -0.8147 O   0  0  0  0  0  0  0  0  0  0  0  0
   -4.7108   -1.2513   -2.0442 O   0  0  0  0  0  0  0  0  0  0  0  0
   -3.4841   -0.0815    0.1108 C   0  0  0  0  0  0  0  0  0  0  0  0
   -2.4779    0.6779   -0.6679 C   0  0  0  0  0  0  0  0  0  0  0  0
    0.3574   -1.2146    1.2579 S   0  0  0  0  0  0  0  0  0  0  0  0
    1.0271   -1.2698    2.9473 O   0  0  0  0  0  0  0  0  0  0  0  0
   -0.3126   -2.8562    0.9915 O   0  0  0  0  0  0  0  0  0  0  0  0
    1.3798   -0.6091    0.0978 N   0  0  0  0  0  0  0  0  0  0  0  0
   -0.3525    2.5126   -0.7046 N   0  0  0  0  0  0  0  0  0  0  0  0
    1.9239   -1.4747   -0.8571 C   0  0  0  0  0  0  0  0  0  0  0  0
    5.2672   -1.4674    0.6342 O   0  0  0  0  0  0  0  0  0  0  0  0
    5.6843   -0.1723    0.4095 C   0  0  0  0  0  0  0  0  0  0  0  0
    3.6670   -0.1859   -1.1157 H   0  0  0  0  0  0  0  0  0  0  0  0
    3.8969   -1.9609   -1.6072 H   0  0  0  0  0  0  0  0  0  0  0  0
   -0.9670   -0.7651   -0.8273 H   0  0  0  0  0  0  0  0  0  0  0  0
   -0.6855    0.8710    1.7574 H   0  0  0  0  0  0  0  0  0  0  0  0
    0.1160    0.9204   -1.8849 H   0  0  0  0  0  0  0  0  0  0  0  0
    1.4304    1.3231    0.8139 H   0  0  0  0  0  0  0  0  0  0  0  0
    2.1050    1.0551   -0.8896 H   0  0  0  0  0  0  0  0  0  0  0  0
    3.6319   -2.6606    0.7286 H   0  0  0  0  0  0  0  0  0  0  0  0
    3.3639   -0.9496    1.2413 H   0  0  0  0  0  0  0  0  0  0  0  0
   -1.9810    4.6449   -0.3717 H   0  0  0  0  0  0  0  0  0  0  0  0
   -0.8873    5.3270    0.9460 H   0  0  0  0  0  0  0  0  0  0  0  0
   -0.2568    4.9331   -0.6953 H   0  0  0  0  0  0  0  0  0  0  0  0
   -1.5221    2.8611    1.0452 H   0  0  0  0  0  0  0  0  0  0  0  0
    0.2652    3.3178    1.1621 H   0  0  0  0  0  0  0  0  0  0  0  0
   -5.0331   -1.7410    1.4217 H   0  0  0  0  0  0  0  0  0  0  0  0
   -4.9402   -3.1888    0.5436 H   0  0  0  0  0  0  0  0  0  0  0  0
   -3.2249   -3.4153   -0.7608 H   0  0  0  0  0  0  0  0  0  0  0  0
   -4.3400   -1.7236   -2.8394 H   0  0  0  0  0  0  0  0  0  0  0  0
   -4.2677    0.6151    0.4908 H   0  0  0  0  0  0  0  0  0  0  0  0
   -2.6209    1.7733   -0.6559 H   0  0  0  0  0  0  0  0  0  0  0  0
   -2.6409    0.3690   -1.7506 H   0  0  0  0  0  0  0  0  0  0  0  0
    0.2054   -1.3653    3.4592 H   0  0  0  0  0  0  0  0  0  0  0  0
   -0.2159   -3.0309    0.0366 H   0  0  0  0  0  0  0  0  0  0  0  0
   -0.6354    2.9982   -1.5839 H   0  0  0  0  0  0  0  0  0  0  0  0
    1.5901   -1.2133   -1.8911 H   0  0  0  0  0  0  0  0  0  0  0  0
    1.7956   -2.5545   -0.6516 H   0  0  0  0  0  0  0  0  0  0  0  0
    5.2179    0.5403    1.1336 H   0  0  0  0  0  0  0  0  0  0  0  0
    6.7890   -0.1403    0.6192 H   0  0  0  0  0  0  0  0  0  0  0  0
    5.5781    0.1831   -0.6293 H   0  0  0  0  0  0  0  0  0  0  0  0
  2  3  1  0
  2  4  1  0
  4  5  1  0
  1  7  1  0
  8  9  1  0
  3 10  1  0
  6 11  1  0
  6 12  1  0
  6 13  1  0
  6 14  1  0
 10 14  1  0
  2 15  1  0
 14 15  1  0
  3 16  1  0
 16 17  1  0
 16 18  1  0
  5 19  1  0
 16 19  1  0
  4 20  1  0
  9 20  1  0
  1 21  1  0
 19 21  1  0
  7 22  1  0
 22 23  1  0
  1 24  1  0
  1 25  1  0
  2 26  1  0
  3 27  1  1
  4 28  1  6
  5 29  1  0
  5 30  1  0
  7 31  1  0
  7 32  1  0
  8 33  1  0
  8 34  1  0
  8 35  1  0
  9 36  1  0
  9 37  1  0
 11 38  1  0
 11 39  1  0
 12 40  1  0
 13 41  1  0
 14 42  1  0
 15 43  1  0
 15 44  1  0
 17 45  1  0
 18 46  1  0
 20 47  1  0
 21 48  1  0
 21 49  1  0
 23 50  1  0
 23 51  1  0
 23 52  1  0
M  END
>  <PDBID>  (1) 
4M2R

>  <PDB ID>  (1) 
4M2R

>  <Generic Name>  (1) 
Brinzolamide

>  <Brand Name>  (1) 
Azarga#Azopt#Sandoz Brinzolamide#Simbrinza

>  <DrugBank ID>  (1) 
DB01194

>  <ATC Codes>  (1) 
S01EC54#S01EC04

>  <Ligand ID>  (1) 
BZ1

>  <Target Name>  (1) 
Carbonic anhydrase 2

>  <UniProt ID>  (1) 
P00918

>  <PDB ID.1>  (1) 
4M2R

>  <Seq. Identity>  (1) 
100%

$$$$
