PDB_DB00181_07
     RDKit          3D

 34 34  0  0  0  0  0  0  0  0999 V2000
    3.9878   -0.8350    0.1857 Cl  0  0  0  0  0  0  0  0  0  0  0  0
    3.2413    0.7580    0.1870 C   0  0  0  0  0  0  0  0  0  0  0  0
    2.3788    0.8949   -1.0229 C   0  0  0  0  0  0  0  0  0  0  0  0
    1.3398   -0.1888   -1.1239 C   0  0  0  0  0  0  0  0  0  0  0  0
    2.2810    0.9210    1.3678 C   0  0  0  0  0  0  0  0  0  0  0  0
    1.3550   -0.2515    1.4202 C   0  0  0  0  0  0  0  0  0  0  0  0
    0.8290   -0.7375    0.1336 C   0  0  0  0  0  0  0  0  0  0  0  0
   -0.7206   -0.7400    0.1000 C   0  0  2  0  0  0  0  0  0  0  0  0
   -1.1628   -1.5937   -1.0490 C   0  0  0  0  0  0  0  0  0  0  0  0
   -2.5849   -1.7174   -1.2096 N   0  0  0  0  0  0  0  0  0  0  0  0
   -1.2546    0.6336    0.1574 C   0  0  0  0  0  0  0  0  0  0  0  0
   -2.7371    0.7257    0.1337 C   0  0  0  0  0  0  0  0  0  0  0  0
   -3.0491    2.1147    0.2156 O   0  0  0  0  0  0  0  0  0  0  0  0
   -3.3800    0.0840    1.1637 O   0  0  0  0  0  0  0  0  0  0  0  0
    3.9715    1.5834    0.1928 H   0  0  0  0  0  0  0  0  0  0  0  0
    2.9349    0.9562   -1.9612 H   0  0  0  0  0  0  0  0  0  0  0  0
    1.8391    1.8794   -0.9248 H   0  0  0  0  0  0  0  0  0  0  0  0
    0.5402    0.2480   -1.7739 H   0  0  0  0  0  0  0  0  0  0  0  0
    1.7988   -0.9765   -1.7978 H   0  0  0  0  0  0  0  0  0  0  0  0
    2.9086    0.9700    2.2720 H   0  0  0  0  0  0  0  0  0  0  0  0
    1.7407    1.8630    1.2494 H   0  0  0  0  0  0  0  0  0  0  0  0
    1.8974   -1.0402    2.0261 H   0  0  0  0  0  0  0  0  0  0  0  0
    0.4994    0.0303    2.0832 H   0  0  0  0  0  0  0  0  0  0  0  0
    1.0412   -1.8564    0.1173 H   0  0  0  0  0  0  0  0  0  0  0  0
   -1.0287   -1.2944    1.0337 H   0  0  0  0  0  0  0  0  0  0  0  0
   -0.7718   -1.2558   -2.0363 H   0  0  0  0  0  0  0  0  0  0  0  0
   -0.7160   -2.6177   -0.8615 H   0  0  0  0  0  0  0  0  0  0  0  0
   -2.9196   -1.5452   -2.1827 H   0  0  0  0  0  0  0  0  0  0  0  0
   -2.9490   -2.6462   -0.8715 H   0  0  0  0  0  0  0  0  0  0  0  0
   -0.9084    1.1143    1.0998 H   0  0  0  0  0  0  0  0  0  0  0  0
   -0.8545    1.2290   -0.6957 H   0  0  0  0  0  0  0  0  0  0  0  0
   -3.2163    0.4337   -0.8318 H   0  0  0  0  0  0  0  0  0  0  0  0
   -3.1358    2.3949    1.1532 H   0  0  0  0  0  0  0  0  0  0  0  0
   -3.1954    0.4621    2.0505 H   0  0  0  0  0  0  0  0  0  0  0  0
  1  2  1  0
  2  3  1  0
  3  4  1  0
  2  5  1  0
  5  6  1  0
  4  7  1  0
  6  7  1  0
  7  8  1  0
  8  9  1  0
  9 10  1  0
  8 11  1  0
 11 12  1  0
 12 13  1  0
 12 14  1  0
  2 15  1  0
  3 16  1  0
  3 17  1  0
  4 18  1  0
  4 19  1  0
  5 20  1  0
  5 21  1  0
  6 22  1  0
  6 23  1  0
  7 24  1  0
  8 25  1  1
  9 26  1  0
  9 27  1  0
 10 28  1  0
 10 29  1  0
 11 30  1  0
 11 31  1  0
 12 32  1  0
 13 33  1  0
 14 34  1  0
M  END
>  <PDBID>  (1) 
4MS4

>  <PDB ID>  (1) 
4MS4

>  <Generic Name>  (1) 
Baclofen

>  <Brand Name>  (1) 
Apo-baclofen Tablets - 10mg#Apo-baclofen Tablets - 20mg#Ava-baclofen#Baclofen#Baclofen Injection#Baclofen Tablets - 10mg#Baclofen Tablets - 20mg#Baclofen Tablets 10mg#Baclofen Tablets 20mg#Baclofen-10 - Tab#Baclofen-20 - Tab#Co Baclofen Tablets 10mg#Co Baclofen Tablets 20mg#Dom-baclofen-tab 10mg#Dom-baclofen-tab 20mg#Equipto - Baclofen External Cream Compounding Kit#Ftp-baclofen#Gablofen#Gapeam Budibac#Lioresal#Lioresal D.S. Tab 20mg#Lioresal Intrathecal 0.05mg/ml#Lioresal Intrathecal 0.5mg/ml#Lioresal Intrathecal 2mg/ml#Lioresal Tab 10mg#Med Baclofen Tab 10mg#Med Baclofen Tab 20mg#Mylan-baclofen#Novo-baclofen#PHL-baclofen#PMS-baclofen#PMS-baclofen Tab 20mg#Penta-baclofen Tablets#Ratio-baclofen#Riva-baclofen#Sandoz Baclofen#Val-baclofen Intrathecal#Baclon#Kemstro#Lioresal Intrathecal#Nu-Baclofen

>  <DrugBank ID>  (1) 
DB00181

>  <ATC Codes>  (1) 
M03BX01

>  <Ligand ID>  (1) 
2C0

>  <Target Name>  (1) 
Gamma-aminobutyric acid type B receptor subunit 1

>  <UniProt ID>  (1) 
Q9UBS5

>  <PDB ID.1>  (1) 
4MS4

>  <Seq. Identity>  (1) 
34%

$$$$
