PDB_DB01409_06
     RDKit          3D

116124  0  0  0  0  0  0  0  0999 V2000
    0.6059   -1.3146    0.6754 C   0  0  2  0  0  0  0  0  0  0  0  0
    0.6370   -2.7081    1.0526 O   0  0  0  0  0  0  0  0  0  0  0  0
    1.8499    0.1019   -0.9755 C   0  0  0  0  0  0  0  0  0  0  0  0
    3.0027   -1.5275    0.5995 C   0  0  0  0  0  0  0  0  0  0  0  0
    3.0998    0.2183   -1.8060 C   0  0  0  0  0  0  0  0  0  0  0  0
    2.8100    1.2330   -2.9135 C   0  0  0  0  0  0  0  0  0  0  0  0
    1.6701    0.6758   -3.7006 C   0  0  0  0  0  0  0  0  0  0  0  0
    3.2704   -0.6507    1.8012 C   0  0  0  0  0  0  0  0  0  0  0  0
    4.6616   -1.1004    2.2753 C   0  0  0  0  0  0  0  0  0  0  0  0
    5.5830   -0.6971    1.1125 C   0  0  0  0  0  0  0  0  0  0  0  0
   -4.3194    0.4081   -1.9221 O   0  0  0  0  0  0  0  0  0  0  0  0
   -0.5298   -0.9414    0.0960 O   0  0  0  0  0  0  0  0  0  0  0  0
    1.6242   -2.1751   -1.2155 O   0  0  0  0  0  0  0  0  0  0  0  0
    0.6459   -0.0475   -2.3938 S   0  0  0  0  0  0  0  0  0  0  0  0
    4.5942   -1.4325   -0.2578 S   0  0  0  0  0  0  0  0  0  0  0  0
   -5.2254    1.5987    0.0274 C   0  0  0  0  0  0  0  0  0  0  0  0
   -3.8639   -0.3095    0.4390 C   0  0  2  0  0  0  0  0  0  0  0  0
   -2.6692   -0.8326    1.2036 C   0  0  0  0  0  0  0  0  0  0  0  0
   -1.3865   -0.1369    0.8327 C   0  0  2  0  0  0  0  0  0  0  0  0
   -1.5249    1.2271    0.3103 C   0  0  0  0  0  0  0  0  0  0  0  0
   -2.8960    1.5821   -0.2138 C   0  0  1  0  0  0  0  0  0  0  0  0
   -3.0833    0.8504   -1.5259 C   0  0  1  0  0  0  0  0  0  0  0  0
   -3.6957   -0.4664   -1.0515 C   0  0  2  0  0  0  0  0  0  0  0  0
   -3.9203    1.5541    1.9555 C   0  0  0  0  0  0  0  0  0  0  0  0
    1.8138   -1.1820   -0.1967 C   0  0  0  0  0  0  0  0  0  0  0  0
   -3.9786    1.1217    0.5969 N   0  0  0  0  0  0  0  0  0  0  0  0
   -0.5353   -1.3571    0.2216 C   0  0  1  0  0  0  0  0  0  0  0  0
   -0.5723   -2.6379   -0.4198 O   0  0  0  0  0  0  0  0  0  0  0  0
   -2.9312   -1.1499   -0.3668 C   0  0  0  0  0  0  0  0  0  0  0  0
   -1.8333    0.2870    1.4082 C   0  0  0  0  0  0  0  0  0  0  0  0
   -4.3328   -0.9021   -0.0517 C   0  0  0  0  0  0  0  0  0  0  0  0
   -5.2953   -1.8744   -0.6016 C   0  0  0  0  0  0  0  0  0  0  0  0
   -4.7118   -2.7942   -1.6034 C   0  0  0  0  0  0  0  0  0  0  0  0
   -3.0640    0.8448    2.0542 C   0  0  0  0  0  0  0  0  0  0  0  0
   -2.4445    2.1578    2.6394 C   0  0  0  0  0  0  0  0  0  0  0  0
   -2.1727    3.0192    1.3963 C   0  0  0  0  0  0  0  0  0  0  0  0
    4.4916    1.8556   -2.1916 O   0  0  0  0  0  0  0  0  0  0  0  0
    0.1683   -0.4683   -0.5239 O   0  0  0  0  0  0  0  0  0  0  0  0
   -2.2529   -1.9898    1.6843 O   0  0  0  0  0  0  0  0  0  0  0  0
   -2.9544   -2.8405   -1.0491 S   0  0  0  0  0  0  0  0  0  0  0  0
   -1.5972    1.7107    0.2325 S   0  0  0  0  0  0  0  0  0  0  0  0
    5.4620    0.9618   -0.1449 C   0  0  0  0  0  0  0  0  0  0  0  0
    3.2117    1.5467   -0.0383 C   0  0  2  0  0  0  0  0  0  0  0  0
    1.7611    1.1558    0.1310 C   0  0  0  0  0  0  0  0  0  0  0  0
    1.4831   -0.2716   -0.0376 C   0  0  2  0  0  0  0  0  0  0  0  0
    2.3991   -0.9538   -1.0488 C   0  0  0  0  0  0  0  0  0  0  0  0
    3.7050   -0.2657   -1.2239 C   0  0  1  0  0  0  0  0  0  0  0  0
    3.5557    0.8532   -2.2403 C   0  0  1  0  0  0  0  0  0  0  0  0
    3.3971    2.1090   -1.4100 C   0  0  2  0  0  0  0  0  0  0  0  0
    4.0811   -0.3543    1.1679 C   0  0  0  0  0  0  0  0  0  0  0  0
   -1.8999   -1.0076    0.7221 C   0  0  0  0  0  0  0  0  0  0  0  0
    4.1177    0.4211   -0.0334 N   0  0  0  0  0  0  0  0  0  0  0  0
    0.8317   -0.8457    1.6617 H   0  0  0  0  0  0  0  0  0  0  0  0
   -0.1589   -3.1512    0.6858 H   0  0  0  0  0  0  0  0  0  0  0  0
    1.5482    0.9955   -0.4441 H   0  0  0  0  0  0  0  0  0  0  0  0
    2.8958   -2.5721    1.0457 H   0  0  0  0  0  0  0  0  0  0  0  0
    3.3212   -0.7160   -2.3076 H   0  0  0  0  0  0  0  0  0  0  0  0
    3.9381    0.6839   -1.2411 H   0  0  0  0  0  0  0  0  0  0  0  0
    3.7018    1.2769   -3.5418 H   0  0  0  0  0  0  0  0  0  0  0  0
    2.5943    2.2150   -2.4835 H   0  0  0  0  0  0  0  0  0  0  0  0
    1.9899   -0.0697   -4.4565 H   0  0  0  0  0  0  0  0  0  0  0  0
    1.1083    1.5270   -4.1473 H   0  0  0  0  0  0  0  0  0  0  0  0
    2.5664   -0.8030    2.6399 H   0  0  0  0  0  0  0  0  0  0  0  0
    3.3991    0.4220    1.5306 H   0  0  0  0  0  0  0  0  0  0  0  0
    4.9094   -0.5117    3.1808 H   0  0  0  0  0  0  0  0  0  0  0  0
    4.6985   -2.1846    2.4359 H   0  0  0  0  0  0  0  0  0  0  0  0
    6.5571   -1.1722    1.2052 H   0  0  0  0  0  0  0  0  0  0  0  0
    5.5750    0.3952    1.0644 H   0  0  0  0  0  0  0  0  0  0  0  0
    2.1130   -2.9858   -1.0010 H   0  0  0  0  0  0  0  0  0  0  0  0
   -5.8710    0.7288   -0.2173 H   0  0  0  0  0  0  0  0  0  0  0  0
   -5.0827    2.3033   -0.7950 H   0  0  0  0  0  0  0  0  0  0  0  0
   -5.8246    2.1660    0.7986 H   0  0  0  0  0  0  0  0  0  0  0  0
   -4.7609   -0.8171    0.8363 H   0  0  0  0  0  0  0  0  0  0  0  0
   -2.6412   -1.9270    1.0134 H   0  0  0  0  0  0  0  0  0  0  0  0
   -2.9343   -0.7418    2.2792 H   0  0  0  0  0  0  0  0  0  0  0  0
   -0.8299   -0.0308    1.8212 H   0  0  0  0  0  0  0  0  0  0  0  0
   -0.8063    1.5214   -0.4726 H   0  0  0  0  0  0  0  0  0  0  0  0
   -1.3416    2.0288    1.1041 H   0  0  0  0  0  0  0  0  0  0  0  0
   -2.9819    2.6526   -0.3981 H   0  0  0  0  0  0  0  0  0  0  0  0
   -2.2200    0.8004   -2.2197 H   0  0  0  0  0  0  0  0  0  0  0  0
   -3.2500   -1.3936   -1.4530 H   0  0  0  0  0  0  0  0  0  0  0  0
   -4.4825    2.5295    2.0668 H   0  0  0  0  0  0  0  0  0  0  0  0
   -4.4326    0.8637    2.6621 H   0  0  0  0  0  0  0  0  0  0  0  0
   -2.9048    1.7633    2.3418 H   0  0  0  0  0  0  0  0  0  0  0  0
    0.1030   -1.6189    1.1264 H   0  0  0  0  0  0  0  0  0  0  0  0
    0.3247   -3.0063   -0.5145 H   0  0  0  0  0  0  0  0  0  0  0  0
   -2.6103   -0.4741   -1.2245 H   0  0  0  0  0  0  0  0  0  0  0  0
   -1.0006    0.3070    2.1474 H   0  0  0  0  0  0  0  0  0  0  0  0
   -4.5423   -0.8681    1.0577 H   0  0  0  0  0  0  0  0  0  0  0  0
   -4.6144    0.1090   -0.4908 H   0  0  0  0  0  0  0  0  0  0  0  0
   -5.8733   -2.4331    0.1779 H   0  0  0  0  0  0  0  0  0  0  0  0
   -6.1134   -1.3050   -1.1394 H   0  0  0  0  0  0  0  0  0  0  0  0
   -5.1697   -3.8169   -1.4949 H   0  0  0  0  0  0  0  0  0  0  0  0
   -4.7946   -2.4951   -2.6457 H   0  0  0  0  0  0  0  0  0  0  0  0
   -3.7781    1.2562    1.3124 H   0  0  0  0  0  0  0  0  0  0  0  0
   -3.4710    0.3095    2.8927 H   0  0  0  0  0  0  0  0  0  0  0  0
   -3.1230    2.6280    3.3443 H   0  0  0  0  0  0  0  0  0  0  0  0
   -1.4673    1.8329    3.0445 H   0  0  0  0  0  0  0  0  0  0  0  0
   -3.0909    3.4847    1.0322 H   0  0  0  0  0  0  0  0  0  0  0  0
   -1.3244    3.6895    1.5423 H   0  0  0  0  0  0  0  0  0  0  0  0
   -2.8714   -1.5545    2.3207 H   0  0  0  0  0  0  0  0  0  0  0  0
    6.1079    0.6566    0.7339 H   0  0  0  0  0  0  0  0  0  0  0  0
    5.9815    0.5252   -1.0142 H   0  0  0  0  0  0  0  0  0  0  0  0
    5.4769    2.0693   -0.1042 H   0  0  0  0  0  0  0  0  0  0  0  0
    3.5239    2.2981    0.6987 H   0  0  0  0  0  0  0  0  0  0  0  0
    1.2006    1.8089   -0.6005 H   0  0  0  0  0  0  0  0  0  0  0  0
    1.4368    1.5124    1.1372 H   0  0  0  0  0  0  0  0  0  0  0  0
    1.5411   -0.8644    0.8943 H   0  0  0  0  0  0  0  0  0  0  0  0
    2.5608   -2.0186   -0.7524 H   0  0  0  0  0  0  0  0  0  0  0  0
    1.8953   -0.9838   -2.0367 H   0  0  0  0  0  0  0  0  0  0  0  0
    4.4476   -0.9815   -1.6145 H   0  0  0  0  0  0  0  0  0  0  0  0
    2.8944    0.7230   -3.0982 H   0  0  0  0  0  0  0  0  0  0  0  0
    2.7388    2.9215   -1.7767 H   0  0  0  0  0  0  0  0  0  0  0  0
    5.0965   -0.4166    1.6706 H   0  0  0  0  0  0  0  0  0  0  0  0
    3.4363    0.0887    1.9610 H   0  0  0  0  0  0  0  0  0  0  0  0
    3.8425   -1.4391    0.9868 H   0  0  0  0  0  0  0  0  0  0  0  0
  1  2  1  0
  3  5  1  0
  5  6  1  0
  6  7  1  0
  4  8  1  0
  8  9  1  0
  9 10  1  0
  1 12  1  0
  3 14  1  0
  7 14  1  0
  4 15  1  0
 10 15  1  0
 17 18  1  0
 12 19  1  0
 18 19  1  0
 19 20  1  0
 20 21  1  0
 11 22  1  0
 21 22  1  0
 11 23  1  0
 17 23  1  0
 22 23  1  0
  1 25  1  0
  3 25  1  0
  4 25  1  0
 25 13  1  0
 26 16  1  0
 17 26  1  0
 21 26  1  0
 24 26  1  0
 27 28  1  0
 29 31  1  0
 31 32  1  0
 32 33  1  0
 30 34  1  0
 34 35  1  0
 35 36  1  0
 27 38  1  0
 29 40  1  0
 33 40  1  0
 30 41  1  0
 36 41  1  0
 43 44  1  0
 38 45  1  0
 44 45  1  0
 45 46  1  0
 46 47  1  0
 37 48  1  0
 47 48  1  0
 37 49  1  0
 43 49  1  0
 48 49  1  0
 27 51  1  0
 29 51  1  0
 30 51  1  0
 51 39  1  0
 52 42  1  0
 43 52  1  0
 47 52  1  0
 50 52  1  0
  1 53  1  1
  2 54  1  0
  3 55  1  0
  4 56  1  0
  5 57  1  0
  5 58  1  0
  6 59  1  0
  6 60  1  0
  7 61  1  0
  7 62  1  0
  8 63  1  0
  8 64  1  0
  9 65  1  0
  9 66  1  0
 10 67  1  0
 10 68  1  0
 13 69  1  0
 16 70  1  0
 16 71  1  0
 16 72  1  0
 17 73  1  1
 18 74  1  0
 18 75  1  0
 19 76  1  1
 20 77  1  0
 20 78  1  0
 21 79  1  6
 22 80  1  6
 23 81  1  6
 24 82  1  0
 24 83  1  0
 24 84  1  0
 27 85  1  1
 28 86  1  0
 29 87  1  0
 30 88  1  0
 31 89  1  0
 31 90  1  0
 32 91  1  0
 32 92  1  0
 33 93  1  0
 33 94  1  0
 34 95  1  0
 34 96  1  0
 35 97  1  0
 35 98  1  0
 36 99  1  0
 36100  1  0
 39101  1  0
 42102  1  0
 42103  1  0
 42104  1  0
 43105  1  1
 44106  1  0
 44107  1  0
 45108  1  1
 46109  1  0
 46110  1  0
 47111  1  6
 48112  1  6
 49113  1  6
 50114  1  0
 50115  1  0
 50116  1  0
M  CHG  2  26   1  52   1
M  END
>  <PDBID>  (1) 
4U15

>  <PDB ID>  (1) 
4U15

>  <Generic Name>  (1) 
Tiotropium

>  <Brand Name>  (1) 
Inspiolto Respimat#Spiriva#Spiriva Respimat#Stiolto Respimat

>  <DrugBank ID>  (1) 
DB01409

>  <ATC Codes>  (1) 
R03AL06#R03BB54#R03BB04

>  <Ligand ID>  (1) 
0HK

>  <Target Name>  (1) 
Muscarinic acetylcholine receptor M3

>  <UniProt ID>  (1) 
P20309

>  <PDB ID.1>  (1) 
4U15

>  <Seq. Identity>  (1) 
98%

$$$$
