PDB_DB00148_07
     RDKit          3D

 22 21  0  0  0  0  0  0  0  0999 V2000
    2.2968   -0.2573    1.6239 O   0  0  0  0  0  0  0  0  0  0  0  0
    2.1880   -0.0796    0.2306 C   0  0  0  0  0  0  0  0  0  0  0  0
    3.1316    0.9031   -0.1399 O   0  0  0  0  0  0  0  0  0  0  0  0
    0.8344    0.4470   -0.1437 C   0  0  0  0  0  0  0  0  0  0  0  0
   -0.2645   -0.3904    0.2281 N   0  0  0  0  0  0  0  0  0  0  0  0
   -0.3385   -1.6314   -0.4889 C   0  0  0  0  0  0  0  0  0  0  0  0
   -1.4799    0.3479   -0.1687 C   0  0  0  0  0  0  0  0  0  0  0  0
   -2.5931   -0.4576    0.2093 N   0  0  0  0  0  0  0  0  0  0  0  0
   -1.4878    1.6968    0.3138 N   0  0  0  0  0  0  0  0  0  0  0  0
    3.1956   -0.6373    1.7657 H   0  0  0  0  0  0  0  0  0  0  0  0
    2.5000   -0.9957   -0.2635 H   0  0  0  0  0  0  0  0  0  0  0  0
    2.9951    1.1160   -1.0971 H   0  0  0  0  0  0  0  0  0  0  0  0
    0.8458    0.7551   -1.2083 H   0  0  0  0  0  0  0  0  0  0  0  0
    0.7050    1.4103    0.4366 H   0  0  0  0  0  0  0  0  0  0  0  0
    0.5927   -2.1723   -0.5946 H   0  0  0  0  0  0  0  0  0  0  0  0
   -1.0936   -2.2599    0.0288 H   0  0  0  0  0  0  0  0  0  0  0  0
   -0.7530   -1.4450   -1.5215 H   0  0  0  0  0  0  0  0  0  0  0  0
   -1.5057    0.4247   -1.2993 H   0  0  0  0  0  0  0  0  0  0  0  0
   -2.5531   -0.7827    1.2012 H   0  0  0  0  0  0  0  0  0  0  0  0
   -3.5062   -0.1360   -0.1200 H   0  0  0  0  0  0  0  0  0  0  0  0
   -2.0397    2.3191   -0.3022 H   0  0  0  0  0  0  0  0  0  0  0  0
   -1.6697    1.8252    1.3097 H   0  0  0  0  0  0  0  0  0  0  0  0
  1  2  1  0
  2  3  1  0
  2  4  1  0
  4  5  1  0
  5  6  1  0
  5  7  1  0
  7  8  1  0
  7  9  1  0
  1 10  1  0
  2 11  1  0
  3 12  1  0
  4 13  1  0
  4 14  1  0
  6 15  1  0
  6 16  1  0
  6 17  1  0
  7 18  1  0
  8 19  1  0
  8 20  1  0
  9 21  1  0
  9 22  1  0
M  END
>  <PDBID>  (1) 
3B6R

>  <PDB ID>  (1) 
3B6R

>  <Generic Name>  (1) 
Creatine

>  <Brand Name>  (1) 
nan

>  <DrugBank ID>  (1) 
DB00148

>  <ATC Codes>  (1) 
nan

>  <Ligand ID>  (1) 
CRN

>  <Target Name>  (1) 
Creatine kinase B-type

>  <UniProt ID>  (1) 
P12277

>  <PDB ID.1>  (1) 
3B6R

>  <Seq. Identity>  (1) 
96%

$$$$
