PDB_DB00328_05
     RDKit          3D

236244  0  0  0  0  0  0  0  0999 V2000
   -0.5754    0.2265    0.8052 C   0  0  0  0  0  0  0  0  0  0  0  0
   -1.9134   -0.4012    0.4293 C   0  0  0  0  0  0  0  0  0  0  0  0
   -2.9104    0.5898   -0.1003 C   0  0  0  0  0  0  0  0  0  0  0  0
   -3.1845    1.7103    0.8392 C   0  0  0  0  0  0  0  0  0  0  0  0
   -2.0375    1.9584    1.7682 C   0  0  0  0  0  0  0  0  0  0  0  0
   -0.6758    1.6737    1.1052 C   0  0  0  0  0  0  0  0  0  0  0  0
   -4.7924    3.3008    0.3272 C   0  0  0  0  0  0  0  0  0  0  0  0
   -1.6245   -1.3504   -0.7437 C   0  0  1  0  0  0  0  0  0  0  0  0
   -0.1317   -1.5010   -0.6578 C   0  0  0  0  0  0  0  0  0  0  0  0
    1.3093    0.4612   -0.7780 C   0  0  0  0  0  0  0  0  0  0  0  0
    2.4094    1.0942    0.0545 C   0  0  0  0  0  0  0  0  0  0  0  0
    3.4026    1.8342   -0.8246 C   0  0  0  0  0  0  0  0  0  0  0  0
    4.5565    0.9099   -1.1112 C   0  0  0  0  0  0  0  0  0  0  0  0
    5.3753    0.7877    0.1565 C   0  0  0  0  0  0  0  0  0  0  0  0
    4.4798    0.3825    1.2742 C   0  0  0  0  0  0  0  0  0  0  0  0
    3.0886    0.0095    0.8718 C   0  0  0  0  0  0  0  0  0  0  0  0
    0.3583   -2.6111    0.1975 C   0  0  0  0  0  0  0  0  0  0  0  0
   -2.4426   -2.5622   -0.5734 C   0  0  0  0  0  0  0  0  0  0  0  0
   -2.2987   -3.5986   -1.6440 C   0  0  0  0  0  0  0  0  0  0  0  0
    0.3459   -0.2483   -0.1100 N   0  0  0  0  0  0  0  0  0  0  0  0
   -3.4891    2.8560    0.0750 O   0  0  0  0  0  0  0  0  0  0  0  0
    1.9392   -0.2645   -1.8252 O   0  0  0  0  0  0  0  0  0  0  0  0
   -1.0128   -4.1028   -1.7963 O   0  0  0  0  0  0  0  0  0  0  0  0
   -2.7684   -3.1430   -2.8990 O   0  0  0  0  0  0  0  0  0  0  0  0
    6.7177   -0.3751   -0.0801 Cl  0  0  0  0  0  0  0  0  0  0  0  0
   -0.5754    0.2265    0.8052 C   0  0  0  0  0  0  0  0  0  0  0  0
   -1.9134   -0.4012    0.4293 C   0  0  0  0  0  0  0  0  0  0  0  0
   -2.9104    0.5898   -0.1003 C   0  0  0  0  0  0  0  0  0  0  0  0
   -3.1845    1.7103    0.8392 C   0  0  0  0  0  0  0  0  0  0  0  0
   -2.0375    1.9584    1.7682 C   0  0  0  0  0  0  0  0  0  0  0  0
   -0.6758    1.6737    1.1052 C   0  0  0  0  0  0  0  0  0  0  0  0
   -4.7924    3.3008    0.3272 C   0  0  0  0  0  0  0  0  0  0  0  0
   -1.6245   -1.3504   -0.7437 C   0  0  1  0  0  0  0  0  0  0  0  0
   -0.1317   -1.5010   -0.6578 C   0  0  0  0  0  0  0  0  0  0  0  0
    1.3093    0.4612   -0.7780 C   0  0  0  0  0  0  0  0  0  0  0  0
    2.4094    1.0942    0.0545 C   0  0  0  0  0  0  0  0  0  0  0  0
    3.4026    1.8342   -0.8246 C   0  0  0  0  0  0  0  0  0  0  0  0
    4.5565    0.9099   -1.1112 C   0  0  0  0  0  0  0  0  0  0  0  0
    5.3753    0.7877    0.1565 C   0  0  0  0  0  0  0  0  0  0  0  0
    4.4798    0.3825    1.2742 C   0  0  0  0  0  0  0  0  0  0  0  0
    3.0886    0.0095    0.8718 C   0  0  0  0  0  0  0  0  0  0  0  0
    0.3583   -2.6111    0.1975 C   0  0  0  0  0  0  0  0  0  0  0  0
   -2.4426   -2.5622   -0.5734 C   0  0  0  0  0  0  0  0  0  0  0  0
   -2.2987   -3.5986   -1.6440 C   0  0  0  0  0  0  0  0  0  0  0  0
    0.3459   -0.2483   -0.1100 N   0  0  0  0  0  0  0  0  0  0  0  0
   -3.4891    2.8560    0.0750 O   0  0  0  0  0  0  0  0  0  0  0  0
    1.9392   -0.2645   -1.8252 O   0  0  0  0  0  0  0  0  0  0  0  0
   -1.0128   -4.1028   -1.7963 O   0  0  0  0  0  0  0  0  0  0  0  0
   -2.7684   -3.1430   -2.8990 O   0  0  0  0  0  0  0  0  0  0  0  0
    6.7177   -0.3751   -0.0801 Cl  0  0  0  0  0  0  0  0  0  0  0  0
   -0.7267    0.6840    0.6722 C   0  0  0  0  0  0  0  0  0  0  0  0
   -1.7898   -0.1634   -0.0693 C   0  0  0  0  0  0  0  0  0  0  0  0
   -3.1245    0.3174    0.3128 C   0  0  0  0  0  0  0  0  0  0  0  0
   -3.2991    1.7856    0.2672 C   0  0  0  0  0  0  0  0  0  0  0  0
   -2.1425    2.6014    0.7923 C   0  0  0  0  0  0  0  0  0  0  0  0
   -0.8410    2.0657    0.1667 C   0  0  0  0  0  0  0  0  0  0  0  0
   -4.8989    2.9343   -0.9320 C   0  0  0  0  0  0  0  0  0  0  0  0
   -1.4022   -1.4871    0.5661 C   0  0  0  0  0  0  0  0  0  0  0  0
    0.0809   -1.4607    0.2574 C   0  0  0  0  0  0  0  0  0  0  0  0
    1.1597    0.4661   -0.7855 C   0  0  0  0  0  0  0  0  0  0  0  0
    2.6703    0.5410   -0.6367 C   0  0  0  0  0  0  0  0  0  0  0  0
    3.0937    1.3506    0.5425 C   0  0  0  0  0  0  0  0  0  0  0  0
    4.5888    1.5229    0.5552 C   0  0  0  0  0  0  0  0  0  0  0  0
    5.3126    0.2366    0.3364 C   0  0  0  0  0  0  0  0  0  0  0  0
    4.4478   -0.9753    0.2429 C   0  0  0  0  0  0  0  0  0  0  0  0
    3.3459   -0.7759   -0.7889 C   0  0  0  0  0  0  0  0  0  0  0  0
    0.7564   -2.1742    1.4094 C   0  0  0  0  0  0  0  0  0  0  0  0
   -2.1737   -2.6495    0.1683 C   0  0  0  0  0  0  0  0  0  0  0  0
   -2.2064   -3.0867   -1.2402 C   0  0  0  0  0  0  0  0  0  0  0  0
    0.4566   -0.0585    0.3071 N   0  0  0  0  0  0  0  0  0  0  0  0
   -3.6455    2.3013   -0.9692 O   0  0  0  0  0  0  0  0  0  0  0  0
    0.8370   -0.1329   -2.0139 O   0  0  0  0  0  0  0  0  0  0  0  0
   -0.9672   -3.4390   -1.7698 O   0  0  0  0  0  0  0  0  0  0  0  0
   -2.8635   -2.1723   -2.0872 O   0  0  0  0  0  0  0  0  0  0  0  0
    6.2780    0.3483   -1.1591 Cl  0  0  0  0  0  0  0  0  0  0  0  0
   -0.5754    0.2265    0.8052 C   0  0  0  0  0  0  0  0  0  0  0  0
   -1.9134   -0.4012    0.4293 C   0  0  0  0  0  0  0  0  0  0  0  0
   -2.9104    0.5898   -0.1003 C   0  0  0  0  0  0  0  0  0  0  0  0
   -3.1845    1.7103    0.8392 C   0  0  0  0  0  0  0  0  0  0  0  0
   -2.0375    1.9584    1.7682 C   0  0  0  0  0  0  0  0  0  0  0  0
   -0.6758    1.6737    1.1052 C   0  0  0  0  0  0  0  0  0  0  0  0
   -4.7924    3.3008    0.3272 C   0  0  0  0  0  0  0  0  0  0  0  0
   -1.6245   -1.3504   -0.7437 C   0  0  1  0  0  0  0  0  0  0  0  0
   -0.1317   -1.5010   -0.6578 C   0  0  0  0  0  0  0  0  0  0  0  0
    1.3093    0.4612   -0.7780 C   0  0  0  0  0  0  0  0  0  0  0  0
    2.4094    1.0942    0.0545 C   0  0  0  0  0  0  0  0  0  0  0  0
    3.4026    1.8342   -0.8246 C   0  0  0  0  0  0  0  0  0  0  0  0
    4.5565    0.9099   -1.1112 C   0  0  0  0  0  0  0  0  0  0  0  0
    5.3753    0.7877    0.1565 C   0  0  0  0  0  0  0  0  0  0  0  0
    4.4798    0.3825    1.2742 C   0  0  0  0  0  0  0  0  0  0  0  0
    3.0886    0.0095    0.8718 C   0  0  0  0  0  0  0  0  0  0  0  0
    0.3583   -2.6111    0.1975 C   0  0  0  0  0  0  0  0  0  0  0  0
   -2.4426   -2.5622   -0.5734 C   0  0  0  0  0  0  0  0  0  0  0  0
   -2.2987   -3.5986   -1.6440 C   0  0  0  0  0  0  0  0  0  0  0  0
    0.3459   -0.2483   -0.1100 N   0  0  0  0  0  0  0  0  0  0  0  0
   -3.4891    2.8560    0.0750 O   0  0  0  0  0  0  0  0  0  0  0  0
    1.9392   -0.2645   -1.8252 O   0  0  0  0  0  0  0  0  0  0  0  0
   -1.0128   -4.1028   -1.7963 O   0  0  0  0  0  0  0  0  0  0  0  0
   -2.7684   -3.1430   -2.8990 O   0  0  0  0  0  0  0  0  0  0  0  0
    6.7177   -0.3751   -0.0801 Cl  0  0  0  0  0  0  0  0  0  0  0  0
   -0.3299   -0.2703    1.8048 H   0  0  0  0  0  0  0  0  0  0  0  0
   -2.3878   -0.9368    1.2719 H   0  0  0  0  0  0  0  0  0  0  0  0
   -3.8659    0.0015   -0.2242 H   0  0  0  0  0  0  0  0  0  0  0  0
   -2.6574    0.9477   -1.1180 H   0  0  0  0  0  0  0  0  0  0  0  0
   -4.0995    1.4877    1.4342 H   0  0  0  0  0  0  0  0  0  0  0  0
   -2.1227    1.3145    2.6805 H   0  0  0  0  0  0  0  0  0  0  0  0
   -2.0831    3.0173    2.1026 H   0  0  0  0  0  0  0  0  0  0  0  0
    0.0257    1.9163    1.9663 H   0  0  0  0  0  0  0  0  0  0  0  0
   -0.5566    2.3541    0.2603 H   0  0  0  0  0  0  0  0  0  0  0  0
   -5.5555    2.5558    0.0941 H   0  0  0  0  0  0  0  0  0  0  0  0
   -4.8918    3.6222    1.3849 H   0  0  0  0  0  0  0  0  0  0  0  0
   -4.9553    4.1892   -0.3228 H   0  0  0  0  0  0  0  0  0  0  0  0
   -1.8954   -0.8829   -1.7187 H   0  0  0  0  0  0  0  0  0  0  0  0
    0.2797   -1.6184   -1.6783 H   0  0  0  0  0  0  0  0  0  0  0  0
    0.8718    1.3472   -1.3465 H   0  0  0  0  0  0  0  0  0  0  0  0
    1.9431    1.8705    0.6844 H   0  0  0  0  0  0  0  0  0  0  0  0
    2.9429    2.2442   -1.7342 H   0  0  0  0  0  0  0  0  0  0  0  0
    3.8356    2.6955   -0.2364 H   0  0  0  0  0  0  0  0  0  0  0  0
    5.1946    1.2764   -1.9419 H   0  0  0  0  0  0  0  0  0  0  0  0
    4.2187   -0.1213   -1.3613 H   0  0  0  0  0  0  0  0  0  0  0  0
    5.8235    1.7909    0.3973 H   0  0  0  0  0  0  0  0  0  0  0  0
    4.9229   -0.5400    1.7496 H   0  0  0  0  0  0  0  0  0  0  0  0
    4.4627    1.1303    2.1015 H   0  0  0  0  0  0  0  0  0  0  0  0
    3.0242   -0.9719    0.3734 H   0  0  0  0  0  0  0  0  0  0  0  0
    2.4859   -0.0877    1.8017 H   0  0  0  0  0  0  0  0  0  0  0  0
    1.1173   -3.2174   -0.3426 H   0  0  0  0  0  0  0  0  0  0  0  0
   -0.4027   -3.2134    0.7043 H   0  0  0  0  0  0  0  0  0  0  0  0
    0.9558   -2.1660    1.0498 H   0  0  0  0  0  0  0  0  0  0  0  0
   -3.5247   -2.2245   -0.6377 H   0  0  0  0  0  0  0  0  0  0  0  0
   -2.3936   -3.0619    0.4110 H   0  0  0  0  0  0  0  0  0  0  0  0
   -2.9359   -4.5075   -1.4262 H   0  0  0  0  0  0  0  0  0  0  0  0
    1.3863   -0.2031   -2.6423 H   0  0  0  0  0  0  0  0  0  0  0  0
   -0.8306   -4.8870   -1.2236 H   0  0  0  0  0  0  0  0  0  0  0  0
   -2.1280   -2.4875   -3.2372 H   0  0  0  0  0  0  0  0  0  0  0  0
   -0.3299   -0.2703    1.8048 H   0  0  0  0  0  0  0  0  0  0  0  0
   -2.3878   -0.9368    1.2719 H   0  0  0  0  0  0  0  0  0  0  0  0
   -3.8659    0.0015   -0.2242 H   0  0  0  0  0  0  0  0  0  0  0  0
   -2.6574    0.9477   -1.1180 H   0  0  0  0  0  0  0  0  0  0  0  0
   -4.0995    1.4877    1.4342 H   0  0  0  0  0  0  0  0  0  0  0  0
   -2.1227    1.3145    2.6805 H   0  0  0  0  0  0  0  0  0  0  0  0
   -2.0831    3.0173    2.1026 H   0  0  0  0  0  0  0  0  0  0  0  0
    0.0257    1.9163    1.9663 H   0  0  0  0  0  0  0  0  0  0  0  0
   -0.5566    2.3541    0.2603 H   0  0  0  0  0  0  0  0  0  0  0  0
   -5.5555    2.5558    0.0941 H   0  0  0  0  0  0  0  0  0  0  0  0
   -4.8918    3.6222    1.3849 H   0  0  0  0  0  0  0  0  0  0  0  0
   -4.9553    4.1892   -0.3228 H   0  0  0  0  0  0  0  0  0  0  0  0
   -1.8954   -0.8829   -1.7187 H   0  0  0  0  0  0  0  0  0  0  0  0
    0.2797   -1.6184   -1.6783 H   0  0  0  0  0  0  0  0  0  0  0  0
    0.8718    1.3472   -1.3465 H   0  0  0  0  0  0  0  0  0  0  0  0
    1.9431    1.8705    0.6844 H   0  0  0  0  0  0  0  0  0  0  0  0
    2.9429    2.2442   -1.7342 H   0  0  0  0  0  0  0  0  0  0  0  0
    3.8356    2.6955   -0.2364 H   0  0  0  0  0  0  0  0  0  0  0  0
    5.1946    1.2764   -1.9419 H   0  0  0  0  0  0  0  0  0  0  0  0
    4.2187   -0.1213   -1.3613 H   0  0  0  0  0  0  0  0  0  0  0  0
    5.8235    1.7909    0.3973 H   0  0  0  0  0  0  0  0  0  0  0  0
    4.9229   -0.5400    1.7496 H   0  0  0  0  0  0  0  0  0  0  0  0
    4.4627    1.1303    2.1015 H   0  0  0  0  0  0  0  0  0  0  0  0
    3.0242   -0.9719    0.3734 H   0  0  0  0  0  0  0  0  0  0  0  0
    2.4859   -0.0877    1.8017 H   0  0  0  0  0  0  0  0  0  0  0  0
    1.1173   -3.2174   -0.3426 H   0  0  0  0  0  0  0  0  0  0  0  0
   -0.4027   -3.2134    0.7043 H   0  0  0  0  0  0  0  0  0  0  0  0
    0.9558   -2.1660    1.0498 H   0  0  0  0  0  0  0  0  0  0  0  0
   -3.5247   -2.2245   -0.6377 H   0  0  0  0  0  0  0  0  0  0  0  0
   -2.3936   -3.0619    0.4110 H   0  0  0  0  0  0  0  0  0  0  0  0
   -2.9359   -4.5075   -1.4262 H   0  0  0  0  0  0  0  0  0  0  0  0
    1.3863   -0.2031   -2.6423 H   0  0  0  0  0  0  0  0  0  0  0  0
   -0.8306   -4.8870   -1.2236 H   0  0  0  0  0  0  0  0  0  0  0  0
   -2.1280   -2.4875   -3.2372 H   0  0  0  0  0  0  0  0  0  0  0  0
   -0.9998    0.5776    1.7390 H   0  0  0  0  0  0  0  0  0  0  0  0
   -1.5951   -0.1302   -1.1407 H   0  0  0  0  0  0  0  0  0  0  0  0
   -3.4765   -0.1132    1.2734 H   0  0  0  0  0  0  0  0  0  0  0  0
   -3.8571   -0.1092   -0.4501 H   0  0  0  0  0  0  0  0  0  0  0  0
   -4.1614    2.0339    0.9572 H   0  0  0  0  0  0  0  0  0  0  0  0
   -2.0920    2.4203    1.8958 H   0  0  0  0  0  0  0  0  0  0  0  0
   -2.3111    3.6495    0.5355 H   0  0  0  0  0  0  0  0  0  0  0  0
   -0.0387    2.7559    0.4545 H   0  0  0  0  0  0  0  0  0  0  0  0
   -1.0759    2.1030   -0.9397 H   0  0  0  0  0  0  0  0  0  0  0  0
   -5.1850    3.3474   -1.9009 H   0  0  0  0  0  0  0  0  0  0  0  0
   -4.7965    3.8206   -0.2418 H   0  0  0  0  0  0  0  0  0  0  0  0
   -5.6610    2.2894   -0.4442 H   0  0  0  0  0  0  0  0  0  0  0  0
   -1.5102   -1.3240    1.6615 H   0  0  0  0  0  0  0  0  0  0  0  0
    0.3237   -1.8347   -0.7283 H   0  0  0  0  0  0  0  0  0  0  0  0
    0.8679    1.5601   -0.9264 H   0  0  0  0  0  0  0  0  0  0  0  0
    3.0653    1.1575   -1.5353 H   0  0  0  0  0  0  0  0  0  0  0  0
    2.8108    0.9036    1.5194 H   0  0  0  0  0  0  0  0  0  0  0  0
    2.5876    2.3416    0.4945 H   0  0  0  0  0  0  0  0  0  0  0  0
    4.8316    1.8955    1.6010 H   0  0  0  0  0  0  0  0  0  0  0  0
    4.8894    2.3250   -0.1705 H   0  0  0  0  0  0  0  0  0  0  0  0
    6.0515    0.0440    1.1695 H   0  0  0  0  0  0  0  0  0  0  0  0
    5.1093   -1.8030   -0.1507 H   0  0  0  0  0  0  0  0  0  0  0  0
    4.0268   -1.3368    1.1995 H   0  0  0  0  0  0  0  0  0  0  0  0
    3.8381   -0.8902   -1.8057 H   0  0  0  0  0  0  0  0  0  0  0  0
    2.6585   -1.6277   -0.7155 H   0  0  0  0  0  0  0  0  0  0  0  0
    1.6868   -2.6926    1.1430 H   0  0  0  0  0  0  0  0  0  0  0  0
    0.0344   -2.8745    1.9309 H   0  0  0  0  0  0  0  0  0  0  0  0
    1.0464   -1.4583    2.2298 H   0  0  0  0  0  0  0  0  0  0  0  0
   -1.9274   -3.5484    0.8062 H   0  0  0  0  0  0  0  0  0  0  0  0
   -3.2596   -2.4523    0.4504 H   0  0  0  0  0  0  0  0  0  0  0  0
   -2.8257   -4.0212   -1.2967 H   0  0  0  0  0  0  0  0  0  0  0  0
    0.8459    0.5436   -2.7662 H   0  0  0  0  0  0  0  0  0  0  0  0
   -0.4581   -4.0395   -1.1827 H   0  0  0  0  0  0  0  0  0  0  0  0
   -2.3895   -2.0924   -2.9693 H   0  0  0  0  0  0  0  0  0  0  0  0
   -0.3299   -0.2703    1.8048 H   0  0  0  0  0  0  0  0  0  0  0  0
   -2.3878   -0.9368    1.2719 H   0  0  0  0  0  0  0  0  0  0  0  0
   -3.8659    0.0015   -0.2242 H   0  0  0  0  0  0  0  0  0  0  0  0
   -2.6574    0.9477   -1.1180 H   0  0  0  0  0  0  0  0  0  0  0  0
   -4.0995    1.4877    1.4342 H   0  0  0  0  0  0  0  0  0  0  0  0
   -2.1227    1.3145    2.6805 H   0  0  0  0  0  0  0  0  0  0  0  0
   -2.0831    3.0173    2.1026 H   0  0  0  0  0  0  0  0  0  0  0  0
    0.0257    1.9163    1.9663 H   0  0  0  0  0  0  0  0  0  0  0  0
   -0.5566    2.3541    0.2603 H   0  0  0  0  0  0  0  0  0  0  0  0
   -5.5555    2.5558    0.0941 H   0  0  0  0  0  0  0  0  0  0  0  0
   -4.8918    3.6222    1.3849 H   0  0  0  0  0  0  0  0  0  0  0  0
   -4.9553    4.1892   -0.3228 H   0  0  0  0  0  0  0  0  0  0  0  0
   -1.8954   -0.8829   -1.7187 H   0  0  0  0  0  0  0  0  0  0  0  0
    0.2797   -1.6184   -1.6783 H   0  0  0  0  0  0  0  0  0  0  0  0
    0.8718    1.3472   -1.3465 H   0  0  0  0  0  0  0  0  0  0  0  0
    1.9431    1.8705    0.6844 H   0  0  0  0  0  0  0  0  0  0  0  0
    2.9429    2.2442   -1.7342 H   0  0  0  0  0  0  0  0  0  0  0  0
    3.8356    2.6955   -0.2364 H   0  0  0  0  0  0  0  0  0  0  0  0
    5.1946    1.2764   -1.9419 H   0  0  0  0  0  0  0  0  0  0  0  0
    4.2187   -0.1213   -1.3613 H   0  0  0  0  0  0  0  0  0  0  0  0
    5.8235    1.7909    0.3973 H   0  0  0  0  0  0  0  0  0  0  0  0
    4.9229   -0.5400    1.7496 H   0  0  0  0  0  0  0  0  0  0  0  0
    4.4627    1.1303    2.1015 H   0  0  0  0  0  0  0  0  0  0  0  0
    3.0242   -0.9719    0.3734 H   0  0  0  0  0  0  0  0  0  0  0  0
    2.4859   -0.0877    1.8017 H   0  0  0  0  0  0  0  0  0  0  0  0
    1.1173   -3.2174   -0.3426 H   0  0  0  0  0  0  0  0  0  0  0  0
   -0.4027   -3.2134    0.7043 H   0  0  0  0  0  0  0  0  0  0  0  0
    0.9558   -2.1660    1.0498 H   0  0  0  0  0  0  0  0  0  0  0  0
   -3.5247   -2.2245   -0.6377 H   0  0  0  0  0  0  0  0  0  0  0  0
   -2.3936   -3.0619    0.4110 H   0  0  0  0  0  0  0  0  0  0  0  0
   -2.9359   -4.5075   -1.4262 H   0  0  0  0  0  0  0  0  0  0  0  0
    1.3863   -0.2031   -2.6423 H   0  0  0  0  0  0  0  0  0  0  0  0
   -0.8306   -4.8870   -1.2236 H   0  0  0  0  0  0  0  0  0  0  0  0
   -2.1280   -2.4875   -3.2372 H   0  0  0  0  0  0  0  0  0  0  0  0
  1  2  1  0
  2  3  1  0
  3  4  1  0
  4  5  1  0
  1  6  1  0
  5  6  1  0
  2  8  1  0
  8  9  1  0
 10 11  1  0
 11 12  1  0
 12 13  1  0
 13 14  1  0
 14 15  1  0
 11 16  1  0
 15 16  1  0
  9 17  1  0
  8 18  1  0
 18 19  1  0
  1 20  1  0
  9 20  1  0
 10 20  1  0
  4 21  1  0
  7 21  1  0
 10 22  1  0
 19 23  1  0
 19 24  1  0
 14 25  1  0
 26 27  1  0
 27 28  1  0
 28 29  1  0
 29 30  1  0
 26 31  1  0
 30 31  1  0
 27 33  1  0
 33 34  1  0
 35 36  1  0
 36 37  1  0
 37 38  1  0
 38 39  1  0
 39 40  1  0
 36 41  1  0
 40 41  1  0
 34 42  1  0
 33 43  1  0
 43 44  1  0
 26 45  1  0
 34 45  1  0
 35 45  1  0
 29 46  1  0
 32 46  1  0
 35 47  1  0
 44 48  1  0
 44 49  1  0
 39 50  1  0
 51 52  1  0
 52 53  1  0
 53 54  1  0
 54 55  1  0
 51 56  1  0
 55 56  1  0
 52 58  1  0
 58 59  1  0
 60 61  1  0
 61 62  1  0
 62 63  1  0
 63 64  1  0
 64 65  1  0
 61 66  1  0
 65 66  1  0
 59 67  1  0
 58 68  1  0
 68 69  1  0
 51 70  1  0
 59 70  1  0
 60 70  1  0
 54 71  1  0
 57 71  1  0
 60 72  1  0
 69 73  1  0
 69 74  1  0
 64 75  1  0
 76 77  1  0
 77 78  1  0
 78 79  1  0
 79 80  1  0
 76 81  1  0
 80 81  1  0
 77 83  1  0
 83 84  1  0
 85 86  1  0
 86 87  1  0
 87 88  1  0
 88 89  1  0
 89 90  1  0
 86 91  1  0
 90 91  1  0
 84 92  1  0
 83 93  1  0
 93 94  1  0
 76 95  1  0
 84 95  1  0
 85 95  1  0
 79 96  1  0
 82 96  1  0
 85 97  1  0
 94 98  1  0
 94 99  1  0
 89100  1  0
  1101  1  0
  2102  1  0
  3103  1  0
  3104  1  0
  4105  1  0
  5106  1  0
  5107  1  0
  6108  1  0
  6109  1  0
  7110  1  0
  7111  1  0
  7112  1  0
  8113  1  6
  9114  1  0
 10115  1  0
 11116  1  0
 12117  1  0
 12118  1  0
 13119  1  0
 13120  1  0
 14121  1  0
 15122  1  0
 15123  1  0
 16124  1  0
 16125  1  0
 17126  1  0
 17127  1  0
 17128  1  0
 18129  1  0
 18130  1  0
 19131  1  0
 22132  1  0
 23133  1  0
 24134  1  0
 26135  1  0
 27136  1  0
 28137  1  0
 28138  1  0
 29139  1  0
 30140  1  0
 30141  1  0
 31142  1  0
 31143  1  0
 32144  1  0
 32145  1  0
 32146  1  0
 33147  1  6
 34148  1  0
 35149  1  0
 36150  1  0
 37151  1  0
 37152  1  0
 38153  1  0
 38154  1  0
 39155  1  0
 40156  1  0
 40157  1  0
 41158  1  0
 41159  1  0
 42160  1  0
 42161  1  0
 42162  1  0
 43163  1  0
 43164  1  0
 44165  1  0
 47166  1  0
 48167  1  0
 49168  1  0
 51169  1  0
 52170  1  0
 53171  1  0
 53172  1  0
 54173  1  0
 55174  1  0
 55175  1  0
 56176  1  0
 56177  1  0
 57178  1  0
 57179  1  0
 57180  1  0
 58181  1  0
 59182  1  0
 60183  1  0
 61184  1  0
 62185  1  0
 62186  1  0
 63187  1  0
 63188  1  0
 64189  1  0
 65190  1  0
 65191  1  0
 66192  1  0
 66193  1  0
 67194  1  0
 67195  1  0
 67196  1  0
 68197  1  0
 68198  1  0
 69199  1  0
 72200  1  0
 73201  1  0
 74202  1  0
 76203  1  0
 77204  1  0
 78205  1  0
 78206  1  0
 79207  1  0
 80208  1  0
 80209  1  0
 81210  1  0
 81211  1  0
 82212  1  0
 82213  1  0
 82214  1  0
 83215  1  6
 84216  1  0
 85217  1  0
 86218  1  0
 87219  1  0
 87220  1  0
 88221  1  0
 88222  1  0
 89223  1  0
 90224  1  0
 90225  1  0
 91226  1  0
 91227  1  0
 92228  1  0
 92229  1  0
 92230  1  0
 93231  1  0
 93232  1  0
 94233  1  0
 97234  1  0
 98235  1  0
 99236  1  0
M  END
>  <PDBID>  (1) 
4COX

>  <PDB ID>  (1) 
4COX

>  <Generic Name>  (1) 
Indomethacin

>  <Brand Name>  (1) 
Apo Indomethacin Cap 25mg#Apo Indomethacin Cap 50mg#Ftp-indomethacin#Indocid Cap 25mg#Indocid Cap 50mg#Indocid SR 75mg#Indocid Sterile Oph Susp 1%#Indocid Sup 100mg#Indocid Sup 50mg#Indocin#Indocollyre#Indomethacin#Indomethacin ER#Indomethacin Extended-release#Mint-indomethacin#Novo-methacin - 100mg Sup#Novo-methacin - Sup 50mg#Ntp-indomethacin#Nu-indo Cap 25mg#Nu-indo Cap 50mg#Pro-indo 25 Cap 25mg#Pro-indo 50 Cap 50mg#Ratio-indomethacin#Rhodacine - Cap 25mg#Rhodacine - Cap 50mg#Rhodacine - Sup 100mg#Rhodacine - Sup 50mg#Sandoz Indomethacin#Teva-indomethacin#Tivorbex#Arthrexin#Elmetacin#Indaflex#Indocid#Indolar SR#Indomed#Indoxen#Metindol#Mikametan#Nu-Indo#Reumacide

>  <DrugBank ID>  (1) 
DB00328

>  <ATC Codes>  (1) 
S01CC02#M02AA23#M01AB01#M01AB51#S01BC01#C01EB03

>  <Ligand ID>  (1) 
IMN

>  <Target Name>  (1) 
Prostaglandin G/H synthase 2

>  <UniProt ID>  (1) 
P35354

>  <PDB ID.1>  (1) 
4COX

>  <Seq. Identity>  (1) 
84%

$$$$
