PDB_DB01263_06
     RDKit          3D

119125  0  0  0  0  0  0  0  0999 V2000
   13.8570   -0.0415   -1.0958 C   0  0  0  0  0  0  0  0  0  0  0  0
   10.9956   -0.5731    1.8184 C   0  0  0  0  0  0  0  0  0  0  0  0
    9.7499    0.9798   -0.6372 O   0  0  0  0  0  0  0  0  0  0  0  0
   13.1849   -1.0190    1.1867 O   0  0  0  0  0  0  0  0  0  0  0  0
   -7.4944    0.3852   -2.5298 F   0  0  0  0  0  0  0  0  0  0  0  0
  -10.5472    3.0352   -2.4530 F   0  0  0  0  0  0  0  0  0  0  0  0
   -9.7876    0.8593   -2.9935 C   0  0  0  0  0  0  0  0  0  0  0  0
   -2.0767    0.6524    2.2485 C   0  0  0  0  0  0  0  0  0  0  0  0
   -2.7412    0.8675   -0.0740 C   0  0  0  0  0  0  0  0  0  0  0  0
   -1.1182    1.7228    1.7059 C   0  0  0  0  0  0  0  0  0  0  0  0
   -1.3168    0.3008   -0.2315 C   0  0  0  0  0  0  0  0  0  0  0  0
    4.9454    0.0717   -1.5988 C   0  0  0  0  0  0  0  0  0  0  0  0
    4.7874   -0.7184    0.6853 C   0  0  0  0  0  0  0  0  0  0  0  0
    6.2698   -0.6490   -1.5929 C   0  0  0  0  0  0  0  0  0  0  0  0
    6.2616   -0.7065    0.9022 C   0  0  0  0  0  0  0  0  0  0  0  0
  -10.9269    1.7115   -2.5042 C   0  0  0  0  0  0  0  0  0  0  0  0
  -11.2211   -2.9645    0.7357 C   0  0  0  0  0  0  0  0  0  0  0  0
   -8.7789    1.1061   -0.6781 C   0  0  1  0  0  0  0  0  0  0  0  0
   -9.7447   -3.0982   -1.0592 C   0  0  0  0  0  0  0  0  0  0  0  0
    8.4637   -2.2698   -0.2544 C   0  0  0  0  0  0  0  0  0  0  0  0
   12.3616    0.1085   -1.2314 C   0  0  0  0  0  0  0  0  0  0  0  0
   -6.5387    0.2123   -0.0595 C   0  0  0  0  0  0  0  0  0  0  0  0
    1.6555    2.3193    0.8885 C   0  0  0  0  0  0  0  0  0  0  0  0
    1.0778    1.6476   -1.2934 C   0  0  0  0  0  0  0  0  0  0  0  0
    2.6704    1.1882    1.0982 C   0  0  0  0  0  0  0  0  0  0  0  0
    2.6079    1.4897   -1.2815 C   0  0  0  0  0  0  0  0  0  0  0  0
   -5.2767   -0.1307    2.0425 C   0  0  0  0  0  0  0  0  0  0  0  0
   -8.3170   -1.3660   -0.4903 C   0  0  0  0  0  0  0  0  0  0  0  0
  -10.9837   -3.6320   -0.5309 N   0  0  0  0  0  0  0  0  0  0  0  0
   -9.9379   -2.2809    0.9585 N   0  0  0  0  0  0  0  0  0  0  0  0
    9.8393   -2.4851   -0.6495 N   0  0  0  0  0  0  0  0  0  0  0  0
   -4.0759   -0.4324    1.4827 O   0  0  0  0  0  0  0  0  0  0  0  0
   -8.3765    0.0377    1.3809 O   0  0  0  0  0  0  0  0  0  0  0  0
   -8.5802    1.1781   -2.1423 C   0  0  0  0  0  0  0  0  0  0  0  0
  -10.1487    1.3380   -0.1560 C   0  0  0  0  0  0  0  0  0  0  0  0
   -3.2810    0.6683    1.2998 C   0  0  0  0  0  0  0  0  0  0  0  0
   -0.3153    0.9936    0.6097 C   0  0  0  0  0  0  0  0  0  0  0  0
    4.4457    0.4569   -0.2398 C   0  0  0  0  0  0  0  0  0  0  0  0
    7.0217   -0.3181   -0.3450 C   0  0  0  0  0  0  0  0  0  0  0  0
  -11.2693    1.1708   -1.1333 C   0  0  0  0  0  0  0  0  0  0  0  0
    9.3530   -0.2819   -1.0336 C   0  0  0  0  0  0  0  0  0  0  0  0
   11.8433   -1.2792    0.8331 C   0  0  2  0  0  0  0  0  0  0  0  0
   11.6379   -1.0524   -0.6062 C   0  0  1  0  0  0  0  0  0  0  0  0
    0.6355    1.8261    0.0190 N   0  0  0  0  0  0  0  0  0  0  0  0
    3.0332    0.6716   -0.1902 N   0  0  0  0  0  0  0  0  0  0  0  0
   -9.7067   -1.8006   -0.3457 N   0  0  0  0  0  0  0  0  0  0  0  0
    8.3227   -0.8622   -0.2561 N   0  0  0  0  0  0  0  0  0  0  0  0
   10.3382   -1.2728   -1.1398 N   0  0  0  0  0  0  0  0  0  0  0  0
   -8.0481    0.0013    0.0412 C   0  0  2  0  0  0  0  0  0  0  0  0
   -7.5076    0.8810    2.0155 C   0  0  0  0  0  0  0  0  0  0  0  0
   -6.1782    0.7869    1.2949 C   0  0  2  0  0  0  0  0  0  0  0  0
   14.2308    0.4932   -0.2172 H   0  0  0  0  0  0  0  0  0  0  0  0
   14.0676   -1.1266   -0.9486 H   0  0  0  0  0  0  0  0  0  0  0  0
   14.3516    0.3382   -2.0230 H   0  0  0  0  0  0  0  0  0  0  0  0
    9.9770   -1.0018    1.9596 H   0  0  0  0  0  0  0  0  0  0  0  0
   11.4805   -0.7704    2.8308 H   0  0  0  0  0  0  0  0  0  0  0  0
   10.9421    0.5090    1.7622 H   0  0  0  0  0  0  0  0  0  0  0  0
    9.0610    1.4618   -0.1053 H   0  0  0  0  0  0  0  0  0  0  0  0
   13.5707   -1.6969    1.7600 H   0  0  0  0  0  0  0  0  0  0  0  0
   -9.5560    1.1923   -4.0254 H   0  0  0  0  0  0  0  0  0  0  0  0
  -10.0477   -0.1920   -3.0365 H   0  0  0  0  0  0  0  0  0  0  0  0
   -1.6156   -0.3473    2.1474 H   0  0  0  0  0  0  0  0  0  0  0  0
   -2.3414    0.9297    3.2693 H   0  0  0  0  0  0  0  0  0  0  0  0
   -3.3573    0.2445   -0.7817 H   0  0  0  0  0  0  0  0  0  0  0  0
   -2.7829    1.9347   -0.3162 H   0  0  0  0  0  0  0  0  0  0  0  0
   -0.4138    1.9259    2.5354 H   0  0  0  0  0  0  0  0  0  0  0  0
   -1.6474    2.5940    1.3113 H   0  0  0  0  0  0  0  0  0  0  0  0
   -1.0974    0.1782   -1.2892 H   0  0  0  0  0  0  0  0  0  0  0  0
   -1.4456   -0.7623    0.1502 H   0  0  0  0  0  0  0  0  0  0  0  0
    4.1723   -0.5902   -2.0727 H   0  0  0  0  0  0  0  0  0  0  0  0
    4.9714    0.9815   -2.2461 H   0  0  0  0  0  0  0  0  0  0  0  0
    4.4499   -1.6394    0.1583 H   0  0  0  0  0  0  0  0  0  0  0  0
    4.2499   -0.6412    1.6534 H   0  0  0  0  0  0  0  0  0  0  0  0
    6.8395   -0.2752   -2.4678 H   0  0  0  0  0  0  0  0  0  0  0  0
    6.0722   -1.7277   -1.7238 H   0  0  0  0  0  0  0  0  0  0  0  0
    6.4834    0.0676    1.6945 H   0  0  0  0  0  0  0  0  0  0  0  0
    6.6144   -1.6817    1.2938 H   0  0  0  0  0  0  0  0  0  0  0  0
  -11.8009    1.5542   -3.1507 H   0  0  0  0  0  0  0  0  0  0  0  0
  -11.4985   -3.6332    1.5492 H   0  0  0  0  0  0  0  0  0  0  0  0
  -12.0116   -2.1843    0.5345 H   0  0  0  0  0  0  0  0  0  0  0  0
   -8.1945    2.0209   -0.2822 H   0  0  0  0  0  0  0  0  0  0  0  0
   -8.8889   -3.6860   -0.7028 H   0  0  0  0  0  0  0  0  0  0  0  0
   -9.7349   -2.9713   -2.1392 H   0  0  0  0  0  0  0  0  0  0  0  0
    7.7644   -2.8206   -0.9172 H   0  0  0  0  0  0  0  0  0  0  0  0
    8.3662   -2.6428    0.7977 H   0  0  0  0  0  0  0  0  0  0  0  0
   12.1268    0.0817   -2.3183 H   0  0  0  0  0  0  0  0  0  0  0  0
   12.0571    1.0973   -0.8585 H   0  0  0  0  0  0  0  0  0  0  0  0
   -6.2659    1.0011   -0.7909 H   0  0  0  0  0  0  0  0  0  0  0  0
   -5.9967   -0.7435   -0.2247 H   0  0  0  0  0  0  0  0  0  0  0  0
    2.1745    3.1866    0.3814 H   0  0  0  0  0  0  0  0  0  0  0  0
    1.2988    2.7298    1.8390 H   0  0  0  0  0  0  0  0  0  0  0  0
    0.6561    0.8830   -1.9240 H   0  0  0  0  0  0  0  0  0  0  0  0
    0.9215    2.6218   -1.8484 H   0  0  0  0  0  0  0  0  0  0  0  0
    3.5246    1.6729    1.6247 H   0  0  0  0  0  0  0  0  0  0  0  0
    2.1733    0.4455    1.7523 H   0  0  0  0  0  0  0  0  0  0  0  0
    2.8642    0.9801   -2.2308 H   0  0  0  0  0  0  0  0  0  0  0  0
    3.1139    2.4833   -1.3289 H   0  0  0  0  0  0  0  0  0  0  0  0
   -5.8398   -1.1073    2.1389 H   0  0  0  0  0  0  0  0  0  0  0  0
   -5.1166    0.2148    3.0876 H   0  0  0  0  0  0  0  0  0  0  0  0
   -7.9233   -1.5896   -1.4852 H   0  0  0  0  0  0  0  0  0  0  0  0
   -7.7476   -2.0663    0.1974 H   0  0  0  0  0  0  0  0  0  0  0  0
  -11.7489   -3.4282   -1.2329 H   0  0  0  0  0  0  0  0  0  0  0  0
  -10.1184   -1.4946    1.5928 H   0  0  0  0  0  0  0  0  0  0  0  0
    9.9732   -3.2779   -1.3017 H   0  0  0  0  0  0  0  0  0  0  0  0
   -8.2899    2.2114   -2.4628 H   0  0  0  0  0  0  0  0  0  0  0  0
  -10.3405    0.6525    0.6896 H   0  0  0  0  0  0  0  0  0  0  0  0
  -10.3041    2.3648    0.3015 H   0  0  0  0  0  0  0  0  0  0  0  0
   -3.8671    1.5687    1.6505 H   0  0  0  0  0  0  0  0  0  0  0  0
    0.2491    0.2146    1.2070 H   0  0  0  0  0  0  0  0  0  0  0  0
    4.9567    1.3771    0.1080 H   0  0  0  0  0  0  0  0  0  0  0  0
    7.1320    0.7993   -0.3337 H   0  0  0  0  0  0  0  0  0  0  0  0
  -11.5950    0.1239   -1.2806 H   0  0  0  0  0  0  0  0  0  0  0  0
  -12.1606    1.7291   -0.7813 H   0  0  0  0  0  0  0  0  0  0  0  0
    8.9365   -0.1261   -2.0820 H   0  0  0  0  0  0  0  0  0  0  0  0
   11.7265   -2.3840    1.0417 H   0  0  0  0  0  0  0  0  0  0  0  0
   12.2247   -1.9376   -1.0805 H   0  0  0  0  0  0  0  0  0  0  0  0
   -7.8991    1.9023    2.0944 H   0  0  0  0  0  0  0  0  0  0  0  0
   -7.3773    0.5015    3.0656 H   0  0  0  0  0  0  0  0  0  0  0  0
   -5.8134    1.8437    1.2318 H   0  0  0  0  0  0  0  0  0  0  0  0
  8 10  1  0
  9 11  1  0
 12 14  1  0
 13 15  1  0
  6 16  1  0
  7 16  1  0
  1 21  1  0
 23 25  1  0
 24 26  1  0
 17 29  1  0
 19 29  1  0
 17 30  1  0
 20 31  1  0
 27 32  1  0
  5 34  1  0
  7 34  1  0
 18 34  1  0
 18 35  1  0
  8 36  1  0
  9 36  1  0
 32 36  1  0
 10 37  1  0
 11 37  1  0
 12 38  1  0
 13 38  1  0
 14 39  1  0
 15 39  1  0
 16 40  1  0
 35 40  1  0
  3 41  1  0
  2 42  1  0
  4 42  1  0
 21 43  1  0
 42 43  1  0
 23 44  1  0
 24 44  1  0
 37 44  1  0
 25 45  1  0
 26 45  1  0
 38 45  1  0
 19 46  1  0
 28 46  1  0
 30 46  1  0
 20 47  1  0
 39 47  1  0
 41 47  1  0
 31 48  1  0
 41 48  1  0
 43 48  1  0
 18 49  1  0
 22 49  1  0
 49 28  1  6
 33 49  1  0
 33 50  1  0
 22 51  1  0
 27 51  1  0
 50 51  1  0
  1 52  1  0
  1 53  1  0
  1 54  1  0
  2 55  1  0
  2 56  1  0
  2 57  1  0
  3 58  1  0
  4 59  1  0
  7 60  1  0
  7 61  1  0
  8 62  1  0
  8 63  1  0
  9 64  1  0
  9 65  1  0
 10 66  1  0
 10 67  1  0
 11 68  1  0
 11 69  1  0
 12 70  1  0
 12 71  1  0
 13 72  1  0
 13 73  1  0
 14 74  1  0
 14 75  1  0
 15 76  1  0
 15 77  1  0
 16 78  1  0
 17 79  1  0
 17 80  1  0
 18 81  1  1
 19 82  1  0
 19 83  1  0
 20 84  1  0
 20 85  1  0
 21 86  1  0
 21 87  1  0
 22 88  1  0
 22 89  1  0
 23 90  1  0
 23 91  1  0
 24 92  1  0
 24 93  1  0
 25 94  1  0
 25 95  1  0
 26 96  1  0
 26 97  1  0
 27 98  1  0
 27 99  1  0
 28100  1  0
 28101  1  0
 29102  1  0
 30103  1  0
 31104  1  0
 34105  1  0
 35106  1  0
 35107  1  0
 36108  1  0
 37109  1  0
 38110  1  0
 39111  1  0
 40112  1  0
 40113  1  0
 41114  1  0
 42115  1  6
 43116  1  6
 50117  1  0
 50118  1  0
 51119  1  6
M  END
>  <PDBID>  (1) 
4ZE1

>  <PDB ID>  (1) 
4ZE1

>  <Generic Name>  (1) 
Posaconazole

>  <Brand Name>  (1) 
Noxafil#Posanol

>  <DrugBank ID>  (1) 
DB01263

>  <ATC Codes>  (1) 
J02AC04

>  <Ligand ID>  (1) 
X2N

>  <Target Name>  (1) 
Lanosterol 14-alpha demethylase

>  <UniProt ID>  (1) 
P10613

>  <PDB ID.1>  (1) 
4ZE1

>  <Seq. Identity>  (1) 
65%

$$$$
