PDB_DB00530_00
     RDKit          3D

 72 74  0  0  0  0  0  0  0  0999 V2000
   -6.0112    2.5389   -0.6725 C   0  0  0  0  0  0  0  0  0  0  0  0
   -6.4338    1.1311   -0.4592 C   0  0  0  0  0  0  0  0  0  0  0  0
   -5.5102    0.3987    0.4218 C   0  0  0  0  0  0  0  0  0  0  0  0
   -4.0931    0.3106   -0.1421 C   0  0  0  0  0  0  0  0  0  0  0  0
   -3.3515   -0.6024    0.8343 C   0  0  0  0  0  0  0  0  0  0  0  0
   -1.9615   -0.5264    0.9353 N   0  0  0  0  0  0  0  0  0  0  0  0
   -1.1676   -1.1295   -0.0766 C   0  0  0  0  0  0  0  0  0  0  0  0
    0.2939   -0.7661    0.0041 C   0  0  0  0  0  0  0  0  0  0  0  0
    0.5827    0.6708   -0.1946 C   0  0  0  0  0  0  0  0  0  0  0  0
    2.0013    0.9880    0.2457 C   0  0  0  0  0  0  0  0  0  0  0  0
    2.6205    1.9404   -0.3315 O   0  0  0  0  0  0  0  0  0  0  0  0
    3.2130    2.8523   -0.8822 C   0  0  0  0  0  0  0  0  0  0  0  0
    2.5357    4.2283   -0.9006 C   0  0  0  0  0  0  0  0  0  0  0  0
    2.2840    4.7934    0.3334 O   0  0  0  0  0  0  0  0  0  0  0  0
    3.4076    5.0684    1.0855 C   0  0  0  0  0  0  0  0  0  0  0  0
    2.8198   -0.3432    0.1581 C   0  0  0  0  0  0  0  0  0  0  0  0
    4.1747    0.0090    0.1026 O   0  0  0  0  0  0  0  0  0  0  0  0
    4.9798   -0.5810    1.0612 C   0  0  0  0  0  0  0  0  0  0  0  0
    5.0989   -2.0609    0.8582 C   0  0  0  0  0  0  0  0  0  0  0  0
    5.6781   -2.4164   -0.3162 O   0  0  0  0  0  0  0  0  0  0  0  0
    6.9733   -1.9206   -0.3850 C   0  0  0  0  0  0  0  0  0  0  0  0
    2.4529   -1.0338   -1.1325 C   0  0  0  0  0  0  0  0  0  0  0  0
    1.0202   -1.5222   -1.0730 C   0  0  0  0  0  0  0  0  0  0  0  0
    1.0229   -2.9256   -0.6594 N   0  0  0  0  0  0  0  0  0  0  0  0
   -0.3520   -3.3819   -0.5893 C   0  0  0  0  0  0  0  0  0  0  0  0
   -1.1571   -2.5761    0.2208 N   0  0  0  0  0  0  0  0  0  0  0  0
   -3.7642   -2.0156    0.3239 C   0  0  0  0  0  0  0  0  0  0  0  0
   -5.2242   -2.0191   -0.0321 C   0  0  0  0  0  0  0  0  0  0  0  0
   -6.0021   -0.9931    0.7459 C   0  0  0  0  0  0  0  0  0  0  0  0
   -6.9162    3.1920   -0.4556 H   0  0  0  0  0  0  0  0  0  0  0  0
   -5.7135    2.6793   -1.7079 H   0  0  0  0  0  0  0  0  0  0  0  0
   -5.2239    2.9016   -0.0078 H   0  0  0  0  0  0  0  0  0  0  0  0
   -6.5378    0.5804   -1.4385 H   0  0  0  0  0  0  0  0  0  0  0  0
   -7.4822    1.0686   -0.0130 H   0  0  0  0  0  0  0  0  0  0  0  0
   -5.4341    0.9481    1.4081 H   0  0  0  0  0  0  0  0  0  0  0  0
   -4.1617   -0.1823   -1.1144 H   0  0  0  0  0  0  0  0  0  0  0  0
   -3.6104    1.2979   -0.2339 H   0  0  0  0  0  0  0  0  0  0  0  0
   -3.8305   -0.5221    1.8193 H   0  0  0  0  0  0  0  0  0  0  0  0
   -1.5485    0.2198    1.4944 H   0  0  0  0  0  0  0  0  0  0  0  0
   -1.6184   -1.0058   -1.0603 H   0  0  0  0  0  0  0  0  0  0  0  0
    0.6694   -1.1611    1.0025 H   0  0  0  0  0  0  0  0  0  0  0  0
   -0.0918    1.3101    0.4363 H   0  0  0  0  0  0  0  0  0  0  0  0
    0.4120    0.9238   -1.2543 H   0  0  0  0  0  0  0  0  0  0  0  0
    1.8983    1.1324    1.3437 H   0  0  0  0  0  0  0  0  0  0  0  0
    4.2196    3.1274   -0.3501 H   0  0  0  0  0  0  0  0  0  0  0  0
    3.5615    2.7289   -1.9676 H   0  0  0  0  0  0  0  0  0  0  0  0
    3.1594    4.9651   -1.4635 H   0  0  0  0  0  0  0  0  0  0  0  0
    1.5495    4.1348   -1.4356 H   0  0  0  0  0  0  0  0  0  0  0  0
    3.0889    5.5363    2.0294 H   0  0  0  0  0  0  0  0  0  0  0  0
    4.0109    4.1661    1.3460 H   0  0  0  0  0  0  0  0  0  0  0  0
    4.0169    5.8168    0.5309 H   0  0  0  0  0  0  0  0  0  0  0  0
    2.6529   -1.0079    0.9742 H   0  0  0  0  0  0  0  0  0  0  0  0
    4.4035   -0.4352    2.0501 H   0  0  0  0  0  0  0  0  0  0  0  0
    5.9582   -0.0890    1.1765 H   0  0  0  0  0  0  0  0  0  0  0  0
    4.1061   -2.5379    1.0151 H   0  0  0  0  0  0  0  0  0  0  0  0
    5.7280   -2.4555    1.6954 H   0  0  0  0  0  0  0  0  0  0  0  0
    7.0342   -0.8331   -0.3412 H   0  0  0  0  0  0  0  0  0  0  0  0
    7.4581   -2.3202   -1.3264 H   0  0  0  0  0  0  0  0  0  0  0  0
    7.5508   -2.3438    0.4851 H   0  0  0  0  0  0  0  0  0  0  0  0
    3.1051   -1.9158   -1.2375 H   0  0  0  0  0  0  0  0  0  0  0  0
    2.6392   -0.4001   -2.0438 H   0  0  0  0  0  0  0  0  0  0  0  0
    0.4557   -1.4034   -2.0123 H   0  0  0  0  0  0  0  0  0  0  0  0
    1.4651   -3.4608   -1.4844 H   0  0  0  0  0  0  0  0  0  0  0  0
   -0.8123   -3.5744   -1.5767 H   0  0  0  0  0  0  0  0  0  0  0  0
   -0.2894   -4.4119   -0.1186 H   0  0  0  0  0  0  0  0  0  0  0  0
   -1.0482   -2.7099    1.2721 H   0  0  0  0  0  0  0  0  0  0  0  0
   -3.2326   -2.2424   -0.6369 H   0  0  0  0  0  0  0  0  0  0  0  0
   -3.5887   -2.6969    1.1540 H   0  0  0  0  0  0  0  0  0  0  0  0
   -5.3904   -1.8350   -1.1352 H   0  0  0  0  0  0  0  0  0  0  0  0
   -5.6822   -3.0173    0.1335 H   0  0  0  0  0  0  0  0  0  0  0  0
   -5.9996   -1.2379    1.8143 H   0  0  0  0  0  0  0  0  0  0  0  0
   -7.0617   -1.0455    0.4069 H   0  0  0  0  0  0  0  0  0  0  0  0
  1  2  1  0
  2  3  1  0
  3  4  1  0
  4  5  1  0
  5  6  1  0
  6  7  1  0
  7  8  1  0
  8  9  1  0
  9 10  1  0
 10 11  1  0
 11 12  1  0
 12 13  1  0
 13 14  1  0
 14 15  1  0
 10 16  1  0
 16 17  1  0
 17 18  1  0
 18 19  1  0
 19 20  1  0
 20 21  1  0
 16 22  1  0
  8 23  1  0
 22 23  1  0
 23 24  1  0
 24 25  1  0
  7 26  1  0
 25 26  1  0
  5 27  1  0
 27 28  1  0
  3 29  1  0
 28 29  1  0
  1 30  1  0
  1 31  1  0
  1 32  1  0
  2 33  1  0
  2 34  1  0
  3 35  1  0
  4 36  1  0
  4 37  1  0
  5 38  1  0
  6 39  1  0
  7 40  1  0
  8 41  1  0
  9 42  1  0
  9 43  1  0
 10 44  1  0
 12 45  1  0
 12 46  1  0
 13 47  1  0
 13 48  1  0
 15 49  1  0
 15 50  1  0
 15 51  1  0
 16 52  1  0
 18 53  1  0
 18 54  1  0
 19 55  1  0
 19 56  1  0
 21 57  1  0
 21 58  1  0
 21 59  1  0
 22 60  1  0
 22 61  1  0
 23 62  1  0
 24 63  1  0
 25 64  1  0
 25 65  1  0
 26 66  1  0
 27 67  1  0
 27 68  1  0
 28 69  1  0
 28 70  1  0
 29 71  1  0
 29 72  1  0
M  END
>  <PDBID>  (1) 
1M17

>  <PDB ID>  (1) 
1M17

>  <Generic Name>  (1) 
Erlotinib

>  <Brand Name>  (1) 
PMS-erlotinib#Tarceva#Teva-erlotinib

>  <DrugBank ID>  (1) 
DB00530

>  <ATC Codes>  (1) 
L01XE03

>  <Ligand ID>  (1) 
AQ4

>  <Target Name>  (1) 
Epidermal growth factor receptor

>  <UniProt ID>  (1) 
P00533

>  <PDB ID.1>  (1) 
1M17

>  <Seq. Identity>  (1) 
96%

$$$$
