PDB_DB01095_03
     RDKit          3D

296304  0  0  0  0  0  0  0  0999 V2000
   -2.2334    1.2030   -0.1555 C   0  0  0  0  0  0  0  0  0  0  0  0
   -2.1197    0.7420   -1.5987 C   0  0  0  0  0  0  0  0  0  0  0  0
   -2.8494    1.5868   -2.5657 C   0  0  0  0  0  0  0  0  0  0  0  0
   -3.6877    2.5813   -1.7497 C   0  0  0  0  0  0  0  0  0  0  0  0
   -4.5044    1.7514   -0.7485 C   0  0  0  0  0  0  0  0  0  0  0  0
   -3.5216    1.4444    0.4017 C   0  0  0  0  0  0  0  0  0  0  0  0
   -1.2935    0.1596    0.5202 C   0  0  0  0  0  0  0  0  0  0  0  0
   -0.2495    0.0264   -0.4526 C   0  0  0  0  0  0  0  0  0  0  0  0
   -0.7307    0.7418   -1.6286 N   0  0  0  0  0  0  0  0  0  0  0  0
   -2.0900   -2.1275    3.3407 C   0  0  0  0  0  0  0  0  0  0  0  0
   -1.2317   -1.7637    2.1065 C   0  0  0  0  0  0  0  0  0  0  0  0
   -2.0519   -0.8073    1.2801 C   0  0  0  0  0  0  0  0  0  0  0  0
   -3.1355   -1.6489    0.7213 C   0  0  0  0  0  0  0  0  0  0  0  0
   -4.0962   -2.0270    1.8393 C   0  0  0  0  0  0  0  0  0  0  0  0
   -3.3541   -2.8128    2.8682 C   0  0  0  0  0  0  0  0  0  0  0  0
   -3.0479   -4.0652    2.4087 F   0  0  0  0  0  0  0  0  0  0  0  0
    7.2661    0.9472    0.5407 O   0  0  0  0  0  0  0  0  0  0  0  0
    7.4638   -0.3381    2.4059 O   0  0  0  0  0  0  0  0  0  0  0  0
    3.9964    1.3871    1.1659 O   0  0  0  0  0  0  0  0  0  0  0  0
    6.6005    0.4276    1.6237 C   0  0  0  0  0  0  0  0  0  0  0  0
    5.4254   -0.4679    1.2065 C   0  0  0  0  0  0  0  0  0  0  0  0
    4.4589    0.3434    0.4029 C   0  0  1  0  0  0  0  0  0  0  0  0
    3.3905   -0.4569   -0.2877 C   0  0  0  0  0  0  0  0  0  0  0  0
    2.4316   -1.0751    0.6918 C   0  0  1  0  0  0  0  0  0  0  0  0
    1.3616   -1.8784   -0.0062 C   0  0  0  0  0  0  0  0  0  0  0  0
    0.4979   -1.1061   -0.9456 C   0  0  0  0  0  0  0  0  0  0  0  0
    0.0744    1.3328   -2.5161 C   0  0  0  0  0  0  0  0  0  0  0  0
   -0.1434    0.7321   -3.9191 C   0  0  0  0  0  0  0  0  0  0  0  0
   -0.0082    2.8487   -2.6932 C   0  0  0  0  0  0  0  0  0  0  0  0
    3.1716   -2.0213    1.4403 O   0  0  0  0  0  0  0  0  0  0  0  0
   -2.2334    1.2030   -0.1555 C   0  0  0  0  0  0  0  0  0  0  0  0
   -2.1197    0.7420   -1.5987 C   0  0  0  0  0  0  0  0  0  0  0  0
   -2.8494    1.5868   -2.5657 C   0  0  0  0  0  0  0  0  0  0  0  0
   -3.6877    2.5813   -1.7497 C   0  0  0  0  0  0  0  0  0  0  0  0
   -4.5044    1.7514   -0.7485 C   0  0  0  0  0  0  0  0  0  0  0  0
   -3.5216    1.4444    0.4017 C   0  0  0  0  0  0  0  0  0  0  0  0
   -1.2935    0.1596    0.5202 C   0  0  0  0  0  0  0  0  0  0  0  0
   -0.2495    0.0264   -0.4526 C   0  0  0  0  0  0  0  0  0  0  0  0
   -0.7307    0.7418   -1.6286 N   0  0  0  0  0  0  0  0  0  0  0  0
   -2.0900   -2.1275    3.3407 C   0  0  0  0  0  0  0  0  0  0  0  0
   -1.2317   -1.7637    2.1065 C   0  0  0  0  0  0  0  0  0  0  0  0
   -2.0519   -0.8073    1.2801 C   0  0  0  0  0  0  0  0  0  0  0  0
   -3.1355   -1.6489    0.7213 C   0  0  0  0  0  0  0  0  0  0  0  0
   -4.0962   -2.0270    1.8393 C   0  0  0  0  0  0  0  0  0  0  0  0
   -3.3541   -2.8128    2.8682 C   0  0  0  0  0  0  0  0  0  0  0  0
   -3.0479   -4.0652    2.4087 F   0  0  0  0  0  0  0  0  0  0  0  0
    7.2661    0.9472    0.5407 O   0  0  0  0  0  0  0  0  0  0  0  0
    7.4638   -0.3381    2.4059 O   0  0  0  0  0  0  0  0  0  0  0  0
    3.9964    1.3871    1.1659 O   0  0  0  0  0  0  0  0  0  0  0  0
    6.6005    0.4276    1.6237 C   0  0  0  0  0  0  0  0  0  0  0  0
    5.4254   -0.4679    1.2065 C   0  0  0  0  0  0  0  0  0  0  0  0
    4.4589    0.3434    0.4029 C   0  0  1  0  0  0  0  0  0  0  0  0
    3.3905   -0.4569   -0.2877 C   0  0  0  0  0  0  0  0  0  0  0  0
    2.4316   -1.0751    0.6918 C   0  0  1  0  0  0  0  0  0  0  0  0
    1.3616   -1.8784   -0.0062 C   0  0  0  0  0  0  0  0  0  0  0  0
    0.4979   -1.1061   -0.9456 C   0  0  0  0  0  0  0  0  0  0  0  0
    0.0744    1.3328   -2.5161 C   0  0  0  0  0  0  0  0  0  0  0  0
   -0.1434    0.7321   -3.9191 C   0  0  0  0  0  0  0  0  0  0  0  0
   -0.0082    2.8487   -2.6932 C   0  0  0  0  0  0  0  0  0  0  0  0
    3.1716   -2.0213    1.4403 O   0  0  0  0  0  0  0  0  0  0  0  0
   -2.2334    1.2030   -0.1555 C   0  0  0  0  0  0  0  0  0  0  0  0
   -2.1197    0.7420   -1.5987 C   0  0  0  0  0  0  0  0  0  0  0  0
   -2.8494    1.5868   -2.5657 C   0  0  0  0  0  0  0  0  0  0  0  0
   -3.6877    2.5813   -1.7497 C   0  0  0  0  0  0  0  0  0  0  0  0
   -4.5044    1.7514   -0.7485 C   0  0  0  0  0  0  0  0  0  0  0  0
   -3.5216    1.4444    0.4017 C   0  0  0  0  0  0  0  0  0  0  0  0
   -1.2935    0.1596    0.5202 C   0  0  0  0  0  0  0  0  0  0  0  0
   -0.2495    0.0264   -0.4526 C   0  0  0  0  0  0  0  0  0  0  0  0
   -0.7307    0.7418   -1.6286 N   0  0  0  0  0  0  0  0  0  0  0  0
   -2.0900   -2.1275    3.3407 C   0  0  0  0  0  0  0  0  0  0  0  0
   -1.2317   -1.7637    2.1065 C   0  0  0  0  0  0  0  0  0  0  0  0
   -2.0519   -0.8073    1.2801 C   0  0  0  0  0  0  0  0  0  0  0  0
   -3.1355   -1.6489    0.7213 C   0  0  0  0  0  0  0  0  0  0  0  0
   -4.0962   -2.0270    1.8393 C   0  0  0  0  0  0  0  0  0  0  0  0
   -3.3541   -2.8128    2.8682 C   0  0  0  0  0  0  0  0  0  0  0  0
   -3.0479   -4.0652    2.4087 F   0  0  0  0  0  0  0  0  0  0  0  0
    7.2661    0.9472    0.5407 O   0  0  0  0  0  0  0  0  0  0  0  0
    7.4638   -0.3381    2.4059 O   0  0  0  0  0  0  0  0  0  0  0  0
    3.9964    1.3871    1.1659 O   0  0  0  0  0  0  0  0  0  0  0  0
    6.6005    0.4276    1.6237 C   0  0  0  0  0  0  0  0  0  0  0  0
    5.4254   -0.4679    1.2065 C   0  0  0  0  0  0  0  0  0  0  0  0
    4.4589    0.3434    0.4029 C   0  0  1  0  0  0  0  0  0  0  0  0
    3.3905   -0.4569   -0.2877 C   0  0  0  0  0  0  0  0  0  0  0  0
    2.4316   -1.0751    0.6918 C   0  0  1  0  0  0  0  0  0  0  0  0
    1.3616   -1.8784   -0.0062 C   0  0  0  0  0  0  0  0  0  0  0  0
    0.4979   -1.1061   -0.9456 C   0  0  0  0  0  0  0  0  0  0  0  0
    0.0744    1.3328   -2.5161 C   0  0  0  0  0  0  0  0  0  0  0  0
   -0.1434    0.7321   -3.9191 C   0  0  0  0  0  0  0  0  0  0  0  0
   -0.0082    2.8487   -2.6932 C   0  0  0  0  0  0  0  0  0  0  0  0
    3.1716   -2.0213    1.4403 O   0  0  0  0  0  0  0  0  0  0  0  0
   -2.2334    1.2030   -0.1555 C   0  0  0  0  0  0  0  0  0  0  0  0
   -2.1197    0.7420   -1.5987 C   0  0  0  0  0  0  0  0  0  0  0  0
   -2.8494    1.5868   -2.5657 C   0  0  0  0  0  0  0  0  0  0  0  0
   -3.6877    2.5813   -1.7497 C   0  0  0  0  0  0  0  0  0  0  0  0
   -4.5044    1.7514   -0.7485 C   0  0  0  0  0  0  0  0  0  0  0  0
   -3.5216    1.4444    0.4017 C   0  0  0  0  0  0  0  0  0  0  0  0
   -1.2935    0.1596    0.5202 C   0  0  0  0  0  0  0  0  0  0  0  0
   -0.2495    0.0264   -0.4526 C   0  0  0  0  0  0  0  0  0  0  0  0
   -0.7307    0.7418   -1.6286 N   0  0  0  0  0  0  0  0  0  0  0  0
   -2.0900   -2.1275    3.3407 C   0  0  0  0  0  0  0  0  0  0  0  0
   -1.2317   -1.7637    2.1065 C   0  0  0  0  0  0  0  0  0  0  0  0
   -2.0519   -0.8073    1.2801 C   0  0  0  0  0  0  0  0  0  0  0  0
   -3.1355   -1.6489    0.7213 C   0  0  0  0  0  0  0  0  0  0  0  0
   -4.0962   -2.0270    1.8393 C   0  0  0  0  0  0  0  0  0  0  0  0
   -3.3541   -2.8128    2.8682 C   0  0  0  0  0  0  0  0  0  0  0  0
   -3.0479   -4.0652    2.4087 F   0  0  0  0  0  0  0  0  0  0  0  0
    7.2661    0.9472    0.5407 O   0  0  0  0  0  0  0  0  0  0  0  0
    7.4638   -0.3381    2.4059 O   0  0  0  0  0  0  0  0  0  0  0  0
    3.9964    1.3871    1.1659 O   0  0  0  0  0  0  0  0  0  0  0  0
    6.6005    0.4276    1.6237 C   0  0  0  0  0  0  0  0  0  0  0  0
    5.4254   -0.4679    1.2065 C   0  0  0  0  0  0  0  0  0  0  0  0
    4.4589    0.3434    0.4029 C   0  0  1  0  0  0  0  0  0  0  0  0
    3.3905   -0.4569   -0.2877 C   0  0  0  0  0  0  0  0  0  0  0  0
    2.4316   -1.0751    0.6918 C   0  0  1  0  0  0  0  0  0  0  0  0
    1.3616   -1.8784   -0.0062 C   0  0  0  0  0  0  0  0  0  0  0  0
    0.4979   -1.1061   -0.9456 C   0  0  0  0  0  0  0  0  0  0  0  0
    0.0744    1.3328   -2.5161 C   0  0  0  0  0  0  0  0  0  0  0  0
   -0.1434    0.7321   -3.9191 C   0  0  0  0  0  0  0  0  0  0  0  0
   -0.0082    2.8487   -2.6932 C   0  0  0  0  0  0  0  0  0  0  0  0
    3.1716   -2.0213    1.4403 O   0  0  0  0  0  0  0  0  0  0  0  0
   -1.6606    2.1882   -0.1770 H   0  0  0  0  0  0  0  0  0  0  0  0
   -2.4587   -0.3078   -1.7559 H   0  0  0  0  0  0  0  0  0  0  0  0
   -2.2702    2.0842   -3.3385 H   0  0  0  0  0  0  0  0  0  0  0  0
   -3.6356    0.9972   -3.1319 H   0  0  0  0  0  0  0  0  0  0  0  0
   -3.0669    3.3309   -1.2616 H   0  0  0  0  0  0  0  0  0  0  0  0
   -4.4438    3.0355   -2.4304 H   0  0  0  0  0  0  0  0  0  0  0  0
   -5.3079    2.4017   -0.3894 H   0  0  0  0  0  0  0  0  0  0  0  0
   -4.8376    0.8279   -1.2317 H   0  0  0  0  0  0  0  0  0  0  0  0
   -4.0430    0.7543    1.0435 H   0  0  0  0  0  0  0  0  0  0  0  0
   -3.5327    2.4265    0.9831 H   0  0  0  0  0  0  0  0  0  0  0  0
   -0.8467    0.8313    1.3519 H   0  0  0  0  0  0  0  0  0  0  0  0
    0.6418    0.7789   -0.1906 H   0  0  0  0  0  0  0  0  0  0  0  0
   -2.2472   -1.2038    3.8912 H   0  0  0  0  0  0  0  0  0  0  0  0
   -1.4949   -2.8812    3.8923 H   0  0  0  0  0  0  0  0  0  0  0  0
   -1.2110   -2.7575    1.5699 H   0  0  0  0  0  0  0  0  0  0  0  0
   -0.2735   -1.4009    2.4412 H   0  0  0  0  0  0  0  0  0  0  0  0
   -2.5942   -0.1834    2.0827 H   0  0  0  0  0  0  0  0  0  0  0  0
   -3.7188   -1.2912   -0.1087 H   0  0  0  0  0  0  0  0  0  0  0  0
   -2.7696   -2.6767    0.4041 H   0  0  0  0  0  0  0  0  0  0  0  0
   -4.6032   -1.1509    2.2672 H   0  0  0  0  0  0  0  0  0  0  0  0
   -4.8417   -2.7416    1.3792 H   0  0  0  0  0  0  0  0  0  0  0  0
   -4.0070   -2.9282    3.7582 H   0  0  0  0  0  0  0  0  0  0  0  0
    7.3953    0.2763   -0.1608 H   0  0  0  0  0  0  0  0  0  0  0  0
    8.0472    0.2801    2.9193 H   0  0  0  0  0  0  0  0  0  0  0  0
    3.6260    2.0746    0.5813 H   0  0  0  0  0  0  0  0  0  0  0  0
    6.1949    1.2227    2.2823 H   0  0  0  0  0  0  0  0  0  0  0  0
    4.9931   -0.7968    2.1977 H   0  0  0  0  0  0  0  0  0  0  0  0
    5.8646   -1.3083    0.6428 H   0  0  0  0  0  0  0  0  0  0  0  0
    5.0637    0.8126   -0.4256 H   0  0  0  0  0  0  0  0  0  0  0  0
    3.9090   -1.2527   -0.8651 H   0  0  0  0  0  0  0  0  0  0  0  0
    2.8448    0.2406   -0.9375 H   0  0  0  0  0  0  0  0  0  0  0  0
    2.0197   -0.3094    1.3663 H   0  0  0  0  0  0  0  0  0  0  0  0
    1.9925   -2.5498   -0.7405 H   0  0  0  0  0  0  0  0  0  0  0  0
    0.8977   -2.5427    0.6997 H   0  0  0  0  0  0  0  0  0  0  0  0
    1.2512   -0.7270   -1.7214 H   0  0  0  0  0  0  0  0  0  0  0  0
   -0.0850   -1.8037   -1.6198 H   0  0  0  0  0  0  0  0  0  0  0  0
    1.1485    1.1430   -2.3079 H   0  0  0  0  0  0  0  0  0  0  0  0
    0.6710    0.0677   -4.2193 H   0  0  0  0  0  0  0  0  0  0  0  0
   -0.2424    1.5113   -4.6802 H   0  0  0  0  0  0  0  0  0  0  0  0
   -1.0637    0.0888   -3.8960 H   0  0  0  0  0  0  0  0  0  0  0  0
   -0.1624    3.1288   -3.7645 H   0  0  0  0  0  0  0  0  0  0  0  0
   -0.7339    3.3280   -2.0164 H   0  0  0  0  0  0  0  0  0  0  0  0
    0.9721    3.3523   -2.4399 H   0  0  0  0  0  0  0  0  0  0  0  0
    2.8292   -2.0286    2.3599 H   0  0  0  0  0  0  0  0  0  0  0  0
   -1.6606    2.1882   -0.1770 H   0  0  0  0  0  0  0  0  0  0  0  0
   -2.4587   -0.3078   -1.7559 H   0  0  0  0  0  0  0  0  0  0  0  0
   -2.2702    2.0842   -3.3385 H   0  0  0  0  0  0  0  0  0  0  0  0
   -3.6356    0.9972   -3.1319 H   0  0  0  0  0  0  0  0  0  0  0  0
   -3.0669    3.3309   -1.2616 H   0  0  0  0  0  0  0  0  0  0  0  0
   -4.4438    3.0355   -2.4304 H   0  0  0  0  0  0  0  0  0  0  0  0
   -5.3079    2.4017   -0.3894 H   0  0  0  0  0  0  0  0  0  0  0  0
   -4.8376    0.8279   -1.2317 H   0  0  0  0  0  0  0  0  0  0  0  0
   -4.0430    0.7543    1.0435 H   0  0  0  0  0  0  0  0  0  0  0  0
   -3.5327    2.4265    0.9831 H   0  0  0  0  0  0  0  0  0  0  0  0
   -0.8467    0.8313    1.3519 H   0  0  0  0  0  0  0  0  0  0  0  0
    0.6418    0.7789   -0.1906 H   0  0  0  0  0  0  0  0  0  0  0  0
   -2.2472   -1.2038    3.8912 H   0  0  0  0  0  0  0  0  0  0  0  0
   -1.4949   -2.8812    3.8923 H   0  0  0  0  0  0  0  0  0  0  0  0
   -1.2110   -2.7575    1.5699 H   0  0  0  0  0  0  0  0  0  0  0  0
   -0.2735   -1.4009    2.4412 H   0  0  0  0  0  0  0  0  0  0  0  0
   -2.5942   -0.1834    2.0827 H   0  0  0  0  0  0  0  0  0  0  0  0
   -3.7188   -1.2912   -0.1087 H   0  0  0  0  0  0  0  0  0  0  0  0
   -2.7696   -2.6767    0.4041 H   0  0  0  0  0  0  0  0  0  0  0  0
   -4.6032   -1.1509    2.2672 H   0  0  0  0  0  0  0  0  0  0  0  0
   -4.8417   -2.7416    1.3792 H   0  0  0  0  0  0  0  0  0  0  0  0
   -4.0070   -2.9282    3.7582 H   0  0  0  0  0  0  0  0  0  0  0  0
    7.3953    0.2763   -0.1608 H   0  0  0  0  0  0  0  0  0  0  0  0
    8.0472    0.2801    2.9193 H   0  0  0  0  0  0  0  0  0  0  0  0
    3.6260    2.0746    0.5813 H   0  0  0  0  0  0  0  0  0  0  0  0
    6.1949    1.2227    2.2823 H   0  0  0  0  0  0  0  0  0  0  0  0
    4.9931   -0.7968    2.1977 H   0  0  0  0  0  0  0  0  0  0  0  0
    5.8646   -1.3083    0.6428 H   0  0  0  0  0  0  0  0  0  0  0  0
    5.0637    0.8126   -0.4256 H   0  0  0  0  0  0  0  0  0  0  0  0
    3.9090   -1.2527   -0.8651 H   0  0  0  0  0  0  0  0  0  0  0  0
    2.8448    0.2406   -0.9375 H   0  0  0  0  0  0  0  0  0  0  0  0
    2.0197   -0.3094    1.3663 H   0  0  0  0  0  0  0  0  0  0  0  0
    1.9925   -2.5498   -0.7405 H   0  0  0  0  0  0  0  0  0  0  0  0
    0.8977   -2.5427    0.6997 H   0  0  0  0  0  0  0  0  0  0  0  0
    1.2512   -0.7270   -1.7214 H   0  0  0  0  0  0  0  0  0  0  0  0
   -0.0850   -1.8037   -1.6198 H   0  0  0  0  0  0  0  0  0  0  0  0
    1.1485    1.1430   -2.3079 H   0  0  0  0  0  0  0  0  0  0  0  0
    0.6710    0.0677   -4.2193 H   0  0  0  0  0  0  0  0  0  0  0  0
   -0.2424    1.5113   -4.6802 H   0  0  0  0  0  0  0  0  0  0  0  0
   -1.0637    0.0888   -3.8960 H   0  0  0  0  0  0  0  0  0  0  0  0
   -0.1624    3.1288   -3.7645 H   0  0  0  0  0  0  0  0  0  0  0  0
   -0.7339    3.3280   -2.0164 H   0  0  0  0  0  0  0  0  0  0  0  0
    0.9721    3.3523   -2.4399 H   0  0  0  0  0  0  0  0  0  0  0  0
    2.8292   -2.0286    2.3599 H   0  0  0  0  0  0  0  0  0  0  0  0
   -1.6606    2.1882   -0.1770 H   0  0  0  0  0  0  0  0  0  0  0  0
   -2.4587   -0.3078   -1.7559 H   0  0  0  0  0  0  0  0  0  0  0  0
   -2.2702    2.0842   -3.3385 H   0  0  0  0  0  0  0  0  0  0  0  0
   -3.6356    0.9972   -3.1319 H   0  0  0  0  0  0  0  0  0  0  0  0
   -3.0669    3.3309   -1.2616 H   0  0  0  0  0  0  0  0  0  0  0  0
   -4.4438    3.0355   -2.4304 H   0  0  0  0  0  0  0  0  0  0  0  0
   -5.3079    2.4017   -0.3894 H   0  0  0  0  0  0  0  0  0  0  0  0
   -4.8376    0.8279   -1.2317 H   0  0  0  0  0  0  0  0  0  0  0  0
   -4.0430    0.7543    1.0435 H   0  0  0  0  0  0  0  0  0  0  0  0
   -3.5327    2.4265    0.9831 H   0  0  0  0  0  0  0  0  0  0  0  0
   -0.8467    0.8313    1.3519 H   0  0  0  0  0  0  0  0  0  0  0  0
    0.6418    0.7789   -0.1906 H   0  0  0  0  0  0  0  0  0  0  0  0
   -2.2472   -1.2038    3.8912 H   0  0  0  0  0  0  0  0  0  0  0  0
   -1.4949   -2.8812    3.8923 H   0  0  0  0  0  0  0  0  0  0  0  0
   -1.2110   -2.7575    1.5699 H   0  0  0  0  0  0  0  0  0  0  0  0
   -0.2735   -1.4009    2.4412 H   0  0  0  0  0  0  0  0  0  0  0  0
   -2.5942   -0.1834    2.0827 H   0  0  0  0  0  0  0  0  0  0  0  0
   -3.7188   -1.2912   -0.1087 H   0  0  0  0  0  0  0  0  0  0  0  0
   -2.7696   -2.6767    0.4041 H   0  0  0  0  0  0  0  0  0  0  0  0
   -4.6032   -1.1509    2.2672 H   0  0  0  0  0  0  0  0  0  0  0  0
   -4.8417   -2.7416    1.3792 H   0  0  0  0  0  0  0  0  0  0  0  0
   -4.0070   -2.9282    3.7582 H   0  0  0  0  0  0  0  0  0  0  0  0
    7.3953    0.2763   -0.1608 H   0  0  0  0  0  0  0  0  0  0  0  0
    8.0472    0.2801    2.9193 H   0  0  0  0  0  0  0  0  0  0  0  0
    3.6260    2.0746    0.5813 H   0  0  0  0  0  0  0  0  0  0  0  0
    6.1949    1.2227    2.2823 H   0  0  0  0  0  0  0  0  0  0  0  0
    4.9931   -0.7968    2.1977 H   0  0  0  0  0  0  0  0  0  0  0  0
    5.8646   -1.3083    0.6428 H   0  0  0  0  0  0  0  0  0  0  0  0
    5.0637    0.8126   -0.4256 H   0  0  0  0  0  0  0  0  0  0  0  0
    3.9090   -1.2527   -0.8651 H   0  0  0  0  0  0  0  0  0  0  0  0
    2.8448    0.2406   -0.9375 H   0  0  0  0  0  0  0  0  0  0  0  0
    2.0197   -0.3094    1.3663 H   0  0  0  0  0  0  0  0  0  0  0  0
    1.9925   -2.5498   -0.7405 H   0  0  0  0  0  0  0  0  0  0  0  0
    0.8977   -2.5427    0.6997 H   0  0  0  0  0  0  0  0  0  0  0  0
    1.2512   -0.7270   -1.7214 H   0  0  0  0  0  0  0  0  0  0  0  0
   -0.0850   -1.8037   -1.6198 H   0  0  0  0  0  0  0  0  0  0  0  0
    1.1485    1.1430   -2.3079 H   0  0  0  0  0  0  0  0  0  0  0  0
    0.6710    0.0677   -4.2193 H   0  0  0  0  0  0  0  0  0  0  0  0
   -0.2424    1.5113   -4.6802 H   0  0  0  0  0  0  0  0  0  0  0  0
   -1.0637    0.0888   -3.8960 H   0  0  0  0  0  0  0  0  0  0  0  0
   -0.1624    3.1288   -3.7645 H   0  0  0  0  0  0  0  0  0  0  0  0
   -0.7339    3.3280   -2.0164 H   0  0  0  0  0  0  0  0  0  0  0  0
    0.9721    3.3523   -2.4399 H   0  0  0  0  0  0  0  0  0  0  0  0
    2.8292   -2.0286    2.3599 H   0  0  0  0  0  0  0  0  0  0  0  0
   -1.6606    2.1882   -0.1770 H   0  0  0  0  0  0  0  0  0  0  0  0
   -2.4587   -0.3078   -1.7559 H   0  0  0  0  0  0  0  0  0  0  0  0
   -2.2702    2.0842   -3.3385 H   0  0  0  0  0  0  0  0  0  0  0  0
   -3.6356    0.9972   -3.1319 H   0  0  0  0  0  0  0  0  0  0  0  0
   -3.0669    3.3309   -1.2616 H   0  0  0  0  0  0  0  0  0  0  0  0
   -4.4438    3.0355   -2.4304 H   0  0  0  0  0  0  0  0  0  0  0  0
   -5.3079    2.4017   -0.3894 H   0  0  0  0  0  0  0  0  0  0  0  0
   -4.8376    0.8279   -1.2317 H   0  0  0  0  0  0  0  0  0  0  0  0
   -4.0430    0.7543    1.0435 H   0  0  0  0  0  0  0  0  0  0  0  0
   -3.5327    2.4265    0.9831 H   0  0  0  0  0  0  0  0  0  0  0  0
   -0.8467    0.8313    1.3519 H   0  0  0  0  0  0  0  0  0  0  0  0
    0.6418    0.7789   -0.1906 H   0  0  0  0  0  0  0  0  0  0  0  0
   -2.2472   -1.2038    3.8912 H   0  0  0  0  0  0  0  0  0  0  0  0
   -1.4949   -2.8812    3.8923 H   0  0  0  0  0  0  0  0  0  0  0  0
   -1.2110   -2.7575    1.5699 H   0  0  0  0  0  0  0  0  0  0  0  0
   -0.2735   -1.4009    2.4412 H   0  0  0  0  0  0  0  0  0  0  0  0
   -2.5942   -0.1834    2.0827 H   0  0  0  0  0  0  0  0  0  0  0  0
   -3.7188   -1.2912   -0.1087 H   0  0  0  0  0  0  0  0  0  0  0  0
   -2.7696   -2.6767    0.4041 H   0  0  0  0  0  0  0  0  0  0  0  0
   -4.6032   -1.1509    2.2672 H   0  0  0  0  0  0  0  0  0  0  0  0
   -4.8417   -2.7416    1.3792 H   0  0  0  0  0  0  0  0  0  0  0  0
   -4.0070   -2.9282    3.7582 H   0  0  0  0  0  0  0  0  0  0  0  0
    7.3953    0.2763   -0.1608 H   0  0  0  0  0  0  0  0  0  0  0  0
    8.0472    0.2801    2.9193 H   0  0  0  0  0  0  0  0  0  0  0  0
    3.6260    2.0746    0.5813 H   0  0  0  0  0  0  0  0  0  0  0  0
    6.1949    1.2227    2.2823 H   0  0  0  0  0  0  0  0  0  0  0  0
    4.9931   -0.7968    2.1977 H   0  0  0  0  0  0  0  0  0  0  0  0
    5.8646   -1.3083    0.6428 H   0  0  0  0  0  0  0  0  0  0  0  0
    5.0637    0.8126   -0.4256 H   0  0  0  0  0  0  0  0  0  0  0  0
    3.9090   -1.2527   -0.8651 H   0  0  0  0  0  0  0  0  0  0  0  0
    2.8448    0.2406   -0.9375 H   0  0  0  0  0  0  0  0  0  0  0  0
    2.0197   -0.3094    1.3663 H   0  0  0  0  0  0  0  0  0  0  0  0
    1.9925   -2.5498   -0.7405 H   0  0  0  0  0  0  0  0  0  0  0  0
    0.8977   -2.5427    0.6997 H   0  0  0  0  0  0  0  0  0  0  0  0
    1.2512   -0.7270   -1.7214 H   0  0  0  0  0  0  0  0  0  0  0  0
   -0.0850   -1.8037   -1.6198 H   0  0  0  0  0  0  0  0  0  0  0  0
    1.1485    1.1430   -2.3079 H   0  0  0  0  0  0  0  0  0  0  0  0
    0.6710    0.0677   -4.2193 H   0  0  0  0  0  0  0  0  0  0  0  0
   -0.2424    1.5113   -4.6802 H   0  0  0  0  0  0  0  0  0  0  0  0
   -1.0637    0.0888   -3.8960 H   0  0  0  0  0  0  0  0  0  0  0  0
   -0.1624    3.1288   -3.7645 H   0  0  0  0  0  0  0  0  0  0  0  0
   -0.7339    3.3280   -2.0164 H   0  0  0  0  0  0  0  0  0  0  0  0
    0.9721    3.3523   -2.4399 H   0  0  0  0  0  0  0  0  0  0  0  0
    2.8292   -2.0286    2.3599 H   0  0  0  0  0  0  0  0  0  0  0  0
  1  2  1  0
  2  3  1  0
  3  4  1  0
  4  5  1  0
  1  6  1  0
  5  6  1  0
  1  7  1  0
  7  8  1  0
  2  9  1  0
  8  9  1  0
 10 11  1  0
  7 12  1  0
 11 12  1  0
 12 13  1  0
 13 14  1  0
 10 15  1  0
 14 15  1  0
 15 16  1  0
 17 20  1  0
 18 20  1  0
 20 21  1  0
 19 22  1  0
 21 22  1  0
 22 23  1  0
 23 24  1  0
 24 25  1  0
  8 26  1  0
 25 26  1  0
  9 27  1  0
 27 28  1  0
 27 29  1  0
 24 30  1  0
 31 32  1  0
 32 33  1  0
 33 34  1  0
 34 35  1  0
 31 36  1  0
 35 36  1  0
 31 37  1  0
 37 38  1  0
 32 39  1  0
 38 39  1  0
 40 41  1  0
 37 42  1  0
 41 42  1  0
 42 43  1  0
 43 44  1  0
 40 45  1  0
 44 45  1  0
 45 46  1  0
 47 50  1  0
 48 50  1  0
 50 51  1  0
 49 52  1  0
 51 52  1  0
 52 53  1  0
 53 54  1  0
 54 55  1  0
 38 56  1  0
 55 56  1  0
 39 57  1  0
 57 58  1  0
 57 59  1  0
 54 60  1  0
 61 62  1  0
 62 63  1  0
 63 64  1  0
 64 65  1  0
 61 66  1  0
 65 66  1  0
 61 67  1  0
 67 68  1  0
 62 69  1  0
 68 69  1  0
 70 71  1  0
 67 72  1  0
 71 72  1  0
 72 73  1  0
 73 74  1  0
 70 75  1  0
 74 75  1  0
 75 76  1  0
 77 80  1  0
 78 80  1  0
 80 81  1  0
 79 82  1  0
 81 82  1  0
 82 83  1  0
 83 84  1  0
 84 85  1  0
 68 86  1  0
 85 86  1  0
 69 87  1  0
 87 88  1  0
 87 89  1  0
 84 90  1  0
 91 92  1  0
 92 93  1  0
 93 94  1  0
 94 95  1  0
 91 96  1  0
 95 96  1  0
 91 97  1  0
 97 98  1  0
 92 99  1  0
 98 99  1  0
100101  1  0
 97102  1  0
101102  1  0
102103  1  0
103104  1  0
100105  1  0
104105  1  0
105106  1  0
107110  1  0
108110  1  0
110111  1  0
109112  1  0
111112  1  0
112113  1  0
113114  1  0
114115  1  0
 98116  1  0
115116  1  0
 99117  1  0
117118  1  0
117119  1  0
114120  1  0
  1121  1  0
  2122  1  0
  3123  1  0
  3124  1  0
  4125  1  0
  4126  1  0
  5127  1  0
  5128  1  0
  6129  1  0
  6130  1  0
  7131  1  0
  8132  1  0
 10133  1  0
 10134  1  0
 11135  1  0
 11136  1  0
 12137  1  0
 13138  1  0
 13139  1  0
 14140  1  0
 14141  1  0
 15142  1  0
 17143  1  0
 18144  1  0
 19145  1  0
 20146  1  0
 21147  1  0
 21148  1  0
 22149  1  6
 23150  1  0
 23151  1  0
 24152  1  1
 25153  1  0
 25154  1  0
 26155  1  0
 26156  1  0
 27157  1  0
 28158  1  0
 28159  1  0
 28160  1  0
 29161  1  0
 29162  1  0
 29163  1  0
 30164  1  0
 31165  1  0
 32166  1  0
 33167  1  0
 33168  1  0
 34169  1  0
 34170  1  0
 35171  1  0
 35172  1  0
 36173  1  0
 36174  1  0
 37175  1  0
 38176  1  0
 40177  1  0
 40178  1  0
 41179  1  0
 41180  1  0
 42181  1  0
 43182  1  0
 43183  1  0
 44184  1  0
 44185  1  0
 45186  1  0
 47187  1  0
 48188  1  0
 49189  1  0
 50190  1  0
 51191  1  0
 51192  1  0
 52193  1  6
 53194  1  0
 53195  1  0
 54196  1  1
 55197  1  0
 55198  1  0
 56199  1  0
 56200  1  0
 57201  1  0
 58202  1  0
 58203  1  0
 58204  1  0
 59205  1  0
 59206  1  0
 59207  1  0
 60208  1  0
 61209  1  0
 62210  1  0
 63211  1  0
 63212  1  0
 64213  1  0
 64214  1  0
 65215  1  0
 65216  1  0
 66217  1  0
 66218  1  0
 67219  1  0
 68220  1  0
 70221  1  0
 70222  1  0
 71223  1  0
 71224  1  0
 72225  1  0
 73226  1  0
 73227  1  0
 74228  1  0
 74229  1  0
 75230  1  0
 77231  1  0
 78232  1  0
 79233  1  0
 80234  1  0
 81235  1  0
 81236  1  0
 82237  1  6
 83238  1  0
 83239  1  0
 84240  1  1
 85241  1  0
 85242  1  0
 86243  1  0
 86244  1  0
 87245  1  0
 88246  1  0
 88247  1  0
 88248  1  0
 89249  1  0
 89250  1  0
 89251  1  0
 90252  1  0
 91253  1  0
 92254  1  0
 93255  1  0
 93256  1  0
 94257  1  0
 94258  1  0
 95259  1  0
 95260  1  0
 96261  1  0
 96262  1  0
 97263  1  0
 98264  1  0
100265  1  0
100266  1  0
101267  1  0
101268  1  0
102269  1  0
103270  1  0
103271  1  0
104272  1  0
104273  1  0
105274  1  0
107275  1  0
108276  1  0
109277  1  0
110278  1  0
111279  1  0
111280  1  0
112281  1  6
113282  1  0
113283  1  0
114284  1  1
115285  1  0
115286  1  0
116287  1  0
116288  1  0
117289  1  0
118290  1  0
118291  1  0
118292  1  0
119293  1  0
119294  1  0
119295  1  0
120296  1  0
M  END
>  <PDBID>  (1) 
1HWI

>  <PDB ID>  (1) 
1HWI

>  <Generic Name>  (1) 
Fluvastatin

>  <Brand Name>  (1) 
Fluvastatin#Fluvastatin Sodium#Fluvastatin Sodium ER#Lescol#Lescol 20mg#Lescol 40mg#Lescol XL#Sandoz Fluvastatin#Teva-fluvastatin#Canef#Cranoc

>  <DrugBank ID>  (1) 
DB01095

>  <ATC Codes>  (1) 
C10AA04

>  <Ligand ID>  (1) 
115

>  <Target Name>  (1) 
3-hydroxy-3-methylglutaryl-coenzyme A reductase

>  <UniProt ID>  (1) 
P04035

>  <PDB ID.1>  (1) 
1HWI

>  <Seq. Identity>  (1) 
97%

$$$$
