PDB_DB00176_07
     RDKit          3D

 51 51  0  0  0  0  0  0  0  0999 V2000
    5.3431   -0.1624   -1.8933 C   0  0  0  0  0  0  0  0  0  0  0  0
    4.4228   -1.0817   -1.4206 O   0  0  0  0  0  0  0  0  0  0  0  0
    4.5259   -1.1074   -0.0292 C   0  0  0  0  0  0  0  0  0  0  0  0
    3.5537   -2.0850    0.5434 C   0  0  0  0  0  0  0  0  0  0  0  0
    2.0853   -1.7431    0.1660 C   0  0  0  0  0  0  0  0  0  0  0  0
    1.7408   -0.4084    0.6893 C   0  0  0  0  0  0  0  0  0  0  0  0
    0.3864    0.1662    0.4911 C   0  0  0  0  0  0  0  0  0  0  0  0
    0.4112    1.4718    1.1165 N   0  0  0  0  0  0  0  0  0  0  0  0
   -0.5817    2.2853    0.8452 O   0  0  0  0  0  0  0  0  0  0  0  0
   -0.2232    3.6172    0.7208 C   0  0  0  0  0  0  0  0  0  0  0  0
   -1.4847    4.4321    0.4061 C   0  0  0  0  0  0  0  0  0  0  0  0
   -2.0971    3.9989   -0.8116 N   0  0  0  0  0  0  0  0  0  0  0  0
   -0.7846   -0.6958    0.8776 C   0  0  0  0  0  0  0  0  0  0  0  0
   -2.0445    0.1382    0.6961 C   0  0  0  0  0  0  0  0  0  0  0  0
   -3.3206   -0.6363    0.9200 C   0  0  0  0  0  0  0  0  0  0  0  0
   -3.3889   -1.9202    0.1763 C   0  0  0  0  0  0  0  0  0  0  0  0
   -2.2424   -1.9086   -0.8074 C   0  0  0  0  0  0  0  0  0  0  0  0
   -0.8981   -1.8593   -0.0997 C   0  0  0  0  0  0  0  0  0  0  0  0
   -4.6677   -1.9562   -0.6339 C   0  0  0  0  0  0  0  0  0  0  0  0
   -4.6193   -0.8758   -1.5091 F   0  0  0  0  0  0  0  0  0  0  0  0
   -5.7877   -1.9173    0.1587 F   0  0  0  0  0  0  0  0  0  0  0  0
   -4.7022   -3.0944   -1.4445 F   0  0  0  0  0  0  0  0  0  0  0  0
    6.3767   -0.4231   -1.6157 H   0  0  0  0  0  0  0  0  0  0  0  0
    5.0773    0.8712   -1.5632 H   0  0  0  0  0  0  0  0  0  0  0  0
    5.2578   -0.1525   -3.0059 H   0  0  0  0  0  0  0  0  0  0  0  0
    4.4331   -0.0949    0.3805 H   0  0  0  0  0  0  0  0  0  0  0  0
    5.5782   -1.4984    0.1661 H   0  0  0  0  0  0  0  0  0  0  0  0
    3.7499   -3.1239    0.2203 H   0  0  0  0  0  0  0  0  0  0  0  0
    3.6293   -2.0557    1.6564 H   0  0  0  0  0  0  0  0  0  0  0  0
    2.1002   -1.7919   -0.9644 H   0  0  0  0  0  0  0  0  0  0  0  0
    1.4615   -2.5908    0.5033 H   0  0  0  0  0  0  0  0  0  0  0  0
    2.5156    0.3087    0.2296 H   0  0  0  0  0  0  0  0  0  0  0  0
    2.0316   -0.3071    1.7945 H   0  0  0  0  0  0  0  0  0  0  0  0
    0.2768    0.2876   -0.6416 H   0  0  0  0  0  0  0  0  0  0  0  0
    1.3214    1.9043    0.8445 H   0  0  0  0  0  0  0  0  0  0  0  0
    0.3165    4.0283    1.5749 H   0  0  0  0  0  0  0  0  0  0  0  0
    0.4165    3.6890   -0.1955 H   0  0  0  0  0  0  0  0  0  0  0  0
   -2.2392    4.2945    1.2231 H   0  0  0  0  0  0  0  0  0  0  0  0
   -1.1546    5.4998    0.3303 H   0  0  0  0  0  0  0  0  0  0  0  0
   -2.6054    4.7340   -1.3231 H   0  0  0  0  0  0  0  0  0  0  0  0
   -2.7561    3.2230   -0.6155 H   0  0  0  0  0  0  0  0  0  0  0  0
   -0.7171   -1.0933    1.9105 H   0  0  0  0  0  0  0  0  0  0  0  0
   -1.9710    0.6645   -0.2527 H   0  0  0  0  0  0  0  0  0  0  0  0
   -2.0669    0.9013    1.5387 H   0  0  0  0  0  0  0  0  0  0  0  0
   -4.1457    0.0458    0.5851 H   0  0  0  0  0  0  0  0  0  0  0  0
   -3.5019   -0.8332    1.9953 H   0  0  0  0  0  0  0  0  0  0  0  0
   -3.3309   -2.7652    0.8842 H   0  0  0  0  0  0  0  0  0  0  0  0
   -2.3821   -1.0351   -1.4727 H   0  0  0  0  0  0  0  0  0  0  0  0
   -2.3297   -2.8157   -1.4324 H   0  0  0  0  0  0  0  0  0  0  0  0
   -0.1530   -1.7025   -0.8933 H   0  0  0  0  0  0  0  0  0  0  0  0
   -0.8154   -2.8267    0.4164 H   0  0  0  0  0  0  0  0  0  0  0  0
  1  2  1  0
  2  3  1  0
  3  4  1  0
  4  5  1  0
  5  6  1  0
  6  7  1  0
  7  8  1  0
  8  9  1  0
  9 10  1  0
 10 11  1  0
 11 12  1  0
  7 13  1  0
 13 14  1  0
 14 15  1  0
 15 16  1  0
 16 17  1  0
 13 18  1  0
 17 18  1  0
 16 19  1  0
 19 20  1  0
 19 21  1  0
 19 22  1  0
  1 23  1  0
  1 24  1  0
  1 25  1  0
  3 26  1  0
  3 27  1  0
  4 28  1  0
  4 29  1  0
  5 30  1  0
  5 31  1  0
  6 32  1  0
  6 33  1  0
  7 34  1  0
  8 35  1  0
 10 36  1  0
 10 37  1  0
 11 38  1  0
 11 39  1  0
 12 40  1  0
 12 41  1  0
 13 42  1  0
 14 43  1  0
 14 44  1  0
 15 45  1  0
 15 46  1  0
 16 47  1  0
 17 48  1  0
 17 49  1  0
 18 50  1  0
 18 51  1  0
M  END
>  <PDBID>  (1) 
6AWP

>  <PDB ID>  (1) 
6AWP

>  <Generic Name>  (1) 
Fluvoxamine

>  <Brand Name>  (1) 
Act Fluvoxamine#Apo-fluvoxamine Tablets#Ava-fluvoxamine#Bci Fluvoxamine Tablets#Dom-fluvoxamine#Fluvoxamine Maleate#Fluvoxamine Maleate Extended-release#Fluvoxamine Tablets#Fluvoxamine-100#Fluvoxamine-50#Gen-fluvoxamine 100mg#Gen-fluvoxamine 50mg#Luvox#Luvox CR#Novo-fluvoxamine#Nu-fluvoxamine 100 Mg Tab#Nu-fluvoxamine 50 Mg Tab#PHL-fluvoxamine#PMS-fluvoxamine#Ratio-fluvoxamine#Riva-fluvox#Riva-fluvox 100mg Tablets#Riva-fluvox 50mg Tablets#Sandoz Fluvoxamine#Dumirox#Faverin#Fevarin#Floxyfral#Maveral

>  <DrugBank ID>  (1) 
DB00176

>  <ATC Codes>  (1) 
N06AB08

>  <Ligand ID>  (1) 
FVX

>  <Target Name>  (1) 
Sodium-dependent serotonin transporter

>  <UniProt ID>  (1) 
P31645

>  <PDB ID.1>  (1) 
6AWP

>  <Seq. Identity>  (1) 
99%

$$$$
