PDB_DB00182_06
     RDKit          3D

 29 29  0  0  0  0  0  0  0  0999 V2000
    3.4261   -0.5407   -0.8015 N   0  0  0  0  0  0  0  0  0  0  0  0
    2.1918   -0.5278   -0.0056 C   0  0  1  0  0  0  0  0  0  0  0  0
    2.5345    0.2587    1.2590 C   0  0  0  0  0  0  0  0  0  0  0  0
    1.1693    0.2193   -0.8086 C   0  0  0  0  0  0  0  0  0  0  0  0
   -0.1630    0.3185   -0.1187 C   0  0  0  0  0  0  0  0  0  0  0  0
   -1.1058    1.0789   -1.0011 C   0  0  0  0  0  0  0  0  0  0  0  0
   -0.7738   -1.0393    0.1481 C   0  0  0  0  0  0  0  0  0  0  0  0
   -2.5372    0.7582   -0.8158 C   0  0  0  0  0  0  0  0  0  0  0  0
   -1.9484   -0.7746    1.0865 C   0  0  0  0  0  0  0  0  0  0  0  0
   -2.9217    0.1776    0.4920 C   0  0  0  0  0  0  0  0  0  0  0  0
    4.2561   -0.5152   -0.1873 H   0  0  0  0  0  0  0  0  0  0  0  0
    3.4275   -1.3173   -1.4805 H   0  0  0  0  0  0  0  0  0  0  0  0
    1.9202   -1.5504    0.2518 H   0  0  0  0  0  0  0  0  0  0  0  0
    3.3855   -0.2209    1.7839 H   0  0  0  0  0  0  0  0  0  0  0  0
    1.6349    0.3306    1.9018 H   0  0  0  0  0  0  0  0  0  0  0  0
    2.8894    1.2611    0.9158 H   0  0  0  0  0  0  0  0  0  0  0  0
    1.5449    1.2548   -0.9425 H   0  0  0  0  0  0  0  0  0  0  0  0
    1.0758   -0.2155   -1.8139 H   0  0  0  0  0  0  0  0  0  0  0  0
   -0.0396    0.8421    0.8498 H   0  0  0  0  0  0  0  0  0  0  0  0
   -0.8238    0.8287   -2.0652 H   0  0  0  0  0  0  0  0  0  0  0  0
   -0.8626    2.1605   -0.8920 H   0  0  0  0  0  0  0  0  0  0  0  0
   -0.0795   -1.7543    0.5993 H   0  0  0  0  0  0  0  0  0  0  0  0
   -1.1842   -1.4233   -0.7948 H   0  0  0  0  0  0  0  0  0  0  0  0
   -3.1196    1.7193   -0.9424 H   0  0  0  0  0  0  0  0  0  0  0  0
   -2.9262    0.1048   -1.6510 H   0  0  0  0  0  0  0  0  0  0  0  0
   -1.4886   -0.2946    1.9944 H   0  0  0  0  0  0  0  0  0  0  0  0
   -2.3922   -1.7185    1.4497 H   0  0  0  0  0  0  0  0  0  0  0  0
   -3.2015    0.9679    1.2495 H   0  0  0  0  0  0  0  0  0  0  0  0
   -3.8881   -0.3885    0.3390 H   0  0  0  0  0  0  0  0  0  0  0  0
  1  2  1  0
  2  3  1  0
  2  4  1  0
  4  5  1  0
  5  6  1  0
  5  7  1  0
  6  8  1  0
  7  9  1  0
  8 10  1  0
  9 10  1  0
  1 11  1  0
  1 12  1  0
  2 13  1  1
  3 14  1  0
  3 15  1  0
  3 16  1  0
  4 17  1  0
  4 18  1  0
  5 19  1  0
  6 20  1  0
  6 21  1  0
  7 22  1  0
  7 23  1  0
  8 24  1  0
  8 25  1  0
  9 26  1  0
  9 27  1  0
 10 28  1  0
 10 29  1  0
M  END
>  <PDBID>  (1) 
4XP9

>  <PDB ID>  (1) 
4XP9

>  <Generic Name>  (1) 
Amphetamine

>  <Brand Name>  (1) 
Act Amphetamine XR#Adderall#Adderall XR#Adzenys XR-odt#Apo-amphetamine XR#Dextroamphetamine Saccharate and Amphetamine Aspartate and Dextroamphetamine Sulfate and Amphetamine Sulfate#Dextroamphetamine Saccharate, Amphetamine Aspartate (monohydrate), Dextroamphetamine Sulfate, Amphetamine Sulfate#Dextroamphetamine Saccharate, Amphetamine Aspartate Monohydrate, Dextroamphetamine Sulfate and Amphetamine Sulfate#Dextroamphetamine Saccharate, Amphetamine Aspartate Monohydrate, Dextroamphetamine Sulfate, Amphetamine Sulfate#Dextroamphetamine Saccharate, Amphetamine Aspartate, Dextroamphetamine Sulfate and Amphetamine Suflate#Dextroamphetamine Saccharate, Amphetamine Aspartate, Dextroamphetamine Sulfate and Amphetamine Sulfate#Dextroamphetamine Saccharate, Amphetamine Aspartate, Dextroamphetamine Sulfate, and Amphetamine Sulfate#Dyanavel XR#Evekeo#PMS-amphetamines XR#Sandoz Amphetamine XR

>  <DrugBank ID>  (1) 
DB00182

>  <ATC Codes>  (1) 
N06BA01

>  <Ligand ID>  (1) 
1WE,FRD

>  <Target Name>  (1) 
Sodium-dependent dopamine transporter

>  <UniProt ID>  (1) 
Q01959

>  <PDB ID.1>  (1) 
4XP9

>  <Seq. Identity>  (1) 
52%

$$$$
