PDB_DB00136_09
     RDKit          3D

 80 82  0  0  0  0  0  0  0  0999 V2000
   -6.4371    3.0407   -1.5183 O   0  0  0  0  0  0  0  0  0  0  0  0
    7.9385    0.7432    0.6235 O   0  0  0  0  0  0  0  0  0  0  0  0
   -6.9294   -0.6107   -1.2275 C   0  0  1  0  0  0  0  0  0  0  0  0
   -6.8241    0.7204   -1.9184 C   0  0  0  0  0  0  0  0  0  0  0  0
   -6.6948    1.8026   -0.8938 C   0  0  1  0  0  0  0  0  0  0  0  0
   -5.5989    1.5070    0.1094 C   0  0  0  0  0  0  0  0  0  0  0  0
   -4.7978    0.3179   -0.4063 C   0  0  1  0  0  0  0  0  0  0  0  0
   -3.5743    0.1212    0.4803 C   0  0  0  0  0  0  0  0  0  0  0  0
   -2.7578   -1.0282    0.0019 C   0  0  0  0  0  0  0  0  0  0  0  0
   -1.5307   -1.3605    0.7451 C   0  0  0  0  0  0  0  0  0  0  0  0
   -0.9380   -2.6330    0.0766 C   0  0  0  0  0  0  0  0  0  0  0  0
   -5.6464   -0.9119   -0.4586 C   0  0  1  0  0  0  0  0  0  0  0  0
   -0.0432   -2.2690   -1.0422 C   0  0  0  0  0  0  0  0  0  0  0  0
    1.1685   -1.4646   -0.5541 C   0  0  0  0  0  0  0  0  0  0  0  0
    0.7228   -0.2433    0.1070 C   0  0  1  0  0  0  0  0  0  0  0  0
   -0.4634   -0.4625    1.0271 C   0  0  1  0  0  0  0  0  0  0  0  0
   -0.7022    0.9768    1.3914 C   0  0  0  0  0  0  0  0  0  0  0  0
    0.7365    1.3661    1.8259 C   0  0  0  0  0  0  0  0  0  0  0  0
    1.6272    0.3674    1.1353 C   0  0  2  0  0  0  0  0  0  0  0  0
    0.3995    0.8455   -0.9222 C   0  0  0  0  0  0  0  0  0  0  0  0
   -6.0418   -1.4272    0.8978 C   0  0  0  0  0  0  0  0  0  0  0  0
    2.9556    0.8541    0.7885 C   0  0  1  0  0  0  0  0  0  0  0  0
    3.6454    1.4870    2.0357 C   0  0  0  0  0  0  0  0  0  0  0  0
    3.8930   -0.2890    0.4593 C   0  0  0  0  0  0  0  0  0  0  0  0
    5.2456    0.3619    0.1330 C   0  0  0  0  0  0  0  0  0  0  0  0
    6.2654   -0.7009   -0.2175 C   0  0  0  0  0  0  0  0  0  0  0  0
    7.5631    0.0263   -0.5235 C   0  0  0  0  0  0  0  0  0  0  0  0
    8.6661   -0.9156   -0.8950 C   0  0  0  0  0  0  0  0  0  0  0  0
    7.3740    1.0317   -1.6384 C   0  0  0  0  0  0  0  0  0  0  0  0
   -8.0433   -0.6042   -0.4037 O   0  0  0  0  0  0  0  0  0  0  0  0
   -5.6314    3.4688   -1.1333 H   0  0  0  0  0  0  0  0  0  0  0  0
    7.5299    1.6364    0.5609 H   0  0  0  0  0  0  0  0  0  0  0  0
   -7.0976   -1.3834   -2.0000 H   0  0  0  0  0  0  0  0  0  0  0  0
   -6.0336    0.7375   -2.6967 H   0  0  0  0  0  0  0  0  0  0  0  0
   -7.7809    0.8906   -2.4668 H   0  0  0  0  0  0  0  0  0  0  0  0
   -7.6619    1.9228   -0.3722 H   0  0  0  0  0  0  0  0  0  0  0  0
   -5.9988    1.3311    1.1211 H   0  0  0  0  0  0  0  0  0  0  0  0
   -4.9024    2.3678    0.1507 H   0  0  0  0  0  0  0  0  0  0  0  0
   -4.4547    0.5713   -1.4195 H   0  0  0  0  0  0  0  0  0  0  0  0
   -3.9977   -0.2171    1.4879 H   0  0  0  0  0  0  0  0  0  0  0  0
   -3.0813    1.0549    0.6948 H   0  0  0  0  0  0  0  0  0  0  0  0
   -2.6092   -0.9987   -1.1129 H   0  0  0  0  0  0  0  0  0  0  0  0
   -3.4396   -1.9394    0.1113 H   0  0  0  0  0  0  0  0  0  0  0  0
   -1.9017   -1.8106    1.7293 H   0  0  0  0  0  0  0  0  0  0  0  0
   -1.7898   -3.2093   -0.2827 H   0  0  0  0  0  0  0  0  0  0  0  0
   -0.3827   -3.2071    0.8339 H   0  0  0  0  0  0  0  0  0  0  0  0
   -5.0870   -1.7060   -0.9902 H   0  0  0  0  0  0  0  0  0  0  0  0
   -0.5606   -1.7582   -1.8716 H   0  0  0  0  0  0  0  0  0  0  0  0
    0.3810   -3.2049   -1.4618 H   0  0  0  0  0  0  0  0  0  0  0  0
    1.6946   -2.1389    0.1388 H   0  0  0  0  0  0  0  0  0  0  0  0
    1.7374   -1.2713   -1.5122 H   0  0  0  0  0  0  0  0  0  0  0  0
    0.0582   -0.8655    1.9857 H   0  0  0  0  0  0  0  0  0  0  0  0
   -1.3268    1.0540    2.2696 H   0  0  0  0  0  0  0  0  0  0  0  0
   -0.9995    1.6322    0.5638 H   0  0  0  0  0  0  0  0  0  0  0  0
    0.8982    2.3986    1.4991 H   0  0  0  0  0  0  0  0  0  0  0  0
    0.8411    1.3342    2.9118 H   0  0  0  0  0  0  0  0  0  0  0  0
    1.7389   -0.4710    1.9173 H   0  0  0  0  0  0  0  0  0  0  0  0
    1.0353    0.6370   -1.8243 H   0  0  0  0  0  0  0  0  0  0  0  0
   -0.6334    0.8122   -1.2522 H   0  0  0  0  0  0  0  0  0  0  0  0
    0.6589    1.8429   -0.5805 H   0  0  0  0  0  0  0  0  0  0  0  0
   -5.9783   -0.6294    1.6845 H   0  0  0  0  0  0  0  0  0  0  0  0
   -5.4986   -2.3114    1.2392 H   0  0  0  0  0  0  0  0  0  0  0  0
   -7.1342   -1.7095    0.8938 H   0  0  0  0  0  0  0  0  0  0  0  0
    3.0265    1.5727   -0.0377 H   0  0  0  0  0  0  0  0  0  0  0  0
    4.2263    0.7259    2.5836 H   0  0  0  0  0  0  0  0  0  0  0  0
    4.2853    2.3201    1.7614 H   0  0  0  0  0  0  0  0  0  0  0  0
    2.8716    1.8669    2.7289 H   0  0  0  0  0  0  0  0  0  0  0  0
    3.6162   -0.8667   -0.4039 H   0  0  0  0  0  0  0  0  0  0  0  0
    4.0451   -0.9108    1.3875 H   0  0  0  0  0  0  0  0  0  0  0  0
    5.0755    0.9668   -0.7793 H   0  0  0  0  0  0  0  0  0  0  0  0
    5.5682    0.9449    1.0051 H   0  0  0  0  0  0  0  0  0  0  0  0
    5.9724   -1.2170   -1.1547 H   0  0  0  0  0  0  0  0  0  0  0  0
    6.4397   -1.4212    0.5853 H   0  0  0  0  0  0  0  0  0  0  0  0
    8.3007   -1.9196   -1.1994 H   0  0  0  0  0  0  0  0  0  0  0  0
    9.3894   -1.0124   -0.0373 H   0  0  0  0  0  0  0  0  0  0  0  0
    9.2875   -0.5230   -1.7393 H   0  0  0  0  0  0  0  0  0  0  0  0
    8.3802    1.2667   -2.0754 H   0  0  0  0  0  0  0  0  0  0  0  0
    7.0021    2.0129   -1.2448 H   0  0  0  0  0  0  0  0  0  0  0  0
    6.7585    0.6447   -2.4595 H   0  0  0  0  0  0  0  0  0  0  0  0
   -8.0145    0.0393    0.3245 H   0  0  0  0  0  0  0  0  0  0  0  0
  3  4  1  0
  1  5  1  0
  4  5  1  0
  5  6  1  0
  6  7  1  0
  7  8  1  0
  8  9  1  0
  9 10  1  0
 10 11  1  0
  3 12  1  0
  7 12  1  0
 11 13  1  0
 13 14  1  0
 14 15  1  0
 10 16  1  0
 15 16  1  0
 16 17  1  0
 17 18  1  0
 15 19  1  0
 18 19  1  0
 15 20  1  6
 12 21  1  0
 19 22  1  0
 22 23  1  0
 22 24  1  0
 24 25  1  0
 25 26  1  0
 27  2  1  0
 26 27  1  0
 27 28  1  0
 27 29  1  0
  3 30  1  0
  1 31  1  0
  2 32  1  0
  3 33  1  6
  4 34  1  0
  4 35  1  0
  5 36  1  1
  6 37  1  0
  6 38  1  0
  7 39  1  6
  8 40  1  0
  8 41  1  0
  9 42  1  0
  9 43  1  0
 10 44  1  0
 11 45  1  0
 11 46  1  0
 12 47  1  6
 13 48  1  0
 13 49  1  0
 14 50  1  0
 14 51  1  0
 16 52  1  1
 17 53  1  0
 17 54  1  0
 18 55  1  0
 18 56  1  0
 19 57  1  1
 20 58  1  0
 20 59  1  0
 20 60  1  0
 21 61  1  0
 21 62  1  0
 21 63  1  0
 22 64  1  6
 23 65  1  0
 23 66  1  0
 23 67  1  0
 24 68  1  0
 24 69  1  0
 25 70  1  0
 25 71  1  0
 26 72  1  0
 26 73  1  0
 28 74  1  0
 28 75  1  0
 28 76  1  0
 29 77  1  0
 29 78  1  0
 29 79  1  0
 30 80  1  0
M  END
>  <PDBID>  (1) 
1IE9

>  <PDB ID>  (1) 
1IE9

>  <Generic Name>  (1) 
Calcitriol

>  <Brand Name>  (1) 
Calcijex#Calcitriol#Calcitriol Injection#Calcitriol Injection USP#Calcitriol-odan#Rocaltrol#Rocaltrol Cap 0.25mcg#Rocaltrol Cap 0.5mcg#Rocaltrol Oral Solution 1mcg/ml#Silkis#Vectical#Calcitriol Oral Solution#Decostriol

>  <DrugBank ID>  (1) 
DB00136

>  <ATC Codes>  (1) 
A11CC04#D05AX03

>  <Ligand ID>  (1) 
VDX

>  <Target Name>  (1) 
Vitamin D3 receptor

>  <UniProt ID>  (1) 
P11473

>  <PDB ID.1>  (1) 
1IE9

>  <Seq. Identity>  (1) 
84%

$$$$
