PDB_DB01127_00
     RDKit          3D

110114  0  0  0  0  0  0  0  0999 V2000
    2.6027    0.0881   -0.2633 C   0  0  0  0  0  0  0  0  0  0  0  0
    2.7678   -1.4341   -0.2483 C   0  0  0  0  0  0  0  0  0  0  0  0
   -1.5091    2.9337    1.5833 Cl  0  0  0  0  0  0  0  0  0  0  0  0
   -1.5029   -3.9658   -0.8411 C   0  0  0  0  0  0  0  0  0  0  0  0
   -1.0895   -2.5263   -1.0557 C   0  0  0  0  0  0  0  0  0  0  0  0
    3.7759    0.2667    1.8793 C   0  0  0  0  0  0  0  0  0  0  0  0
    2.4403    0.5002    1.1497 C   0  0  0  0  0  0  0  0  0  0  0  0
    4.2160   -1.1663    1.7115 C   0  0  0  0  0  0  0  0  0  0  0  0
    3.3073   -2.2442    2.8195 Cl  0  0  0  0  0  0  0  0  0  0  0  0
   -2.4544    1.9349    0.4533 C   0  0  0  0  0  0  0  0  0  0  0  0
   -3.4770    2.8552   -0.1885 C   0  0  0  0  0  0  0  0  0  0  0  0
   -2.8172    4.0088   -0.9033 C   0  0  0  0  0  0  0  0  0  0  0  0
   -1.9608    3.4337   -1.9796 C   0  0  0  0  0  0  0  0  0  0  0  0
   -1.9234    5.0234    0.2318 Cl  0  0  0  0  0  0  0  0  0  0  0  0
   -1.7569   -3.9303    0.6079 N   0  0  0  0  0  0  0  0  0  0  0  0
   -1.0644   -0.7732    0.6272 C   0  0  0  0  0  0  0  0  0  0  0  0
   -0.5293    0.4012   -0.1243 C   0  0  1  0  0  0  0  0  0  0  0  0
    0.3532    0.1493   -1.1172 O   0  0  0  0  0  0  0  0  0  0  0  0
   -1.6259    1.3467   -0.6104 C   0  0  0  0  0  0  0  0  0  0  0  0
   -1.7882   -1.7321   -0.1127 N   0  0  0  0  0  0  0  0  0  0  0  0
   -2.4860   -2.6855    0.7098 C   0  0  0  0  0  0  0  0  0  0  0  0
    1.5835    0.5592   -1.2350 C   0  0  0  0  0  0  0  0  0  0  0  0
    4.1473   -1.6905    0.3209 C   0  0  0  0  0  0  0  0  0  0  0  0
   -0.9953    2.4533   -1.4220 C   0  0  0  0  0  0  0  0  0  0  0  0
    2.6027    0.0881   -0.2633 C   0  0  0  0  0  0  0  0  0  0  0  0
    2.7678   -1.4341   -0.2483 C   0  0  0  0  0  0  0  0  0  0  0  0
   -1.5091    2.9337    1.5833 Cl  0  0  0  0  0  0  0  0  0  0  0  0
   -1.5029   -3.9658   -0.8411 C   0  0  0  0  0  0  0  0  0  0  0  0
   -1.0895   -2.5263   -1.0557 C   0  0  0  0  0  0  0  0  0  0  0  0
    3.7759    0.2667    1.8793 C   0  0  0  0  0  0  0  0  0  0  0  0
    2.4403    0.5002    1.1497 C   0  0  0  0  0  0  0  0  0  0  0  0
    4.2160   -1.1663    1.7115 C   0  0  0  0  0  0  0  0  0  0  0  0
    3.3073   -2.2442    2.8195 Cl  0  0  0  0  0  0  0  0  0  0  0  0
   -2.4544    1.9349    0.4533 C   0  0  0  0  0  0  0  0  0  0  0  0
   -3.4770    2.8552   -0.1885 C   0  0  0  0  0  0  0  0  0  0  0  0
   -2.8172    4.0088   -0.9033 C   0  0  0  0  0  0  0  0  0  0  0  0
   -1.9608    3.4337   -1.9796 C   0  0  0  0  0  0  0  0  0  0  0  0
   -1.9234    5.0234    0.2318 Cl  0  0  0  0  0  0  0  0  0  0  0  0
   -1.7569   -3.9303    0.6079 N   0  0  0  0  0  0  0  0  0  0  0  0
   -1.0644   -0.7732    0.6272 C   0  0  0  0  0  0  0  0  0  0  0  0
   -0.5293    0.4012   -0.1243 C   0  0  1  0  0  0  0  0  0  0  0  0
    0.3532    0.1493   -1.1172 O   0  0  0  0  0  0  0  0  0  0  0  0
   -1.6259    1.3467   -0.6104 C   0  0  0  0  0  0  0  0  0  0  0  0
   -1.7882   -1.7321   -0.1127 N   0  0  0  0  0  0  0  0  0  0  0  0
   -2.4860   -2.6855    0.7098 C   0  0  0  0  0  0  0  0  0  0  0  0
    1.5835    0.5592   -1.2350 C   0  0  0  0  0  0  0  0  0  0  0  0
    4.1473   -1.6905    0.3209 C   0  0  0  0  0  0  0  0  0  0  0  0
   -0.9953    2.4533   -1.4220 C   0  0  0  0  0  0  0  0  0  0  0  0
    3.6491    0.4494   -0.6135 H   0  0  0  0  0  0  0  0  0  0  0  0
    2.0092   -1.8934    0.4088 H   0  0  0  0  0  0  0  0  0  0  0  0
    2.6944   -1.8487   -1.2578 H   0  0  0  0  0  0  0  0  0  0  0  0
   -0.7287   -4.6771   -1.1235 H   0  0  0  0  0  0  0  0  0  0  0  0
   -2.4366   -4.1885   -1.3724 H   0  0  0  0  0  0  0  0  0  0  0  0
   -1.4147   -2.2289   -2.0775 H   0  0  0  0  0  0  0  0  0  0  0  0
    0.0205   -2.5035   -0.9413 H   0  0  0  0  0  0  0  0  0  0  0  0
    3.5689    0.4316    2.9489 H   0  0  0  0  0  0  0  0  0  0  0  0
    4.5162    0.9964    1.5448 H   0  0  0  0  0  0  0  0  0  0  0  0
    1.6715   -0.0777    1.6729 H   0  0  0  0  0  0  0  0  0  0  0  0
    2.2332    1.5759    1.2310 H   0  0  0  0  0  0  0  0  0  0  0  0
    5.2796   -1.2227    2.0432 H   0  0  0  0  0  0  0  0  0  0  0  0
   -3.0994    1.1979    1.0003 H   0  0  0  0  0  0  0  0  0  0  0  0
   -4.2518    3.1660    0.5282 H   0  0  0  0  0  0  0  0  0  0  0  0
   -4.0065    2.2345   -0.9671 H   0  0  0  0  0  0  0  0  0  0  0  0
   -3.6255    4.6018   -1.3752 H   0  0  0  0  0  0  0  0  0  0  0  0
   -2.5987    3.0224   -2.7858 H   0  0  0  0  0  0  0  0  0  0  0  0
   -1.3758    4.2607   -2.4329 H   0  0  0  0  0  0  0  0  0  0  0  0
   -2.3556   -4.7568    0.8288 H   0  0  0  0  0  0  0  0  0  0  0  0
   -1.6928   -0.4335    1.4770 H   0  0  0  0  0  0  0  0  0  0  0  0
   -0.2049   -1.3008    1.0831 H   0  0  0  0  0  0  0  0  0  0  0  0
    0.0029    1.0135    0.6207 H   0  0  0  0  0  0  0  0  0  0  0  0
   -2.2624    0.7631   -1.3034 H   0  0  0  0  0  0  0  0  0  0  0  0
   -2.4143   -2.3951    1.7988 H   0  0  0  0  0  0  0  0  0  0  0  0
   -3.5508   -2.7988    0.4163 H   0  0  0  0  0  0  0  0  0  0  0  0
    1.9831    0.1552   -2.2427 H   0  0  0  0  0  0  0  0  0  0  0  0
    1.7061    1.6784   -1.4245 H   0  0  0  0  0  0  0  0  0  0  0  0
    4.3331   -2.7697    0.3443 H   0  0  0  0  0  0  0  0  0  0  0  0
    4.8606   -1.1843   -0.3439 H   0  0  0  0  0  0  0  0  0  0  0  0
   -0.4983    1.9545   -2.2912 H   0  0  0  0  0  0  0  0  0  0  0  0
   -0.2250    2.9725   -0.8314 H   0  0  0  0  0  0  0  0  0  0  0  0
    3.6491    0.4494   -0.6135 H   0  0  0  0  0  0  0  0  0  0  0  0
    2.0092   -1.8934    0.4088 H   0  0  0  0  0  0  0  0  0  0  0  0
    2.6944   -1.8487   -1.2578 H   0  0  0  0  0  0  0  0  0  0  0  0
   -0.7287   -4.6771   -1.1235 H   0  0  0  0  0  0  0  0  0  0  0  0
   -2.4366   -4.1885   -1.3724 H   0  0  0  0  0  0  0  0  0  0  0  0
   -1.4147   -2.2289   -2.0775 H   0  0  0  0  0  0  0  0  0  0  0  0
    0.0205   -2.5035   -0.9413 H   0  0  0  0  0  0  0  0  0  0  0  0
    3.5689    0.4316    2.9489 H   0  0  0  0  0  0  0  0  0  0  0  0
    4.5162    0.9964    1.5448 H   0  0  0  0  0  0  0  0  0  0  0  0
    1.6715   -0.0777    1.6729 H   0  0  0  0  0  0  0  0  0  0  0  0
    2.2332    1.5759    1.2310 H   0  0  0  0  0  0  0  0  0  0  0  0
    5.2796   -1.2227    2.0432 H   0  0  0  0  0  0  0  0  0  0  0  0
   -3.0994    1.1979    1.0003 H   0  0  0  0  0  0  0  0  0  0  0  0
   -4.2518    3.1660    0.5282 H   0  0  0  0  0  0  0  0  0  0  0  0
   -4.0065    2.2345   -0.9671 H   0  0  0  0  0  0  0  0  0  0  0  0
   -3.6255    4.6018   -1.3752 H   0  0  0  0  0  0  0  0  0  0  0  0
   -2.5987    3.0224   -2.7858 H   0  0  0  0  0  0  0  0  0  0  0  0
   -1.3758    4.2607   -2.4329 H   0  0  0  0  0  0  0  0  0  0  0  0
   -2.3556   -4.7568    0.8288 H   0  0  0  0  0  0  0  0  0  0  0  0
   -1.6928   -0.4335    1.4770 H   0  0  0  0  0  0  0  0  0  0  0  0
   -0.2049   -1.3008    1.0831 H   0  0  0  0  0  0  0  0  0  0  0  0
    0.0029    1.0135    0.6207 H   0  0  0  0  0  0  0  0  0  0  0  0
   -2.2624    0.7631   -1.3034 H   0  0  0  0  0  0  0  0  0  0  0  0
   -2.4143   -2.3951    1.7988 H   0  0  0  0  0  0  0  0  0  0  0  0
   -3.5508   -2.7988    0.4163 H   0  0  0  0  0  0  0  0  0  0  0  0
    1.9831    0.1552   -2.2427 H   0  0  0  0  0  0  0  0  0  0  0  0
    1.7061    1.6784   -1.4245 H   0  0  0  0  0  0  0  0  0  0  0  0
    4.3331   -2.7697    0.3443 H   0  0  0  0  0  0  0  0  0  0  0  0
    4.8606   -1.1843   -0.3439 H   0  0  0  0  0  0  0  0  0  0  0  0
   -0.4983    1.9545   -2.2912 H   0  0  0  0  0  0  0  0  0  0  0  0
   -0.2250    2.9725   -0.8314 H   0  0  0  0  0  0  0  0  0  0  0  0
  1  2  1  0
  4  5  1  0
  1  7  1  0
  6  7  1  0
  6  8  1  0
  8  9  1  0
  3 10  1  0
 10 11  1  0
 11 12  1  0
 12 13  1  0
 12 14  1  0
  4 15  1  0
 16 17  1  0
 17 18  1  0
 10 19  1  0
 17 19  1  0
  5 20  1  0
 16 20  1  0
 20 21  1  0
 21 15  1  0
  1 22  1  0
 18 22  1  0
  2 23  1  0
  8 23  1  0
 13 24  1  0
 19 24  1  0
 25 26  1  0
 28 29  1  0
 25 31  1  0
 30 31  1  0
 30 32  1  0
 32 33  1  0
 27 34  1  0
 34 35  1  0
 35 36  1  0
 36 37  1  0
 36 38  1  0
 28 39  1  0
 40 41  1  0
 41 42  1  0
 34 43  1  0
 41 43  1  0
 29 44  1  0
 40 44  1  0
 44 45  1  0
 45 39  1  0
 25 46  1  0
 42 46  1  0
 26 47  1  0
 32 47  1  0
 37 48  1  0
 43 48  1  0
  1 49  1  0
  2 50  1  0
  2 51  1  0
  4 52  1  0
  4 53  1  0
  5 54  1  0
  5 55  1  0
  6 56  1  0
  6 57  1  0
  7 58  1  0
  7 59  1  0
  8 60  1  0
 10 61  1  0
 11 62  1  0
 11 63  1  0
 12 64  1  0
 13 65  1  0
 13 66  1  0
 15 67  1  0
 16 68  1  0
 16 69  1  0
 17 70  1  1
 19 71  1  0
 21 72  1  0
 21 73  1  0
 22 74  1  0
 22 75  1  0
 23 76  1  0
 23 77  1  0
 24 78  1  0
 24 79  1  0
 25 80  1  0
 26 81  1  0
 26 82  1  0
 28 83  1  0
 28 84  1  0
 29 85  1  0
 29 86  1  0
 30 87  1  0
 30 88  1  0
 31 89  1  0
 31 90  1  0
 32 91  1  0
 34 92  1  0
 35 93  1  0
 35 94  1  0
 36 95  1  0
 37 96  1  0
 37 97  1  0
 39 98  1  0
 40 99  1  0
 40100  1  0
 41101  1  1
 43102  1  0
 45103  1  0
 45104  1  0
 46105  1  0
 46106  1  0
 47107  1  0
 47108  1  0
 48109  1  0
 48110  1  0
M  END
>  <PDBID>  (1) 
3JUS

>  <PDB ID>  (1) 
3JUS

>  <Generic Name>  (1) 
Econazole

>  <Brand Name>  (1) 
Econazole Nitrate#Econazole Nitrate Cream#Econazole Nitrate Topical Foam, 1%#Ecostatin Cream 1%#Ecostatin Vaginal Ovule 150mg#Ecoza#Ecostatin#Gyno-Pevaryl#Ifenec#Palavale#Pevaryl#Spectazole

>  <DrugBank ID>  (1) 
DB01127

>  <ATC Codes>  (1) 
G01AF05#D01AC03

>  <Ligand ID>  (1) 
ECL,ECN

>  <Target Name>  (1) 
Lanosterol 14-alpha demethylase

>  <UniProt ID>  (1) 
P10613

>  <PDB ID.1>  (1) 
3JUS

>  <Seq. Identity>  (1) 
40%

$$$$
