PDB_DB04839_04
     RDKit          3D

 68 72  0  0  0  0  0  0  0  0999 V2000
    4.6126   -0.3211    1.2316 C   0  0  0  0  0  0  0  0  0  0  0  0
   -1.0434   -0.2950    0.9088 C   0  0  1  0  0  0  0  0  0  0  0  0
    3.1809    0.0459    1.3778 C   0  0  2  0  0  0  0  0  0  0  0  0
    2.4278   -0.8363    2.3409 C   0  0  0  0  0  0  0  0  0  0  0  0
    0.4663    0.7259   -1.2314 C   0  0  0  0  0  0  0  0  0  0  0  0
    0.9804   -0.4900    2.3285 C   0  0  0  0  0  0  0  0  0  0  0  0
    0.3922   -0.6181    0.9000 C   0  0  2  0  0  0  0  0  0  0  0  0
    1.0891    0.4198    0.0725 C   0  0  1  0  0  0  0  0  0  0  0  0
    2.5573    0.1091    0.0194 C   0  0  2  0  0  0  0  0  0  0  0  0
   -1.0473    0.7824   -1.2025 C   0  0  0  0  0  0  0  0  0  0  0  0
   -1.6103   -0.4070   -0.4886 C   0  0  1  0  0  0  0  0  0  0  0  0
    5.3570    0.6765    0.4280 C   0  0  0  0  0  0  0  0  0  0  0  0
    2.8098   -1.1407   -0.7908 C   0  0  0  0  0  0  0  0  0  0  0  0
    3.2058    1.2290   -0.7657 C   0  0  1  0  0  0  0  0  0  0  0  0
    3.6733    2.4776   -0.1990 C   0  0  0  0  0  0  0  0  0  0  0  0
    4.6428    1.3417   -0.6667 C   0  0  1  0  0  0  0  0  0  0  0  0
    6.4828    0.0189   -0.1234 O   0  0  0  0  0  0  0  0  0  0  0  0
    2.7601   -2.5506    2.1543 Cl  0  0  0  0  0  0  0  0  0  0  0  0
   -1.0396   -1.6213   -1.2125 C   0  0  0  0  0  0  0  0  0  0  0  0
   -1.9531   -1.2350    1.6302 C   0  0  0  0  0  0  0  0  0  0  0  0
   -3.2464   -0.5541    1.2315 C   0  0  0  0  0  0  0  0  0  0  0  0
   -3.0870   -0.4889   -0.3314 C   0  0  2  0  0  0  0  0  0  0  0  0
   -3.6130   -1.8720   -0.7515 C   0  0  0  0  0  0  0  0  0  0  0  0
   -5.0535   -2.0551   -0.3145 C   0  0  0  0  0  0  0  0  0  0  0  0
   -3.5808   -2.0538   -2.1250 O   0  0  0  0  0  0  0  0  0  0  0  0
   -3.7669    0.4956   -0.8437 O   0  0  0  0  0  0  0  0  0  0  0  0
   -3.9252    1.7584   -0.6166 C   0  0  0  0  0  0  0  0  0  0  0  0
   -3.6169    2.6411   -1.8115 C   0  0  0  0  0  0  0  0  0  0  0  0
   -5.2408    2.1067   -0.1452 O   0  0  0  0  0  0  0  0  0  0  0  0
    5.1197   -0.3661    2.2451 H   0  0  0  0  0  0  0  0  0  0  0  0
    4.7908   -1.3362    0.8145 H   0  0  0  0  0  0  0  0  0  0  0  0
   -1.1981    0.7124    1.2922 H   0  0  0  0  0  0  0  0  0  0  0  0
    3.1415    1.0702    1.8151 H   0  0  0  0  0  0  0  0  0  0  0  0
    2.8065   -0.5487    3.3676 H   0  0  0  0  0  0  0  0  0  0  0  0
    0.7792    1.7883   -1.4878 H   0  0  0  0  0  0  0  0  0  0  0  0
    0.7717    0.1559   -2.1089 H   0  0  0  0  0  0  0  0  0  0  0  0
    0.7369    0.4699    2.7782 H   0  0  0  0  0  0  0  0  0  0  0  0
    0.4342   -1.2828    2.9096 H   0  0  0  0  0  0  0  0  0  0  0  0
    0.7028   -1.6069    0.5823 H   0  0  0  0  0  0  0  0  0  0  0  0
    1.0316    1.3702    0.7117 H   0  0  0  0  0  0  0  0  0  0  0  0
   -1.2854    1.6937   -0.6103 H   0  0  0  0  0  0  0  0  0  0  0  0
   -1.3898    0.9215   -2.2211 H   0  0  0  0  0  0  0  0  0  0  0  0
    5.8089    1.4457    1.1156 H   0  0  0  0  0  0  0  0  0  0  0  0
    2.3504   -1.0827   -1.7995 H   0  0  0  0  0  0  0  0  0  0  0  0
    2.4736   -2.0640   -0.3278 H   0  0  0  0  0  0  0  0  0  0  0  0
    3.9134   -1.2653   -1.0021 H   0  0  0  0  0  0  0  0  0  0  0  0
    2.7773    1.2783   -1.8127 H   0  0  0  0  0  0  0  0  0  0  0  0
    3.7148    2.7608    0.8501 H   0  0  0  0  0  0  0  0  0  0  0  0
    3.6611    3.3901   -0.8666 H   0  0  0  0  0  0  0  0  0  0  0  0
    5.2341    1.6062   -1.5799 H   0  0  0  0  0  0  0  0  0  0  0  0
    7.2813    0.1237    0.4217 H   0  0  0  0  0  0  0  0  0  0  0  0
   -1.3841   -1.5628   -2.2571 H   0  0  0  0  0  0  0  0  0  0  0  0
    0.0547   -1.4624   -1.2755 H   0  0  0  0  0  0  0  0  0  0  0  0
   -1.1649   -2.5660   -0.6972 H   0  0  0  0  0  0  0  0  0  0  0  0
   -1.8551   -2.2595    1.2811 H   0  0  0  0  0  0  0  0  0  0  0  0
   -1.8343   -1.1324    2.7368 H   0  0  0  0  0  0  0  0  0  0  0  0
   -4.1509   -1.0732    1.5140 H   0  0  0  0  0  0  0  0  0  0  0  0
   -3.1576    0.4865    1.6264 H   0  0  0  0  0  0  0  0  0  0  0  0
   -3.0707   -2.6997   -0.2800 H   0  0  0  0  0  0  0  0  0  0  0  0
   -5.6304   -1.1386   -0.2936 H   0  0  0  0  0  0  0  0  0  0  0  0
   -5.5270   -2.7381   -1.0501 H   0  0  0  0  0  0  0  0  0  0  0  0
   -5.1030   -2.6377    0.6504 H   0  0  0  0  0  0  0  0  0  0  0  0
   -4.3411   -2.6423   -2.4030 H   0  0  0  0  0  0  0  0  0  0  0  0
   -3.3127    2.1320    0.2267 H   0  0  0  0  0  0  0  0  0  0  0  0
   -2.7764    3.3065   -1.5731 H   0  0  0  0  0  0  0  0  0  0  0  0
   -4.4901    3.3184   -2.0314 H   0  0  0  0  0  0  0  0  0  0  0  0
   -3.4593    2.0486   -2.7331 H   0  0  0  0  0  0  0  0  0  0  0  0
   -5.2674    3.0967   -0.2344 H   0  0  0  0  0  0  0  0  0  0  0  0
  1  3  1  0
  3  4  1  0
  4  6  1  0
  2  7  1  0
  6  7  1  0
  5  8  1  0
  7  8  1  0
  3  9  1  0
  8  9  1  0
  5 10  1  0
  2 11  1  0
 10 11  1  0
  1 12  1  0
  9 13  1  6
  9 14  1  0
 14 15  1  0
 12 16  1  0
 14 16  1  0
 15 16  1  0
 12 17  1  0
  4 18  1  0
 11 19  1  6
  2 20  1  0
 20 21  1  0
 11 22  1  0
 21 22  1  0
 22 23  1  0
 23 24  1  0
 23 25  1  0
 22 26  1  6
 26 27  1  0
 27 28  1  0
 27 29  1  0
  1 30  1  0
  1 31  1  0
  2 32  1  1
  3 33  1  1
  4 34  1  0
  5 35  1  0
  5 36  1  0
  6 37  1  0
  6 38  1  0
  7 39  1  6
  8 40  1  1
 10 41  1  0
 10 42  1  0
 12 43  1  0
 13 44  1  0
 13 45  1  0
 13 46  1  0
 14 47  1  6
 15 48  1  0
 15 49  1  0
 16 50  1  6
 17 51  1  0
 19 52  1  0
 19 53  1  0
 19 54  1  0
 20 55  1  0
 20 56  1  0
 21 57  1  0
 21 58  1  0
 23 59  1  0
 24 60  1  0
 24 61  1  0
 24 62  1  0
 25 63  1  0
 27 64  1  0
 28 65  1  0
 28 66  1  0
 28 67  1  0
 29 68  1  0
M  END
>  <PDBID>  (1) 
2OZ7

>  <PDB ID>  (1) 
2OZ7

>  <Generic Name>  (1) 
Cyproterone acetate

>  <Brand Name>  (1) 
Alti-cpa#Androcur#Androcur Depot#ClÃ©o -35#Cyestra-35#Cyproterone#Diane-35#Med-cyproterone#Mylan-cyproterone#Novo-cyproterone#Novo-cyproterone/ethinyl Estradiol#Ran-cyproterone/ethinyl Estradiol#Riva-cyproterone#Riva-cyproterone 50 mg#Cyprostat

>  <DrugBank ID>  (1) 
DB04839

>  <ATC Codes>  (1) 
G03HB01#G03HA01

>  <Ligand ID>  (1) 
CA4

>  <Target Name>  (1) 
Androgen receptor

>  <UniProt ID>  (1) 
P10275

>  <PDB ID.1>  (1) 
2OZ7

>  <Seq. Identity>  (1) 
100%

$$$$
