PDB_DB06605_02
     RDKit          3D

 81 85  0  0  0  0  0  0  0  0999 V2000
   -6.2590    1.8343   -0.5114 C   0  0  0  0  0  0  0  0  0  0  0  0
   -5.9679    0.5552   -1.2211 C   0  0  0  0  0  0  0  0  0  0  0  0
   -4.5587    0.4923   -1.8055 C   0  0  0  0  0  0  0  0  0  0  0  0
   -7.1516    1.6595    0.5708 O   0  0  0  0  0  0  0  0  0  0  0  0
   -3.1843   -1.6834   -0.9452 N   0  0  0  0  0  0  0  0  0  0  0  0
    1.6098    0.8734   -0.0500 C   0  0  0  0  0  0  0  0  0  0  0  0
   -0.6042    0.3031    0.6324 C   0  0  0  0  0  0  0  0  0  0  0  0
   -2.6792   -2.6524    0.0106 C   0  0  2  0  0  0  0  0  0  0  0  0
   -3.6726   -2.8321    1.1281 C   0  0  0  0  0  0  0  0  0  0  0  0
   -1.3844   -2.0200    0.4699 C   0  0  0  0  0  0  0  0  0  0  0  0
   -1.8107   -0.5609    0.5054 C   0  0  0  0  0  0  0  0  0  0  0  0
    3.7608    0.3567   -1.2932 C   0  0  0  0  0  0  0  0  0  0  0  0
   -8.2820    2.4154    0.3875 C   0  0  0  0  0  0  0  0  0  0  0  0
    4.5013    0.4461    0.0414 C   0  0  0  0  0  0  0  0  0  0  0  0
    6.5307    0.3891   -1.1277 C   0  0  0  0  0  0  0  0  0  0  0  0
    6.4034   -0.7409    0.9883 C   0  0  0  0  0  0  0  0  0  0  0  0
    7.4339    0.1884    1.5813 C   0  0  0  0  0  0  0  0  0  0  0  0
    2.3261    0.6722    1.2225 C   0  0  0  0  0  0  0  0  0  0  0  0
    0.8189   -1.3658   -0.3413 C   0  0  0  0  0  0  0  0  0  0  0  0
   -3.5006    0.6495   -0.7484 C   0  0  0  0  0  0  0  0  0  0  0  0
   -4.2048    1.0742    0.5159 C   0  0  0  0  0  0  0  0  0  0  0  0
   -4.9752    2.3407    0.1123 C   0  0  0  0  0  0  0  0  0  0  0  0
   -2.6186   -0.4468   -0.6329 N   0  0  0  0  0  0  0  0  0  0  0  0
    0.4462    0.0343   -0.2786 N   0  0  0  0  0  0  0  0  0  0  0  0
    2.4306    0.9899   -1.2898 C   0  0  0  0  0  0  0  0  0  0  0  0
    5.7231   -0.2450   -0.1427 N   0  0  0  0  0  0  0  0  0  0  0  0
    3.6314   -0.0664    1.1328 C   0  0  0  0  0  0  0  0  0  0  0  0
   -0.9074    1.6596    0.5638 O   0  0  0  0  0  0  0  0  0  0  0  0
    8.2969    0.7794    0.5083 C   0  0  0  0  0  0  0  0  0  0  0  0
    6.3337    1.7867   -1.0398 O   0  0  0  0  0  0  0  0  0  0  0  0
    8.0170    0.1685   -0.8429 C   0  0  0  0  0  0  0  0  0  0  0  0
   -3.2058   -3.7537    2.0664 O   0  0  0  0  0  0  0  0  0  0  0  0
   -4.9310   -3.3798    0.6350 N   0  0  0  0  0  0  0  0  0  0  0  0
   -0.4168   -2.1651   -0.6784 C   0  0  0  0  0  0  0  0  0  0  0  0
   -6.6815    2.5403   -1.2462 H   0  0  0  0  0  0  0  0  0  0  0  0
   -6.6475    0.4429   -2.1134 H   0  0  0  0  0  0  0  0  0  0  0  0
   -6.2023   -0.2730   -0.5592 H   0  0  0  0  0  0  0  0  0  0  0  0
   -4.5398    1.3361   -2.5560 H   0  0  0  0  0  0  0  0  0  0  0  0
   -4.4707   -0.4197   -2.4069 H   0  0  0  0  0  0  0  0  0  0  0  0
   -4.2224   -1.7122   -0.8625 H   0  0  0  0  0  0  0  0  0  0  0  0
    1.1555    1.9202    0.0538 H   0  0  0  0  0  0  0  0  0  0  0  0
   -0.2275    0.1490    1.6776 H   0  0  0  0  0  0  0  0  0  0  0  0
   -2.5085   -3.6203   -0.4903 H   0  0  0  0  0  0  0  0  0  0  0  0
   -3.8627   -1.8685    1.6104 H   0  0  0  0  0  0  0  0  0  0  0  0
   -1.0079   -2.3876    1.4203 H   0  0  0  0  0  0  0  0  0  0  0  0
   -2.4176   -0.4538    1.4374 H   0  0  0  0  0  0  0  0  0  0  0  0
    3.7641   -0.7003   -1.6677 H   0  0  0  0  0  0  0  0  0  0  0  0
    4.4192    0.8894   -2.0292 H   0  0  0  0  0  0  0  0  0  0  0  0
   -8.9431    2.2386    1.2620 H   0  0  0  0  0  0  0  0  0  0  0  0
   -8.0794    3.5096    0.3633 H   0  0  0  0  0  0  0  0  0  0  0  0
   -8.7490    2.0752   -0.5622 H   0  0  0  0  0  0  0  0  0  0  0  0
    4.6375    1.5508    0.2280 H   0  0  0  0  0  0  0  0  0  0  0  0
    6.2713    0.0659   -2.1571 H   0  0  0  0  0  0  0  0  0  0  0  0
    5.7273   -1.1241    1.7481 H   0  0  0  0  0  0  0  0  0  0  0  0
    6.9960   -1.6439    0.6393 H   0  0  0  0  0  0  0  0  0  0  0  0
    8.1110   -0.4667    2.2061 H   0  0  0  0  0  0  0  0  0  0  0  0
    7.0029    0.9233    2.2655 H   0  0  0  0  0  0  0  0  0  0  0  0
    2.5658    1.6500    1.7399 H   0  0  0  0  0  0  0  0  0  0  0  0
    1.7011    0.1365    1.9632 H   0  0  0  0  0  0  0  0  0  0  0  0
    1.5073   -1.4882   -1.1971 H   0  0  0  0  0  0  0  0  0  0  0  0
    1.2242   -1.7382    0.6210 H   0  0  0  0  0  0  0  0  0  0  0  0
   -2.9056    1.5554   -1.0675 H   0  0  0  0  0  0  0  0  0  0  0  0
   -3.5366    1.3795    1.3248 H   0  0  0  0  0  0  0  0  0  0  0  0
   -4.8795    0.2970    0.9060 H   0  0  0  0  0  0  0  0  0  0  0  0
   -5.1253    3.0082    0.9561 H   0  0  0  0  0  0  0  0  0  0  0  0
   -4.4224    2.8779   -0.6954 H   0  0  0  0  0  0  0  0  0  0  0  0
    1.8421    0.5312   -2.1280 H   0  0  0  0  0  0  0  0  0  0  0  0
    2.5628    2.0616   -1.6294 H   0  0  0  0  0  0  0  0  0  0  0  0
    3.5117   -1.1747    1.1262 H   0  0  0  0  0  0  0  0  0  0  0  0
    4.1731    0.1397    2.0998 H   0  0  0  0  0  0  0  0  0  0  0  0
   -0.7730    2.0845   -0.2925 H   0  0  0  0  0  0  0  0  0  0  0  0
    9.3817    0.7463    0.7349 H   0  0  0  0  0  0  0  0  0  0  0  0
    8.0372    1.8603    0.4393 H   0  0  0  0  0  0  0  0  0  0  0  0
    6.4908    2.2231   -1.9045 H   0  0  0  0  0  0  0  0  0  0  0  0
    8.5528    0.7375   -1.6312 H   0  0  0  0  0  0  0  0  0  0  0  0
    8.3238   -0.8778   -0.9260 H   0  0  0  0  0  0  0  0  0  0  0  0
   -4.0121   -4.1434    2.5325 H   0  0  0  0  0  0  0  0  0  0  0  0
   -5.7398   -3.0984    1.2192 H   0  0  0  0  0  0  0  0  0  0  0  0
   -4.8759   -4.4188    0.5270 H   0  0  0  0  0  0  0  0  0  0  0  0
   -0.9076   -1.8232   -1.5973 H   0  0  0  0  0  0  0  0  0  0  0  0
   -0.1704   -3.2537   -0.8254 H   0  0  0  0  0  0  0  0  0  0  0  0
  1  2  1  0
  2  3  1  0
  1  4  1  0
  5  8  1  0
  8  9  1  0
  8 10  1  0
  7 11  1  0
 10 11  1  0
  4 13  1  0
 12 14  1  0
 16 17  1  0
  6 18  1  0
  3 20  1  0
 20 21  1  0
  1 22  1  0
 21 22  1  0
  5 23  1  0
 11 23  1  0
 20 23  1  0
  6 24  1  0
  7 24  1  0
 19 24  1  0
  6 25  1  0
 12 25  1  0
 14 26  1  0
 15 26  1  0
 16 26  1  0
 14 27  1  0
 18 27  1  0
  7 28  1  0
 17 29  1  0
 15 30  1  0
 15 31  1  0
 29 31  1  0
  9 32  1  0
  9 33  1  0
 10 34  1  0
 19 34  1  0
  1 35  1  0
  2 36  1  0
  2 37  1  0
  3 38  1  0
  3 39  1  0
  5 40  1  0
  6 41  1  0
  7 42  1  0
  8 43  1  6
  9 44  1  0
 10 45  1  0
 11 46  1  0
 12 47  1  0
 12 48  1  0
 13 49  1  0
 13 50  1  0
 13 51  1  0
 14 52  1  0
 15 53  1  0
 16 54  1  0
 16 55  1  0
 17 56  1  0
 17 57  1  0
 18 58  1  0
 18 59  1  0
 19 60  1  0
 19 61  1  0
 20 62  1  0
 21 63  1  0
 21 64  1  0
 22 65  1  0
 22 66  1  0
 25 67  1  0
 25 68  1  0
 27 69  1  0
 27 70  1  0
 28 71  1  0
 29 72  1  0
 29 73  1  0
 30 74  1  0
 31 75  1  0
 31 76  1  0
 32 77  1  0
 33 78  1  0
 33 79  1  0
 34 80  1  0
 34 81  1  0
M  END
>  <PDBID>  (1) 
2P16

>  <PDB ID>  (1) 
2P16

>  <Generic Name>  (1) 
Apixaban

>  <Brand Name>  (1) 
Eliquis

>  <DrugBank ID>  (1) 
DB06605

>  <ATC Codes>  (1) 
B01AF02

>  <Ligand ID>  (1) 
GG2

>  <Target Name>  (1) 
Coagulation factor X

>  <UniProt ID>  (1) 
P00742

>  <PDB ID.1>  (1) 
2P16

>  <Seq. Identity>  (1) 
100%

$$$$
