PDB_DB00136_02
     RDKit          3D

 80 82  0  0  0  0  0  0  0  0999 V2000
   -8.3692    0.4326    0.2689 O   0  0  0  0  0  0  0  0  0  0  0  0
    7.9352   -1.3634    0.5245 O   0  0  0  0  0  0  0  0  0  0  0  0
   -5.6329   -1.9922    0.0129 C   0  0  1  0  0  0  0  0  0  0  0  0
   -7.0287   -1.4614    0.2178 C   0  0  0  0  0  0  0  0  0  0  0  0
   -7.0523    0.0119    0.4918 C   0  0  1  0  0  0  0  0  0  0  0  0
   -6.0573    0.8202   -0.2322 C   0  0  0  0  0  0  0  0  0  0  0  0
   -4.9426    0.1921   -0.9470 C   0  0  1  0  0  0  0  0  0  0  0  0
   -3.5725    0.7336   -0.6365 C   0  0  0  0  0  0  0  0  0  0  0  0
   -3.0805    0.6733    0.7408 C   0  0  0  0  0  0  0  0  0  0  0  0
   -1.7119    1.3052    0.9444 C   0  0  0  0  0  0  0  0  0  0  0  0
   -1.6719    2.7531    0.5866 C   0  0  0  0  0  0  0  0  0  0  0  0
   -5.0392   -1.2822   -1.1398 C   0  0  1  0  0  0  0  0  0  0  0  0
   -0.5233    3.0445   -0.3883 C   0  0  0  0  0  0  0  0  0  0  0  0
    0.7948    2.5635    0.2181 C   0  0  0  0  0  0  0  0  0  0  0  0
    0.7685    1.1543    0.6694 C   0  0  1  0  0  0  0  0  0  0  0  0
   -0.6190    0.6010    0.2547 C   0  0  1  0  0  0  0  0  0  0  0  0
   -0.4749   -0.8524    0.5816 C   0  0  0  0  0  0  0  0  0  0  0  0
    1.0127   -1.1340    0.6416 C   0  0  0  0  0  0  0  0  0  0  0  0
    1.5815    0.1547    0.0127 C   0  0  2  0  0  0  0  0  0  0  0  0
    0.7072    1.0993    2.1763 C   0  0  0  0  0  0  0  0  0  0  0  0
   -3.7745   -1.9271   -1.6607 C   0  0  0  0  0  0  0  0  0  0  0  0
    3.0193    0.1294   -0.1447 C   0  0  1  0  0  0  0  0  0  0  0  0
    3.5667    1.3144   -0.9313 C   0  0  0  0  0  0  0  0  0  0  0  0
    3.8742   -0.0506    1.0473 C   0  0  0  0  0  0  0  0  0  0  0  0
    5.3277   -0.0638    0.6672 C   0  0  0  0  0  0  0  0  0  0  0  0
    5.6435   -1.1975   -0.2363 C   0  0  0  0  0  0  0  0  0  0  0  0
    7.1258   -1.2326   -0.6137 C   0  0  0  0  0  0  0  0  0  0  0  0
    7.5379   -0.0360   -1.4191 C   0  0  0  0  0  0  0  0  0  0  0  0
    7.3103   -2.5430   -1.3827 C   0  0  0  0  0  0  0  0  0  0  0  0
   -4.9050   -2.0957    1.1552 O   0  0  0  0  0  0  0  0  0  0  0  0
   -8.5485    1.2759    0.7836 H   0  0  0  0  0  0  0  0  0  0  0  0
    7.3991   -1.8691    1.2026 H   0  0  0  0  0  0  0  0  0  0  0  0
   -5.7960   -3.0655   -0.3382 H   0  0  0  0  0  0  0  0  0  0  0  0
   -7.6064   -1.7094   -0.6956 H   0  0  0  0  0  0  0  0  0  0  0  0
   -7.4822   -2.0437    1.0479 H   0  0  0  0  0  0  0  0  0  0  0  0
   -6.9395    0.1089    1.6160 H   0  0  0  0  0  0  0  0  0  0  0  0
   -5.6742    1.5919    0.5114 H   0  0  0  0  0  0  0  0  0  0  0  0
   -6.6437    1.4937   -0.9336 H   0  0  0  0  0  0  0  0  0  0  0  0
   -5.0500    0.5634   -2.0513 H   0  0  0  0  0  0  0  0  0  0  0  0
   -2.8719    0.1744   -1.3304 H   0  0  0  0  0  0  0  0  0  0  0  0
   -3.4590    1.7942   -1.0061 H   0  0  0  0  0  0  0  0  0  0  0  0
   -3.7562    0.9923    1.5277 H   0  0  0  0  0  0  0  0  0  0  0  0
   -2.8519   -0.4151    0.9778 H   0  0  0  0  0  0  0  0  0  0  0  0
   -1.5772    1.2588    2.0681 H   0  0  0  0  0  0  0  0  0  0  0  0
   -2.5734    3.1776    0.1509 H   0  0  0  0  0  0  0  0  0  0  0  0
   -1.4452    3.4201    1.4758 H   0  0  0  0  0  0  0  0  0  0  0  0
   -5.7872   -1.4483   -1.9957 H   0  0  0  0  0  0  0  0  0  0  0  0
   -0.7070    2.6622   -1.3909 H   0  0  0  0  0  0  0  0  0  0  0  0
   -0.4423    4.1503   -0.4577 H   0  0  0  0  0  0  0  0  0  0  0  0
    0.9220    3.2429    1.1179 H   0  0  0  0  0  0  0  0  0  0  0  0
    1.5652    2.8748   -0.4725 H   0  0  0  0  0  0  0  0  0  0  0  0
   -0.7185    0.7014   -0.8450 H   0  0  0  0  0  0  0  0  0  0  0  0
   -0.8931   -1.4555   -0.2695 H   0  0  0  0  0  0  0  0  0  0  0  0
   -1.0203   -1.1830    1.4734 H   0  0  0  0  0  0  0  0  0  0  0  0
    1.3694   -1.2634    1.6744 H   0  0  0  0  0  0  0  0  0  0  0  0
    1.3024   -1.9777   -0.0316 H   0  0  0  0  0  0  0  0  0  0  0  0
    1.1657    0.0681   -1.0514 H   0  0  0  0  0  0  0  0  0  0  0  0
    0.2215    2.0560    2.5138 H   0  0  0  0  0  0  0  0  0  0  0  0
    0.1049    0.2586    2.5622 H   0  0  0  0  0  0  0  0  0  0  0  0
    1.6500    1.0685    2.7019 H   0  0  0  0  0  0  0  0  0  0  0  0
   -3.0603   -2.1747   -0.8827 H   0  0  0  0  0  0  0  0  0  0  0  0
   -3.4215   -1.3597   -2.5198 H   0  0  0  0  0  0  0  0  0  0  0  0
   -4.0984   -2.9256   -2.0869 H   0  0  0  0  0  0  0  0  0  0  0  0
    3.2301   -0.7623   -0.8159 H   0  0  0  0  0  0  0  0  0  0  0  0
    4.5747    1.0715   -1.3954 H   0  0  0  0  0  0  0  0  0  0  0  0
    2.9468    1.5524   -1.8204 H   0  0  0  0  0  0  0  0  0  0  0  0
    3.8017    2.1821   -0.2846 H   0  0  0  0  0  0  0  0  0  0  0  0
    3.6973   -1.0596    1.5289 H   0  0  0  0  0  0  0  0  0  0  0  0
    3.7869    0.7622    1.8004 H   0  0  0  0  0  0  0  0  0  0  0  0
    5.9241   -0.2345    1.6198 H   0  0  0  0  0  0  0  0  0  0  0  0
    5.6816    0.9196    0.2905 H   0  0  0  0  0  0  0  0  0  0  0  0
    5.0857   -1.2164   -1.1664 H   0  0  0  0  0  0  0  0  0  0  0  0
    5.4729   -2.1904    0.2694 H   0  0  0  0  0  0  0  0  0  0  0  0
    6.7591    0.1943   -2.1758 H   0  0  0  0  0  0  0  0  0  0  0  0
    8.4913   -0.2459   -1.9177 H   0  0  0  0  0  0  0  0  0  0  0  0
    7.7019    0.8145   -0.7142 H   0  0  0  0  0  0  0  0  0  0  0  0
    7.2466   -2.4077   -2.4653 H   0  0  0  0  0  0  0  0  0  0  0  0
    8.2826   -3.0309   -1.1121 H   0  0  0  0  0  0  0  0  0  0  0  0
    6.5334   -3.2963   -1.0610 H   0  0  0  0  0  0  0  0  0  0  0  0
   -4.2428   -2.8474    1.1586 H   0  0  0  0  0  0  0  0  0  0  0  0
  3  4  1  0
  1  5  1  0
  4  5  1  0
  5  6  1  0
  6  7  1  0
  7  8  1  0
  8  9  1  0
  9 10  1  0
 10 11  1  0
  3 12  1  0
  7 12  1  0
 11 13  1  0
 13 14  1  0
 14 15  1  0
 10 16  1  0
 15 16  1  0
 16 17  1  0
 17 18  1  0
 15 19  1  0
 18 19  1  0
 15 20  1  1
 12 21  1  0
 19 22  1  0
 22 23  1  0
 22 24  1  0
 24 25  1  0
 25 26  1  0
 27  2  1  0
 26 27  1  0
 27 28  1  0
 27 29  1  0
  3 30  1  0
  1 31  1  0
  2 32  1  0
  3 33  1  6
  4 34  1  0
  4 35  1  0
  5 36  1  1
  6 37  1  0
  6 38  1  0
  7 39  1  6
  8 40  1  0
  8 41  1  0
  9 42  1  0
  9 43  1  0
 10 44  1  0
 11 45  1  0
 11 46  1  0
 12 47  1  6
 13 48  1  0
 13 49  1  0
 14 50  1  0
 14 51  1  0
 16 52  1  6
 17 53  1  0
 17 54  1  0
 18 55  1  0
 18 56  1  0
 19 57  1  6
 20 58  1  0
 20 59  1  0
 20 60  1  0
 21 61  1  0
 21 62  1  0
 21 63  1  0
 22 64  1  6
 23 65  1  0
 23 66  1  0
 23 67  1  0
 24 68  1  0
 24 69  1  0
 25 70  1  0
 25 71  1  0
 26 72  1  0
 26 73  1  0
 28 74  1  0
 28 75  1  0
 28 76  1  0
 29 77  1  0
 29 78  1  0
 29 79  1  0
 30 80  1  0
M  END
>  <PDBID>  (1) 
1IE9

>  <PDB ID>  (1) 
1IE9

>  <Generic Name>  (1) 
Calcitriol

>  <Brand Name>  (1) 
Calcijex#Calcitriol#Calcitriol Injection#Calcitriol Injection USP#Calcitriol-odan#Rocaltrol#Rocaltrol Cap 0.25mcg#Rocaltrol Cap 0.5mcg#Rocaltrol Oral Solution 1mcg/ml#Silkis#Vectical#Calcitriol Oral Solution#Decostriol

>  <DrugBank ID>  (1) 
DB00136

>  <ATC Codes>  (1) 
A11CC04#D05AX03

>  <Ligand ID>  (1) 
VDX

>  <Target Name>  (1) 
Vitamin D3 receptor

>  <UniProt ID>  (1) 
P11473

>  <PDB ID.1>  (1) 
1IE9

>  <Seq. Identity>  (1) 
84%

$$$$
