PDB_DB01283_07
     RDKit          3D

 94 96  0  0  0  0  0  0  0  0999 V2000
   -1.9002   -1.0016    3.2010 O   0  0  0  0  0  0  0  0  0  0  0  0
   -1.1445   -1.7663    2.3008 C   0  0  0  0  0  0  0  0  0  0  0  0
   -1.4255   -3.1097    2.7139 O   0  0  0  0  0  0  0  0  0  0  0  0
   -1.6706   -1.6398    0.8926 C   0  0  0  0  0  0  0  0  0  0  0  0
   -1.6772   -0.2400    0.4203 C   0  0  0  0  0  0  0  0  0  0  0  0
   -2.2241   -0.2019   -1.0078 C   0  0  0  0  0  0  0  0  0  0  0  0
   -3.0255    1.0785   -1.0819 C   0  0  0  0  0  0  0  0  0  0  0  0
   -3.5097    1.4620   -2.4216 C   0  0  0  0  0  0  0  0  0  0  0  0
   -2.1429    2.1359   -0.4608 C   0  0  0  0  0  0  0  0  0  0  0  0
   -0.6951    1.7812   -0.4220 C   0  0  0  0  0  0  0  0  0  0  0  0
   -0.5557    0.6669    0.6835 C   0  0  0  0  0  0  0  0  0  0  0  0
    0.7673    0.3035    0.7879 N   0  0  0  0  0  0  0  0  0  0  0  0
    1.5777   -0.1653   -0.2580 C   0  0  0  0  0  0  0  0  0  0  0  0
    2.2488   -1.4231    0.1374 C   0  0  0  0  0  0  0  0  0  0  0  0
    1.5542   -2.8630   -0.6832 Cl  0  0  0  0  0  0  0  0  0  0  0  0
    3.7244   -1.4842   -0.1533 C   0  0  0  0  0  0  0  0  0  0  0  0
    4.3180   -0.1882    0.3578 C   0  0  0  0  0  0  0  0  0  0  0  0
    3.8981    0.8136   -0.6768 C   0  0  0  0  0  0  0  0  0  0  0  0
    2.4314    0.9470   -0.7899 C   0  0  0  0  0  0  0  0  0  0  0  0
    2.1588    1.1985   -2.1315 F   0  0  0  0  0  0  0  0  0  0  0  0
   -1.9002   -1.0016    3.2010 O   0  0  0  0  0  0  0  0  0  0  0  0
   -1.1445   -1.7663    2.3008 C   0  0  0  0  0  0  0  0  0  0  0  0
   -1.4255   -3.1097    2.7139 O   0  0  0  0  0  0  0  0  0  0  0  0
   -1.6706   -1.6398    0.8926 C   0  0  0  0  0  0  0  0  0  0  0  0
   -1.6772   -0.2400    0.4203 C   0  0  0  0  0  0  0  0  0  0  0  0
   -2.2241   -0.2019   -1.0078 C   0  0  0  0  0  0  0  0  0  0  0  0
   -3.0255    1.0785   -1.0819 C   0  0  0  0  0  0  0  0  0  0  0  0
   -3.5097    1.4620   -2.4216 C   0  0  0  0  0  0  0  0  0  0  0  0
   -2.1429    2.1359   -0.4608 C   0  0  0  0  0  0  0  0  0  0  0  0
   -0.6951    1.7812   -0.4220 C   0  0  0  0  0  0  0  0  0  0  0  0
   -0.5557    0.6669    0.6835 C   0  0  0  0  0  0  0  0  0  0  0  0
    0.7673    0.3035    0.7879 N   0  0  0  0  0  0  0  0  0  0  0  0
    1.5777   -0.1653   -0.2580 C   0  0  0  0  0  0  0  0  0  0  0  0
    2.2488   -1.4231    0.1374 C   0  0  0  0  0  0  0  0  0  0  0  0
    1.5542   -2.8630   -0.6832 Cl  0  0  0  0  0  0  0  0  0  0  0  0
    3.7244   -1.4842   -0.1533 C   0  0  0  0  0  0  0  0  0  0  0  0
    4.3180   -0.1882    0.3578 C   0  0  0  0  0  0  0  0  0  0  0  0
    3.8981    0.8136   -0.6768 C   0  0  0  0  0  0  0  0  0  0  0  0
    2.4314    0.9470   -0.7899 C   0  0  0  0  0  0  0  0  0  0  0  0
    2.1588    1.1985   -2.1315 F   0  0  0  0  0  0  0  0  0  0  0  0
   -1.3908   -0.2186    3.5525 H   0  0  0  0  0  0  0  0  0  0  0  0
   -0.0833   -1.6088    2.4116 H   0  0  0  0  0  0  0  0  0  0  0  0
   -1.5687   -3.6965    1.9580 H   0  0  0  0  0  0  0  0  0  0  0  0
   -2.7536   -2.0259    0.8949 H   0  0  0  0  0  0  0  0  0  0  0  0
   -1.1775   -2.3148    0.1969 H   0  0  0  0  0  0  0  0  0  0  0  0
   -2.6298    0.1813    0.9990 H   0  0  0  0  0  0  0  0  0  0  0  0
   -2.9583   -1.0396   -1.0528 H   0  0  0  0  0  0  0  0  0  0  0  0
   -1.5081   -0.3673   -1.7877 H   0  0  0  0  0  0  0  0  0  0  0  0
   -3.9270    0.9006   -0.4182 H   0  0  0  0  0  0  0  0  0  0  0  0
   -4.6065    1.7407   -2.3827 H   0  0  0  0  0  0  0  0  0  0  0  0
   -3.0119    2.3954   -2.7598 H   0  0  0  0  0  0  0  0  0  0  0  0
   -3.3508    0.6845   -3.2018 H   0  0  0  0  0  0  0  0  0  0  0  0
   -2.4994    2.2673    0.5902 H   0  0  0  0  0  0  0  0  0  0  0  0
   -2.3213    3.1411   -0.9196 H   0  0  0  0  0  0  0  0  0  0  0  0
   -0.4161    1.3494   -1.4036 H   0  0  0  0  0  0  0  0  0  0  0  0
   -0.1386    2.6816   -0.1273 H   0  0  0  0  0  0  0  0  0  0  0  0
   -0.8009    1.2944    1.5977 H   0  0  0  0  0  0  0  0  0  0  0  0
    1.1809    0.3063    1.7343 H   0  0  0  0  0  0  0  0  0  0  0  0
    0.8664   -0.4365   -1.1033 H   0  0  0  0  0  0  0  0  0  0  0  0
    2.1414   -1.6531    1.2239 H   0  0  0  0  0  0  0  0  0  0  0  0
    3.9383   -1.6211   -1.2378 H   0  0  0  0  0  0  0  0  0  0  0  0
    4.1603   -2.2888    0.4564 H   0  0  0  0  0  0  0  0  0  0  0  0
    3.8382    0.0840    1.3140 H   0  0  0  0  0  0  0  0  0  0  0  0
    5.4212   -0.2262    0.4250 H   0  0  0  0  0  0  0  0  0  0  0  0
    4.3719    1.8152   -0.5177 H   0  0  0  0  0  0  0  0  0  0  0  0
    4.3527    0.4741   -1.6561 H   0  0  0  0  0  0  0  0  0  0  0  0
    2.1635    1.8774   -0.1947 H   0  0  0  0  0  0  0  0  0  0  0  0
   -1.3908   -0.2186    3.5525 H   0  0  0  0  0  0  0  0  0  0  0  0
   -0.0833   -1.6088    2.4116 H   0  0  0  0  0  0  0  0  0  0  0  0
   -1.5687   -3.6965    1.9580 H   0  0  0  0  0  0  0  0  0  0  0  0
   -2.7536   -2.0259    0.8949 H   0  0  0  0  0  0  0  0  0  0  0  0
   -1.1775   -2.3148    0.1969 H   0  0  0  0  0  0  0  0  0  0  0  0
   -2.6298    0.1813    0.9990 H   0  0  0  0  0  0  0  0  0  0  0  0
   -2.9583   -1.0396   -1.0528 H   0  0  0  0  0  0  0  0  0  0  0  0
   -1.5081   -0.3673   -1.7877 H   0  0  0  0  0  0  0  0  0  0  0  0
   -3.9270    0.9006   -0.4182 H   0  0  0  0  0  0  0  0  0  0  0  0
   -4.6065    1.7407   -2.3827 H   0  0  0  0  0  0  0  0  0  0  0  0
   -3.0119    2.3954   -2.7598 H   0  0  0  0  0  0  0  0  0  0  0  0
   -3.3508    0.6845   -3.2018 H   0  0  0  0  0  0  0  0  0  0  0  0
   -2.4994    2.2673    0.5902 H   0  0  0  0  0  0  0  0  0  0  0  0
   -2.3213    3.1411   -0.9196 H   0  0  0  0  0  0  0  0  0  0  0  0
   -0.4161    1.3494   -1.4036 H   0  0  0  0  0  0  0  0  0  0  0  0
   -0.1386    2.6816   -0.1273 H   0  0  0  0  0  0  0  0  0  0  0  0
   -0.8009    1.2944    1.5977 H   0  0  0  0  0  0  0  0  0  0  0  0
    1.1809    0.3063    1.7343 H   0  0  0  0  0  0  0  0  0  0  0  0
    0.8664   -0.4365   -1.1033 H   0  0  0  0  0  0  0  0  0  0  0  0
    2.1414   -1.6531    1.2239 H   0  0  0  0  0  0  0  0  0  0  0  0
    3.9383   -1.6211   -1.2378 H   0  0  0  0  0  0  0  0  0  0  0  0
    4.1603   -2.2888    0.4564 H   0  0  0  0  0  0  0  0  0  0  0  0
    3.8382    0.0840    1.3140 H   0  0  0  0  0  0  0  0  0  0  0  0
    5.4212   -0.2262    0.4250 H   0  0  0  0  0  0  0  0  0  0  0  0
    4.3719    1.8152   -0.5177 H   0  0  0  0  0  0  0  0  0  0  0  0
    4.3527    0.4741   -1.6561 H   0  0  0  0  0  0  0  0  0  0  0  0
    2.1635    1.8774   -0.1947 H   0  0  0  0  0  0  0  0  0  0  0  0
  1  2  1  0
  2  3  1  0
  2  4  1  0
  4  5  1  0
  5  6  1  0
  6  7  1  0
  7  8  1  0
  7  9  1  0
  9 10  1  0
  5 11  1  0
 10 11  1  0
 11 12  1  0
 12 13  1  0
 13 14  1  0
 14 15  1  0
 14 16  1  0
 16 17  1  0
 17 18  1  0
 13 19  1  0
 18 19  1  0
 19 20  1  0
 21 22  1  0
 22 23  1  0
 22 24  1  0
 24 25  1  0
 25 26  1  0
 26 27  1  0
 27 28  1  0
 27 29  1  0
 29 30  1  0
 25 31  1  0
 30 31  1  0
 31 32  1  0
 32 33  1  0
 33 34  1  0
 34 35  1  0
 34 36  1  0
 36 37  1  0
 37 38  1  0
 33 39  1  0
 38 39  1  0
 39 40  1  0
  1 41  1  0
  2 42  1  0
  3 43  1  0
  4 44  1  0
  4 45  1  0
  5 46  1  0
  6 47  1  0
  6 48  1  0
  7 49  1  0
  8 50  1  0
  8 51  1  0
  8 52  1  0
  9 53  1  0
  9 54  1  0
 10 55  1  0
 10 56  1  0
 11 57  1  0
 12 58  1  0
 13 59  1  0
 14 60  1  0
 16 61  1  0
 16 62  1  0
 17 63  1  0
 17 64  1  0
 18 65  1  0
 18 66  1  0
 19 67  1  0
 21 68  1  0
 22 69  1  0
 23 70  1  0
 24 71  1  0
 24 72  1  0
 25 73  1  0
 26 74  1  0
 26 75  1  0
 27 76  1  0
 28 77  1  0
 28 78  1  0
 28 79  1  0
 29 80  1  0
 29 81  1  0
 30 82  1  0
 30 83  1  0
 31 84  1  0
 32 85  1  0
 33 86  1  0
 34 87  1  0
 36 88  1  0
 36 89  1  0
 37 90  1  0
 37 91  1  0
 38 92  1  0
 38 93  1  0
 39 94  1  0
M  END
>  <PDBID>  (1) 
4OTY

>  <PDB ID>  (1) 
4OTY

>  <Generic Name>  (1) 
Lumiracoxib

>  <Brand Name>  (1) 
Prexige

>  <DrugBank ID>  (1) 
DB01283

>  <ATC Codes>  (1) 
M01AH06

>  <Ligand ID>  (1) 
LUR

>  <Target Name>  (1) 
Prostaglandin G/H synthase 1

>  <UniProt ID>  (1) 
P23219

>  <PDB ID.1>  (1) 
4OTY

>  <Seq. Identity>  (1) 
62%

$$$$
