PDB_DB01283_08
     RDKit          3D

 94 96  0  0  0  0  0  0  0  0999 V2000
   -3.2908   -2.4227    0.5690 O   0  0  0  0  0  0  0  0  0  0  0  0
   -2.2890   -2.8757   -0.2769 C   0  0  0  0  0  0  0  0  0  0  0  0
   -2.7363   -2.6540   -1.6015 O   0  0  0  0  0  0  0  0  0  0  0  0
   -1.0522   -2.0575   -0.1239 C   0  0  0  0  0  0  0  0  0  0  0  0
   -1.2937   -0.6114   -0.4892 C   0  0  0  0  0  0  0  0  0  0  0  0
   -2.3404   -0.0373    0.3931 C   0  0  0  0  0  0  0  0  0  0  0  0
   -2.3555    1.4820    0.4375 C   0  0  0  0  0  0  0  0  0  0  0  0
   -3.7552    2.0490    0.4033 C   0  0  0  0  0  0  0  0  0  0  0  0
   -1.6834    1.9146   -0.8522 C   0  0  0  0  0  0  0  0  0  0  0  0
   -0.2058    1.5538   -0.8133 C   0  0  0  0  0  0  0  0  0  0  0  0
    0.0620    0.1643   -0.4051 C   0  0  0  0  0  0  0  0  0  0  0  0
    0.5423   -0.0547    0.8577 N   0  0  0  0  0  0  0  0  0  0  0  0
    1.8518   -0.1489    1.2843 C   0  0  0  0  0  0  0  0  0  0  0  0
    2.6906    1.0839    1.2808 C   0  0  0  0  0  0  0  0  0  0  0  0
    1.9847    2.5162    2.0150 Cl  0  0  0  0  0  0  0  0  0  0  0  0
    3.3360    1.4463   -0.0155 C   0  0  0  0  0  0  0  0  0  0  0  0
    4.2378    0.3227   -0.5098 C   0  0  0  0  0  0  0  0  0  0  0  0
    4.0422   -0.8930    0.3552 C   0  0  0  0  0  0  0  0  0  0  0  0
    2.6204   -1.2917    0.5877 C   0  0  0  0  0  0  0  0  0  0  0  0
    2.6256   -2.3701    1.4363 F   0  0  0  0  0  0  0  0  0  0  0  0
   -3.2908   -2.4227    0.5690 O   0  0  0  0  0  0  0  0  0  0  0  0
   -2.2890   -2.8757   -0.2769 C   0  0  0  0  0  0  0  0  0  0  0  0
   -2.7363   -2.6540   -1.6015 O   0  0  0  0  0  0  0  0  0  0  0  0
   -1.0522   -2.0575   -0.1239 C   0  0  0  0  0  0  0  0  0  0  0  0
   -1.2937   -0.6114   -0.4892 C   0  0  0  0  0  0  0  0  0  0  0  0
   -2.3404   -0.0373    0.3931 C   0  0  0  0  0  0  0  0  0  0  0  0
   -2.3555    1.4820    0.4375 C   0  0  0  0  0  0  0  0  0  0  0  0
   -3.7552    2.0490    0.4033 C   0  0  0  0  0  0  0  0  0  0  0  0
   -1.6834    1.9146   -0.8522 C   0  0  0  0  0  0  0  0  0  0  0  0
   -0.2058    1.5538   -0.8133 C   0  0  0  0  0  0  0  0  0  0  0  0
    0.0620    0.1643   -0.4051 C   0  0  0  0  0  0  0  0  0  0  0  0
    0.5423   -0.0547    0.8577 N   0  0  0  0  0  0  0  0  0  0  0  0
    1.8518   -0.1489    1.2843 C   0  0  0  0  0  0  0  0  0  0  0  0
    2.6906    1.0839    1.2808 C   0  0  0  0  0  0  0  0  0  0  0  0
    1.9847    2.5162    2.0150 Cl  0  0  0  0  0  0  0  0  0  0  0  0
    3.3360    1.4463   -0.0155 C   0  0  0  0  0  0  0  0  0  0  0  0
    4.2378    0.3227   -0.5098 C   0  0  0  0  0  0  0  0  0  0  0  0
    4.0422   -0.8930    0.3552 C   0  0  0  0  0  0  0  0  0  0  0  0
    2.6204   -1.2917    0.5877 C   0  0  0  0  0  0  0  0  0  0  0  0
    2.6256   -2.3701    1.4363 F   0  0  0  0  0  0  0  0  0  0  0  0
   -4.1890   -2.7568    0.2799 H   0  0  0  0  0  0  0  0  0  0  0  0
   -2.0828   -3.9604   -0.1239 H   0  0  0  0  0  0  0  0  0  0  0  0
   -3.6958   -2.3451   -1.5822 H   0  0  0  0  0  0  0  0  0  0  0  0
   -0.2226   -2.5100   -0.7114 H   0  0  0  0  0  0  0  0  0  0  0  0
   -0.7388   -2.1301    0.9676 H   0  0  0  0  0  0  0  0  0  0  0  0
   -1.5860   -0.5192   -1.5627 H   0  0  0  0  0  0  0  0  0  0  0  0
   -2.3934   -0.4587    1.4028 H   0  0  0  0  0  0  0  0  0  0  0  0
   -3.3338   -0.3027   -0.0951 H   0  0  0  0  0  0  0  0  0  0  0  0
   -1.8455    1.8776    1.3316 H   0  0  0  0  0  0  0  0  0  0  0  0
   -4.5074    1.3429    0.8026 H   0  0  0  0  0  0  0  0  0  0  0  0
   -3.8293    2.9943    0.9983 H   0  0  0  0  0  0  0  0  0  0  0  0
   -4.0901    2.3100   -0.6206 H   0  0  0  0  0  0  0  0  0  0  0  0
   -1.7508    3.0166   -0.9036 H   0  0  0  0  0  0  0  0  0  0  0  0
   -2.2192    1.4359   -1.6811 H   0  0  0  0  0  0  0  0  0  0  0  0
    0.2622    2.3378   -0.2019 H   0  0  0  0  0  0  0  0  0  0  0  0
    0.1369    1.7612   -1.8866 H   0  0  0  0  0  0  0  0  0  0  0  0
    0.6400   -0.3182   -1.2440 H   0  0  0  0  0  0  0  0  0  0  0  0
   -0.2087   -0.0625    1.5784 H   0  0  0  0  0  0  0  0  0  0  0  0
    1.8350   -0.4753    2.3684 H   0  0  0  0  0  0  0  0  0  0  0  0
    3.6234    0.8912    1.9713 H   0  0  0  0  0  0  0  0  0  0  0  0
    2.6392    1.8355   -0.7427 H   0  0  0  0  0  0  0  0  0  0  0  0
    4.0446    2.2927    0.2367 H   0  0  0  0  0  0  0  0  0  0  0  0
    5.3050    0.6155   -0.4734 H   0  0  0  0  0  0  0  0  0  0  0  0
    3.9848    0.1219   -1.5584 H   0  0  0  0  0  0  0  0  0  0  0  0
    4.5673   -1.7640   -0.1412 H   0  0  0  0  0  0  0  0  0  0  0  0
    4.5541   -0.7613    1.3297 H   0  0  0  0  0  0  0  0  0  0  0  0
    2.1097   -1.5843   -0.3599 H   0  0  0  0  0  0  0  0  0  0  0  0
   -4.1890   -2.7568    0.2799 H   0  0  0  0  0  0  0  0  0  0  0  0
   -2.0828   -3.9604   -0.1239 H   0  0  0  0  0  0  0  0  0  0  0  0
   -3.6958   -2.3451   -1.5822 H   0  0  0  0  0  0  0  0  0  0  0  0
   -0.2226   -2.5100   -0.7114 H   0  0  0  0  0  0  0  0  0  0  0  0
   -0.7388   -2.1301    0.9676 H   0  0  0  0  0  0  0  0  0  0  0  0
   -1.5860   -0.5192   -1.5627 H   0  0  0  0  0  0  0  0  0  0  0  0
   -2.3934   -0.4587    1.4028 H   0  0  0  0  0  0  0  0  0  0  0  0
   -3.3338   -0.3027   -0.0951 H   0  0  0  0  0  0  0  0  0  0  0  0
   -1.8455    1.8776    1.3316 H   0  0  0  0  0  0  0  0  0  0  0  0
   -4.5074    1.3429    0.8026 H   0  0  0  0  0  0  0  0  0  0  0  0
   -3.8293    2.9943    0.9983 H   0  0  0  0  0  0  0  0  0  0  0  0
   -4.0901    2.3100   -0.6206 H   0  0  0  0  0  0  0  0  0  0  0  0
   -1.7508    3.0166   -0.9036 H   0  0  0  0  0  0  0  0  0  0  0  0
   -2.2192    1.4359   -1.6811 H   0  0  0  0  0  0  0  0  0  0  0  0
    0.2622    2.3378   -0.2019 H   0  0  0  0  0  0  0  0  0  0  0  0
    0.1369    1.7612   -1.8866 H   0  0  0  0  0  0  0  0  0  0  0  0
    0.6400   -0.3182   -1.2440 H   0  0  0  0  0  0  0  0  0  0  0  0
   -0.2087   -0.0625    1.5784 H   0  0  0  0  0  0  0  0  0  0  0  0
    1.8350   -0.4753    2.3684 H   0  0  0  0  0  0  0  0  0  0  0  0
    3.6234    0.8912    1.9713 H   0  0  0  0  0  0  0  0  0  0  0  0
    2.6392    1.8355   -0.7427 H   0  0  0  0  0  0  0  0  0  0  0  0
    4.0446    2.2927    0.2367 H   0  0  0  0  0  0  0  0  0  0  0  0
    5.3050    0.6155   -0.4734 H   0  0  0  0  0  0  0  0  0  0  0  0
    3.9848    0.1219   -1.5584 H   0  0  0  0  0  0  0  0  0  0  0  0
    4.5673   -1.7640   -0.1412 H   0  0  0  0  0  0  0  0  0  0  0  0
    4.5541   -0.7613    1.3297 H   0  0  0  0  0  0  0  0  0  0  0  0
    2.1097   -1.5843   -0.3599 H   0  0  0  0  0  0  0  0  0  0  0  0
  1  2  1  0
  2  3  1  0
  2  4  1  0
  4  5  1  0
  5  6  1  0
  6  7  1  0
  7  8  1  0
  7  9  1  0
  9 10  1  0
  5 11  1  0
 10 11  1  0
 11 12  1  0
 12 13  1  0
 13 14  1  0
 14 15  1  0
 14 16  1  0
 16 17  1  0
 17 18  1  0
 13 19  1  0
 18 19  1  0
 19 20  1  0
 21 22  1  0
 22 23  1  0
 22 24  1  0
 24 25  1  0
 25 26  1  0
 26 27  1  0
 27 28  1  0
 27 29  1  0
 29 30  1  0
 25 31  1  0
 30 31  1  0
 31 32  1  0
 32 33  1  0
 33 34  1  0
 34 35  1  0
 34 36  1  0
 36 37  1  0
 37 38  1  0
 33 39  1  0
 38 39  1  0
 39 40  1  0
  1 41  1  0
  2 42  1  0
  3 43  1  0
  4 44  1  0
  4 45  1  0
  5 46  1  0
  6 47  1  0
  6 48  1  0
  7 49  1  0
  8 50  1  0
  8 51  1  0
  8 52  1  0
  9 53  1  0
  9 54  1  0
 10 55  1  0
 10 56  1  0
 11 57  1  0
 12 58  1  0
 13 59  1  0
 14 60  1  0
 16 61  1  0
 16 62  1  0
 17 63  1  0
 17 64  1  0
 18 65  1  0
 18 66  1  0
 19 67  1  0
 21 68  1  0
 22 69  1  0
 23 70  1  0
 24 71  1  0
 24 72  1  0
 25 73  1  0
 26 74  1  0
 26 75  1  0
 27 76  1  0
 28 77  1  0
 28 78  1  0
 28 79  1  0
 29 80  1  0
 29 81  1  0
 30 82  1  0
 30 83  1  0
 31 84  1  0
 32 85  1  0
 33 86  1  0
 34 87  1  0
 36 88  1  0
 36 89  1  0
 37 90  1  0
 37 91  1  0
 38 92  1  0
 38 93  1  0
 39 94  1  0
M  END
>  <PDBID>  (1) 
4OTY

>  <PDB ID>  (1) 
4OTY

>  <Generic Name>  (1) 
Lumiracoxib

>  <Brand Name>  (1) 
Prexige

>  <DrugBank ID>  (1) 
DB01283

>  <ATC Codes>  (1) 
M01AH06

>  <Ligand ID>  (1) 
LUR

>  <Target Name>  (1) 
Prostaglandin G/H synthase 1

>  <UniProt ID>  (1) 
P23219

>  <PDB ID.1>  (1) 
4OTY

>  <Seq. Identity>  (1) 
62%

$$$$
