PDB_DB00624_04
     RDKit          3D

 53 56  0  0  0  0  0  0  0  0999 V2000
    2.3760   -0.9450   -1.3648 C   0  0  0  0  0  0  0  0  0  0  0  0
    3.7555   -1.4039   -0.9866 C   0  0  0  0  0  0  0  0  0  0  0  0
    4.3229   -0.4176    0.0121 C   0  0  0  0  0  0  0  0  0  0  0  0
    4.2900    0.8446   -0.5783 O   0  0  0  0  0  0  0  0  0  0  0  0
    3.4828   -0.4928    1.2525 C   0  0  0  0  0  0  0  0  0  0  0  0
    2.0559   -0.1377    0.9889 C   0  0  0  0  0  0  0  0  0  0  0  0
    1.8627    1.3458    0.7873 C   0  0  0  0  0  0  0  0  0  0  0  0
    0.4022    1.6462    0.9826 C   0  0  0  0  0  0  0  0  0  0  0  0
   -0.5030    0.5744    0.4850 C   0  0  2  0  0  0  0  0  0  0  0  0
    0.1656   -0.2739   -0.6032 C   0  0  1  0  0  0  0  0  0  0  0  0
    1.4424   -0.8821   -0.1590 C   0  0  1  0  0  0  0  0  0  0  0  0
   -0.7696   -1.3136   -1.1140 C   0  0  0  0  0  0  0  0  0  0  0  0
   -2.1138   -0.7938   -1.5283 C   0  0  0  0  0  0  0  0  0  0  0  0
   -2.6859    0.0644   -0.4565 C   0  0  1  0  0  0  0  0  0  0  0  0
   -1.6927    1.1749   -0.1660 C   0  0  1  0  0  0  0  0  0  0  0  0
   -2.4825    2.1228    0.6428 C   0  0  0  0  0  0  0  0  0  0  0  0
   -3.7828    2.2066   -0.1691 C   0  0  0  0  0  0  0  0  0  0  0  0
   -3.9044    0.8378   -0.8515 C   0  0  2  0  0  0  0  0  0  0  0  0
   -5.0355    0.2224   -0.3170 O   0  0  0  0  0  0  0  0  0  0  0  0
   -2.9860   -0.7664    0.7660 C   0  0  0  0  0  0  0  0  0  0  0  0
    1.2365   -2.3183    0.2882 C   0  0  0  0  0  0  0  0  0  0  0  0
    1.8951   -1.5989   -2.1142 H   0  0  0  0  0  0  0  0  0  0  0  0
    2.4444    0.0657   -1.8333 H   0  0  0  0  0  0  0  0  0  0  0  0
    4.3833   -1.3691   -1.8756 H   0  0  0  0  0  0  0  0  0  0  0  0
    3.7323   -2.4366   -0.6004 H   0  0  0  0  0  0  0  0  0  0  0  0
    5.3777   -0.6270    0.2553 H   0  0  0  0  0  0  0  0  0  0  0  0
    4.6193    1.4993    0.0921 H   0  0  0  0  0  0  0  0  0  0  0  0
    3.8666    0.1963    2.0293 H   0  0  0  0  0  0  0  0  0  0  0  0
    3.5665   -1.5107    1.6608 H   0  0  0  0  0  0  0  0  0  0  0  0
    1.4713   -0.4272    1.9068 H   0  0  0  0  0  0  0  0  0  0  0  0
    2.4414    1.9049    1.5675 H   0  0  0  0  0  0  0  0  0  0  0  0
    2.1327    1.6761   -0.2331 H   0  0  0  0  0  0  0  0  0  0  0  0
    0.2544    1.7621    2.0963 H   0  0  0  0  0  0  0  0  0  0  0  0
    0.1525    2.6186    0.5186 H   0  0  0  0  0  0  0  0  0  0  0  0
   -0.8090   -0.1545    1.2818 H   0  0  0  0  0  0  0  0  0  0  0  0
    0.3679    0.4386   -1.4428 H   0  0  0  0  0  0  0  0  0  0  0  0
   -0.8697   -2.1862   -0.4236 H   0  0  0  0  0  0  0  0  0  0  0  0
   -0.2994   -1.7499   -2.0432 H   0  0  0  0  0  0  0  0  0  0  0  0
   -2.0288   -0.3189   -2.5070 H   0  0  0  0  0  0  0  0  0  0  0  0
   -2.7872   -1.6807   -1.6588 H   0  0  0  0  0  0  0  0  0  0  0  0
   -1.4213    1.6391   -1.1233 H   0  0  0  0  0  0  0  0  0  0  0  0
   -2.7264    1.8016    1.6553 H   0  0  0  0  0  0  0  0  0  0  0  0
   -2.0004    3.1199    0.7175 H   0  0  0  0  0  0  0  0  0  0  0  0
   -3.6225    2.9888   -0.9402 H   0  0  0  0  0  0  0  0  0  0  0  0
   -4.6445    2.4343    0.4603 H   0  0  0  0  0  0  0  0  0  0  0  0
   -3.9860    0.9531   -1.9536 H   0  0  0  0  0  0  0  0  0  0  0  0
   -5.3102    0.6640    0.5421 H   0  0  0  0  0  0  0  0  0  0  0  0
   -2.8668   -0.2327    1.7109 H   0  0  0  0  0  0  0  0  0  0  0  0
   -4.0669   -1.0832    0.7144 H   0  0  0  0  0  0  0  0  0  0  0  0
   -2.4086   -1.6982    0.8229 H   0  0  0  0  0  0  0  0  0  0  0  0
    2.1928   -2.6889    0.7138 H   0  0  0  0  0  0  0  0  0  0  0  0
    1.0257   -2.9188   -0.5991 H   0  0  0  0  0  0  0  0  0  0  0  0
    0.4872   -2.3754    1.0878 H   0  0  0  0  0  0  0  0  0  0  0  0
  1  2  1  0
  2  3  1  0
  3  4  1  0
  3  5  1  0
  5  6  1  0
  6  7  1  0
  7  8  1  0
  8  9  1  0
  9 10  1  0
  1 11  1  0
  6 11  1  0
 10 11  1  0
 10 12  1  0
 12 13  1  0
 13 14  1  0
  9 15  1  0
 14 15  1  0
 15 16  1  0
 16 17  1  0
 14 18  1  0
 17 18  1  0
 18 19  1  0
 14 20  1  1
 11 21  1  1
  1 22  1  0
  1 23  1  0
  2 24  1  0
  2 25  1  0
  3 26  1  0
  4 27  1  0
  5 28  1  0
  5 29  1  0
  6 30  1  0
  7 31  1  0
  7 32  1  0
  8 33  1  0
  8 34  1  0
  9 35  1  1
 10 36  1  6
 12 37  1  0
 12 38  1  0
 13 39  1  0
 13 40  1  0
 15 41  1  6
 16 42  1  0
 16 43  1  0
 17 44  1  0
 17 45  1  0
 18 46  1  6
 19 47  1  0
 20 48  1  0
 20 49  1  0
 20 50  1  0
 21 51  1  0
 21 52  1  0
 21 53  1  0
M  END
>  <PDBID>  (1) 
2AM9

>  <PDB ID>  (1) 
2AM9

>  <Generic Name>  (1) 
Testosterone

>  <Brand Name>  (1) 
Andriol#Androderm#Androgel#Aveed#Axiron#Delatestryl#Depo-testosterone#Depo-testosterone Inj 100mg/ml#Fortesta#Malogen Aqueous 100 Sus 100mg/ml#Malogex La200 Liq 200mg/ml#Natesto#Neo Pause Injection#PMS-testosterone#PMS-testosterone Enanthate Inj 200mg/ml USP#Scheinpharm Testone-cyp Inject.- Im 100mg/ml#Striant#Taro-testosterone#Testim#Testim 1%#Testopel#Testosterone#Testosterone Cypionate#Testosterone Cypionate Injection USP#Testosterone Cypionate Injection, USP#Testosterone Enanthate#Testosterone Enanthate Inj 200mg/ml#Vogelxo#Andronate 100#Andronate 200#Andropatch#Andropository 200#Andryl 200#Bio-T-Gel#Fortigel#Intrinsa#Livensa#Nebido#Sustanon#Testamone 100#Testaqua IM#Testoderm#Testoderm TTS#Testogel#Testolin#Testopatch#Testopel Pellets#Testrin-P.A#Testro AQ#Tostrelle#Tostrex#Virormone

>  <DrugBank ID>  (1) 
DB00624

>  <ATC Codes>  (1) 
G03EA02#G03BA03

>  <Ligand ID>  (1) 
TES

>  <Target Name>  (1) 
Androgen receptor

>  <UniProt ID>  (1) 
P10275

>  <PDB ID.1>  (1) 
2AM9

>  <Seq. Identity>  (1) 
100%

$$$$
