PDB_DB04573_01
     RDKit          3D

102108  0  0  0  0  0  0  0  0999 V2000
   -0.3161   -0.6499   -0.1800 C   0  0  1  0  0  0  0  0  0  0  0  0
    0.4563   -1.1807   -1.3410 C   0  0  0  0  0  0  0  0  0  0  0  0
    1.8799   -1.4681   -0.8721 C   0  0  0  0  0  0  0  0  0  0  0  0
    2.4703   -0.1819   -0.4358 C   0  0  2  0  0  0  0  0  0  0  0  0
    2.5091    0.7878   -1.5727 C   0  0  0  0  0  0  0  0  0  0  0  0
    3.8539   -0.2830    0.1444 C   0  0  1  0  0  0  0  0  0  0  0  0
    4.7745   -0.3468   -0.8965 O   0  0  0  0  0  0  0  0  0  0  0  0
    3.9654    1.0579    0.8809 C   0  0  2  0  0  0  0  0  0  0  0  0
    4.7343    0.9178    2.0234 O   0  0  0  0  0  0  0  0  0  0  0  0
    2.5330    1.4650    1.2104 C   0  0  0  0  0  0  0  0  0  0  0  0
    1.6996    0.3223    0.7610 C   0  0  1  0  0  0  0  0  0  0  0  0
    0.2961    0.6166    0.4087 C   0  0  2  0  0  0  0  0  0  0  0  0
   -0.5386    1.0328    1.5667 C   0  0  0  0  0  0  0  0  0  0  0  0
   -1.6225    0.1047    1.9518 C   0  0  0  0  0  0  0  0  0  0  0  0
   -2.4725   -0.4207    0.8747 C   0  0  0  0  0  0  0  0  0  0  0  0
   -3.7978    0.2315    0.6987 C   0  0  0  0  0  0  0  0  0  0  0  0
   -4.5782   -0.4234   -0.4000 C   0  0  0  0  0  0  0  0  0  0  0  0
   -5.6292    0.4635   -0.7319 O   0  0  0  0  0  0  0  0  0  0  0  0
   -3.8182   -0.6988   -1.6390 C   0  0  0  0  0  0  0  0  0  0  0  0
   -2.4305   -1.2760   -1.3898 C   0  0  0  0  0  0  0  0  0  0  0  0
   -1.7392   -0.3314   -0.4679 C   0  0  2  0  0  0  0  0  0  0  0  0
   -0.3144   -0.6666   -0.1709 C   0  0  1  0  0  0  0  0  0  0  0  0
    0.4329   -1.1934   -1.3447 C   0  0  0  0  0  0  0  0  0  0  0  0
    1.8621   -1.4846   -0.9069 C   0  0  0  0  0  0  0  0  0  0  0  0
    2.4512   -0.1998   -0.4663 C   0  0  2  0  0  0  0  0  0  0  0  0
    2.4383    0.7856   -1.5893 C   0  0  0  0  0  0  0  0  0  0  0  0
    3.8613   -0.2953    0.0584 C   0  0  1  0  0  0  0  0  0  0  0  0
    4.7253   -0.3910   -1.0071 O   0  0  0  0  0  0  0  0  0  0  0  0
    3.9838    1.0406    0.7905 C   0  0  2  0  0  0  0  0  0  0  0  0
    4.8097    0.9171    1.9014 O   0  0  0  0  0  0  0  0  0  0  0  0
    2.5650    1.4318    1.1836 C   0  0  0  0  0  0  0  0  0  0  0  0
    1.7270    0.2813    0.7673 C   0  0  1  0  0  0  0  0  0  0  0  0
    0.3153    0.5678    0.4444 C   0  0  2  0  0  0  0  0  0  0  0  0
   -0.5220    0.9733    1.6134 C   0  0  0  0  0  0  0  0  0  0  0  0
   -1.5961    0.0130    1.9849 C   0  0  0  0  0  0  0  0  0  0  0  0
   -2.4640   -0.4630    0.9002 C   0  0  1  0  0  0  0  0  0  0  0  0
   -3.7930    0.1982    0.7775 C   0  0  0  0  0  0  0  0  0  0  0  0
   -4.5750   -0.3767   -0.3621 C   0  0  0  0  0  0  0  0  0  0  0  0
   -5.6406    0.5046   -0.6256 O   0  0  0  0  0  0  0  0  0  0  0  0
   -3.8105   -0.5495   -1.6227 C   0  0  0  0  0  0  0  0  0  0  0  0
   -2.4370   -1.1652   -1.4238 C   0  0  0  0  0  0  0  0  0  0  0  0
   -1.7370   -0.3249   -0.4202 C   0  0  2  0  0  0  0  0  0  0  0  0
   -0.2560   -1.4158    0.6362 H   0  0  0  0  0  0  0  0  0  0  0  0
    0.4447   -0.5008   -2.2154 H   0  0  0  0  0  0  0  0  0  0  0  0
    0.0252   -2.1593   -1.6139 H   0  0  0  0  0  0  0  0  0  0  0  0
    1.8093   -2.2240   -0.0644 H   0  0  0  0  0  0  0  0  0  0  0  0
    2.4334   -1.8566   -1.7507 H   0  0  0  0  0  0  0  0  0  0  0  0
    1.5462    1.1841   -1.8886 H   0  0  0  0  0  0  0  0  0  0  0  0
    2.9228    0.2261   -2.4569 H   0  0  0  0  0  0  0  0  0  0  0  0
    3.2587    1.6154   -1.4103 H   0  0  0  0  0  0  0  0  0  0  0  0
    3.9591   -1.1027    0.8711 H   0  0  0  0  0  0  0  0  0  0  0  0
    5.5292   -0.9664   -0.6970 H   0  0  0  0  0  0  0  0  0  0  0  0
    4.4640    1.7905    0.2271 H   0  0  0  0  0  0  0  0  0  0  0  0
    4.7449    1.7887    2.4803 H   0  0  0  0  0  0  0  0  0  0  0  0
    2.5038    1.6536    2.2987 H   0  0  0  0  0  0  0  0  0  0  0  0
    2.3234    2.4177    0.6800 H   0  0  0  0  0  0  0  0  0  0  0  0
    1.7236   -0.4740    1.5209 H   0  0  0  0  0  0  0  0  0  0  0  0
    0.1918    1.3994   -0.3812 H   0  0  0  0  0  0  0  0  0  0  0  0
    0.1540    1.1367    2.4537 H   0  0  0  0  0  0  0  0  0  0  0  0
   -0.9551    2.0750    1.4389 H   0  0  0  0  0  0  0  0  0  0  0  0
   -2.2631    0.6076    2.7102 H   0  0  0  0  0  0  0  0  0  0  0  0
   -1.1525   -0.7580    2.5093 H   0  0  0  0  0  0  0  0  0  0  0  0
   -2.6613   -1.5234    1.0160 H   0  0  0  0  0  0  0  0  0  0  0  0
   -4.3827    0.0548    1.6495 H   0  0  0  0  0  0  0  0  0  0  0  0
   -3.7376    1.3276    0.5990 H   0  0  0  0  0  0  0  0  0  0  0  0
   -5.0791   -1.3516   -0.0575 H   0  0  0  0  0  0  0  0  0  0  0  0
   -5.3353    1.3944   -0.5274 H   0  0  0  0  0  0  0  0  0  0  0  0
   -4.4015   -1.4045   -2.2654 H   0  0  0  0  0  0  0  0  0  0  0  0
   -3.6367    0.2615   -2.1995 H   0  0  0  0  0  0  0  0  0  0  0  0
   -2.5987   -2.2733   -0.9217 H   0  0  0  0  0  0  0  0  0  0  0  0
   -1.9398   -1.3729   -2.3835 H   0  0  0  0  0  0  0  0  0  0  0  0
   -1.8642    0.7108   -0.8515 H   0  0  0  0  0  0  0  0  0  0  0  0
   -0.2631   -1.4576    0.6342 H   0  0  0  0  0  0  0  0  0  0  0  0
    0.3745   -0.5799   -2.2442 H   0  0  0  0  0  0  0  0  0  0  0  0
   -0.0067   -2.1860   -1.6011 H   0  0  0  0  0  0  0  0  0  0  0  0
    1.8094   -2.2446   -0.1000 H   0  0  0  0  0  0  0  0  0  0  0  0
    2.3965   -1.8551   -1.8032 H   0  0  0  0  0  0  0  0  0  0  0  0
    1.4558    1.1174   -1.9158 H   0  0  0  0  0  0  0  0  0  0  0  0
    2.9264    0.2957   -2.4618 H   0  0  0  0  0  0  0  0  0  0  0  0
    3.0618    1.6893   -1.3769 H   0  0  0  0  0  0  0  0  0  0  0  0
    3.9801   -1.0870    0.8159 H   0  0  0  0  0  0  0  0  0  0  0  0
    5.5493   -0.8593   -0.6692 H   0  0  0  0  0  0  0  0  0  0  0  0
    4.4479    1.8134    0.1325 H   0  0  0  0  0  0  0  0  0  0  0  0
    4.8180    1.7828    2.3576 H   0  0  0  0  0  0  0  0  0  0  0  0
    2.5761    1.6080    2.2807 H   0  0  0  0  0  0  0  0  0  0  0  0
    2.2628    2.3945    0.6947 H   0  0  0  0  0  0  0  0  0  0  0  0
    1.7704   -0.5285    1.5117 H   0  0  0  0  0  0  0  0  0  0  0  0
    0.2024    1.3777   -0.3295 H   0  0  0  0  0  0  0  0  0  0  0  0
    0.1724    1.0598    2.4979 H   0  0  0  0  0  0  0  0  0  0  0  0
   -0.9758    1.9882    1.5055 H   0  0  0  0  0  0  0  0  0  0  0  0
   -2.2137    0.4774    2.7773 H   0  0  0  0  0  0  0  0  0  0  0  0
   -1.0943   -0.8649    2.4882 H   0  0  0  0  0  0  0  0  0  0  0  0
   -2.6567   -1.5685    1.0223 H   0  0  0  0  0  0  0  0  0  0  0  0
   -4.3692   -0.0386    1.7161 H   0  0  0  0  0  0  0  0  0  0  0  0
   -3.7426    1.2942    0.7300 H   0  0  0  0  0  0  0  0  0  0  0  0
   -5.0537   -1.3576   -0.1036 H   0  0  0  0  0  0  0  0  0  0  0  0
   -5.2975    1.4282   -0.4641 H   0  0  0  0  0  0  0  0  0  0  0  0
   -3.6251    0.4786   -2.0493 H   0  0  0  0  0  0  0  0  0  0  0  0
   -4.4094   -1.1640   -2.3181 H   0  0  0  0  0  0  0  0  0  0  0  0
   -2.5963   -2.2152   -1.0677 H   0  0  0  0  0  0  0  0  0  0  0  0
   -1.9303   -1.1496   -2.4084 H   0  0  0  0  0  0  0  0  0  0  0  0
   -1.8515    0.7479   -0.7337 H   0  0  0  0  0  0  0  0  0  0  0  0
  1  2  1  0
  2  3  1  0
  3  4  1  0
  4  5  1  6
  4  6  1  0
  6  7  1  0
  6  8  1  0
  8  9  1  0
  8 10  1  0
  4 11  1  0
 10 11  1  0
  1 12  1  0
 11 12  1  0
 12 13  1  0
 13 14  1  0
 14 15  1  0
 15 16  1  0
 16 17  1  0
 17 18  1  0
 17 19  1  0
 19 20  1  0
  1 21  1  0
 15 21  1  0
 20 21  1  0
 22 23  1  0
 23 24  1  0
 24 25  1  0
 25 26  1  6
 25 27  1  0
 27 28  1  0
 27 29  1  0
 29 30  1  0
 29 31  1  0
 25 32  1  0
 31 32  1  0
 22 33  1  0
 32 33  1  0
 33 34  1  0
 34 35  1  0
 35 36  1  0
 36 37  1  0
 37 38  1  0
 38 39  1  0
 38 40  1  0
 40 41  1  0
 22 42  1  0
 36 42  1  0
 41 42  1  0
  1 43  1  1
  2 44  1  0
  2 45  1  0
  3 46  1  0
  3 47  1  0
  5 48  1  0
  5 49  1  0
  5 50  1  0
  6 51  1  1
  7 52  1  0
  8 53  1  6
  9 54  1  0
 10 55  1  0
 10 56  1  0
 11 57  1  1
 12 58  1  6
 13 59  1  0
 13 60  1  0
 14 61  1  0
 14 62  1  0
 15 63  1  0
 16 64  1  0
 16 65  1  0
 17 66  1  0
 18 67  1  0
 19 68  1  0
 19 69  1  0
 20 70  1  0
 20 71  1  0
 21 72  1  6
 22 73  1  1
 23 74  1  0
 23 75  1  0
 24 76  1  0
 24 77  1  0
 26 78  1  0
 26 79  1  0
 26 80  1  0
 27 81  1  1
 28 82  1  0
 29 83  1  6
 30 84  1  0
 31 85  1  0
 31 86  1  0
 32 87  1  1
 33 88  1  6
 34 89  1  0
 34 90  1  0
 35 91  1  0
 35 92  1  0
 36 93  1  1
 37 94  1  0
 37 95  1  0
 38 96  1  0
 39 97  1  0
 40 98  1  0
 40 99  1  0
 41100  1  0
 41101  1  0
 42102  1  6
M  END
>  <PDBID>  (1) 
3Q95

>  <PDB ID>  (1) 
3Q95

>  <Generic Name>  (1) 
Estriol

>  <Brand Name>  (1) 
Aacifemine#Colpoestriol#Ovestin#Synapause E

>  <DrugBank ID>  (1) 
DB04573

>  <ATC Codes>  (1) 
G03CC06#G03CA04

>  <Ligand ID>  (1) 
ESL

>  <Target Name>  (1) 
Estrogen receptor

>  <UniProt ID>  (1) 
P03372

>  <PDB ID.1>  (1) 
3Q95

>  <Seq. Identity>  (1) 
93%

$$$$
