PDB_DB00864_07
     RDKit          3D

140143  0  0  0  0  0  0  0  0999 V2000
    1.8933   -2.5366    1.1698 C   0  0  0  0  0  0  0  0  0  0  0  0
    1.2278   -3.8834    0.9681 C   0  0  2  0  0  0  0  0  0  0  0  0
    1.8819   -4.6920   -0.1067 C   0  0  0  0  0  0  0  0  0  0  0  0
    1.3746   -6.1056   -0.1533 C   0  0  0  0  0  0  0  0  0  0  0  0
   -0.0714   -6.2332    0.2264 C   0  0  0  0  0  0  0  0  0  0  0  0
   -0.5349   -5.3049    1.2913 C   0  0  0  0  0  0  0  0  0  0  0  0
   -0.9403   -3.4003   -0.0721 C   0  0  0  0  0  0  0  0  0  0  0  0
   -1.7823   -2.1944    0.2606 C   0  0  0  0  0  0  0  0  0  0  0  0
   -3.2411   -2.3552   -0.0644 C   0  0  1  0  0  0  0  0  0  0  0  0
   -3.9264   -3.4310    0.7206 C   0  0  1  0  0  0  0  0  0  0  0  0
   -5.2918   -2.9497    1.2393 C   0  0  0  0  0  0  0  0  0  0  0  0
   -5.9925   -2.1244    0.1761 C   0  0  1  0  0  0  0  0  0  0  0  0
   -5.1210   -0.9989   -0.3155 C   0  0  1  0  0  0  0  0  0  0  0  0
   -5.6231    0.3702    0.0660 C   0  0  2  0  0  0  0  0  0  0  0  0
   -4.4961    1.3077    0.4370 C   0  0  0  0  0  0  0  0  0  0  0  0
   -4.3003    2.4333   -0.5295 C   0  0  2  0  0  0  0  0  0  0  0  0
   -4.0441    3.7485    0.1711 C   0  0  0  0  0  0  0  0  0  0  0  0
   -2.8233    4.4551   -0.3103 C   0  0  0  0  0  0  0  0  0  0  0  0
   -1.5970    3.7091    0.1181 C   0  0  0  0  0  0  0  0  0  0  0  0
   -0.3654    4.5935    0.2045 C   0  0  2  0  0  0  0  0  0  0  0  0
    0.8551    3.8148   -0.1609 C   0  0  0  0  0  0  0  0  0  0  0  0
    1.3215    2.8753    0.9231 C   0  0  0  0  0  0  0  0  0  0  0  0
    0.9693    1.4246    0.5721 C   0  0  1  0  0  0  0  0  0  0  0  0
    2.2790    0.5884    0.6849 C   0  0  2  0  0  0  0  0  0  0  0  0
    2.2693   -0.5870   -0.1873 C   0  0  1  0  0  0  0  0  0  0  0  0
    3.4504   -0.7707   -1.0935 C   0  0  0  0  0  0  0  0  0  0  0  0
    4.7985   -0.9339   -0.5818 C   0  0  0  0  0  0  0  0  0  0  0  0
    5.5067    0.1142    0.1772 C   0  0  1  0  0  0  0  0  0  0  0  0
    6.8755   -0.5132    0.5643 C   0  0  0  0  0  0  0  0  0  0  0  0
    7.9509   -0.1827   -0.4135 C   0  0  2  0  0  0  0  0  0  0  0  0
    8.2532    1.3018   -0.2907 C   0  0  1  0  0  0  0  0  0  0  0  0
    6.9754    2.0943   -0.1448 C   0  0  0  0  0  0  0  0  0  0  0  0
    5.7899    1.3068   -0.7296 C   0  0  0  0  0  0  0  0  0  0  0  0
   -4.2236   -4.6255   -0.1614 C   0  0  0  0  0  0  0  0  0  0  0  0
   -5.4850    2.6578   -1.4490 C   0  0  0  0  0  0  0  0  0  0  0  0
   -2.8459    4.7333   -1.7946 C   0  0  0  0  0  0  0  0  0  0  0  0
   -0.2894    5.3308    1.4971 C   0  0  0  0  0  0  0  0  0  0  0  0
    0.9260    6.2144    1.6179 C   0  0  0  0  0  0  0  0  0  0  0  0
    1.0343    7.2817    0.5847 C   0  0  0  0  0  0  0  0  0  0  0  0
    2.5275    0.4819    2.1421 C   0  0  0  0  0  0  0  0  0  0  0  0
    3.2080   -1.9165   -2.0976 C   0  0  0  0  0  0  0  0  0  0  0  0
   -7.8470   -2.8848   -0.8972 C   0  0  0  0  0  0  0  0  0  0  0  0
   -7.7183    0.6691    1.0252 C   0  0  0  0  0  0  0  0  0  0  0  0
    8.6726   -1.4520   -2.1270 C   0  0  0  0  0  0  0  0  0  0  0  0
   -0.1787   -3.9129    0.9865 N   0  0  0  0  0  0  0  0  0  0  0  0
    1.6590   -1.7236    0.2007 O   0  0  0  0  0  0  0  0  0  0  0  0
    1.3596   -2.1686    2.4453 O   0  0  0  0  0  0  0  0  0  0  0  0
   -0.2588   -3.0885   -1.2432 O   0  0  0  0  0  0  0  0  0  0  0  0
   -1.3656   -1.0617   -0.4628 O   0  0  0  0  0  0  0  0  0  0  0  0
   -3.8599   -1.1480    0.2394 O   0  0  0  0  0  0  0  0  0  0  0  0
   -3.4152   -2.5908   -1.4265 O   0  0  0  0  0  0  0  0  0  0  0  0
   -6.4581   -2.9235   -0.8618 O   0  0  0  0  0  0  0  0  0  0  0  0
   -6.4234    0.2424    1.1955 O   0  0  0  0  0  0  0  0  0  0  0  0
    1.8540    4.7008   -0.5564 O   0  0  0  0  0  0  0  0  0  0  0  0
    0.0124    0.9588    1.4310 O   0  0  0  0  0  0  0  0  0  0  0  0
    7.7051   -0.5637   -1.7056 O   0  0  0  0  0  0  0  0  0  0  0  0
    8.9950    1.4755    0.8751 O   0  0  0  0  0  0  0  0  0  0  0  0
    2.9669   -2.7882    1.4240 H   0  0  0  0  0  0  0  0  0  0  0  0
    1.5208   -4.4408    1.9288 H   0  0  0  0  0  0  0  0  0  0  0  0
    1.7740   -4.1705   -1.0761 H   0  0  0  0  0  0  0  0  0  0  0  0
    2.9691   -4.7301    0.1030 H   0  0  0  0  0  0  0  0  0  0  0  0
    1.9631   -6.7868    0.4932 H   0  0  0  0  0  0  0  0  0  0  0  0
    1.4874   -6.4723   -1.1934 H   0  0  0  0  0  0  0  0  0  0  0  0
   -0.2914   -7.2701    0.5572 H   0  0  0  0  0  0  0  0  0  0  0  0
   -0.7182   -6.0662   -0.6712 H   0  0  0  0  0  0  0  0  0  0  0  0
   -0.1562   -5.5786    2.3019 H   0  0  0  0  0  0  0  0  0  0  0  0
   -1.6437   -5.3338    1.3125 H   0  0  0  0  0  0  0  0  0  0  0  0
   -1.6851   -4.1943   -0.3866 H   0  0  0  0  0  0  0  0  0  0  0  0
   -1.6666   -1.9677    1.3175 H   0  0  0  0  0  0  0  0  0  0  0  0
   -3.3379   -3.6610    1.6058 H   0  0  0  0  0  0  0  0  0  0  0  0
   -5.9350   -3.8267    1.4550 H   0  0  0  0  0  0  0  0  0  0  0  0
   -5.1802   -2.3571    2.1514 H   0  0  0  0  0  0  0  0  0  0  0  0
   -6.8698   -1.6825    0.6786 H   0  0  0  0  0  0  0  0  0  0  0  0
   -5.0809   -1.0213   -1.4417 H   0  0  0  0  0  0  0  0  0  0  0  0
   -6.2485    0.7768   -0.7503 H   0  0  0  0  0  0  0  0  0  0  0  0
   -3.5607    0.7210    0.5444 H   0  0  0  0  0  0  0  0  0  0  0  0
   -4.6555    1.7771    1.4468 H   0  0  0  0  0  0  0  0  0  0  0  0
   -3.4336    2.1538   -1.1929 H   0  0  0  0  0  0  0  0  0  0  0  0
   -3.8862    3.5225    1.2563 H   0  0  0  0  0  0  0  0  0  0  0  0
   -4.9021    4.4392    0.1302 H   0  0  0  0  0  0  0  0  0  0  0  0
   -2.7978    5.4489    0.1936 H   0  0  0  0  0  0  0  0  0  0  0  0
   -1.7872    3.3456    1.1696 H   0  0  0  0  0  0  0  0  0  0  0  0
   -1.3634    2.8724   -0.5392 H   0  0  0  0  0  0  0  0  0  0  0  0
   -0.5105    5.3542   -0.6141 H   0  0  0  0  0  0  0  0  0  0  0  0
    0.5944    3.2394   -1.0893 H   0  0  0  0  0  0  0  0  0  0  0  0
    0.9075    3.0911    1.9111 H   0  0  0  0  0  0  0  0  0  0  0  0
    2.4225    2.9908    1.0044 H   0  0  0  0  0  0  0  0  0  0  0  0
    0.6962    1.3900   -0.4836 H   0  0  0  0  0  0  0  0  0  0  0  0
    3.0135    1.3017    0.2587 H   0  0  0  0  0  0  0  0  0  0  0  0
    1.4683   -0.2517   -0.9737 H   0  0  0  0  0  0  0  0  0  0  0  0
    3.3958    0.1432   -1.8084 H   0  0  0  0  0  0  0  0  0  0  0  0
    5.4868   -1.1477   -1.4729 H   0  0  0  0  0  0  0  0  0  0  0  0
    4.8703   -1.9312   -0.0419 H   0  0  0  0  0  0  0  0  0  0  0  0
    5.0993    0.4740    1.1013 H   0  0  0  0  0  0  0  0  0  0  0  0
    7.2041   -0.1502    1.5586 H   0  0  0  0  0  0  0  0  0  0  0  0
    6.7822   -1.6090    0.6491 H   0  0  0  0  0  0  0  0  0  0  0  0
    8.8733   -0.6979   -0.0535 H   0  0  0  0  0  0  0  0  0  0  0  0
    8.8311    1.7007   -1.1255 H   0  0  0  0  0  0  0  0  0  0  0  0
    6.7137    2.2743    0.9186 H   0  0  0  0  0  0  0  0  0  0  0  0
    7.0011    3.0643   -0.6559 H   0  0  0  0  0  0  0  0  0  0  0  0
    5.9877    0.9989   -1.7647 H   0  0  0  0  0  0  0  0  0  0  0  0
    4.9472    2.0071   -0.6645 H   0  0  0  0  0  0  0  0  0  0  0  0
   -3.9158   -4.4376   -1.2315 H   0  0  0  0  0  0  0  0  0  0  0  0
   -3.7489   -5.5602    0.1963 H   0  0  0  0  0  0  0  0  0  0  0  0
   -5.3118   -4.8586   -0.2310 H   0  0  0  0  0  0  0  0  0  0  0  0
   -5.3045    3.6530   -1.9544 H   0  0  0  0  0  0  0  0  0  0  0  0
   -6.4273    2.7985   -0.8978 H   0  0  0  0  0  0  0  0  0  0  0  0
   -5.5321    1.9276   -2.2706 H   0  0  0  0  0  0  0  0  0  0  0  0
   -2.9582    3.8374   -2.4084 H   0  0  0  0  0  0  0  0  0  0  0  0
   -3.6837    5.4195   -2.0155 H   0  0  0  0  0  0  0  0  0  0  0  0
   -1.9128    5.2317   -2.1029 H   0  0  0  0  0  0  0  0  0  0  0  0
   -1.1715    6.0172    1.6267 H   0  0  0  0  0  0  0  0  0  0  0  0
   -0.2914    4.6675    2.3868 H   0  0  0  0  0  0  0  0  0  0  0  0
    0.9475    6.7302    2.6195 H   0  0  0  0  0  0  0  0  0  0  0  0
    1.8586    5.5943    1.5910 H   0  0  0  0  0  0  0  0  0  0  0  0
    2.1076    7.3856    0.2502 H   0  0  0  0  0  0  0  0  0  0  0  0
    0.7094    8.2689    0.9756 H   0  0  0  0  0  0  0  0  0  0  0  0
    0.4388    7.1008   -0.3264 H   0  0  0  0  0  0  0  0  0  0  0  0
    3.0052    1.4730    2.4606 H   0  0  0  0  0  0  0  0  0  0  0  0
    1.6173    0.4886    2.7866 H   0  0  0  0  0  0  0  0  0  0  0  0
    3.2522   -0.2469    2.4872 H   0  0  0  0  0  0  0  0  0  0  0  0
    3.6519   -2.8071   -1.6098 H   0  0  0  0  0  0  0  0  0  0  0  0
    3.6874   -1.6910   -3.0731 H   0  0  0  0  0  0  0  0  0  0  0  0
    2.1230   -2.0786   -2.1709 H   0  0  0  0  0  0  0  0  0  0  0  0
   -8.1599   -3.5399   -1.7401 H   0  0  0  0  0  0  0  0  0  0  0  0
   -8.2929   -3.2612    0.0583 H   0  0  0  0  0  0  0  0  0  0  0  0
   -8.2331   -1.8559   -1.0282 H   0  0  0  0  0  0  0  0  0  0  0  0
   -8.2951    0.1651    0.2509 H   0  0  0  0  0  0  0  0  0  0  0  0
   -7.7819    1.7709    0.7884 H   0  0  0  0  0  0  0  0  0  0  0  0
   -8.2148    0.5809    2.0191 H   0  0  0  0  0  0  0  0  0  0  0  0
    8.6899   -2.3570   -1.4984 H   0  0  0  0  0  0  0  0  0  0  0  0
    9.6675   -0.9499   -2.1716 H   0  0  0  0  0  0  0  0  0  0  0  0
    8.4207   -1.7620   -3.1594 H   0  0  0  0  0  0  0  0  0  0  0  0
    0.3927   -2.3800    2.4782 H   0  0  0  0  0  0  0  0  0  0  0  0
   -0.7875   -3.2751   -2.0603 H   0  0  0  0  0  0  0  0  0  0  0  0
   -1.2883   -1.2913   -1.4269 H   0  0  0  0  0  0  0  0  0  0  0  0
   -3.2286   -1.7895   -1.9581 H   0  0  0  0  0  0  0  0  0  0  0  0
    2.7321    4.2707   -0.6914 H   0  0  0  0  0  0  0  0  0  0  0  0
   -0.2177    1.5361    2.1791 H   0  0  0  0  0  0  0  0  0  0  0  0
    9.0846    0.6458    1.3903 H   0  0  0  0  0  0  0  0  0  0  0  0
  1  2  1  0
  2  3  1  0
  3  4  1  0
  4  5  1  0
  5  6  1  0
  7  8  1  0
  8  9  1  0
  9 10  1  0
 10 11  1  0
 11 12  1  0
 12 13  1  0
 13 14  1  0
 14 15  1  0
 15 16  1  0
 16 17  1  0
 17 18  1  0
 18 19  1  0
 19 20  1  0
 20 21  1  0
 21 22  1  0
 22 23  1  0
 23 24  1  0
 24 25  1  0
 25 26  1  0
 26 27  1  0
 27 28  1  0
 28 29  1  0
 29 30  1  0
 30 31  1  0
 31 32  1  0
 28 33  1  0
 32 33  1  0
 10 34  1  0
 16 35  1  0
 18 36  1  0
 20 37  1  0
 37 38  1  0
 38 39  1  0
 24 40  1  0
 26 41  1  0
  2 45  1  0
  6 45  1  0
  7 45  1  0
  1 46  1  0
 25 46  1  0
  1 47  1  0
  7 48  1  0
  8 49  1  0
  9 50  1  0
 13 50  1  0
  9 51  1  6
 12 52  1  0
 42 52  1  0
 14 53  1  0
 43 53  1  0
 21 54  1  0
 23 55  1  0
 30 56  1  0
 44 56  1  0
 31 57  1  0
  1 58  1  0
  2 59  1  1
  3 60  1  0
  3 61  1  0
  4 62  1  0
  4 63  1  0
  5 64  1  0
  5 65  1  0
  6 66  1  0
  6 67  1  0
  7 68  1  0
  8 69  1  0
 10 70  1  1
 11 71  1  0
 11 72  1  0
 12 73  1  1
 13 74  1  6
 14 75  1  6
 15 76  1  0
 15 77  1  0
 16 78  1  6
 17 79  1  0
 17 80  1  0
 18 81  1  0
 19 82  1  0
 19 83  1  0
 20 84  1  6
 21 85  1  0
 22 86  1  0
 22 87  1  0
 23 88  1  6
 24 89  1  6
 25 90  1  6
 26 91  1  0
 27 92  1  0
 27 93  1  0
 28 94  1  1
 29 95  1  0
 29 96  1  0
 30 97  1  1
 31 98  1  6
 32 99  1  0
 32100  1  0
 33101  1  0
 33102  1  0
 34103  1  0
 34104  1  0
 34105  1  0
 35106  1  0
 35107  1  0
 35108  1  0
 36109  1  0
 36110  1  0
 36111  1  0
 37112  1  0
 37113  1  0
 38114  1  0
 38115  1  0
 39116  1  0
 39117  1  0
 39118  1  0
 40119  1  0
 40120  1  0
 40121  1  0
 41122  1  0
 41123  1  0
 41124  1  0
 42125  1  0
 42126  1  0
 42127  1  0
 43128  1  0
 43129  1  0
 43130  1  0
 44131  1  0
 44132  1  0
 44133  1  0
 47134  1  0
 48135  1  0
 49136  1  0
 51137  1  0
 54138  1  0
 55139  1  0
 57140  1  0
M  END
>  <PDBID>  (1) 
1FKF

>  <PDB ID>  (1) 
1FKF

>  <Generic Name>  (1) 
Tacrolimus

>  <Brand Name>  (1) 
Ach-tacrolimus#Advagraf#Astagraf XL#Envarsus XR#Hecoria#Prograf#Protopic#Ran-tacrolimus#Sandoz Tacrolimus#Tacrolimus

>  <DrugBank ID>  (1) 
DB00864

>  <ATC Codes>  (1) 
D11AH01#L04AD02

>  <Ligand ID>  (1) 
FK5

>  <Target Name>  (1) 
Peptidyl-prolyl cis-trans isomerase FKBP1A

>  <UniProt ID>  (1) 
P62942

>  <PDB ID.1>  (1) 
1FKF

>  <Seq. Identity>  (1) 
100%

$$$$
