PDB_DB00655_05
     RDKit          3D

100106  0  0  0  0  0  0  0  0999 V2000
    0.2311   -0.5628    0.5443 C   0  0  2  0  0  0  0  0  0  0  0  0
   -1.9665   -0.1444    1.7372 C   0  0  0  0  0  0  0  0  0  0  0  0
   -2.6173    0.1024    0.4431 C   0  0  2  0  0  0  0  0  0  0  0  0
   -2.8374    1.5884    0.1789 C   0  0  0  0  0  0  0  0  0  0  0  0
   -5.0102    0.0942    0.7438 O   0  0  0  0  0  0  0  0  0  0  0  0
    5.7291    0.0029    0.4429 O   0  0  0  0  0  0  0  0  0  0  0  0
   -3.9107   -0.5937    0.1948 C   0  0  1  0  0  0  0  0  0  0  0  0
   -4.0139   -0.6534   -1.3154 C   0  0  0  0  0  0  0  0  0  0  0  0
   -2.6180   -0.3243   -1.8531 C   0  0  0  0  0  0  0  0  0  0  0  0
   -1.7734   -0.5211   -0.6793 C   0  0  1  0  0  0  0  0  0  0  0  0
   -0.4801    0.1803   -0.5981 C   0  0  2  0  0  0  0  0  0  0  0  0
   -0.6078   -0.7136    1.7456 C   0  0  0  0  0  0  0  0  0  0  0  0
    0.3470    0.2129   -1.8234 C   0  0  0  0  0  0  0  0  0  0  0  0
    1.5894    1.0532   -1.4918 C   0  0  0  0  0  0  0  0  0  0  0  0
    2.3483    0.3049   -0.4455 C   0  0  0  0  0  0  0  0  0  0  0  0
    1.5895    0.0521    0.8156 C   0  0  0  0  0  0  0  0  0  0  0  0
    3.6249    1.0566   -0.0725 C   0  0  0  0  0  0  0  0  0  0  0  0
    4.4316    0.2440    0.8906 C   0  0  0  0  0  0  0  0  0  0  0  0
    3.7932   -1.1041    1.1494 C   0  0  0  0  0  0  0  0  0  0  0  0
    2.3644   -0.9738    1.6211 C   0  0  0  0  0  0  0  0  0  0  0  0
    0.2311   -0.5628    0.5443 C   0  0  2  0  0  0  0  0  0  0  0  0
   -1.9665   -0.1444    1.7372 C   0  0  0  0  0  0  0  0  0  0  0  0
   -2.6173    0.1024    0.4431 C   0  0  2  0  0  0  0  0  0  0  0  0
   -2.8374    1.5884    0.1789 C   0  0  0  0  0  0  0  0  0  0  0  0
   -5.0102    0.0942    0.7438 O   0  0  0  0  0  0  0  0  0  0  0  0
    5.7291    0.0029    0.4429 O   0  0  0  0  0  0  0  0  0  0  0  0
   -3.9107   -0.5937    0.1948 C   0  0  1  0  0  0  0  0  0  0  0  0
   -4.0139   -0.6534   -1.3154 C   0  0  0  0  0  0  0  0  0  0  0  0
   -2.6180   -0.3243   -1.8531 C   0  0  0  0  0  0  0  0  0  0  0  0
   -1.7734   -0.5211   -0.6793 C   0  0  1  0  0  0  0  0  0  0  0  0
   -0.4801    0.1803   -0.5981 C   0  0  2  0  0  0  0  0  0  0  0  0
   -0.6078   -0.7136    1.7456 C   0  0  0  0  0  0  0  0  0  0  0  0
    0.3470    0.2129   -1.8234 C   0  0  0  0  0  0  0  0  0  0  0  0
    1.5894    1.0532   -1.4918 C   0  0  0  0  0  0  0  0  0  0  0  0
    2.3483    0.3049   -0.4455 C   0  0  0  0  0  0  0  0  0  0  0  0
    1.5895    0.0521    0.8156 C   0  0  0  0  0  0  0  0  0  0  0  0
    3.6249    1.0566   -0.0725 C   0  0  0  0  0  0  0  0  0  0  0  0
    4.4316    0.2440    0.8906 C   0  0  0  0  0  0  0  0  0  0  0  0
    3.7932   -1.1041    1.1494 C   0  0  0  0  0  0  0  0  0  0  0  0
    2.3644   -0.9738    1.6211 C   0  0  0  0  0  0  0  0  0  0  0  0
    0.4554   -1.5763    0.0939 H   0  0  0  0  0  0  0  0  0  0  0  0
   -1.9450    0.8380    2.2991 H   0  0  0  0  0  0  0  0  0  0  0  0
   -2.6662   -0.7759    2.3637 H   0  0  0  0  0  0  0  0  0  0  0  0
   -2.4074    1.9270   -0.7607 H   0  0  0  0  0  0  0  0  0  0  0  0
   -3.9066    1.8526    0.2829 H   0  0  0  0  0  0  0  0  0  0  0  0
   -2.3094    2.1349    0.9964 H   0  0  0  0  0  0  0  0  0  0  0  0
   -5.6179    0.3436   -0.0209 H   0  0  0  0  0  0  0  0  0  0  0  0
    6.2604    0.8291    0.3295 H   0  0  0  0  0  0  0  0  0  0  0  0
   -3.8457   -1.6225    0.6428 H   0  0  0  0  0  0  0  0  0  0  0  0
   -4.2120   -1.7120   -1.5836 H   0  0  0  0  0  0  0  0  0  0  0  0
   -4.7726    0.0445   -1.7171 H   0  0  0  0  0  0  0  0  0  0  0  0
   -2.3264   -1.0767   -2.6433 H   0  0  0  0  0  0  0  0  0  0  0  0
   -2.5868    0.6489   -2.3398 H   0  0  0  0  0  0  0  0  0  0  0  0
   -1.7258   -1.6026   -0.4289 H   0  0  0  0  0  0  0  0  0  0  0  0
   -0.5659    1.2398   -0.2162 H   0  0  0  0  0  0  0  0  0  0  0  0
   -0.6960   -1.8098    2.0132 H   0  0  0  0  0  0  0  0  0  0  0  0
   -0.0241   -0.2920    2.6198 H   0  0  0  0  0  0  0  0  0  0  0  0
    0.6931   -0.8063   -2.0621 H   0  0  0  0  0  0  0  0  0  0  0  0
   -0.1990    0.7063   -2.6254 H   0  0  0  0  0  0  0  0  0  0  0  0
    1.2714    2.0193   -1.0715 H   0  0  0  0  0  0  0  0  0  0  0  0
    2.2351    1.1643   -2.3743 H   0  0  0  0  0  0  0  0  0  0  0  0
    2.6021   -0.7017   -0.8825 H   0  0  0  0  0  0  0  0  0  0  0  0
    1.5258    0.9816    1.3948 H   0  0  0  0  0  0  0  0  0  0  0  0
    3.2976    1.9842    0.4262 H   0  0  0  0  0  0  0  0  0  0  0  0
    4.1949    1.2977   -0.9938 H   0  0  0  0  0  0  0  0  0  0  0  0
    4.5023    0.7469    1.8889 H   0  0  0  0  0  0  0  0  0  0  0  0
    4.3811   -1.5673    1.9909 H   0  0  0  0  0  0  0  0  0  0  0  0
    3.9017   -1.7918    0.2964 H   0  0  0  0  0  0  0  0  0  0  0  0
    2.3599   -0.7323    2.7020 H   0  0  0  0  0  0  0  0  0  0  0  0
    1.9128   -1.9920    1.5389 H   0  0  0  0  0  0  0  0  0  0  0  0
    0.4554   -1.5763    0.0939 H   0  0  0  0  0  0  0  0  0  0  0  0
   -1.9450    0.8380    2.2991 H   0  0  0  0  0  0  0  0  0  0  0  0
   -2.6662   -0.7759    2.3637 H   0  0  0  0  0  0  0  0  0  0  0  0
   -2.4074    1.9270   -0.7607 H   0  0  0  0  0  0  0  0  0  0  0  0
   -3.9066    1.8526    0.2829 H   0  0  0  0  0  0  0  0  0  0  0  0
   -2.3094    2.1349    0.9964 H   0  0  0  0  0  0  0  0  0  0  0  0
   -5.6179    0.3436   -0.0209 H   0  0  0  0  0  0  0  0  0  0  0  0
    6.2604    0.8291    0.3295 H   0  0  0  0  0  0  0  0  0  0  0  0
   -3.8457   -1.6225    0.6428 H   0  0  0  0  0  0  0  0  0  0  0  0
   -4.2120   -1.7120   -1.5836 H   0  0  0  0  0  0  0  0  0  0  0  0
   -4.7726    0.0445   -1.7171 H   0  0  0  0  0  0  0  0  0  0  0  0
   -2.3264   -1.0767   -2.6433 H   0  0  0  0  0  0  0  0  0  0  0  0
   -2.5868    0.6489   -2.3398 H   0  0  0  0  0  0  0  0  0  0  0  0
   -1.7258   -1.6026   -0.4289 H   0  0  0  0  0  0  0  0  0  0  0  0
   -0.5659    1.2398   -0.2162 H   0  0  0  0  0  0  0  0  0  0  0  0
   -0.6960   -1.8098    2.0132 H   0  0  0  0  0  0  0  0  0  0  0  0
   -0.0241   -0.2920    2.6198 H   0  0  0  0  0  0  0  0  0  0  0  0
    0.6931   -0.8063   -2.0621 H   0  0  0  0  0  0  0  0  0  0  0  0
   -0.1990    0.7063   -2.6254 H   0  0  0  0  0  0  0  0  0  0  0  0
    1.2714    2.0193   -1.0715 H   0  0  0  0  0  0  0  0  0  0  0  0
    2.2351    1.1643   -2.3743 H   0  0  0  0  0  0  0  0  0  0  0  0
    2.6021   -0.7017   -0.8825 H   0  0  0  0  0  0  0  0  0  0  0  0
    1.5258    0.9816    1.3948 H   0  0  0  0  0  0  0  0  0  0  0  0
    3.2976    1.9842    0.4262 H   0  0  0  0  0  0  0  0  0  0  0  0
    4.1949    1.2977   -0.9938 H   0  0  0  0  0  0  0  0  0  0  0  0
    4.5023    0.7469    1.8889 H   0  0  0  0  0  0  0  0  0  0  0  0
    4.3811   -1.5673    1.9909 H   0  0  0  0  0  0  0  0  0  0  0  0
    3.9017   -1.7918    0.2964 H   0  0  0  0  0  0  0  0  0  0  0  0
    2.3599   -0.7323    2.7020 H   0  0  0  0  0  0  0  0  0  0  0  0
    1.9128   -1.9920    1.5389 H   0  0  0  0  0  0  0  0  0  0  0  0
  2  3  1  0
  3  4  1  6
  3  7  1  0
  5  7  1  0
  7  8  1  0
  8  9  1  0
  3 10  1  0
  9 10  1  0
  1 11  1  0
 10 11  1  0
  1 12  1  0
  2 12  1  0
 11 13  1  0
 13 14  1  0
 14 15  1  0
  1 16  1  0
 15 16  1  0
 15 17  1  0
  6 18  1  0
 17 18  1  0
 18 19  1  0
 16 20  1  0
 19 20  1  0
 22 23  1  0
 23 24  1  6
 23 27  1  0
 25 27  1  0
 27 28  1  0
 28 29  1  0
 23 30  1  0
 29 30  1  0
 21 31  1  0
 30 31  1  0
 21 32  1  0
 22 32  1  0
 31 33  1  0
 33 34  1  0
 34 35  1  0
 21 36  1  0
 35 36  1  0
 35 37  1  0
 26 38  1  0
 37 38  1  0
 38 39  1  0
 36 40  1  0
 39 40  1  0
  1 41  1  6
  2 42  1  0
  2 43  1  0
  4 44  1  0
  4 45  1  0
  4 46  1  0
  5 47  1  0
  6 48  1  0
  7 49  1  1
  8 50  1  0
  8 51  1  0
  9 52  1  0
  9 53  1  0
 10 54  1  1
 11 55  1  1
 12 56  1  0
 12 57  1  0
 13 58  1  0
 13 59  1  0
 14 60  1  0
 14 61  1  0
 15 62  1  0
 16 63  1  0
 17 64  1  0
 17 65  1  0
 18 66  1  0
 19 67  1  0
 19 68  1  0
 20 69  1  0
 20 70  1  0
 21 71  1  6
 22 72  1  0
 22 73  1  0
 24 74  1  0
 24 75  1  0
 24 76  1  0
 25 77  1  0
 26 78  1  0
 27 79  1  1
 28 80  1  0
 28 81  1  0
 29 82  1  0
 29 83  1  0
 30 84  1  1
 31 85  1  1
 32 86  1  0
 32 87  1  0
 33 88  1  0
 33 89  1  0
 34 90  1  0
 34 91  1  0
 35 92  1  0
 36 93  1  0
 37 94  1  0
 37 95  1  0
 38 96  1  0
 39 97  1  0
 39 98  1  0
 40 99  1  0
 40100  1  0
M  END
>  <PDBID>  (1) 
3HM1

>  <PDB ID>  (1) 
3HM1

>  <Generic Name>  (1) 
Estrone

>  <Brand Name>  (1) 
Estragyn Vaginal Cream#Oestrilin Cones Vaginaux#Oestrilin Creme Vaginale 1mg#Estrone

>  <DrugBank ID>  (1) 
DB00655

>  <ATC Codes>  (1) 
G03CA07#G03CC04

>  <Ligand ID>  (1) 
J3Z

>  <Target Name>  (1) 
Estrogen receptor

>  <UniProt ID>  (1) 
P03372

>  <PDB ID.1>  (1) 
3HM1

>  <Seq. Identity>  (1) 
93%

$$$$
