PDB_DB04854_03
     RDKit          3D

108110  0  0  0  0  0  0  0  0999 V2000
   -3.1175   -0.4031    1.0418 S   0  0  0  0  0  0  0  0  0  0  0  0
   -1.7393    0.5002    0.2226 C   0  0  0  0  0  0  0  0  0  0  0  0
   -2.4551    1.6868   -0.2103 N   0  0  0  0  0  0  0  0  0  0  0  0
   -3.6569    1.2182   -0.8591 C   0  0  0  0  0  0  0  0  0  0  0  0
   -4.4827    0.5219    0.2248 C   0  0  0  0  0  0  0  0  0  0  0  0
   -0.7040    0.8192    1.2695 C   0  0  0  0  0  0  0  0  0  0  0  0
   -0.2180   -0.4765    1.8555 C   0  0  0  0  0  0  0  0  0  0  0  0
    1.0423   -1.0048    1.2101 C   0  0  0  0  0  0  0  0  0  0  0  0
    2.1388    0.0113    1.1694 C   0  0  0  0  0  0  0  0  0  0  0  0
    1.6484    1.3944    1.5585 C   0  0  0  0  0  0  0  0  0  0  0  0
    0.3742    1.7217    0.7709 C   0  0  0  0  0  0  0  0  0  0  0  0
    1.4673   -2.2055    2.0641 C   0  0  0  0  0  0  0  0  0  0  0  0
    2.6771   -2.8094    1.5437 N   0  0  0  0  0  0  0  0  0  0  0  0
    2.6461    0.1361   -0.1287 O   0  0  0  0  0  0  0  0  0  0  0  0
    3.9991   -0.0806   -0.2118 C   0  0  0  0  0  0  0  0  0  0  0  0
    4.3867    0.0941   -1.6779 C   0  0  0  0  0  0  0  0  0  0  0  0
    4.0409    1.4901   -2.1262 C   0  0  0  0  0  0  0  0  0  0  0  0
    3.6596   -0.9741   -2.4594 C   0  0  0  0  0  0  0  0  0  0  0  0
   -3.2757    0.2365   -1.9440 C   0  0  0  0  0  0  0  0  0  0  0  0
   -5.4449   -0.4641   -0.3724 C   0  0  0  0  0  0  0  0  0  0  0  0
   -6.4788    0.2734   -0.9899 O   0  0  0  0  0  0  0  0  0  0  0  0
   -6.0446   -1.1845    0.6594 O   0  0  0  0  0  0  0  0  0  0  0  0
   -3.1175   -0.4031    1.0418 S   0  0  0  0  0  0  0  0  0  0  0  0
   -1.7393    0.5002    0.2226 C   0  0  0  0  0  0  0  0  0  0  0  0
   -2.4551    1.6868   -0.2103 N   0  0  0  0  0  0  0  0  0  0  0  0
   -3.6569    1.2182   -0.8591 C   0  0  0  0  0  0  0  0  0  0  0  0
   -4.4827    0.5219    0.2248 C   0  0  0  0  0  0  0  0  0  0  0  0
   -0.7040    0.8192    1.2695 C   0  0  0  0  0  0  0  0  0  0  0  0
   -0.2180   -0.4765    1.8555 C   0  0  0  0  0  0  0  0  0  0  0  0
    1.0423   -1.0048    1.2101 C   0  0  0  0  0  0  0  0  0  0  0  0
    2.1388    0.0113    1.1694 C   0  0  0  0  0  0  0  0  0  0  0  0
    1.6484    1.3944    1.5585 C   0  0  0  0  0  0  0  0  0  0  0  0
    0.3742    1.7217    0.7709 C   0  0  0  0  0  0  0  0  0  0  0  0
    1.4673   -2.2055    2.0641 C   0  0  0  0  0  0  0  0  0  0  0  0
    2.6771   -2.8094    1.5437 N   0  0  0  0  0  0  0  0  0  0  0  0
    2.6461    0.1361   -0.1287 O   0  0  0  0  0  0  0  0  0  0  0  0
    3.9991   -0.0806   -0.2118 C   0  0  0  0  0  0  0  0  0  0  0  0
    4.3867    0.0941   -1.6779 C   0  0  0  0  0  0  0  0  0  0  0  0
    4.0409    1.4901   -2.1262 C   0  0  0  0  0  0  0  0  0  0  0  0
    3.6596   -0.9741   -2.4594 C   0  0  0  0  0  0  0  0  0  0  0  0
   -3.2757    0.2365   -1.9440 C   0  0  0  0  0  0  0  0  0  0  0  0
   -5.4449   -0.4641   -0.3724 C   0  0  0  0  0  0  0  0  0  0  0  0
   -6.4788    0.2734   -0.9899 O   0  0  0  0  0  0  0  0  0  0  0  0
   -6.0446   -1.1845    0.6594 O   0  0  0  0  0  0  0  0  0  0  0  0
   -1.3481   -0.0336   -0.6375 H   0  0  0  0  0  0  0  0  0  0  0  0
   -1.9301    2.2420   -0.9006 H   0  0  0  0  0  0  0  0  0  0  0  0
   -4.1892    2.0441   -1.3237 H   0  0  0  0  0  0  0  0  0  0  0  0
   -4.9432    1.2547    0.8797 H   0  0  0  0  0  0  0  0  0  0  0  0
   -1.2289    1.3531    2.1154 H   0  0  0  0  0  0  0  0  0  0  0  0
   -0.9898   -1.2887    1.7440 H   0  0  0  0  0  0  0  0  0  0  0  0
   -0.0335   -0.4093    2.9619 H   0  0  0  0  0  0  0  0  0  0  0  0
    0.7926   -1.3465    0.1868 H   0  0  0  0  0  0  0  0  0  0  0  0
    2.9811   -0.2482    1.8343 H   0  0  0  0  0  0  0  0  0  0  0  0
    2.3960    2.1690    1.3968 H   0  0  0  0  0  0  0  0  0  0  0  0
    1.3752    1.3974    2.6337 H   0  0  0  0  0  0  0  0  0  0  0  0
    0.5837    1.5527   -0.3102 H   0  0  0  0  0  0  0  0  0  0  0  0
    0.1026    2.7635    0.9880 H   0  0  0  0  0  0  0  0  0  0  0  0
    1.5778   -1.9065    3.1267 H   0  0  0  0  0  0  0  0  0  0  0  0
    0.6892   -2.9927    2.0455 H   0  0  0  0  0  0  0  0  0  0  0  0
    2.6022   -2.7275    0.4892 H   0  0  0  0  0  0  0  0  0  0  0  0
    2.8078   -3.7832    1.8515 H   0  0  0  0  0  0  0  0  0  0  0  0
    4.5841    0.6852    0.3439 H   0  0  0  0  0  0  0  0  0  0  0  0
    4.3153   -1.1061    0.0581 H   0  0  0  0  0  0  0  0  0  0  0  0
    5.4892   -0.0955   -1.7108 H   0  0  0  0  0  0  0  0  0  0  0  0
    3.7368    1.4333   -3.1916 H   0  0  0  0  0  0  0  0  0  0  0  0
    4.9875    2.0958   -2.0994 H   0  0  0  0  0  0  0  0  0  0  0  0
    3.2658    1.9399   -1.4947 H   0  0  0  0  0  0  0  0  0  0  0  0
    2.5887   -0.6857   -2.5255 H   0  0  0  0  0  0  0  0  0  0  0  0
    3.7930   -1.9317   -1.9306 H   0  0  0  0  0  0  0  0  0  0  0  0
    4.1205   -1.0776   -3.4724 H   0  0  0  0  0  0  0  0  0  0  0  0
   -3.0419   -0.7658   -1.5718 H   0  0  0  0  0  0  0  0  0  0  0  0
   -4.1595    0.1239   -2.6310 H   0  0  0  0  0  0  0  0  0  0  0  0
   -2.4694    0.6745   -2.5622 H   0  0  0  0  0  0  0  0  0  0  0  0
   -5.0119   -1.0868   -1.1530 H   0  0  0  0  0  0  0  0  0  0  0  0
   -6.9598    0.7137   -0.2271 H   0  0  0  0  0  0  0  0  0  0  0  0
   -6.9471   -1.4587    0.4053 H   0  0  0  0  0  0  0  0  0  0  0  0
   -1.3481   -0.0336   -0.6375 H   0  0  0  0  0  0  0  0  0  0  0  0
   -1.9301    2.2420   -0.9006 H   0  0  0  0  0  0  0  0  0  0  0  0
   -4.1892    2.0441   -1.3237 H   0  0  0  0  0  0  0  0  0  0  0  0
   -4.9432    1.2547    0.8797 H   0  0  0  0  0  0  0  0  0  0  0  0
   -1.2289    1.3531    2.1154 H   0  0  0  0  0  0  0  0  0  0  0  0
   -0.9898   -1.2887    1.7440 H   0  0  0  0  0  0  0  0  0  0  0  0
   -0.0335   -0.4093    2.9619 H   0  0  0  0  0  0  0  0  0  0  0  0
    0.7926   -1.3465    0.1868 H   0  0  0  0  0  0  0  0  0  0  0  0
    2.9811   -0.2482    1.8343 H   0  0  0  0  0  0  0  0  0  0  0  0
    2.3960    2.1690    1.3968 H   0  0  0  0  0  0  0  0  0  0  0  0
    1.3752    1.3974    2.6337 H   0  0  0  0  0  0  0  0  0  0  0  0
    0.5837    1.5527   -0.3102 H   0  0  0  0  0  0  0  0  0  0  0  0
    0.1026    2.7635    0.9880 H   0  0  0  0  0  0  0  0  0  0  0  0
    1.5778   -1.9065    3.1267 H   0  0  0  0  0  0  0  0  0  0  0  0
    0.6892   -2.9927    2.0455 H   0  0  0  0  0  0  0  0  0  0  0  0
    2.6022   -2.7275    0.4892 H   0  0  0  0  0  0  0  0  0  0  0  0
    2.8078   -3.7832    1.8515 H   0  0  0  0  0  0  0  0  0  0  0  0
    4.5841    0.6852    0.3439 H   0  0  0  0  0  0  0  0  0  0  0  0
    4.3153   -1.1061    0.0581 H   0  0  0  0  0  0  0  0  0  0  0  0
    5.4892   -0.0955   -1.7108 H   0  0  0  0  0  0  0  0  0  0  0  0
    3.7368    1.4333   -3.1916 H   0  0  0  0  0  0  0  0  0  0  0  0
    4.9875    2.0958   -2.0994 H   0  0  0  0  0  0  0  0  0  0  0  0
    3.2658    1.9399   -1.4947 H   0  0  0  0  0  0  0  0  0  0  0  0
    2.5887   -0.6857   -2.5255 H   0  0  0  0  0  0  0  0  0  0  0  0
    3.7930   -1.9317   -1.9306 H   0  0  0  0  0  0  0  0  0  0  0  0
    4.1205   -1.0776   -3.4724 H   0  0  0  0  0  0  0  0  0  0  0  0
   -3.0419   -0.7658   -1.5718 H   0  0  0  0  0  0  0  0  0  0  0  0
   -4.1595    0.1239   -2.6310 H   0  0  0  0  0  0  0  0  0  0  0  0
   -2.4694    0.6745   -2.5622 H   0  0  0  0  0  0  0  0  0  0  0  0
   -5.0119   -1.0868   -1.1530 H   0  0  0  0  0  0  0  0  0  0  0  0
   -6.9598    0.7137   -0.2271 H   0  0  0  0  0  0  0  0  0  0  0  0
   -6.9471   -1.4587    0.4053 H   0  0  0  0  0  0  0  0  0  0  0  0
  1  2  1  0
  2  3  1  0
  3  4  1  0
  1  5  1  0
  4  5  1  0
  2  6  1  0
  6  7  1  0
  7  8  1  0
  8  9  1  0
  9 10  1  0
  6 11  1  0
 10 11  1  0
  8 12  1  0
 12 13  1  0
  9 14  1  0
 14 15  1  0
 15 16  1  0
 16 17  1  0
 16 18  1  0
  4 19  1  0
  5 20  1  0
 20 21  1  0
 20 22  1  0
 23 24  1  0
 24 25  1  0
 25 26  1  0
 23 27  1  0
 26 27  1  0
 24 28  1  0
 28 29  1  0
 29 30  1  0
 30 31  1  0
 31 32  1  0
 28 33  1  0
 32 33  1  0
 30 34  1  0
 34 35  1  0
 31 36  1  0
 36 37  1  0
 37 38  1  0
 38 39  1  0
 38 40  1  0
 26 41  1  0
 27 42  1  0
 42 43  1  0
 42 44  1  0
  2 45  1  0
  3 46  1  0
  4 47  1  0
  5 48  1  0
  6 49  1  0
  7 50  1  0
  7 51  1  0
  8 52  1  0
  9 53  1  0
 10 54  1  0
 10 55  1  0
 11 56  1  0
 11 57  1  0
 12 58  1  0
 12 59  1  0
 13 60  1  0
 13 61  1  0
 15 62  1  0
 15 63  1  0
 16 64  1  0
 17 65  1  0
 17 66  1  0
 17 67  1  0
 18 68  1  0
 18 69  1  0
 18 70  1  0
 19 71  1  0
 19 72  1  0
 19 73  1  0
 20 74  1  0
 21 75  1  0
 22 76  1  0
 24 77  1  0
 25 78  1  0
 26 79  1  0
 27 80  1  0
 28 81  1  0
 29 82  1  0
 29 83  1  0
 30 84  1  0
 31 85  1  0
 32 86  1  0
 32 87  1  0
 33 88  1  0
 33 89  1  0
 34 90  1  0
 34 91  1  0
 35 92  1  0
 35 93  1  0
 37 94  1  0
 37 95  1  0
 38 96  1  0
 39 97  1  0
 39 98  1  0
 39 99  1  0
 40100  1  0
 40101  1  0
 40102  1  0
 41103  1  0
 41104  1  0
 41105  1  0
 42106  1  0
 43107  1  0
 44108  1  0
M  END
>  <PDBID>  (1) 
1N5X

>  <PDB ID>  (1) 
1N5X

>  <Generic Name>  (1) 
Febuxostat

>  <Brand Name>  (1) 
Febuxostat#Uloric#Adenuric#Atenurix#Barif#Feburic

>  <DrugBank ID>  (1) 
DB04854

>  <ATC Codes>  (1) 
M04AA03

>  <Ligand ID>  (1) 
TEI

>  <Target Name>  (1) 
Xanthine dehydrogenase/oxidase

>  <UniProt ID>  (1) 
P47989

>  <PDB ID.1>  (1) 
1N5X

>  <Seq. Identity>  (1) 
85%

$$$$
