PDB_DB00284_01
     RDKit          3D

 89 92  0  0  0  0  0  0  0  0999 V2000
   -5.9503   -0.0356    0.1309 C   0  0  2  0  0  0  0  0  0  0  0  0
   -6.4896    1.3361    0.2257 C   0  0  1  0  0  0  0  0  0  0  0  0
   -8.0423    1.2679    0.1252 C   0  0  2  0  0  0  0  0  0  0  0  0
   -8.4752    0.1449   -0.7811 C   0  0  1  0  0  0  0  0  0  0  0  0
   -8.2085   -1.1390   -0.0108 C   0  0  0  0  0  0  0  0  0  0  0  0
   -7.9775   -2.2363   -1.0084 C   0  0  0  0  0  0  0  0  0  0  0  0
   -6.9989   -0.9444    0.8438 C   0  0  0  0  0  0  0  0  0  0  0  0
   -6.3105    1.9392    1.4897 O   0  0  0  0  0  0  0  0  0  0  0  0
   -8.5363    2.4923   -0.3211 O   0  0  0  0  0  0  0  0  0  0  0  0
   -9.8429    0.2639   -0.9635 O   0  0  0  0  0  0  0  0  0  0  0  0
   -9.0850   -2.4245   -1.8403 O   0  0  0  0  0  0  0  0  0  0  0  0
   -0.7128    0.3647    0.1324 C   0  0  2  0  0  0  0  0  0  0  0  0
   -1.6240    1.3722   -0.4678 C   0  0  1  0  0  0  0  0  0  0  0  0
   -2.9673    1.3085    0.3147 C   0  0  2  0  0  0  0  0  0  0  0  0
   -3.4544   -0.0666    0.1870 C   0  0  1  0  0  0  0  0  0  0  0  0
   -2.3775   -0.9305    0.9314 C   0  0  1  0  0  0  0  0  0  0  0  0
   -2.0775   -2.1712    0.1626 C   0  0  0  0  0  0  0  0  0  0  0  0
   -4.7195   -0.4133    0.5932 N   0  0  0  0  0  0  0  0  0  0  0  0
   -1.2012    2.6865   -0.3147 O   0  0  0  0  0  0  0  0  0  0  0  0
   -3.7545    2.3551   -0.0312 O   0  0  0  0  0  0  0  0  0  0  0  0
   -1.2729   -0.1679    1.2656 O   0  0  0  0  0  0  0  0  0  0  0  0
    4.3870   -0.1049   -0.8085 C   0  0  2  0  0  0  0  0  0  0  0  0
    3.6640    1.1071   -1.3178 C   0  0  1  0  0  0  0  0  0  0  0  0
    2.2092    0.9296   -1.5384 C   0  0  2  0  0  0  0  0  0  0  0  0
    1.5048    0.0672   -0.5035 C   0  0  1  0  0  0  0  0  0  0  0  0
    2.5681   -0.4470    0.4285 C   0  0  1  0  0  0  0  0  0  0  0  0
    2.0465   -1.3208    1.5287 C   0  0  0  0  0  0  0  0  0  0  0  0
    3.9075    2.2492   -0.5191 O   0  0  0  0  0  0  0  0  0  0  0  0
    1.9980    0.4755   -2.8415 O   0  0  0  0  0  0  0  0  0  0  0  0
    0.6001    0.7763    0.2406 O   0  0  0  0  0  0  0  0  0  0  0  0
    3.5194   -1.0942   -0.3569 O   0  0  0  0  0  0  0  0  0  0  0  0
    1.4618   -2.4323    0.9518 O   0  0  0  0  0  0  0  0  0  0  0  0
    9.2397    0.1929    0.8925 C   0  0  1  0  0  0  0  0  0  0  0  0
    8.7869    0.9290   -0.3503 C   0  0  1  0  0  0  0  0  0  0  0  0
    7.3489    1.3431   -0.1143 C   0  0  2  0  0  0  0  0  0  0  0  0
    6.5450    0.0572    0.0163 C   0  0  1  0  0  0  0  0  0  0  0  0
    7.1693   -0.8674    1.0013 C   0  0  1  0  0  0  0  0  0  0  0  0
    7.6062   -2.1746    0.3285 C   0  0  0  0  0  0  0  0  0  0  0  0
    9.9270    1.1541    1.6706 O   0  0  0  0  0  0  0  0  0  0  0  0
    9.6072    2.0189   -0.6283 O   0  0  0  0  0  0  0  0  0  0  0  0
    6.9412    2.0221   -1.2723 O   0  0  0  0  0  0  0  0  0  0  0  0
    5.2036    0.3043    0.2355 O   0  0  0  0  0  0  0  0  0  0  0  0
    8.2091   -0.2704    1.6686 O   0  0  0  0  0  0  0  0  0  0  0  0
    8.0755   -3.0682    1.2930 O   0  0  0  0  0  0  0  0  0  0  0  0
   -6.0974   -0.3311   -0.9679 H   0  0  0  0  0  0  0  0  0  0  0  0
   -6.2431    2.0140   -0.6166 H   0  0  0  0  0  0  0  0  0  0  0  0
   -8.4846    1.1061    1.1267 H   0  0  0  0  0  0  0  0  0  0  0  0
   -7.9549    0.1816   -1.7417 H   0  0  0  0  0  0  0  0  0  0  0  0
   -9.1100   -1.3393    0.6070 H   0  0  0  0  0  0  0  0  0  0  0  0
   -7.8524   -3.1882   -0.4255 H   0  0  0  0  0  0  0  0  0  0  0  0
   -7.0674   -2.0087   -1.5788 H   0  0  0  0  0  0  0  0  0  0  0  0
   -7.2760   -0.3872    1.7572 H   0  0  0  0  0  0  0  0  0  0  0  0
   -6.5180   -1.8878    1.1643 H   0  0  0  0  0  0  0  0  0  0  0  0
   -6.9944    1.6066    2.1313 H   0  0  0  0  0  0  0  0  0  0  0  0
   -7.8661    3.0436   -0.7647 H   0  0  0  0  0  0  0  0  0  0  0  0
  -10.0721    0.6076   -1.8666 H   0  0  0  0  0  0  0  0  0  0  0  0
   -8.7674   -2.5722   -2.7668 H   0  0  0  0  0  0  0  0  0  0  0  0
   -0.6663   -0.5015   -0.6013 H   0  0  0  0  0  0  0  0  0  0  0  0
   -1.8401    1.2184   -1.5397 H   0  0  0  0  0  0  0  0  0  0  0  0
   -2.6517    1.4744    1.3868 H   0  0  0  0  0  0  0  0  0  0  0  0
   -3.3611   -0.3409   -0.9158 H   0  0  0  0  0  0  0  0  0  0  0  0
   -2.9136   -1.2554    1.8711 H   0  0  0  0  0  0  0  0  0  0  0  0
   -1.2436   -2.6858    0.6485 H   0  0  0  0  0  0  0  0  0  0  0  0
   -1.9583   -2.0298   -0.9333 H   0  0  0  0  0  0  0  0  0  0  0  0
   -2.9700   -2.8570    0.2686 H   0  0  0  0  0  0  0  0  0  0  0  0
   -4.7493   -1.1161    1.4015 H   0  0  0  0  0  0  0  0  0  0  0  0
   -1.3450    2.9678    0.6441 H   0  0  0  0  0  0  0  0  0  0  0  0
   -3.6882    3.1213    0.6145 H   0  0  0  0  0  0  0  0  0  0  0  0
    4.9696   -0.5656   -1.6418 H   0  0  0  0  0  0  0  0  0  0  0  0
    4.1076    1.3940   -2.3180 H   0  0  0  0  0  0  0  0  0  0  0  0
    1.7338    1.9492   -1.5077 H   0  0  0  0  0  0  0  0  0  0  0  0
    1.0873   -0.7696   -1.0690 H   0  0  0  0  0  0  0  0  0  0  0  0
    3.0713    0.4248    0.9416 H   0  0  0  0  0  0  0  0  0  0  0  0
    1.2615   -0.7623    2.0733 H   0  0  0  0  0  0  0  0  0  0  0  0
    2.9060   -1.5805    2.1824 H   0  0  0  0  0  0  0  0  0  0  0  0
    3.7765    3.0635   -1.0887 H   0  0  0  0  0  0  0  0  0  0  0  0
    1.2164   -0.1292   -2.8305 H   0  0  0  0  0  0  0  0  0  0  0  0
    0.9657   -2.9943    1.5833 H   0  0  0  0  0  0  0  0  0  0  0  0
   10.0088   -0.5758    0.6476 H   0  0  0  0  0  0  0  0  0  0  0  0
    8.7821    0.2130   -1.1983 H   0  0  0  0  0  0  0  0  0  0  0  0
    7.2841    1.9640    0.7811 H   0  0  0  0  0  0  0  0  0  0  0  0
    6.6089   -0.4319   -0.9949 H   0  0  0  0  0  0  0  0  0  0  0  0
    6.4471   -1.2049    1.7974 H   0  0  0  0  0  0  0  0  0  0  0  0
    8.4081   -2.0197   -0.3928 H   0  0  0  0  0  0  0  0  0  0  0  0
    6.7532   -2.6274   -0.1936 H   0  0  0  0  0  0  0  0  0  0  0  0
    9.7018    1.0660    2.6262 H   0  0  0  0  0  0  0  0  0  0  0  0
    9.6037    2.6301    0.1264 H   0  0  0  0  0  0  0  0  0  0  0  0
    7.5985    2.7168   -1.4935 H   0  0  0  0  0  0  0  0  0  0  0  0
    8.9515   -3.4491    1.0428 H   0  0  0  0  0  0  0  0  0  0  0  0
  1  2  1  0
  2  3  1  0
  3  4  1  0
  4  5  1  0
  5  6  1  0
  1  7  1  0
  5  7  1  0
  2  8  1  0
  3  9  1  0
  4 10  1  0
  6 11  1  0
 12 13  1  0
 13 14  1  0
 14 15  1  0
 15 16  1  0
 16 17  1  0
  1 18  1  0
 15 18  1  0
 13 19  1  0
 14 20  1  0
 12 21  1  0
 16 21  1  0
 22 23  1  0
 23 24  1  0
 24 25  1  0
 25 26  1  0
 26 27  1  0
 23 28  1  0
 24 29  1  0
 12 30  1  0
 25 30  1  0
 22 31  1  0
 26 31  1  0
 27 32  1  0
 33 34  1  0
 34 35  1  0
 35 36  1  0
 36 37  1  0
 37 38  1  0
 33 39  1  0
 34 40  1  0
 35 41  1  0
 22 42  1  0
 36 42  1  0
 33 43  1  0
 37 43  1  0
 38 44  1  0
  1 45  1  6
  2 46  1  6
  3 47  1  1
  4 48  1  6
  5 49  1  0
  6 50  1  0
  6 51  1  0
  7 52  1  0
  7 53  1  0
  8 54  1  0
  9 55  1  0
 10 56  1  0
 11 57  1  0
 12 58  1  6
 13 59  1  6
 14 60  1  1
 15 61  1  6
 16 62  1  1
 17 63  1  0
 17 64  1  0
 17 65  1  0
 18 66  1  0
 19 67  1  0
 20 68  1  0
 22 69  1  6
 23 70  1  6
 24 71  1  6
 25 72  1  6
 26 73  1  1
 27 74  1  0
 27 75  1  0
 28 76  1  0
 29 77  1  0
 32 78  1  0
 33 79  1  6
 34 80  1  6
 35 81  1  1
 36 82  1  6
 37 83  1  1
 38 84  1  0
 38 85  1  0
 39 86  1  0
 40 87  1  0
 41 88  1  0
 44 89  1  0
M  END
>  <PDBID>  (1) 
2QMJ

>  <PDB ID>  (1) 
2QMJ

>  <Generic Name>  (1) 
Acarbose

>  <Brand Name>  (1) 
Acarbose#Glucobay#Precose#Prandase

>  <DrugBank ID>  (1) 
DB00284

>  <ATC Codes>  (1) 
A10BF01#A10BD17

>  <Ligand ID>  (1) 
ACR,QPS

>  <Target Name>  (1) 
Maltase-glucoamylase, intestinal

>  <UniProt ID>  (1) 
O43451

>  <PDB ID.1>  (1) 
2QMJ

>  <Seq. Identity>  (1) 
99%

$$$$
