PDB_DB00220_09
     RDKit          3D

101104  0  0  0  0  0  0  0  0999 V2000
    2.8326   -0.0165   -2.6700 C   0  0  2  0  0  0  0  0  0  0  0  0
    4.2142    0.1528   -2.1076 C   0  0  1  0  0  0  0  0  0  0  0  0
    4.8643    1.4151   -2.6673 C   0  0  0  0  0  0  0  0  0  0  0  0
    5.1987    1.1538   -4.1060 C   0  0  0  0  0  0  0  0  0  0  0  0
    4.0354    0.5164   -4.8096 C   0  0  0  0  0  0  0  0  0  0  0  0
    2.7486    0.6043   -4.0398 C   0  0  0  0  0  0  0  0  0  0  0  0
    1.6307    0.0779   -0.5398 N   0  0  0  0  0  0  0  0  0  0  0  0
    2.8689   -0.4133   -0.0655 C   0  0  1  0  0  0  0  0  0  0  0  0
    4.0644    0.3690   -0.6249 C   0  0  0  0  0  0  0  0  0  0  0  0
    1.8254    0.7502   -1.7988 C   0  0  0  0  0  0  0  0  0  0  0  0
    3.0848   -0.4270    1.4200 C   0  0  1  0  0  0  0  0  0  0  0  0
    4.3982   -0.9980    1.6416 N   0  0  0  0  0  0  0  0  0  0  0  0
    4.7115   -1.1865    3.0243 C   0  0  0  0  0  0  0  0  0  0  0  0
    3.7662   -2.1606    3.6829 C   0  0  0  0  0  0  0  0  0  0  0  0
    4.8007    0.0875    3.8165 C   0  0  0  0  0  0  0  0  0  0  0  0
    6.1095   -1.8160    3.0655 C   0  0  0  0  0  0  0  0  0  0  0  0
    3.0850    0.8283    2.0092 O   0  0  0  0  0  0  0  0  0  0  0  0
    0.8887    0.7885    0.4226 C   0  0  0  0  0  0  0  0  0  0  0  0
   -0.4667    1.3007    0.0248 C   0  0  2  0  0  0  0  0  0  0  0  0
   -1.3719    0.2048   -0.4371 C   0  0  1  0  0  0  0  0  0  0  0  0
   -0.2979    2.3013   -0.9105 O   0  0  0  0  0  0  0  0  0  0  0  0
   -1.3271   -0.8107    0.6191 N   0  0  0  0  0  0  0  0  0  0  0  0
   -2.7644    0.5506   -0.7500 C   0  0  0  0  0  0  0  0  0  0  0  0
   -2.5374   -1.4832    0.8901 C   0  0  0  0  0  0  0  0  0  0  0  0
   -3.0089   -1.1433    2.1663 O   0  0  0  0  0  0  0  0  0  0  0  0
   -2.3424   -2.9930    0.9105 C   0  0  0  0  0  0  0  0  0  0  0  0
   -1.8180   -3.4970   -0.4108 C   0  0  0  0  0  0  0  0  0  0  0  0
   -2.7689   -3.2147   -1.5462 C   0  0  0  0  0  0  0  0  0  0  0  0
   -4.1827   -3.5881   -1.2208 C   0  0  0  0  0  0  0  0  0  0  0  0
   -4.1765   -4.4563    0.0073 C   0  0  1  0  0  0  0  0  0  0  0  0
   -3.6035   -3.7400    1.2112 C   0  0  2  0  0  0  0  0  0  0  0  0
   -5.5096   -4.7884    0.2940 O   0  0  0  0  0  0  0  0  0  0  0  0
   -4.6939   -2.9295    1.8258 C   0  0  0  0  0  0  0  0  0  0  0  0
   -3.8650    1.1153    0.5331 S   0  0  0  0  0  0  0  0  0  0  0  0
   -4.2913    2.8265    0.5375 C   0  0  0  0  0  0  0  0  0  0  0  0
   -3.9854    3.3828   -0.8460 C   0  0  0  0  0  0  0  0  0  0  0  0
   -4.5863    4.7399   -1.0808 C   0  0  0  0  0  0  0  0  0  0  0  0
   -4.3281    5.6792    0.0637 C   0  0  0  0  0  0  0  0  0  0  0  0
   -4.5473    5.0581    1.4194 C   0  0  0  0  0  0  0  0  0  0  0  0
   -3.7764    3.7313    1.5698 C   0  0  0  0  0  0  0  0  0  0  0  0
    4.5280   -1.8932    1.1452 H   0  0  0  0  0  0  0  0  0  0  0  0
   -0.8298    2.2663   -1.7099 H   0  0  0  0  0  0  0  0  0  0  0  0
   -0.9294   -0.4413    1.4928 H   0  0  0  0  0  0  0  0  0  0  0  0
   -5.8130   -5.4796   -0.3581 H   0  0  0  0  0  0  0  0  0  0  0  0
    2.5130   -1.0775   -2.6550 H   0  0  0  0  0  0  0  0  0  0  0  0
    4.8708   -0.7085   -2.3379 H   0  0  0  0  0  0  0  0  0  0  0  0
    5.7628    1.6049   -2.0434 H   0  0  0  0  0  0  0  0  0  0  0  0
    4.1516    2.2576   -2.5250 H   0  0  0  0  0  0  0  0  0  0  0  0
    6.0448    0.4392   -4.1258 H   0  0  0  0  0  0  0  0  0  0  0  0
    5.5088    2.1177   -4.5562 H   0  0  0  0  0  0  0  0  0  0  0  0
    3.8761    1.0979   -5.7547 H   0  0  0  0  0  0  0  0  0  0  0  0
    4.2567   -0.5164   -5.1223 H   0  0  0  0  0  0  0  0  0  0  0  0
    2.3701    1.6458   -4.0255 H   0  0  0  0  0  0  0  0  0  0  0  0
    1.9912    0.0169   -4.6099 H   0  0  0  0  0  0  0  0  0  0  0  0
    3.0167   -1.4532   -0.4194 H   0  0  0  0  0  0  0  0  0  0  0  0
    3.9684    1.4519   -0.4205 H   0  0  0  0  0  0  0  0  0  0  0  0
    4.9623   -0.0624   -0.1390 H   0  0  0  0  0  0  0  0  0  0  0  0
    2.3100    1.7391   -1.5954 H   0  0  0  0  0  0  0  0  0  0  0  0
    0.9230    0.8075   -2.4135 H   0  0  0  0  0  0  0  0  0  0  0  0
    2.3352   -1.0429    1.9582 H   0  0  0  0  0  0  0  0  0  0  0  0
    4.3414   -2.6781    4.4854 H   0  0  0  0  0  0  0  0  0  0  0  0
    3.5058   -2.9373    2.9253 H   0  0  0  0  0  0  0  0  0  0  0  0
    2.8914   -1.6170    4.0612 H   0  0  0  0  0  0  0  0  0  0  0  0
    3.8360    0.4557    4.1893 H   0  0  0  0  0  0  0  0  0  0  0  0
    5.3938    0.8390    3.2624 H   0  0  0  0  0  0  0  0  0  0  0  0
    5.4087   -0.1500    4.7308 H   0  0  0  0  0  0  0  0  0  0  0  0
    6.4046   -2.1108    4.0730 H   0  0  0  0  0  0  0  0  0  0  0  0
    6.7963   -0.9860    2.7537 H   0  0  0  0  0  0  0  0  0  0  0  0
    6.2081   -2.5943    2.2971 H   0  0  0  0  0  0  0  0  0  0  0  0
    3.7600    1.4343    1.6110 H   0  0  0  0  0  0  0  0  0  0  0  0
    1.4900    1.7564    0.5985 H   0  0  0  0  0  0  0  0  0  0  0  0
    0.9190    0.3018    1.3943 H   0  0  0  0  0  0  0  0  0  0  0  0
   -0.9226    1.7574    0.9212 H   0  0  0  0  0  0  0  0  0  0  0  0
   -0.9341   -0.2834   -1.3397 H   0  0  0  0  0  0  0  0  0  0  0  0
   -2.7036    1.4974   -1.4449 H   0  0  0  0  0  0  0  0  0  0  0  0
   -3.2463   -0.1389   -1.4721 H   0  0  0  0  0  0  0  0  0  0  0  0
   -3.3646   -1.3280    0.1715 H   0  0  0  0  0  0  0  0  0  0  0  0
   -2.4032   -1.5984    2.8023 H   0  0  0  0  0  0  0  0  0  0  0  0
   -1.5545   -3.2100    1.6770 H   0  0  0  0  0  0  0  0  0  0  0  0
   -1.6365   -4.5784   -0.3201 H   0  0  0  0  0  0  0  0  0  0  0  0
   -0.8670   -2.9315   -0.5968 H   0  0  0  0  0  0  0  0  0  0  0  0
   -2.4119   -3.7814   -2.4396 H   0  0  0  0  0  0  0  0  0  0  0  0
   -2.7214   -2.1560   -1.8066 H   0  0  0  0  0  0  0  0  0  0  0  0
   -4.8688   -2.7285   -1.1102 H   0  0  0  0  0  0  0  0  0  0  0  0
   -4.5991   -4.2059   -2.0521 H   0  0  0  0  0  0  0  0  0  0  0  0
   -3.6425   -5.3931   -0.1987 H   0  0  0  0  0  0  0  0  0  0  0  0
   -3.3474   -4.5497    1.9503 H   0  0  0  0  0  0  0  0  0  0  0  0
   -4.9629   -2.0249    1.2567 H   0  0  0  0  0  0  0  0  0  0  0  0
   -4.5356   -2.7295    2.9180 H   0  0  0  0  0  0  0  0  0  0  0  0
   -5.6209   -3.5715    1.8042 H   0  0  0  0  0  0  0  0  0  0  0  0
   -5.4496    2.8602    0.6029 H   0  0  0  0  0  0  0  0  0  0  0  0
   -4.3735    2.6707   -1.5782 H   0  0  0  0  0  0  0  0  0  0  0  0
   -2.8720    3.5064   -0.8878 H   0  0  0  0  0  0  0  0  0  0  0  0
   -4.0387    5.1523   -1.9782 H   0  0  0  0  0  0  0  0  0  0  0  0
   -5.6482    4.6264   -1.3509 H   0  0  0  0  0  0  0  0  0  0  0  0
   -5.0605    6.5105   -0.0410 H   0  0  0  0  0  0  0  0  0  0  0  0
   -3.3132    6.1065   -0.0021 H   0  0  0  0  0  0  0  0  0  0  0  0
   -4.2034    5.7608    2.1729 H   0  0  0  0  0  0  0  0  0  0  0  0
   -5.6311    4.9026    1.5966 H   0  0  0  0  0  0  0  0  0  0  0  0
   -2.7225    3.9898    1.4392 H   0  0  0  0  0  0  0  0  0  0  0  0
   -3.9947    3.4121    2.6158 H   0  0  0  0  0  0  0  0  0  0  0  0
  1  2  1  0
  2  3  1  0
  3  4  1  0
  4  5  1  0
  1  6  1  0
  5  6  1  0
  7  8  1  0
  2  9  1  0
  8  9  1  0
  1 10  1  0
  7 10  1  0
  8 11  1  0
 11 12  1  0
 13 12  1  0
 13 14  1  0
 13 15  1  0
 13 16  1  0
 11 17  1  0
  7 18  1  0
 18 19  1  0
 19 20  1  0
 19 21  1  0
 20 22  1  0
 20 23  1  0
 22 24  1  0
 24 25  1  0
 24 26  1  0
 26 27  1  0
 27 28  1  0
 28 29  1  0
 29 30  1  0
 26 31  1  0
 30 31  1  0
 30 32  1  0
 31 33  1  0
 23 34  1  0
 34 35  1  0
 35 36  1  0
 36 37  1  0
 37 38  1  0
 38 39  1  0
 35 40  1  0
 39 40  1  0
 12 41  1  0
 21 42  1  0
 22 43  1  0
 32 44  1  0
  1 45  1  6
  2 46  1  1
  3 47  1  0
  3 48  1  0
  4 49  1  0
  4 50  1  0
  5 51  1  0
  5 52  1  0
  6 53  1  0
  6 54  1  0
  8 55  1  6
  9 56  1  0
  9 57  1  0
 10 58  1  0
 10 59  1  0
 11 60  1  1
 14 61  1  0
 14 62  1  0
 14 63  1  0
 15 64  1  0
 15 65  1  0
 15 66  1  0
 16 67  1  0
 16 68  1  0
 16 69  1  0
 17 70  1  0
 18 71  1  0
 18 72  1  0
 19 73  1  1
 20 74  1  6
 23 75  1  0
 23 76  1  0
 24 77  1  0
 25 78  1  0
 26 79  1  0
 27 80  1  0
 27 81  1  0
 28 82  1  0
 28 83  1  0
 29 84  1  0
 29 85  1  0
 30 86  1  6
 31 87  1  1
 33 88  1  0
 33 89  1  0
 33 90  1  0
 35 91  1  0
 36 92  1  0
 36 93  1  0
 37 94  1  0
 37 95  1  0
 38 96  1  0
 38 97  1  0
 39 98  1  0
 39 99  1  0
 40100  1  0
 40101  1  0
M  END
>  <PDBID>  (1) 
1OHR

>  <PDB ID>  (1) 
1OHR

>  <Generic Name>  (1) 
Nelfinavir

>  <Brand Name>  (1) 
Viracept#Viracept -250mg#Viracept -50mg

>  <DrugBank ID>  (1) 
DB00220

>  <ATC Codes>  (1) 
J05AE04

>  <Ligand ID>  (1) 
1UN

>  <Target Name>  (1) 
HIV-1 protease

>  <UniProt ID>  (1) 
O90777

>  <PDB ID.1>  (1) 
1OHR

>  <Seq. Identity>  (1) 
93%

$$$$
