PDB_DB01045_01
     RDKit          3D

141145  0  0  0  0  0  0  0  0999 V2000
    2.8140    1.0934    1.4355 C   0  0  0  0  0  0  0  0  0  0  0  0
    3.0687    1.3518   -0.0602 C   0  0  2  0  0  0  0  0  0  0  0  0
    3.8654    0.1908   -0.5504 C   0  0  0  0  0  0  0  0  0  0  0  0
    3.3525   -1.0745    0.1522 C   0  0  0  0  0  0  0  0  0  0  0  0
    1.1780   -2.0928    0.9401 C   0  0  0  0  0  0  0  0  0  0  0  0
   -0.2173   -1.5382    1.2717 C   0  0  0  0  0  0  0  0  0  0  0  0
   -0.1331   -1.0217    2.6625 C   0  0  0  0  0  0  0  0  0  0  0  0
    1.2474   -0.3549    2.7922 C   0  0  0  0  0  0  0  0  0  0  0  0
    1.6193    0.1970    1.4615 C   0  0  0  0  0  0  0  0  0  0  0  0
    1.9043   -0.8981    0.4188 C   0  0  0  0  0  0  0  0  0  0  0  0
    0.8842   -3.1865    0.0044 C   0  0  0  0  0  0  0  0  0  0  0  0
   -0.6227   -3.2502   -0.0832 C   0  0  2  0  0  0  0  0  0  0  0  0
   -0.9798   -2.6313   -1.4177 C   0  0  0  0  0  0  0  0  0  0  0  0
   -0.2983   -2.0926    3.7173 C   0  0  0  0  0  0  0  0  0  0  0  0
    3.2033    3.1582   -1.6198 C   0  0  0  0  0  0  0  0  0  0  0  0
    2.2419    4.3177   -1.5541 C   0  0  1  0  0  0  0  0  0  0  0  0
    0.8539    3.9750   -1.9757 C   0  0  0  0  0  0  0  0  0  0  0  0
   -0.0817    3.5800   -0.8844 C   0  0  0  0  0  0  0  0  0  0  0  0
   -1.4841    3.9249   -1.2751 C   0  0  0  0  0  0  0  0  0  0  0  0
   -2.4475    2.7320   -1.1487 C   0  0  1  0  0  0  0  0  0  0  0  0
   -2.8566    2.5828    0.2369 C   0  0  1  0  0  0  0  0  0  0  0  0
   -4.2679    2.2086    0.5593 C   0  0  2  0  0  0  0  0  0  0  0  0
   -4.6866    0.8544    0.0738 C   0  0  2  0  0  0  0  0  0  0  0  0
   -5.0157   -0.1134    1.2244 C   0  0  2  0  0  0  0  0  0  0  0  0
   -5.6838   -1.3096    0.6355 C   0  0  1  0  0  0  0  0  0  0  0  0
   -5.3099   -2.6333    1.2816 C   0  0  1  0  0  0  0  0  0  0  0  0
   -4.6551   -3.5580    0.3124 C   0  0  2  0  0  0  0  0  0  0  0  0
   -3.4491   -4.2922    0.7866 C   0  0  0  0  0  0  0  0  0  0  0  0
   -2.4578   -4.5635   -0.3412 C   0  0  0  0  0  0  0  0  0  0  0  0
    2.3251    5.0599   -0.2410 C   0  0  0  0  0  0  0  0  0  0  0  0
   -3.4839    2.9159   -2.1885 C   0  0  0  0  0  0  0  0  0  0  0  0
   -5.2546    3.2962    0.2204 C   0  0  0  0  0  0  0  0  0  0  0  0
   -5.8847    0.6468    2.1936 C   0  0  0  0  0  0  0  0  0  0  0  0
   -4.4880   -2.3748    2.5198 C   0  0  0  0  0  0  0  0  0  0  0  0
   -7.5875   -1.1379   -0.7082 C   0  0  2  0  0  0  0  0  0  0  0  0
   -8.6016   -2.2580   -0.8527 C   0  0  0  0  0  0  0  0  0  0  0  0
   -5.0820   -3.5146   -1.9783 C   0  0  0  0  0  0  0  0  0  0  0  0
   11.3183    0.5883    0.3082 C   0  0  0  0  0  0  0  0  0  0  0  0
    9.2385   -0.1377    1.1467 C   0  0  0  0  0  0  0  0  0  0  0  0
    7.7798   -0.0678    0.8053 C   0  0  0  0  0  0  0  0  0  0  0  0
    8.3018   -0.4509   -1.5167 C   0  0  0  0  0  0  0  0  0  0  0  0
    9.4494    0.4771   -1.1038 C   0  0  0  0  0  0  0  0  0  0  0  0
    5.3302    0.3324   -0.2119 C   0  0  0  0  0  0  0  0  0  0  0  0
    3.5815    2.6468   -0.3173 N   0  0  0  0  0  0  0  0  0  0  0  0
    6.1004   -0.8029   -0.6909 N   0  0  0  0  0  0  0  0  0  0  0  0
    7.4327   -0.7196   -0.4151 N   0  0  0  0  0  0  0  0  0  0  0  0
   10.1059   -0.1803    0.0105 N   0  0  0  0  0  0  0  0  0  0  0  0
    2.6881    2.2480    2.1589 O   0  0  0  0  0  0  0  0  0  0  0  0
    1.1130    0.7268    3.6672 O   0  0  0  0  0  0  0  0  0  0  0  0
   -1.1052   -2.5221    1.0027 O   0  0  0  0  0  0  0  0  0  0  0  0
    1.3040   -4.4101    0.5280 O   0  0  0  0  0  0  0  0  0  0  0  0
   -1.1396   -4.5343    0.0581 O   0  0  0  0  0  0  0  0  0  0  0  0
   -4.3821   -2.9605   -0.9369 O   0  0  0  0  0  0  0  0  0  0  0  0
   -7.0631   -1.1618    0.5339 O   0  0  0  0  0  0  0  0  0  0  0  0
   -8.3070    0.0488   -0.9906 O   0  0  0  0  0  0  0  0  0  0  0  0
   -3.5793    0.2529   -0.5670 O   0  0  0  0  0  0  0  0  0  0  0  0
   -2.0323    1.6383    0.8950 O   0  0  0  0  0  0  0  0  0  0  0  0
    4.3073    3.4062   -2.4247 O   0  0  0  0  0  0  0  0  0  0  0  0
    3.4875   -2.1290   -0.7490 O   0  0  0  0  0  0  0  0  0  0  0  0
    3.6812    0.5229    1.8502 H   0  0  0  0  0  0  0  0  0  0  0  0
    2.0833    1.2966   -0.6217 H   0  0  0  0  0  0  0  0  0  0  0  0
    3.7688    0.0394   -1.6482 H   0  0  0  0  0  0  0  0  0  0  0  0
    3.9370   -1.3280    1.0377 H   0  0  0  0  0  0  0  0  0  0  0  0
    1.6333   -2.4993    1.8674 H   0  0  0  0  0  0  0  0  0  0  0  0
   -0.4821   -0.6816    0.5847 H   0  0  0  0  0  0  0  0  0  0  0  0
   -0.8715   -0.2107    2.7883 H   0  0  0  0  0  0  0  0  0  0  0  0
    1.9853   -1.0290    3.2341 H   0  0  0  0  0  0  0  0  0  0  0  0
    0.7529    0.8381    1.1216 H   0  0  0  0  0  0  0  0  0  0  0  0
    1.4006   -0.6205   -0.5538 H   0  0  0  0  0  0  0  0  0  0  0  0
    1.3607   -3.0667   -0.9936 H   0  0  0  0  0  0  0  0  0  0  0  0
   -0.1497   -1.9639   -1.8002 H   0  0  0  0  0  0  0  0  0  0  0  0
   -1.0134   -3.4499   -2.1946 H   0  0  0  0  0  0  0  0  0  0  0  0
   -1.8639   -1.9982   -1.3989 H   0  0  0  0  0  0  0  0  0  0  0  0
    0.3382   -1.8247    4.5855 H   0  0  0  0  0  0  0  0  0  0  0  0
   -1.3628   -2.0858    4.0195 H   0  0  0  0  0  0  0  0  0  0  0  0
   -0.0357   -3.0665    3.2647 H   0  0  0  0  0  0  0  0  0  0  0  0
    2.6388    2.3230   -2.1300 H   0  0  0  0  0  0  0  0  0  0  0  0
    2.6218    5.0585   -2.3220 H   0  0  0  0  0  0  0  0  0  0  0  0
    0.9138    3.1104   -2.6953 H   0  0  0  0  0  0  0  0  0  0  0  0
    0.3676    4.8221   -2.5433 H   0  0  0  0  0  0  0  0  0  0  0  0
    0.1697    4.2074    0.0210 H   0  0  0  0  0  0  0  0  0  0  0  0
    0.0144    2.5068   -0.5782 H   0  0  0  0  0  0  0  0  0  0  0  0
   -1.5140    4.3097   -2.3247 H   0  0  0  0  0  0  0  0  0  0  0  0
   -1.9048    4.7602   -0.6594 H   0  0  0  0  0  0  0  0  0  0  0  0
   -1.8108    1.8479   -1.4449 H   0  0  0  0  0  0  0  0  0  0  0  0
   -2.6565    3.5416    0.8027 H   0  0  0  0  0  0  0  0  0  0  0  0
   -4.2950    2.1449    1.6926 H   0  0  0  0  0  0  0  0  0  0  0  0
   -5.5771    0.8636   -0.5622 H   0  0  0  0  0  0  0  0  0  0  0  0
   -4.0516   -0.3727    1.6528 H   0  0  0  0  0  0  0  0  0  0  0  0
   -5.3306   -1.3885   -0.4156 H   0  0  0  0  0  0  0  0  0  0  0  0
   -6.2713   -3.0973    1.6994 H   0  0  0  0  0  0  0  0  0  0  0  0
   -5.4318   -4.3449    0.0477 H   0  0  0  0  0  0  0  0  0  0  0  0
   -3.7559   -5.3254    1.1352 H   0  0  0  0  0  0  0  0  0  0  0  0
   -2.9002   -3.8755    1.6216 H   0  0  0  0  0  0  0  0  0  0  0  0
   -2.6284   -5.5842   -0.7944 H   0  0  0  0  0  0  0  0  0  0  0  0
   -2.6998   -3.8523   -1.1401 H   0  0  0  0  0  0  0  0  0  0  0  0
    1.7709    6.0055   -0.3200 H   0  0  0  0  0  0  0  0  0  0  0  0
    3.4100    5.3585   -0.1356 H   0  0  0  0  0  0  0  0  0  0  0  0
    2.0949    4.4525    0.6371 H   0  0  0  0  0  0  0  0  0  0  0  0
   -3.6453    4.0027   -2.4627 H   0  0  0  0  0  0  0  0  0  0  0  0
   -3.1061    2.4745   -3.1372 H   0  0  0  0  0  0  0  0  0  0  0  0
   -4.4557    2.4241   -1.9982 H   0  0  0  0  0  0  0  0  0  0  0  0
   -6.1191    2.9570   -0.3532 H   0  0  0  0  0  0  0  0  0  0  0  0
   -5.6647    3.8242    1.1198 H   0  0  0  0  0  0  0  0  0  0  0  0
   -4.6672    4.1079   -0.3024 H   0  0  0  0  0  0  0  0  0  0  0  0
   -6.7043    0.0323    2.6211 H   0  0  0  0  0  0  0  0  0  0  0  0
   -5.2397    0.9294    3.0513 H   0  0  0  0  0  0  0  0  0  0  0  0
   -6.2540    1.5889    1.7475 H   0  0  0  0  0  0  0  0  0  0  0  0
   -3.4484   -2.1168    2.3568 H   0  0  0  0  0  0  0  0  0  0  0  0
   -4.6096   -3.2370    3.2446 H   0  0  0  0  0  0  0  0  0  0  0  0
   -4.9398   -1.5140    3.0849 H   0  0  0  0  0  0  0  0  0  0  0  0
   -6.8742   -1.2347   -1.5420 H   0  0  0  0  0  0  0  0  0  0  0  0
   -9.6377   -1.8948   -0.7086 H   0  0  0  0  0  0  0  0  0  0  0  0
   -8.4782   -2.8023   -1.8320 H   0  0  0  0  0  0  0  0  0  0  0  0
   -8.3816   -3.0180   -0.0757 H   0  0  0  0  0  0  0  0  0  0  0  0
   -4.8098   -4.5913   -2.0528 H   0  0  0  0  0  0  0  0  0  0  0  0
   -6.1831   -3.4926   -1.8695 H   0  0  0  0  0  0  0  0  0  0  0  0
   -4.7684   -3.0141   -2.9017 H   0  0  0  0  0  0  0  0  0  0  0  0
   11.3023    1.5693   -0.2171 H   0  0  0  0  0  0  0  0  0  0  0  0
   12.2212    0.0513   -0.0498 H   0  0  0  0  0  0  0  0  0  0  0  0
   11.3851    0.8148    1.3837 H   0  0  0  0  0  0  0  0  0  0  0  0
    9.4734   -1.0286    1.7824 H   0  0  0  0  0  0  0  0  0  0  0  0
    9.5018    0.7509    1.7561 H   0  0  0  0  0  0  0  0  0  0  0  0
    7.2118   -0.5444    1.6310 H   0  0  0  0  0  0  0  0  0  0  0  0
    7.4373    0.9902    0.7554 H   0  0  0  0  0  0  0  0  0  0  0  0
    7.7395    0.0882   -2.3062 H   0  0  0  0  0  0  0  0  0  0  0  0
    8.7377   -1.3520   -1.9762 H   0  0  0  0  0  0  0  0  0  0  0  0
   10.1093    0.6263   -1.9721 H   0  0  0  0  0  0  0  0  0  0  0  0
    8.9893    1.4291   -0.7401 H   0  0  0  0  0  0  0  0  0  0  0  0
    5.7658    1.2516   -0.6398 H   0  0  0  0  0  0  0  0  0  0  0  0
    5.4996    0.3756    0.8874 H   0  0  0  0  0  0  0  0  0  0  0  0
    4.5732    2.8198   -0.1732 H   0  0  0  0  0  0  0  0  0  0  0  0
    5.7395   -1.7046   -0.3067 H   0  0  0  0  0  0  0  0  0  0  0  0
    1.7859    2.6365    2.1800 H   0  0  0  0  0  0  0  0  0  0  0  0
    0.1767    0.9481    3.8626 H   0  0  0  0  0  0  0  0  0  0  0  0
    1.6800   -5.0009   -0.1551 H   0  0  0  0  0  0  0  0  0  0  0  0
   -8.5042    0.1003   -1.9567 H   0  0  0  0  0  0  0  0  0  0  0  0
   -3.8985   -0.0086   -1.4664 H   0  0  0  0  0  0  0  0  0  0  0  0
   -2.4396    1.4623    1.7797 H   0  0  0  0  0  0  0  0  0  0  0  0
    4.0578    3.2753   -3.3921 H   0  0  0  0  0  0  0  0  0  0  0  0
    3.6470   -1.7974   -1.6843 H   0  0  0  0  0  0  0  0  0  0  0  0
  1  2  1  0
  2  3  1  0
  3  4  1  0
  5  6  1  0
  6  7  1  0
  7  8  1  0
  1  9  1  0
  8  9  1  0
  4 10  1  0
  5 10  1  0
  9 10  1  0
  5 11  1  0
 11 12  1  0
 12 13  1  6
  7 14  1  0
 15 16  1  0
 16 17  1  0
 17 18  1  0
 18 19  1  0
 19 20  1  0
 20 21  1  0
 21 22  1  0
 22 23  1  0
 23 24  1  0
 24 25  1  0
 25 26  1  0
 26 27  1  0
 27 28  1  0
 28 29  1  0
 16 30  1  0
 20 31  1  0
 22 32  1  0
 24 33  1  0
 26 34  1  0
 35 36  1  0
 39 40  1  0
 41 42  1  0
  3 43  1  0
  2 44  1  0
 15 44  1  0
 43 45  1  0
 40 46  1  0
 41 46  1  0
 45 46  1  0
 38 47  1  0
 39 47  1  0
 42 47  1  0
  1 48  1  0
  8 49  1  0
  6 50  1  0
 12 50  1  0
 11 51  1  0
 12 52  1  0
 29 52  1  0
 27 53  1  0
 37 53  1  0
 25 54  1  0
 35 54  1  0
 35 55  1  0
 23 56  1  0
 21 57  1  0
 15 58  1  0
  4 59  1  0
  1 60  1  0
  2 61  1  6
  3 62  1  0
  4 63  1  0
  5 64  1  0
  6 65  1  0
  7 66  1  0
  8 67  1  0
  9 68  1  0
 10 69  1  0
 11 70  1  0
 13 71  1  0
 13 72  1  0
 13 73  1  0
 14 74  1  0
 14 75  1  0
 14 76  1  0
 15 77  1  0
 16 78  1  6
 17 79  1  0
 17 80  1  0
 18 81  1  0
 18 82  1  0
 19 83  1  0
 19 84  1  0
 20 85  1  6
 21 86  1  1
 22 87  1  1
 23 88  1  6
 24 89  1  1
 25 90  1  6
 26 91  1  1
 27 92  1  6
 28 93  1  0
 28 94  1  0
 29 95  1  0
 29 96  1  0
 30 97  1  0
 30 98  1  0
 30 99  1  0
 31100  1  0
 31101  1  0
 31102  1  0
 32103  1  0
 32104  1  0
 32105  1  0
 33106  1  0
 33107  1  0
 33108  1  0
 34109  1  0
 34110  1  0
 34111  1  0
 35112  1  6
 36113  1  0
 36114  1  0
 36115  1  0
 37116  1  0
 37117  1  0
 37118  1  0
 38119  1  0
 38120  1  0
 38121  1  0
 39122  1  0
 39123  1  0
 40124  1  0
 40125  1  0
 41126  1  0
 41127  1  0
 42128  1  0
 42129  1  0
 43130  1  0
 43131  1  0
 44132  1  0
 45133  1  0
 48134  1  0
 49135  1  0
 51136  1  0
 55137  1  0
 56138  1  0
 57139  1  0
 58140  1  0
 59141  1  0
M  END
>  <PDBID>  (1) 
5UAC

>  <PDB ID>  (1) 
5UAC

>  <Generic Name>  (1) 
Rifampicin

>  <Brand Name>  (1) 
Isonarif#Rifadin#Rifadin Cap 300mg#Rifadin IV#Rifadin IV Novaplus#Rifamate#Rifampin#Rifater#Rofact 150mg#Rofact 300mg#Rifadine#Rifaldin#Rifoldin#Rimactan#Rimactane#Rofact#Tubocin

>  <DrugBank ID>  (1) 
DB01045

>  <ATC Codes>  (1) 
J04AM02#J04AB02#J04AM06#J04AM05

>  <Ligand ID>  (1) 
RFP

>  <Target Name>  (1) 
DNA-directed RNA polymerase subunit beta

>  <UniProt ID>  (1) 
P0A8V2

>  <PDB ID.1>  (1) 
5UAC

>  <Seq. Identity>  (1) 
100%

$$$$
