PDB_DB01577_03
     RDKit          3D

 32 32  0  0  0  0  0  0  0  0999 V2000
    2.8387    0.8585    0.9263 N   0  0  0  0  0  0  0  0  0  0  0  0
    1.8062    0.3966   -0.0221 C   0  0  1  0  0  0  0  0  0  0  0  0
    1.8990   -1.1309    0.1152 C   0  0  0  0  0  0  0  0  0  0  0  0
    0.4903    0.8997    0.4406 C   0  0  0  0  0  0  0  0  0  0  0  0
   -0.6937    0.6129   -0.4128 C   0  0  0  0  0  0  0  0  0  0  0  0
   -1.9685    1.1888    0.1974 C   0  0  0  0  0  0  0  0  0  0  0  0
   -0.8749   -0.7568   -0.9233 C   0  0  0  0  0  0  0  0  0  0  0  0
   -2.8339    0.1092    0.7933 C   0  0  0  0  0  0  0  0  0  0  0  0
   -2.3157   -0.9990   -1.3894 C   0  0  0  0  0  0  0  0  0  0  0  0
   -3.2642   -0.9105   -0.2340 C   0  0  0  0  0  0  0  0  0  0  0  0
    4.1524    0.4464    0.5487 C   0  0  0  0  0  0  0  0  0  0  0  0
    2.7356    1.8746    1.1392 H   0  0  0  0  0  0  0  0  0  0  0  0
    2.0124    0.6544   -1.0520 H   0  0  0  0  0  0  0  0  0  0  0  0
    1.2938   -1.4123    1.0016 H   0  0  0  0  0  0  0  0  0  0  0  0
    2.9546   -1.3977    0.4103 H   0  0  0  0  0  0  0  0  0  0  0  0
    1.6446   -1.6387   -0.8081 H   0  0  0  0  0  0  0  0  0  0  0  0
    0.5395    2.0161    0.6427 H   0  0  0  0  0  0  0  0  0  0  0  0
    0.3175    0.4752    1.4901 H   0  0  0  0  0  0  0  0  0  0  0  0
   -0.5456    1.2694   -1.3420 H   0  0  0  0  0  0  0  0  0  0  0  0
   -1.6478    1.8556    1.0220 H   0  0  0  0  0  0  0  0  0  0  0  0
   -2.5602    1.7389   -0.5438 H   0  0  0  0  0  0  0  0  0  0  0  0
   -0.6522   -1.5814   -0.2308 H   0  0  0  0  0  0  0  0  0  0  0  0
   -0.2779   -0.9539   -1.8640 H   0  0  0  0  0  0  0  0  0  0  0  0
   -3.7510    0.5968    1.1789 H   0  0  0  0  0  0  0  0  0  0  0  0
   -2.3374   -0.3698    1.6355 H   0  0  0  0  0  0  0  0  0  0  0  0
   -2.3339   -2.0133   -1.8199 H   0  0  0  0  0  0  0  0  0  0  0  0
   -2.5983   -0.2544   -2.1299 H   0  0  0  0  0  0  0  0  0  0  0  0
   -3.3252   -1.8984    0.2613 H   0  0  0  0  0  0  0  0  0  0  0  0
   -4.2677   -0.6851   -0.6536 H   0  0  0  0  0  0  0  0  0  0  0  0
    4.8706    1.2960    0.4706 H   0  0  0  0  0  0  0  0  0  0  0  0
    4.1491   -0.0323   -0.4521 H   0  0  0  0  0  0  0  0  0  0  0  0
    4.5438   -0.2545    1.3056 H   0  0  0  0  0  0  0  0  0  0  0  0
  1  2  1  0
  2  3  1  0
  2  4  1  0
  4  5  1  0
  5  6  1  0
  5  7  1  0
  6  8  1  0
  7  9  1  0
  8 10  1  0
  9 10  1  0
  1 11  1  0
  1 12  1  0
  2 13  1  6
  3 14  1  0
  3 15  1  0
  3 16  1  0
  4 17  1  0
  4 18  1  0
  5 19  1  0
  6 20  1  0
  6 21  1  0
  7 22  1  0
  7 23  1  0
  8 24  1  0
  8 25  1  0
  9 26  1  0
  9 27  1  0
 10 28  1  0
 10 29  1  0
 11 30  1  0
 11 31  1  0
 11 32  1  0
M  END
>  <PDBID>  (1) 
4XP6

>  <PDB ID>  (1) 
4XP6

>  <Generic Name>  (1) 
Methamphetamine

>  <Brand Name>  (1) 
Desoxyn#Methamphetamine Hydrochloride

>  <DrugBank ID>  (1) 
DB01577

>  <ATC Codes>  (1) 
N06BA03

>  <Ligand ID>  (1) 
B40

>  <Target Name>  (1) 
Sodium-dependent noradrenaline transporter

>  <UniProt ID>  (1) 
P23975

>  <PDB ID.1>  (1) 
4XP6

>  <Seq. Identity>  (1) 
59%

$$$$
