PDB_DB01004_01
     RDKit          3D

 78 80  0  0  0  0  0  0  0  0999 V2000
   -3.5830   -0.8822   -0.5372 N   0  0  0  0  0  0  0  0  0  0  0  0
   -3.1751    0.4133   -1.0350 C   0  0  0  0  0  0  0  0  0  0  0  0
   -0.8663   -0.1552   -0.6831 C   0  0  0  0  0  0  0  0  0  0  0  0
   -0.6849    0.5658    1.5064 C   0  0  0  0  0  0  0  0  0  0  0  0
    3.7056   -0.4282   -1.1394 C   0  0  0  0  0  0  0  0  0  0  0  0
    3.5889   -1.7915   -0.8359 O   0  0  0  0  0  0  0  0  0  0  0  0
    3.9578    0.2803    1.1912 C   0  0  0  0  0  0  0  0  0  0  0  0
    3.5481    1.1650    2.1866 O   0  0  0  0  0  0  0  0  0  0  0  0
    3.1079    0.4309   -0.0470 C   0  0  0  0  0  0  0  0  0  0  0  0
    1.7752    0.1887    0.1603 O   0  0  0  0  0  0  0  0  0  0  0  0
    0.9650    1.2841   -0.0969 C   0  0  0  0  0  0  0  0  0  0  0  0
   -0.4124    0.9341    0.1482 N   0  0  0  0  0  0  0  0  0  0  0  0
   -1.8519    0.2969   -1.6043 N   0  0  0  0  0  0  0  0  0  0  0  0
   -4.0862    0.7716   -2.1076 N   0  0  0  0  0  0  0  0  0  0  0  0
   -2.7183   -1.4234    0.4496 C   0  0  0  0  0  0  0  0  0  0  0  0
   -3.0956   -0.9312    1.7202 O   0  0  0  0  0  0  0  0  0  0  0  0
   -1.2667   -1.2620    0.2098 C   0  0  0  0  0  0  0  0  0  0  0  0
   -0.6414   -0.9043    1.4931 N   0  0  0  0  0  0  0  0  0  0  0  0
   -3.5830   -0.8822   -0.5372 N   0  0  0  0  0  0  0  0  0  0  0  0
   -3.1751    0.4133   -1.0350 C   0  0  0  0  0  0  0  0  0  0  0  0
   -0.8663   -0.1552   -0.6831 C   0  0  0  0  0  0  0  0  0  0  0  0
   -0.6849    0.5658    1.5064 C   0  0  0  0  0  0  0  0  0  0  0  0
    3.7056   -0.4282   -1.1394 C   0  0  0  0  0  0  0  0  0  0  0  0
    3.5889   -1.7915   -0.8359 O   0  0  0  0  0  0  0  0  0  0  0  0
    3.9578    0.2803    1.1912 C   0  0  0  0  0  0  0  0  0  0  0  0
    3.5481    1.1650    2.1866 O   0  0  0  0  0  0  0  0  0  0  0  0
    3.1079    0.4309   -0.0470 C   0  0  0  0  0  0  0  0  0  0  0  0
    1.7752    0.1887    0.1603 O   0  0  0  0  0  0  0  0  0  0  0  0
    0.9650    1.2841   -0.0969 C   0  0  0  0  0  0  0  0  0  0  0  0
   -0.4124    0.9341    0.1482 N   0  0  0  0  0  0  0  0  0  0  0  0
   -1.8519    0.2969   -1.6043 N   0  0  0  0  0  0  0  0  0  0  0  0
   -4.0862    0.7716   -2.1076 N   0  0  0  0  0  0  0  0  0  0  0  0
   -2.7183   -1.4234    0.4496 C   0  0  0  0  0  0  0  0  0  0  0  0
   -3.0956   -0.9312    1.7202 O   0  0  0  0  0  0  0  0  0  0  0  0
   -1.2667   -1.2620    0.2098 C   0  0  0  0  0  0  0  0  0  0  0  0
   -0.6414   -0.9043    1.4931 N   0  0  0  0  0  0  0  0  0  0  0  0
   -4.5346   -0.7482   -0.1156 H   0  0  0  0  0  0  0  0  0  0  0  0
   -3.2547    1.1942   -0.2634 H   0  0  0  0  0  0  0  0  0  0  0  0
    0.0240   -0.4940   -1.2892 H   0  0  0  0  0  0  0  0  0  0  0  0
   -1.6866    0.9309    1.8145 H   0  0  0  0  0  0  0  0  0  0  0  0
    0.0391    0.9671    2.2257 H   0  0  0  0  0  0  0  0  0  0  0  0
    4.8074   -0.2162   -1.1362 H   0  0  0  0  0  0  0  0  0  0  0  0
    3.3364   -0.1824   -2.1393 H   0  0  0  0  0  0  0  0  0  0  0  0
    3.1788   -1.8581    0.0506 H   0  0  0  0  0  0  0  0  0  0  0  0
    4.0111   -0.7575    1.5533 H   0  0  0  0  0  0  0  0  0  0  0  0
    4.9933    0.5713    0.9007 H   0  0  0  0  0  0  0  0  0  0  0  0
    3.5984    2.0769    1.8084 H   0  0  0  0  0  0  0  0  0  0  0  0
    3.2143    1.4847   -0.3826 H   0  0  0  0  0  0  0  0  0  0  0  0
    1.2434    2.0879    0.6046 H   0  0  0  0  0  0  0  0  0  0  0  0
    1.0342    1.6137   -1.1534 H   0  0  0  0  0  0  0  0  0  0  0  0
   -1.9126   -0.3495   -2.4189 H   0  0  0  0  0  0  0  0  0  0  0  0
   -5.0827    0.5950   -1.7956 H   0  0  0  0  0  0  0  0  0  0  0  0
   -3.9745    1.7762   -2.3863 H   0  0  0  0  0  0  0  0  0  0  0  0
   -2.9309   -2.5314    0.5134 H   0  0  0  0  0  0  0  0  0  0  0  0
   -3.9551   -1.3373    1.9905 H   0  0  0  0  0  0  0  0  0  0  0  0
   -0.7778   -2.2241   -0.0855 H   0  0  0  0  0  0  0  0  0  0  0  0
    0.3623   -1.1519    1.4569 H   0  0  0  0  0  0  0  0  0  0  0  0
   -4.5346   -0.7482   -0.1156 H   0  0  0  0  0  0  0  0  0  0  0  0
   -3.2547    1.1942   -0.2634 H   0  0  0  0  0  0  0  0  0  0  0  0
    0.0240   -0.4940   -1.2892 H   0  0  0  0  0  0  0  0  0  0  0  0
   -1.6866    0.9309    1.8145 H   0  0  0  0  0  0  0  0  0  0  0  0
    0.0391    0.9671    2.2257 H   0  0  0  0  0  0  0  0  0  0  0  0
    4.8074   -0.2162   -1.1362 H   0  0  0  0  0  0  0  0  0  0  0  0
    3.3364   -0.1824   -2.1393 H   0  0  0  0  0  0  0  0  0  0  0  0
    3.1788   -1.8581    0.0506 H   0  0  0  0  0  0  0  0  0  0  0  0
    4.0111   -0.7575    1.5533 H   0  0  0  0  0  0  0  0  0  0  0  0
    4.9933    0.5713    0.9007 H   0  0  0  0  0  0  0  0  0  0  0  0
    3.5984    2.0769    1.8084 H   0  0  0  0  0  0  0  0  0  0  0  0
    3.2143    1.4847   -0.3826 H   0  0  0  0  0  0  0  0  0  0  0  0
    1.2434    2.0879    0.6046 H   0  0  0  0  0  0  0  0  0  0  0  0
    1.0342    1.6137   -1.1534 H   0  0  0  0  0  0  0  0  0  0  0  0
   -1.9126   -0.3495   -2.4189 H   0  0  0  0  0  0  0  0  0  0  0  0
   -5.0827    0.5950   -1.7956 H   0  0  0  0  0  0  0  0  0  0  0  0
   -3.9745    1.7762   -2.3863 H   0  0  0  0  0  0  0  0  0  0  0  0
   -2.9309   -2.5314    0.5134 H   0  0  0  0  0  0  0  0  0  0  0  0
   -3.9551   -1.3373    1.9905 H   0  0  0  0  0  0  0  0  0  0  0  0
   -0.7778   -2.2241   -0.0855 H   0  0  0  0  0  0  0  0  0  0  0  0
    0.3623   -1.1519    1.4569 H   0  0  0  0  0  0  0  0  0  0  0  0
  1  2  1  0
  5  6  1  0
  7  8  1  0
  5  9  1  0
  7  9  1  0
  9 10  1  0
 10 11  1  0
  3 12  1  0
  4 12  1  0
 11 12  1  0
  2 13  1  0
  3 13  1  0
  2 14  1  0
  1 15  1  0
 15 16  1  0
  3 17  1  0
 15 17  1  0
  4 18  1  0
 17 18  1  0
 19 20  1  0
 23 24  1  0
 25 26  1  0
 23 27  1  0
 25 27  1  0
 27 28  1  0
 28 29  1  0
 21 30  1  0
 22 30  1  0
 29 30  1  0
 20 31  1  0
 21 31  1  0
 20 32  1  0
 19 33  1  0
 33 34  1  0
 21 35  1  0
 33 35  1  0
 22 36  1  0
 35 36  1  0
  1 37  1  0
  2 38  1  0
  3 39  1  0
  4 40  1  0
  4 41  1  0
  5 42  1  0
  5 43  1  0
  6 44  1  0
  7 45  1  0
  7 46  1  0
  8 47  1  0
  9 48  1  0
 11 49  1  0
 11 50  1  0
 13 51  1  0
 14 52  1  0
 14 53  1  0
 15 54  1  0
 16 55  1  0
 17 56  1  0
 18 57  1  0
 19 58  1  0
 20 59  1  0
 21 60  1  0
 22 61  1  0
 22 62  1  0
 23 63  1  0
 23 64  1  0
 24 65  1  0
 25 66  1  0
 25 67  1  0
 26 68  1  0
 27 69  1  0
 29 70  1  0
 29 71  1  0
 31 72  1  0
 32 73  1  0
 32 74  1  0
 33 75  1  0
 34 76  1  0
 35 77  1  0
 36 78  1  0
M  END
>  <PDBID>  (1) 
1KI2

>  <PDB ID>  (1) 
1KI2

>  <Generic Name>  (1) 
Ganciclovir

>  <Brand Name>  (1) 
Cytovene - Cap 250mg#Cytovene - Pws 500mg/10m/-vial IV#Cytovene IV#Cytovene Inj 500mg/vial#Cytovene, 500 mg#Ganciclovir#Ganciclovir for Injection#Vitrasert, Intravitreal Implant#Zirgan#Cytovene#Vitrasert

>  <DrugBank ID>  (1) 
DB01004

>  <ATC Codes>  (1) 
J05AB06#S01AD09

>  <Ligand ID>  (1) 
GA2

>  <Target Name>  (1) 
Thymidine kinase

>  <UniProt ID>  (1) 
P03176

>  <PDB ID.1>  (1) 
1KI2

>  <Seq. Identity>  (1) 
100%

$$$$
