PDB_DB00642_02
     RDKit          3D

288296  0  0  0  0  0  0  0  0999 V2000
   -1.1329   -0.0665   -0.1729 C   0  0  0  0  0  0  0  0  0  0  0  0
   -0.3910   -0.5886   -1.4264 C   0  0  0  0  0  0  0  0  0  0  0  0
    0.5781   -1.6550   -1.0320 C   0  0  0  0  0  0  0  0  0  0  0  0
    1.7926   -0.9539   -0.3812 C   0  0  0  0  0  0  0  0  0  0  0  0
    1.3167    0.3247    0.2812 C   0  0  0  0  0  0  0  0  0  0  0  0
   -0.0829    0.2489    0.8350 C   0  0  0  0  0  0  0  0  0  0  0  0
   -1.9907    1.0627   -0.6148 C   0  0  0  0  0  0  0  0  0  0  0  0
   -2.8078    1.7199    0.4422 C   0  0  0  0  0  0  0  0  0  0  0  0
   -3.7654    0.8196    1.1184 C   0  0  0  0  0  0  0  0  0  0  0  0
   -4.5969    1.4429    2.1789 C   0  0  0  0  0  0  0  0  0  0  0  0
   -5.6555    0.4967    2.4098 N   0  0  0  0  0  0  0  0  0  0  0  0
   -5.5679   -0.5415    1.4297 C   0  0  0  0  0  0  0  0  0  0  0  0
   -4.7540    0.0904    0.2850 C   0  0  0  0  0  0  0  0  0  0  0  0
   -5.6191    0.8926   -0.6081 C   0  0  0  0  0  0  0  0  0  0  0  0
   -5.3622    2.2389   -0.6783 O   0  0  0  0  0  0  0  0  0  0  0  0
   -7.0443    0.7548   -0.3683 N   0  0  0  0  0  0  0  0  0  0  0  0
   -7.4672   -0.5752   -0.0718 C   0  0  0  0  0  0  0  0  0  0  0  0
   -6.7637   -1.1607    1.0270 N   0  0  0  0  0  0  0  0  0  0  0  0
   -7.3021   -1.3715   -1.2984 N   0  0  0  0  0  0  0  0  0  0  0  0
    2.7627   -0.5455   -1.4342 C   0  0  0  0  0  0  0  0  0  0  0  0
    3.1586   -1.7226   -2.1750 O   0  0  0  0  0  0  0  0  0  0  0  0
    3.8731    0.1490   -1.0200 N   0  0  0  0  0  0  0  0  0  0  0  0
    4.9952   -0.3328   -0.3492 C   0  0  1  0  0  0  0  0  0  0  0  0
    5.7433    0.9312    0.1470 C   0  0  0  0  0  0  0  0  0  0  0  0
    7.0165    0.6679    0.8388 C   0  0  0  0  0  0  0  0  0  0  0  0
    8.0358    0.0191   -0.0664 C   0  0  0  0  0  0  0  0  0  0  0  0
    9.1787   -0.1891    0.7050 O   0  0  0  0  0  0  0  0  0  0  0  0
    8.3853    1.0381   -1.0080 O   0  0  0  0  0  0  0  0  0  0  0  0
    4.8516   -1.2538    0.8024 C   0  0  0  0  0  0  0  0  0  0  0  0
    4.1637   -0.6831    1.8591 O   0  0  0  0  0  0  0  0  0  0  0  0
    6.1067   -1.7447    1.2557 O   0  0  0  0  0  0  0  0  0  0  0  0
   -1.1329   -0.0665   -0.1729 C   0  0  0  0  0  0  0  0  0  0  0  0
   -0.3910   -0.5886   -1.4264 C   0  0  0  0  0  0  0  0  0  0  0  0
    0.5781   -1.6550   -1.0320 C   0  0  0  0  0  0  0  0  0  0  0  0
    1.7926   -0.9539   -0.3812 C   0  0  0  0  0  0  0  0  0  0  0  0
    1.3167    0.3247    0.2812 C   0  0  0  0  0  0  0  0  0  0  0  0
   -0.0829    0.2489    0.8350 C   0  0  0  0  0  0  0  0  0  0  0  0
   -1.9907    1.0627   -0.6148 C   0  0  0  0  0  0  0  0  0  0  0  0
   -2.8078    1.7199    0.4422 C   0  0  0  0  0  0  0  0  0  0  0  0
   -3.7654    0.8196    1.1184 C   0  0  0  0  0  0  0  0  0  0  0  0
   -4.5969    1.4429    2.1789 C   0  0  0  0  0  0  0  0  0  0  0  0
   -5.6555    0.4967    2.4098 N   0  0  0  0  0  0  0  0  0  0  0  0
   -5.5679   -0.5415    1.4297 C   0  0  0  0  0  0  0  0  0  0  0  0
   -4.7540    0.0904    0.2850 C   0  0  0  0  0  0  0  0  0  0  0  0
   -5.6191    0.8926   -0.6081 C   0  0  0  0  0  0  0  0  0  0  0  0
   -5.3622    2.2389   -0.6783 O   0  0  0  0  0  0  0  0  0  0  0  0
   -7.0443    0.7548   -0.3683 N   0  0  0  0  0  0  0  0  0  0  0  0
   -7.4672   -0.5752   -0.0718 C   0  0  0  0  0  0  0  0  0  0  0  0
   -6.7637   -1.1607    1.0270 N   0  0  0  0  0  0  0  0  0  0  0  0
   -7.3021   -1.3715   -1.2984 N   0  0  0  0  0  0  0  0  0  0  0  0
    2.7627   -0.5455   -1.4342 C   0  0  0  0  0  0  0  0  0  0  0  0
    3.1586   -1.7226   -2.1750 O   0  0  0  0  0  0  0  0  0  0  0  0
    3.8731    0.1490   -1.0200 N   0  0  0  0  0  0  0  0  0  0  0  0
    4.9952   -0.3328   -0.3492 C   0  0  1  0  0  0  0  0  0  0  0  0
    5.7433    0.9312    0.1470 C   0  0  0  0  0  0  0  0  0  0  0  0
    7.0165    0.6679    0.8388 C   0  0  0  0  0  0  0  0  0  0  0  0
    8.0358    0.0191   -0.0664 C   0  0  0  0  0  0  0  0  0  0  0  0
    9.1787   -0.1891    0.7050 O   0  0  0  0  0  0  0  0  0  0  0  0
    8.3853    1.0381   -1.0080 O   0  0  0  0  0  0  0  0  0  0  0  0
    4.8516   -1.2538    0.8024 C   0  0  0  0  0  0  0  0  0  0  0  0
    4.1637   -0.6831    1.8591 O   0  0  0  0  0  0  0  0  0  0  0  0
    6.1067   -1.7447    1.2557 O   0  0  0  0  0  0  0  0  0  0  0  0
   -1.1329   -0.0665   -0.1729 C   0  0  0  0  0  0  0  0  0  0  0  0
   -0.3910   -0.5886   -1.4264 C   0  0  0  0  0  0  0  0  0  0  0  0
    0.5781   -1.6550   -1.0320 C   0  0  0  0  0  0  0  0  0  0  0  0
    1.7926   -0.9539   -0.3812 C   0  0  0  0  0  0  0  0  0  0  0  0
    1.3167    0.3247    0.2812 C   0  0  0  0  0  0  0  0  0  0  0  0
   -0.0829    0.2489    0.8350 C   0  0  0  0  0  0  0  0  0  0  0  0
   -1.9907    1.0627   -0.6148 C   0  0  0  0  0  0  0  0  0  0  0  0
   -2.8078    1.7199    0.4422 C   0  0  0  0  0  0  0  0  0  0  0  0
   -3.7654    0.8196    1.1184 C   0  0  0  0  0  0  0  0  0  0  0  0
   -4.5969    1.4429    2.1789 C   0  0  0  0  0  0  0  0  0  0  0  0
   -5.6555    0.4967    2.4098 N   0  0  0  0  0  0  0  0  0  0  0  0
   -5.5679   -0.5415    1.4297 C   0  0  0  0  0  0  0  0  0  0  0  0
   -4.7540    0.0904    0.2850 C   0  0  0  0  0  0  0  0  0  0  0  0
   -5.6191    0.8926   -0.6081 C   0  0  0  0  0  0  0  0  0  0  0  0
   -5.3622    2.2389   -0.6783 O   0  0  0  0  0  0  0  0  0  0  0  0
   -7.0443    0.7548   -0.3683 N   0  0  0  0  0  0  0  0  0  0  0  0
   -7.4672   -0.5752   -0.0718 C   0  0  0  0  0  0  0  0  0  0  0  0
   -6.7637   -1.1607    1.0270 N   0  0  0  0  0  0  0  0  0  0  0  0
   -7.3021   -1.3715   -1.2984 N   0  0  0  0  0  0  0  0  0  0  0  0
    2.7627   -0.5455   -1.4342 C   0  0  0  0  0  0  0  0  0  0  0  0
    3.1586   -1.7226   -2.1750 O   0  0  0  0  0  0  0  0  0  0  0  0
    3.8731    0.1490   -1.0200 N   0  0  0  0  0  0  0  0  0  0  0  0
    4.9952   -0.3328   -0.3492 C   0  0  1  0  0  0  0  0  0  0  0  0
    5.7433    0.9312    0.1470 C   0  0  0  0  0  0  0  0  0  0  0  0
    7.0165    0.6679    0.8388 C   0  0  0  0  0  0  0  0  0  0  0  0
    8.0358    0.0191   -0.0664 C   0  0  0  0  0  0  0  0  0  0  0  0
    9.1787   -0.1891    0.7050 O   0  0  0  0  0  0  0  0  0  0  0  0
    8.3853    1.0381   -1.0080 O   0  0  0  0  0  0  0  0  0  0  0  0
    4.8516   -1.2538    0.8024 C   0  0  0  0  0  0  0  0  0  0  0  0
    4.1637   -0.6831    1.8591 O   0  0  0  0  0  0  0  0  0  0  0  0
    6.1067   -1.7447    1.2557 O   0  0  0  0  0  0  0  0  0  0  0  0
   -1.1329   -0.0665   -0.1729 C   0  0  0  0  0  0  0  0  0  0  0  0
   -0.3910   -0.5886   -1.4264 C   0  0  0  0  0  0  0  0  0  0  0  0
    0.5781   -1.6550   -1.0320 C   0  0  0  0  0  0  0  0  0  0  0  0
    1.7926   -0.9539   -0.3812 C   0  0  0  0  0  0  0  0  0  0  0  0
    1.3167    0.3247    0.2812 C   0  0  0  0  0  0  0  0  0  0  0  0
   -0.0829    0.2489    0.8350 C   0  0  0  0  0  0  0  0  0  0  0  0
   -1.9907    1.0627   -0.6148 C   0  0  0  0  0  0  0  0  0  0  0  0
   -2.8078    1.7199    0.4422 C   0  0  0  0  0  0  0  0  0  0  0  0
   -3.7654    0.8196    1.1184 C   0  0  0  0  0  0  0  0  0  0  0  0
   -4.5969    1.4429    2.1789 C   0  0  0  0  0  0  0  0  0  0  0  0
   -5.6555    0.4967    2.4098 N   0  0  0  0  0  0  0  0  0  0  0  0
   -5.5679   -0.5415    1.4297 C   0  0  0  0  0  0  0  0  0  0  0  0
   -4.7540    0.0904    0.2850 C   0  0  0  0  0  0  0  0  0  0  0  0
   -5.6191    0.8926   -0.6081 C   0  0  0  0  0  0  0  0  0  0  0  0
   -5.3622    2.2389   -0.6783 O   0  0  0  0  0  0  0  0  0  0  0  0
   -7.0443    0.7548   -0.3683 N   0  0  0  0  0  0  0  0  0  0  0  0
   -7.4672   -0.5752   -0.0718 C   0  0  0  0  0  0  0  0  0  0  0  0
   -6.7637   -1.1607    1.0270 N   0  0  0  0  0  0  0  0  0  0  0  0
   -7.3021   -1.3715   -1.2984 N   0  0  0  0  0  0  0  0  0  0  0  0
    2.7627   -0.5455   -1.4342 C   0  0  0  0  0  0  0  0  0  0  0  0
    3.1586   -1.7226   -2.1750 O   0  0  0  0  0  0  0  0  0  0  0  0
    3.8731    0.1490   -1.0200 N   0  0  0  0  0  0  0  0  0  0  0  0
    4.9952   -0.3328   -0.3492 C   0  0  1  0  0  0  0  0  0  0  0  0
    5.7433    0.9312    0.1470 C   0  0  0  0  0  0  0  0  0  0  0  0
    7.0165    0.6679    0.8388 C   0  0  0  0  0  0  0  0  0  0  0  0
    8.0358    0.0191   -0.0664 C   0  0  0  0  0  0  0  0  0  0  0  0
    9.1787   -0.1891    0.7050 O   0  0  0  0  0  0  0  0  0  0  0  0
    8.3853    1.0381   -1.0080 O   0  0  0  0  0  0  0  0  0  0  0  0
    4.8516   -1.2538    0.8024 C   0  0  0  0  0  0  0  0  0  0  0  0
    4.1637   -0.6831    1.8591 O   0  0  0  0  0  0  0  0  0  0  0  0
    6.1067   -1.7447    1.2557 O   0  0  0  0  0  0  0  0  0  0  0  0
   -1.7911   -0.9227    0.1253 H   0  0  0  0  0  0  0  0  0  0  0  0
    0.2122    0.2666   -1.8177 H   0  0  0  0  0  0  0  0  0  0  0  0
   -1.0997   -0.9467   -2.1875 H   0  0  0  0  0  0  0  0  0  0  0  0
    0.8891   -2.1979   -1.9235 H   0  0  0  0  0  0  0  0  0  0  0  0
    0.1100   -2.3350   -0.3007 H   0  0  0  0  0  0  0  0  0  0  0  0
    2.1807   -1.6406    0.3390 H   0  0  0  0  0  0  0  0  0  0  0  0
    1.4294    1.1908   -0.4324 H   0  0  0  0  0  0  0  0  0  0  0  0
    1.9813    0.5518    1.1224 H   0  0  0  0  0  0  0  0  0  0  0  0
   -0.2424    1.2066    1.3735 H   0  0  0  0  0  0  0  0  0  0  0  0
   -0.0875   -0.5436    1.6229 H   0  0  0  0  0  0  0  0  0  0  0  0
   -2.6456    0.6493   -1.4396 H   0  0  0  0  0  0  0  0  0  0  0  0
   -1.3335    1.8062   -1.1368 H   0  0  0  0  0  0  0  0  0  0  0  0
   -3.2173    2.6757    0.0570 H   0  0  0  0  0  0  0  0  0  0  0  0
   -2.0819    2.0631    1.2417 H   0  0  0  0  0  0  0  0  0  0  0  0
   -3.1512    0.0180    1.6323 H   0  0  0  0  0  0  0  0  0  0  0  0
   -3.9784    1.5517    3.1160 H   0  0  0  0  0  0  0  0  0  0  0  0
   -4.9545    2.4642    1.9303 H   0  0  0  0  0  0  0  0  0  0  0  0
   -6.5953    0.9423    2.4757 H   0  0  0  0  0  0  0  0  0  0  0  0
   -4.8710   -1.3258    1.8494 H   0  0  0  0  0  0  0  0  0  0  0  0
   -4.2442   -0.7532   -0.2329 H   0  0  0  0  0  0  0  0  0  0  0  0
   -5.4756    0.4737   -1.6505 H   0  0  0  0  0  0  0  0  0  0  0  0
   -5.5292    2.5463   -1.6040 H   0  0  0  0  0  0  0  0  0  0  0  0
   -7.4530    1.4936    0.2150 H   0  0  0  0  0  0  0  0  0  0  0  0
   -8.5496   -0.5440    0.1541 H   0  0  0  0  0  0  0  0  0  0  0  0
   -6.7574   -2.2064    1.0240 H   0  0  0  0  0  0  0  0  0  0  0  0
   -7.7075   -2.3159   -1.1875 H   0  0  0  0  0  0  0  0  0  0  0  0
   -7.8517   -0.8334   -2.0195 H   0  0  0  0  0  0  0  0  0  0  0  0
    2.2083    0.0553   -2.2131 H   0  0  0  0  0  0  0  0  0  0  0  0
    3.5580   -1.4240   -3.0341 H   0  0  0  0  0  0  0  0  0  0  0  0
    4.0268    1.1034   -1.4169 H   0  0  0  0  0  0  0  0  0  0  0  0
    5.7056   -0.7739   -1.1275 H   0  0  0  0  0  0  0  0  0  0  0  0
    5.9706    1.5917   -0.7378 H   0  0  0  0  0  0  0  0  0  0  0  0
    5.0359    1.4818    0.8215 H   0  0  0  0  0  0  0  0  0  0  0  0
    6.9700    0.2264    1.8401 H   0  0  0  0  0  0  0  0  0  0  0  0
    7.4659    1.7071    1.0480 H   0  0  0  0  0  0  0  0  0  0  0  0
    7.6915   -0.8604   -0.6077 H   0  0  0  0  0  0  0  0  0  0  0  0
    9.4424   -1.1554    0.6343 H   0  0  0  0  0  0  0  0  0  0  0  0
    7.8854    0.8346   -1.8493 H   0  0  0  0  0  0  0  0  0  0  0  0
    4.3133   -2.2038    0.5342 H   0  0  0  0  0  0  0  0  0  0  0  0
    4.5027   -0.9921    2.7479 H   0  0  0  0  0  0  0  0  0  0  0  0
    6.3834   -2.4386    0.6091 H   0  0  0  0  0  0  0  0  0  0  0  0
   -1.7911   -0.9227    0.1253 H   0  0  0  0  0  0  0  0  0  0  0  0
    0.2122    0.2666   -1.8177 H   0  0  0  0  0  0  0  0  0  0  0  0
   -1.0997   -0.9467   -2.1875 H   0  0  0  0  0  0  0  0  0  0  0  0
    0.8891   -2.1979   -1.9235 H   0  0  0  0  0  0  0  0  0  0  0  0
    0.1100   -2.3350   -0.3007 H   0  0  0  0  0  0  0  0  0  0  0  0
    2.1807   -1.6406    0.3390 H   0  0  0  0  0  0  0  0  0  0  0  0
    1.4294    1.1908   -0.4324 H   0  0  0  0  0  0  0  0  0  0  0  0
    1.9813    0.5518    1.1224 H   0  0  0  0  0  0  0  0  0  0  0  0
   -0.2424    1.2066    1.3735 H   0  0  0  0  0  0  0  0  0  0  0  0
   -0.0875   -0.5436    1.6229 H   0  0  0  0  0  0  0  0  0  0  0  0
   -2.6456    0.6493   -1.4396 H   0  0  0  0  0  0  0  0  0  0  0  0
   -1.3335    1.8062   -1.1368 H   0  0  0  0  0  0  0  0  0  0  0  0
   -3.2173    2.6757    0.0570 H   0  0  0  0  0  0  0  0  0  0  0  0
   -2.0819    2.0631    1.2417 H   0  0  0  0  0  0  0  0  0  0  0  0
   -3.1512    0.0180    1.6323 H   0  0  0  0  0  0  0  0  0  0  0  0
   -3.9784    1.5517    3.1160 H   0  0  0  0  0  0  0  0  0  0  0  0
   -4.9545    2.4642    1.9303 H   0  0  0  0  0  0  0  0  0  0  0  0
   -6.5953    0.9423    2.4757 H   0  0  0  0  0  0  0  0  0  0  0  0
   -4.8710   -1.3258    1.8494 H   0  0  0  0  0  0  0  0  0  0  0  0
   -4.2442   -0.7532   -0.2329 H   0  0  0  0  0  0  0  0  0  0  0  0
   -5.4756    0.4737   -1.6505 H   0  0  0  0  0  0  0  0  0  0  0  0
   -5.5292    2.5463   -1.6040 H   0  0  0  0  0  0  0  0  0  0  0  0
   -7.4530    1.4936    0.2150 H   0  0  0  0  0  0  0  0  0  0  0  0
   -8.5496   -0.5440    0.1541 H   0  0  0  0  0  0  0  0  0  0  0  0
   -6.7574   -2.2064    1.0240 H   0  0  0  0  0  0  0  0  0  0  0  0
   -7.7075   -2.3159   -1.1875 H   0  0  0  0  0  0  0  0  0  0  0  0
   -7.8517   -0.8334   -2.0195 H   0  0  0  0  0  0  0  0  0  0  0  0
    2.2083    0.0553   -2.2131 H   0  0  0  0  0  0  0  0  0  0  0  0
    3.5580   -1.4240   -3.0341 H   0  0  0  0  0  0  0  0  0  0  0  0
    4.0268    1.1034   -1.4169 H   0  0  0  0  0  0  0  0  0  0  0  0
    5.7056   -0.7739   -1.1275 H   0  0  0  0  0  0  0  0  0  0  0  0
    5.9706    1.5917   -0.7378 H   0  0  0  0  0  0  0  0  0  0  0  0
    5.0359    1.4818    0.8215 H   0  0  0  0  0  0  0  0  0  0  0  0
    6.9700    0.2264    1.8401 H   0  0  0  0  0  0  0  0  0  0  0  0
    7.4659    1.7071    1.0480 H   0  0  0  0  0  0  0  0  0  0  0  0
    7.6915   -0.8604   -0.6077 H   0  0  0  0  0  0  0  0  0  0  0  0
    9.4424   -1.1554    0.6343 H   0  0  0  0  0  0  0  0  0  0  0  0
    7.8854    0.8346   -1.8493 H   0  0  0  0  0  0  0  0  0  0  0  0
    4.3133   -2.2038    0.5342 H   0  0  0  0  0  0  0  0  0  0  0  0
    4.5027   -0.9921    2.7479 H   0  0  0  0  0  0  0  0  0  0  0  0
    6.3834   -2.4386    0.6091 H   0  0  0  0  0  0  0  0  0  0  0  0
   -1.7911   -0.9227    0.1253 H   0  0  0  0  0  0  0  0  0  0  0  0
    0.2122    0.2666   -1.8177 H   0  0  0  0  0  0  0  0  0  0  0  0
   -1.0997   -0.9467   -2.1875 H   0  0  0  0  0  0  0  0  0  0  0  0
    0.8891   -2.1979   -1.9235 H   0  0  0  0  0  0  0  0  0  0  0  0
    0.1100   -2.3350   -0.3007 H   0  0  0  0  0  0  0  0  0  0  0  0
    2.1807   -1.6406    0.3390 H   0  0  0  0  0  0  0  0  0  0  0  0
    1.4294    1.1908   -0.4324 H   0  0  0  0  0  0  0  0  0  0  0  0
    1.9813    0.5518    1.1224 H   0  0  0  0  0  0  0  0  0  0  0  0
   -0.2424    1.2066    1.3735 H   0  0  0  0  0  0  0  0  0  0  0  0
   -0.0875   -0.5436    1.6229 H   0  0  0  0  0  0  0  0  0  0  0  0
   -2.6456    0.6493   -1.4396 H   0  0  0  0  0  0  0  0  0  0  0  0
   -1.3335    1.8062   -1.1368 H   0  0  0  0  0  0  0  0  0  0  0  0
   -3.2173    2.6757    0.0570 H   0  0  0  0  0  0  0  0  0  0  0  0
   -2.0819    2.0631    1.2417 H   0  0  0  0  0  0  0  0  0  0  0  0
   -3.1512    0.0180    1.6323 H   0  0  0  0  0  0  0  0  0  0  0  0
   -3.9784    1.5517    3.1160 H   0  0  0  0  0  0  0  0  0  0  0  0
   -4.9545    2.4642    1.9303 H   0  0  0  0  0  0  0  0  0  0  0  0
   -6.5953    0.9423    2.4757 H   0  0  0  0  0  0  0  0  0  0  0  0
   -4.8710   -1.3258    1.8494 H   0  0  0  0  0  0  0  0  0  0  0  0
   -4.2442   -0.7532   -0.2329 H   0  0  0  0  0  0  0  0  0  0  0  0
   -5.4756    0.4737   -1.6505 H   0  0  0  0  0  0  0  0  0  0  0  0
   -5.5292    2.5463   -1.6040 H   0  0  0  0  0  0  0  0  0  0  0  0
   -7.4530    1.4936    0.2150 H   0  0  0  0  0  0  0  0  0  0  0  0
   -8.5496   -0.5440    0.1541 H   0  0  0  0  0  0  0  0  0  0  0  0
   -6.7574   -2.2064    1.0240 H   0  0  0  0  0  0  0  0  0  0  0  0
   -7.7075   -2.3159   -1.1875 H   0  0  0  0  0  0  0  0  0  0  0  0
   -7.8517   -0.8334   -2.0195 H   0  0  0  0  0  0  0  0  0  0  0  0
    2.2083    0.0553   -2.2131 H   0  0  0  0  0  0  0  0  0  0  0  0
    3.5580   -1.4240   -3.0341 H   0  0  0  0  0  0  0  0  0  0  0  0
    4.0268    1.1034   -1.4169 H   0  0  0  0  0  0  0  0  0  0  0  0
    5.7056   -0.7739   -1.1275 H   0  0  0  0  0  0  0  0  0  0  0  0
    5.9706    1.5917   -0.7378 H   0  0  0  0  0  0  0  0  0  0  0  0
    5.0359    1.4818    0.8215 H   0  0  0  0  0  0  0  0  0  0  0  0
    6.9700    0.2264    1.8401 H   0  0  0  0  0  0  0  0  0  0  0  0
    7.4659    1.7071    1.0480 H   0  0  0  0  0  0  0  0  0  0  0  0
    7.6915   -0.8604   -0.6077 H   0  0  0  0  0  0  0  0  0  0  0  0
    9.4424   -1.1554    0.6343 H   0  0  0  0  0  0  0  0  0  0  0  0
    7.8854    0.8346   -1.8493 H   0  0  0  0  0  0  0  0  0  0  0  0
    4.3133   -2.2038    0.5342 H   0  0  0  0  0  0  0  0  0  0  0  0
    4.5027   -0.9921    2.7479 H   0  0  0  0  0  0  0  0  0  0  0  0
    6.3834   -2.4386    0.6091 H   0  0  0  0  0  0  0  0  0  0  0  0
   -1.7911   -0.9227    0.1253 H   0  0  0  0  0  0  0  0  0  0  0  0
    0.2122    0.2666   -1.8177 H   0  0  0  0  0  0  0  0  0  0  0  0
   -1.0997   -0.9467   -2.1875 H   0  0  0  0  0  0  0  0  0  0  0  0
    0.8891   -2.1979   -1.9235 H   0  0  0  0  0  0  0  0  0  0  0  0
    0.1100   -2.3350   -0.3007 H   0  0  0  0  0  0  0  0  0  0  0  0
    2.1807   -1.6406    0.3390 H   0  0  0  0  0  0  0  0  0  0  0  0
    1.4294    1.1908   -0.4324 H   0  0  0  0  0  0  0  0  0  0  0  0
    1.9813    0.5518    1.1224 H   0  0  0  0  0  0  0  0  0  0  0  0
   -0.2424    1.2066    1.3735 H   0  0  0  0  0  0  0  0  0  0  0  0
   -0.0875   -0.5436    1.6229 H   0  0  0  0  0  0  0  0  0  0  0  0
   -2.6456    0.6493   -1.4396 H   0  0  0  0  0  0  0  0  0  0  0  0
   -1.3335    1.8062   -1.1368 H   0  0  0  0  0  0  0  0  0  0  0  0
   -3.2173    2.6757    0.0570 H   0  0  0  0  0  0  0  0  0  0  0  0
   -2.0819    2.0631    1.2417 H   0  0  0  0  0  0  0  0  0  0  0  0
   -3.1512    0.0180    1.6323 H   0  0  0  0  0  0  0  0  0  0  0  0
   -3.9784    1.5517    3.1160 H   0  0  0  0  0  0  0  0  0  0  0  0
   -4.9545    2.4642    1.9303 H   0  0  0  0  0  0  0  0  0  0  0  0
   -6.5953    0.9423    2.4757 H   0  0  0  0  0  0  0  0  0  0  0  0
   -4.8710   -1.3258    1.8494 H   0  0  0  0  0  0  0  0  0  0  0  0
   -4.2442   -0.7532   -0.2329 H   0  0  0  0  0  0  0  0  0  0  0  0
   -5.4756    0.4737   -1.6505 H   0  0  0  0  0  0  0  0  0  0  0  0
   -5.5292    2.5463   -1.6040 H   0  0  0  0  0  0  0  0  0  0  0  0
   -7.4530    1.4936    0.2150 H   0  0  0  0  0  0  0  0  0  0  0  0
   -8.5496   -0.5440    0.1541 H   0  0  0  0  0  0  0  0  0  0  0  0
   -6.7574   -2.2064    1.0240 H   0  0  0  0  0  0  0  0  0  0  0  0
   -7.7075   -2.3159   -1.1875 H   0  0  0  0  0  0  0  0  0  0  0  0
   -7.8517   -0.8334   -2.0195 H   0  0  0  0  0  0  0  0  0  0  0  0
    2.2083    0.0553   -2.2131 H   0  0  0  0  0  0  0  0  0  0  0  0
    3.5580   -1.4240   -3.0341 H   0  0  0  0  0  0  0  0  0  0  0  0
    4.0268    1.1034   -1.4169 H   0  0  0  0  0  0  0  0  0  0  0  0
    5.7056   -0.7739   -1.1275 H   0  0  0  0  0  0  0  0  0  0  0  0
    5.9706    1.5917   -0.7378 H   0  0  0  0  0  0  0  0  0  0  0  0
    5.0359    1.4818    0.8215 H   0  0  0  0  0  0  0  0  0  0  0  0
    6.9700    0.2264    1.8401 H   0  0  0  0  0  0  0  0  0  0  0  0
    7.4659    1.7071    1.0480 H   0  0  0  0  0  0  0  0  0  0  0  0
    7.6915   -0.8604   -0.6077 H   0  0  0  0  0  0  0  0  0  0  0  0
    9.4424   -1.1554    0.6343 H   0  0  0  0  0  0  0  0  0  0  0  0
    7.8854    0.8346   -1.8493 H   0  0  0  0  0  0  0  0  0  0  0  0
    4.3133   -2.2038    0.5342 H   0  0  0  0  0  0  0  0  0  0  0  0
    4.5027   -0.9921    2.7479 H   0  0  0  0  0  0  0  0  0  0  0  0
    6.3834   -2.4386    0.6091 H   0  0  0  0  0  0  0  0  0  0  0  0
  1  2  1  0
  2  3  1  0
  3  4  1  0
  4  5  1  0
  1  6  1  0
  5  6  1  0
  1  7  1  0
  7  8  1  0
  8  9  1  0
  9 10  1  0
 10 11  1  0
 11 12  1  0
  9 13  1  0
 12 13  1  0
 13 14  1  0
 14 15  1  0
 14 16  1  0
 16 17  1  0
 12 18  1  0
 17 18  1  0
 17 19  1  0
  4 20  1  0
 20 21  1  0
 20 22  1  0
 22 23  1  0
 23 24  1  0
 24 25  1  0
 25 26  1  0
 26 27  1  0
 26 28  1  0
 23 29  1  0
 29 30  1  0
 29 31  1  0
 32 33  1  0
 33 34  1  0
 34 35  1  0
 35 36  1  0
 32 37  1  0
 36 37  1  0
 32 38  1  0
 38 39  1  0
 39 40  1  0
 40 41  1  0
 41 42  1  0
 42 43  1  0
 40 44  1  0
 43 44  1  0
 44 45  1  0
 45 46  1  0
 45 47  1  0
 47 48  1  0
 43 49  1  0
 48 49  1  0
 48 50  1  0
 35 51  1  0
 51 52  1  0
 51 53  1  0
 53 54  1  0
 54 55  1  0
 55 56  1  0
 56 57  1  0
 57 58  1  0
 57 59  1  0
 54 60  1  0
 60 61  1  0
 60 62  1  0
 63 64  1  0
 64 65  1  0
 65 66  1  0
 66 67  1  0
 63 68  1  0
 67 68  1  0
 63 69  1  0
 69 70  1  0
 70 71  1  0
 71 72  1  0
 72 73  1  0
 73 74  1  0
 71 75  1  0
 74 75  1  0
 75 76  1  0
 76 77  1  0
 76 78  1  0
 78 79  1  0
 74 80  1  0
 79 80  1  0
 79 81  1  0
 66 82  1  0
 82 83  1  0
 82 84  1  0
 84 85  1  0
 85 86  1  0
 86 87  1  0
 87 88  1  0
 88 89  1  0
 88 90  1  0
 85 91  1  0
 91 92  1  0
 91 93  1  0
 94 95  1  0
 95 96  1  0
 96 97  1  0
 97 98  1  0
 94 99  1  0
 98 99  1  0
 94100  1  0
100101  1  0
101102  1  0
102103  1  0
103104  1  0
104105  1  0
102106  1  0
105106  1  0
106107  1  0
107108  1  0
107109  1  0
109110  1  0
105111  1  0
110111  1  0
110112  1  0
 97113  1  0
113114  1  0
113115  1  0
115116  1  0
116117  1  0
117118  1  0
118119  1  0
119120  1  0
119121  1  0
116122  1  0
122123  1  0
122124  1  0
  1125  1  0
  2126  1  0
  2127  1  0
  3128  1  0
  3129  1  0
  4130  1  0
  5131  1  0
  5132  1  0
  6133  1  0
  6134  1  0
  7135  1  0
  7136  1  0
  8137  1  0
  8138  1  0
  9139  1  0
 10140  1  0
 10141  1  0
 11142  1  0
 12143  1  0
 13144  1  0
 14145  1  0
 15146  1  0
 16147  1  0
 17148  1  0
 18149  1  0
 19150  1  0
 19151  1  0
 20152  1  0
 21153  1  0
 22154  1  0
 23155  1  6
 24156  1  0
 24157  1  0
 25158  1  0
 25159  1  0
 26160  1  0
 27161  1  0
 28162  1  0
 29163  1  0
 30164  1  0
 31165  1  0
 32166  1  0
 33167  1  0
 33168  1  0
 34169  1  0
 34170  1  0
 35171  1  0
 36172  1  0
 36173  1  0
 37174  1  0
 37175  1  0
 38176  1  0
 38177  1  0
 39178  1  0
 39179  1  0
 40180  1  0
 41181  1  0
 41182  1  0
 42183  1  0
 43184  1  0
 44185  1  0
 45186  1  0
 46187  1  0
 47188  1  0
 48189  1  0
 49190  1  0
 50191  1  0
 50192  1  0
 51193  1  0
 52194  1  0
 53195  1  0
 54196  1  6
 55197  1  0
 55198  1  0
 56199  1  0
 56200  1  0
 57201  1  0
 58202  1  0
 59203  1  0
 60204  1  0
 61205  1  0
 62206  1  0
 63207  1  0
 64208  1  0
 64209  1  0
 65210  1  0
 65211  1  0
 66212  1  0
 67213  1  0
 67214  1  0
 68215  1  0
 68216  1  0
 69217  1  0
 69218  1  0
 70219  1  0
 70220  1  0
 71221  1  0
 72222  1  0
 72223  1  0
 73224  1  0
 74225  1  0
 75226  1  0
 76227  1  0
 77228  1  0
 78229  1  0
 79230  1  0
 80231  1  0
 81232  1  0
 81233  1  0
 82234  1  0
 83235  1  0
 84236  1  0
 85237  1  6
 86238  1  0
 86239  1  0
 87240  1  0
 87241  1  0
 88242  1  0
 89243  1  0
 90244  1  0
 91245  1  0
 92246  1  0
 93247  1  0
 94248  1  0
 95249  1  0
 95250  1  0
 96251  1  0
 96252  1  0
 97253  1  0
 98254  1  0
 98255  1  0
 99256  1  0
 99257  1  0
100258  1  0
100259  1  0
101260  1  0
101261  1  0
102262  1  0
103263  1  0
103264  1  0
104265  1  0
105266  1  0
106267  1  0
107268  1  0
108269  1  0
109270  1  0
110271  1  0
111272  1  0
112273  1  0
112274  1  0
113275  1  0
114276  1  0
115277  1  0
116278  1  6
117279  1  0
117280  1  0
118281  1  0
118282  1  0
119283  1  0
120284  1  0
121285  1  0
122286  1  0
123287  1  0
124288  1  0
M  END
>  <PDBID>  (1) 
1JU6

>  <PDB ID>  (1) 
1JU6

>  <Generic Name>  (1) 
Pemetrexed

>  <Brand Name>  (1) 
Act Pemetrexed#Alimta#Pemetrexed#Pemetrexed Disodium for Injection#Taro-pemetrexed

>  <DrugBank ID>  (1) 
DB00642

>  <ATC Codes>  (1) 
L01BA04

>  <Ligand ID>  (1) 
LYA

>  <Target Name>  (1) 
Thymidylate synthase

>  <UniProt ID>  (1) 
P04818

>  <PDB ID.1>  (1) 
1JU6

>  <Seq. Identity>  (1) 
100%

$$$$
