PDB_DB00380_06
     RDKit          3D

 43 44  0  0  0  0  0  0  0  0999 V2000
   -4.1551   -1.6640   -1.3810 O   0  0  0  0  0  0  0  0  0  0  0  0
   -3.7314   -0.3164   -1.4037 C   0  0  0  0  0  0  0  0  0  0  0  0
   -4.6222    0.4967   -0.6365 N   0  0  0  0  0  0  0  0  0  0  0  0
   -4.2754    0.3963    0.7687 C   0  0  0  0  0  0  0  0  0  0  0  0
   -4.2407   -0.9213    1.1557 O   0  0  0  0  0  0  0  0  0  0  0  0
   -2.8840    0.9629    0.9074 C   0  0  0  0  0  0  0  0  0  0  0  0
   -2.2860   -0.1852   -1.0801 C   0  0  0  0  0  0  0  0  0  0  0  0
   -1.9580    0.0183    0.2929 N   0  0  0  0  0  0  0  0  0  0  0  0
   -0.5946    0.5694    0.3461 C   0  0  0  0  0  0  0  0  0  0  0  0
    0.4199   -0.3490   -0.2629 C   0  0  2  0  0  0  0  0  0  0  0  0
    0.4805   -1.6862    0.4293 C   0  0  0  0  0  0  0  0  0  0  0  0
    1.6836    0.3449   -0.2945 N   0  0  0  0  0  0  0  0  0  0  0  0
    2.6019   -0.4018   -1.1236 C   0  0  0  0  0  0  0  0  0  0  0  0
    3.8551   -0.6729   -0.3589 C   0  0  0  0  0  0  0  0  0  0  0  0
    4.7610   -1.2831   -1.2253 O   0  0  0  0  0  0  0  0  0  0  0  0
    4.4263    0.6070    0.0199 N   0  0  0  0  0  0  0  0  0  0  0  0
    3.5392    1.3681    0.8497 C   0  0  0  0  0  0  0  0  0  0  0  0
    2.2140    0.6582    0.9949 C   0  0  0  0  0  0  0  0  0  0  0  0
    3.3896    2.6821    0.4185 O   0  0  0  0  0  0  0  0  0  0  0  0
   -3.3704   -2.2527   -1.2177 H   0  0  0  0  0  0  0  0  0  0  0  0
   -3.8592   -0.0089   -2.4838 H   0  0  0  0  0  0  0  0  0  0  0  0
   -4.5393    1.4688   -0.9641 H   0  0  0  0  0  0  0  0  0  0  0  0
   -5.0181    0.9789    1.3611 H   0  0  0  0  0  0  0  0  0  0  0  0
   -5.1149   -1.2835    1.4196 H   0  0  0  0  0  0  0  0  0  0  0  0
   -2.6316    1.1597    1.9563 H   0  0  0  0  0  0  0  0  0  0  0  0
   -2.8564    1.9307    0.3548 H   0  0  0  0  0  0  0  0  0  0  0  0
   -1.7787   -1.1226   -1.4128 H   0  0  0  0  0  0  0  0  0  0  0  0
   -1.8720    0.6902   -1.6507 H   0  0  0  0  0  0  0  0  0  0  0  0
   -0.5375    1.5589   -0.1504 H   0  0  0  0  0  0  0  0  0  0  0  0
   -0.3903    0.7571    1.4256 H   0  0  0  0  0  0  0  0  0  0  0  0
    0.1613   -0.5490   -1.3241 H   0  0  0  0  0  0  0  0  0  0  0  0
    0.3606   -1.6053    1.5262 H   0  0  0  0  0  0  0  0  0  0  0  0
    1.4455   -2.1566    0.1969 H   0  0  0  0  0  0  0  0  0  0  0  0
   -0.3154   -2.3272    0.0518 H   0  0  0  0  0  0  0  0  0  0  0  0
    2.1606   -1.3270   -1.5087 H   0  0  0  0  0  0  0  0  0  0  0  0
    2.9070    0.2545   -1.9941 H   0  0  0  0  0  0  0  0  0  0  0  0
    3.6743   -1.3391    0.4847 H   0  0  0  0  0  0  0  0  0  0  0  0
    5.5300   -1.6683   -0.7300 H   0  0  0  0  0  0  0  0  0  0  0  0
    5.3628    0.4799    0.4330 H   0  0  0  0  0  0  0  0  0  0  0  0
    3.9566    1.4423    1.8968 H   0  0  0  0  0  0  0  0  0  0  0  0
    2.3898   -0.2289    1.6335 H   0  0  0  0  0  0  0  0  0  0  0  0
    1.5478    1.3373    1.5290 H   0  0  0  0  0  0  0  0  0  0  0  0
    4.1636    3.1866    0.7505 H   0  0  0  0  0  0  0  0  0  0  0  0
  1  2  1  0
  2  3  1  0
  3  4  1  0
  4  5  1  0
  4  6  1  0
  2  7  1  0
  6  8  1  0
  7  8  1  0
  8  9  1  0
  9 10  1  0
 10 11  1  0
 10 12  1  0
 12 13  1  0
 13 14  1  0
 14 15  1  0
 14 16  1  0
 16 17  1  0
 12 18  1  0
 17 18  1  0
 17 19  1  0
  1 20  1  0
  2 21  1  0
  3 22  1  0
  4 23  1  0
  5 24  1  0
  6 25  1  0
  6 26  1  0
  7 27  1  0
  7 28  1  0
  9 29  1  0
  9 30  1  0
 10 31  1  6
 11 32  1  0
 11 33  1  0
 11 34  1  0
 13 35  1  0
 13 36  1  0
 14 37  1  0
 15 38  1  0
 16 39  1  0
 17 40  1  0
 18 41  1  0
 18 42  1  0
 19 43  1  0
M  END
>  <PDBID>  (1) 
1QZR

>  <PDB ID>  (1) 
1QZR

>  <Generic Name>  (1) 
Dexrazoxane

>  <Brand Name>  (1) 
Dexrazoxane#Dexrazoxane Hydrochloride#Zinecard#Ao Nuo Xian#Cardioxane#Dexrazoxane#Savene#Totect

>  <DrugBank ID>  (1) 
DB00380

>  <ATC Codes>  (1) 
V03AF02

>  <Ligand ID>  (1) 
CDX

>  <Target Name>  (1) 
DNA topoisomerase 2-alpha

>  <UniProt ID>  (1) 
P11388

>  <PDB ID.1>  (1) 
1QZR

>  <Seq. Identity>  (1) 
51%

$$$$
