PDB_DB00367_06
     RDKit          3D

118124  0  0  0  0  0  0  0  0999 V2000
    2.8894    0.5101    1.6792 C   0  0  0  0  0  0  0  0  0  0  0  0
    4.3186    0.9623    1.5003 C   0  0  0  0  0  0  0  0  0  0  0  0
    5.0863   -0.0391    0.6702 C   0  0  1  0  0  0  0  0  0  0  0  0
    4.1084   -0.8347   -0.1822 C   0  0  0  0  0  0  0  0  0  0  0  0
    3.1034    0.1799   -0.7217 C   0  0  1  0  0  0  0  0  0  0  0  0
    2.4514   -0.3000   -1.9632 C   0  0  0  0  0  0  0  0  0  0  0  0
    1.2208   -1.1526   -1.7452 C   0  0  0  0  0  0  0  0  0  0  0  0
    0.2885   -0.2611   -0.9012 C   0  0  2  0  0  0  0  0  0  0  0  0
    0.9181   -0.2156    0.4520 C   0  0  1  0  0  0  0  0  0  0  0  0
    2.1580    0.6493    0.3488 C   0  0  1  0  0  0  0  0  0  0  0  0
    0.0669    0.2017    1.5780 C   0  0  0  0  0  0  0  0  0  0  0  0
   -1.3858   -0.1744    1.4709 C   0  0  0  0  0  0  0  0  0  0  0  0
   -1.8828    0.1252    0.0783 C   0  0  1  0  0  0  0  0  0  0  0  0
   -1.0844   -0.7868   -0.8286 C   0  0  1  0  0  0  0  0  0  0  0  0
   -1.8508   -0.8223   -2.1064 C   0  0  0  0  0  0  0  0  0  0  0  0
   -3.2688   -0.5630   -1.6972 C   0  0  0  0  0  0  0  0  0  0  0  0
   -3.2720   -0.3763   -0.1739 C   0  0  1  0  0  0  0  0  0  0  0  0
   -1.7068    1.5763   -0.2010 C   0  0  0  0  0  0  0  0  0  0  0  0
   -2.4641    2.4336    0.7504 C   0  0  0  0  0  0  0  0  0  0  0  0
   -3.5548   -1.6765    0.5264 C   0  0  0  0  0  0  0  0  0  0  0  0
   -4.9960   -2.0565    0.1767 C   0  0  0  0  0  0  0  0  0  0  0  0
    5.8558    0.7179   -0.2421 O   0  0  0  0  0  0  0  0  0  0  0  0
   -4.2838    0.5041    0.1066 O   0  0  0  0  0  0  0  0  0  0  0  0
    2.8894    0.5101    1.6792 C   0  0  0  0  0  0  0  0  0  0  0  0
    4.3186    0.9623    1.5003 C   0  0  0  0  0  0  0  0  0  0  0  0
    5.0863   -0.0391    0.6702 C   0  0  1  0  0  0  0  0  0  0  0  0
    4.1084   -0.8347   -0.1822 C   0  0  0  0  0  0  0  0  0  0  0  0
    3.1034    0.1799   -0.7217 C   0  0  1  0  0  0  0  0  0  0  0  0
    2.4514   -0.3000   -1.9632 C   0  0  0  0  0  0  0  0  0  0  0  0
    1.2208   -1.1526   -1.7452 C   0  0  0  0  0  0  0  0  0  0  0  0
    0.2885   -0.2611   -0.9012 C   0  0  2  0  0  0  0  0  0  0  0  0
    0.9181   -0.2156    0.4520 C   0  0  1  0  0  0  0  0  0  0  0  0
    2.1580    0.6493    0.3488 C   0  0  1  0  0  0  0  0  0  0  0  0
    0.0669    0.2017    1.5780 C   0  0  0  0  0  0  0  0  0  0  0  0
   -1.3858   -0.1744    1.4709 C   0  0  0  0  0  0  0  0  0  0  0  0
   -1.8828    0.1252    0.0783 C   0  0  1  0  0  0  0  0  0  0  0  0
   -1.0844   -0.7868   -0.8286 C   0  0  1  0  0  0  0  0  0  0  0  0
   -1.8508   -0.8223   -2.1064 C   0  0  0  0  0  0  0  0  0  0  0  0
   -3.2688   -0.5630   -1.6972 C   0  0  0  0  0  0  0  0  0  0  0  0
   -3.2720   -0.3763   -0.1739 C   0  0  1  0  0  0  0  0  0  0  0  0
   -1.7068    1.5763   -0.2010 C   0  0  0  0  0  0  0  0  0  0  0  0
   -2.4641    2.4336    0.7504 C   0  0  0  0  0  0  0  0  0  0  0  0
   -3.5548   -1.6765    0.5264 C   0  0  0  0  0  0  0  0  0  0  0  0
   -4.9960   -2.0565    0.1767 C   0  0  0  0  0  0  0  0  0  0  0  0
    5.8558    0.7179   -0.2421 O   0  0  0  0  0  0  0  0  0  0  0  0
   -4.2838    0.5041    0.1066 O   0  0  0  0  0  0  0  0  0  0  0  0
    2.3822    1.0358    2.4939 H   0  0  0  0  0  0  0  0  0  0  0  0
    2.9453   -0.5784    1.9709 H   0  0  0  0  0  0  0  0  0  0  0  0
    4.2857    1.9705    1.0425 H   0  0  0  0  0  0  0  0  0  0  0  0
    4.7869    0.9714    2.5118 H   0  0  0  0  0  0  0  0  0  0  0  0
    5.7577   -0.6775    1.2579 H   0  0  0  0  0  0  0  0  0  0  0  0
    4.6942   -1.1851   -1.0726 H   0  0  0  0  0  0  0  0  0  0  0  0
    3.6361   -1.6456    0.3721 H   0  0  0  0  0  0  0  0  0  0  0  0
    3.7301    1.0794   -0.9987 H   0  0  0  0  0  0  0  0  0  0  0  0
    3.2001   -0.7891   -2.6006 H   0  0  0  0  0  0  0  0  0  0  0  0
    2.0905    0.6091   -2.5278 H   0  0  0  0  0  0  0  0  0  0  0  0
    0.7820   -1.3979   -2.7080 H   0  0  0  0  0  0  0  0  0  0  0  0
    1.4819   -2.0304   -1.1198 H   0  0  0  0  0  0  0  0  0  0  0  0
    0.3181    0.7134   -1.4587 H   0  0  0  0  0  0  0  0  0  0  0  0
    1.3078   -1.2563    0.6649 H   0  0  0  0  0  0  0  0  0  0  0  0
    1.8817    1.7200    0.2551 H   0  0  0  0  0  0  0  0  0  0  0  0
    0.2061    1.2892    1.7750 H   0  0  0  0  0  0  0  0  0  0  0  0
    0.4408   -0.3019    2.5174 H   0  0  0  0  0  0  0  0  0  0  0  0
   -1.9424    0.3828    2.2453 H   0  0  0  0  0  0  0  0  0  0  0  0
   -1.5174   -1.2554    1.6806 H   0  0  0  0  0  0  0  0  0  0  0  0
   -1.0352   -1.8021   -0.3338 H   0  0  0  0  0  0  0  0  0  0  0  0
   -1.7929   -1.8661   -2.5073 H   0  0  0  0  0  0  0  0  0  0  0  0
   -1.4748   -0.1649   -2.8928 H   0  0  0  0  0  0  0  0  0  0  0  0
   -3.9753   -1.3461   -2.0036 H   0  0  0  0  0  0  0  0  0  0  0  0
   -3.5886    0.4013   -2.1541 H   0  0  0  0  0  0  0  0  0  0  0  0
   -0.6107    1.8074   -0.0518 H   0  0  0  0  0  0  0  0  0  0  0  0
   -1.9610    1.8661   -1.2402 H   0  0  0  0  0  0  0  0  0  0  0  0
   -1.7688    3.0883    1.3462 H   0  0  0  0  0  0  0  0  0  0  0  0
   -3.0586    1.9003    1.5045 H   0  0  0  0  0  0  0  0  0  0  0  0
   -3.0941    3.1899    0.1902 H   0  0  0  0  0  0  0  0  0  0  0  0
   -2.8865   -2.4982    0.2330 H   0  0  0  0  0  0  0  0  0  0  0  0
   -3.5433   -1.4827    1.6068 H   0  0  0  0  0  0  0  0  0  0  0  0
   -5.5830   -2.2940    1.0928 H   0  0  0  0  0  0  0  0  0  0  0  0
   -5.0182   -2.9571   -0.4615 H   0  0  0  0  0  0  0  0  0  0  0  0
   -5.5280   -1.2380   -0.3290 H   0  0  0  0  0  0  0  0  0  0  0  0
    6.5822    1.2055    0.2506 H   0  0  0  0  0  0  0  0  0  0  0  0
   -4.8465    0.2730    0.8737 H   0  0  0  0  0  0  0  0  0  0  0  0
    2.3822    1.0358    2.4939 H   0  0  0  0  0  0  0  0  0  0  0  0
    2.9453   -0.5784    1.9709 H   0  0  0  0  0  0  0  0  0  0  0  0
    4.2857    1.9705    1.0425 H   0  0  0  0  0  0  0  0  0  0  0  0
    4.7869    0.9714    2.5118 H   0  0  0  0  0  0  0  0  0  0  0  0
    5.7577   -0.6775    1.2579 H   0  0  0  0  0  0  0  0  0  0  0  0
    4.6942   -1.1851   -1.0726 H   0  0  0  0  0  0  0  0  0  0  0  0
    3.6361   -1.6456    0.3721 H   0  0  0  0  0  0  0  0  0  0  0  0
    3.7301    1.0794   -0.9987 H   0  0  0  0  0  0  0  0  0  0  0  0
    3.2001   -0.7891   -2.6006 H   0  0  0  0  0  0  0  0  0  0  0  0
    2.0905    0.6091   -2.5278 H   0  0  0  0  0  0  0  0  0  0  0  0
    0.7820   -1.3979   -2.7080 H   0  0  0  0  0  0  0  0  0  0  0  0
    1.4819   -2.0304   -1.1198 H   0  0  0  0  0  0  0  0  0  0  0  0
    0.3181    0.7134   -1.4587 H   0  0  0  0  0  0  0  0  0  0  0  0
    1.3078   -1.2563    0.6649 H   0  0  0  0  0  0  0  0  0  0  0  0
    1.8817    1.7200    0.2551 H   0  0  0  0  0  0  0  0  0  0  0  0
    0.2061    1.2892    1.7750 H   0  0  0  0  0  0  0  0  0  0  0  0
    0.4408   -0.3019    2.5174 H   0  0  0  0  0  0  0  0  0  0  0  0
   -1.9424    0.3828    2.2453 H   0  0  0  0  0  0  0  0  0  0  0  0
   -1.5174   -1.2554    1.6806 H   0  0  0  0  0  0  0  0  0  0  0  0
   -1.0352   -1.8021   -0.3338 H   0  0  0  0  0  0  0  0  0  0  0  0
   -1.7929   -1.8661   -2.5073 H   0  0  0  0  0  0  0  0  0  0  0  0
   -1.4748   -0.1649   -2.8928 H   0  0  0  0  0  0  0  0  0  0  0  0
   -3.9753   -1.3461   -2.0036 H   0  0  0  0  0  0  0  0  0  0  0  0
   -3.5886    0.4013   -2.1541 H   0  0  0  0  0  0  0  0  0  0  0  0
   -0.6107    1.8074   -0.0518 H   0  0  0  0  0  0  0  0  0  0  0  0
   -1.9610    1.8661   -1.2402 H   0  0  0  0  0  0  0  0  0  0  0  0
   -1.7688    3.0883    1.3462 H   0  0  0  0  0  0  0  0  0  0  0  0
   -3.0586    1.9003    1.5045 H   0  0  0  0  0  0  0  0  0  0  0  0
   -3.0941    3.1899    0.1902 H   0  0  0  0  0  0  0  0  0  0  0  0
   -2.8865   -2.4982    0.2330 H   0  0  0  0  0  0  0  0  0  0  0  0
   -3.5433   -1.4827    1.6068 H   0  0  0  0  0  0  0  0  0  0  0  0
   -5.5830   -2.2940    1.0928 H   0  0  0  0  0  0  0  0  0  0  0  0
   -5.0182   -2.9571   -0.4615 H   0  0  0  0  0  0  0  0  0  0  0  0
   -5.5280   -1.2380   -0.3290 H   0  0  0  0  0  0  0  0  0  0  0  0
    6.5822    1.2055    0.2506 H   0  0  0  0  0  0  0  0  0  0  0  0
   -4.8465    0.2730    0.8737 H   0  0  0  0  0  0  0  0  0  0  0  0
  1  2  1  0
  2  3  1  0
  3  4  1  0
  4  5  1  0
  5  6  1  0
  6  7  1  0
  7  8  1  0
  8  9  1  0
  1 10  1  0
  5 10  1  0
  9 10  1  0
  9 11  1  0
 11 12  1  0
 12 13  1  0
  8 14  1  0
 13 14  1  0
 14 15  1  0
 15 16  1  0
 13 17  1  0
 16 17  1  0
 13 18  1  6
 18 19  1  0
 17 20  1  0
 20 21  1  0
  3 22  1  0
 17 23  1  6
 24 25  1  0
 25 26  1  0
 26 27  1  0
 27 28  1  0
 28 29  1  0
 29 30  1  0
 30 31  1  0
 31 32  1  0
 24 33  1  0
 28 33  1  0
 32 33  1  0
 32 34  1  0
 34 35  1  0
 35 36  1  0
 31 37  1  0
 36 37  1  0
 37 38  1  0
 38 39  1  0
 36 40  1  0
 39 40  1  0
 36 41  1  6
 41 42  1  0
 40 43  1  0
 43 44  1  0
 26 45  1  0
 40 46  1  6
  1 47  1  0
  1 48  1  0
  2 49  1  0
  2 50  1  0
  3 51  1  1
  4 52  1  0
  4 53  1  0
  5 54  1  6
  6 55  1  0
  6 56  1  0
  7 57  1  0
  7 58  1  0
  8 59  1  6
  9 60  1  1
 10 61  1  6
 11 62  1  0
 11 63  1  0
 12 64  1  0
 12 65  1  0
 14 66  1  1
 15 67  1  0
 15 68  1  0
 16 69  1  0
 16 70  1  0
 18 71  1  0
 18 72  1  0
 19 73  1  0
 19 74  1  0
 19 75  1  0
 20 76  1  0
 20 77  1  0
 21 78  1  0
 21 79  1  0
 21 80  1  0
 22 81  1  0
 23 82  1  0
 24 83  1  0
 24 84  1  0
 25 85  1  0
 25 86  1  0
 26 87  1  1
 27 88  1  0
 27 89  1  0
 28 90  1  6
 29 91  1  0
 29 92  1  0
 30 93  1  0
 30 94  1  0
 31 95  1  6
 32 96  1  1
 33 97  1  6
 34 98  1  0
 34 99  1  0
 35100  1  0
 35101  1  0
 37102  1  1
 38103  1  0
 38104  1  0
 39105  1  0
 39106  1  0
 41107  1  0
 41108  1  0
 42109  1  0
 42110  1  0
 42111  1  0
 43112  1  0
 43113  1  0
 44114  1  0
 44115  1  0
 44116  1  0
 45117  1  0
 46118  1  0
M  END
>  <PDBID>  (1) 
3D90

>  <PDB ID>  (1) 
3D90

>  <Generic Name>  (1) 
Levonorgestrel

>  <Brand Name>  (1) 
Afirmelle#Aftera#Afterpill#Alesse 21#Alesse 28#Altavera#Alysena 21#Alysena 28#Amethia#Amethyst#Athentia Next#Aubra#Aviane#Aviane 21#Aviane 28#Aviane 28 Day#Ayuna#Backup Plan#Backup Plan Onestep#Camrese#Camrese Lo#Chateal#Climara Pro#Contingency#Contingency One#Daysee#Delyla#Econtra Ez#Enpresse#Esme 21#Esme 28#Falessa#Fallback Solo#Falmina#Her Style#Indayo#Introvale#Jaydess#Jolessa#Kurvelo#Kyleena#Larissia#Lessina#Levonest#Levonorgestrel#Levonorgestrel Emergency Contraceptive#Levonorgestrel Tablets, 0.75mg#Levonorgestrel and Ethinyl Estradiol#Levonorgestrel and Ethinyl Estradiol Tablets, 0.1 Mg/0.02 mg#Levonorgestrel and Ethinyl Estradiol and Ethinyl Estradiol#Levora#Liletta#Lillow#Lutera#Lutera 21#Lutera 28#Marlissa#Min-ovral 21#Min-ovral 21 Tab#Min-ovral 28#Min-ovral 28 Tab#Mirena#Morning After#My Way#Myzilra#Next Choice#Next Choice One Dose#Norlevo#Norplant System Kit 36mg/implant#Opcicon One-step#Option 2#Orsythia#Ovima 21#Ovima 28#Plan B#Plan B One-step#Portia#Portia 21#Portia 28#Preven Emergency Contraceptive#Preven Tablets#Quasense#React#Seasonale#Seasonique#Setlakin#Skyla#Sronyx#Take Action#Teva-levonorgestrel#Triphasil 21#Triphasil 21 Tab#Triphasil 28#Triphasil 28 Tab#Triquilar 21#Triquilar 28#Trivora#Vienva Tm#Jadelle#Levonelle#Medonor#Microlut#Microval#Neogest#Norgeston#Norplant#Postinor

>  <DrugBank ID>  (1) 
DB00367

>  <ATC Codes>  (1) 
G03FA11#G03FB09#G03AC03#G03AB03#G03AA07#G03AD01

>  <Ligand ID>  (1) 
NOG

>  <Target Name>  (1) 
Estrogen receptor

>  <UniProt ID>  (1) 
P03372

>  <PDB ID.1>  (1) 
3D90

>  <Seq. Identity>  (1) 
31%

$$$$
