PDB_DB01264_09
     RDKit          3D

 91 94  0  0  0  0  0  0  0  0999 V2000
    7.1765   -2.0538   -0.6658 N   0  0  0  0  0  0  0  0  0  0  0  0
    6.5153   -0.8346   -1.1269 C   0  0  0  0  0  0  0  0  0  0  0  0
    5.7996   -0.1512   -0.0066 C   0  0  0  0  0  0  0  0  0  0  0  0
    4.3553    0.0597   -0.3952 C   0  0  0  0  0  0  0  0  0  0  0  0
    3.7690   -1.3286   -0.6605 C   0  0  0  0  0  0  0  0  0  0  0  0
    4.3585   -1.7836   -1.9802 C   0  0  0  0  0  0  0  0  0  0  0  0
    5.6399   -1.1054   -2.3252 C   0  0  0  0  0  0  0  0  0  0  0  0
    2.0852   -1.3381   -0.7285 S   0  0  0  0  0  0  0  0  0  0  0  0
    1.3787   -2.6404   -0.9832 O   0  0  0  0  0  0  0  0  0  0  0  0
    1.7272   -0.2052   -1.9625 O   0  0  0  0  0  0  0  0  0  0  0  0
    1.5447   -0.4903    0.6820 N   0  0  0  0  0  0  0  0  0  0  0  0
    1.3257   -1.3152    1.7618 C   0  0  0  0  0  0  0  0  0  0  0  0
    1.4871   -0.7992    3.1591 C   0  0  0  0  0  0  0  0  0  0  0  0
    0.6245    0.3227    3.5876 C   0  0  0  0  0  0  0  0  0  0  0  0
    1.2505   -1.9445    4.1695 C   0  0  0  0  0  0  0  0  0  0  0  0
    0.6747    0.5744    0.3107 C   0  0  0  0  0  0  0  0  0  0  0  0
   -0.6408    0.1600   -0.2115 C   0  0  1  0  0  0  0  0  0  0  0  0
   -1.3444   -0.4770    0.7773 O   0  0  0  0  0  0  0  0  0  0  0  0
   -1.4404    1.1056   -0.9857 C   0  0  1  0  0  0  0  0  0  0  0  0
   -2.5581    0.5090   -1.6992 N   0  0  0  0  0  0  0  0  0  0  0  0
   -3.5739   -0.0711   -0.9251 C   0  0  0  0  0  0  0  0  0  0  0  0
   -4.1614    0.7711    0.0089 O   0  0  0  0  0  0  0  0  0  0  0  0
   -3.3823   -1.3092   -0.4124 O   0  0  0  0  0  0  0  0  0  0  0  0
   -4.1701   -2.3204   -0.8861 C   0  0  1  0  0  0  0  0  0  0  0  0
   -3.4185   -3.5231   -1.3602 C   0  0  0  0  0  0  0  0  0  0  0  0
   -3.5059   -4.4826   -0.3503 O   0  0  0  0  0  0  0  0  0  0  0  0
   -4.7352   -4.2895    0.2767 C   0  0  1  0  0  0  0  0  0  0  0  0
   -4.6101   -4.7073    1.5659 O   0  0  0  0  0  0  0  0  0  0  0  0
   -4.6634   -3.6601    2.4351 C   0  0  0  0  0  0  0  0  0  0  0  0
   -4.5089   -2.3878    1.6163 C   0  0  0  0  0  0  0  0  0  0  0  0
   -5.0184   -2.8299    0.2635 C   0  0  1  0  0  0  0  0  0  0  0  0
   -1.7913    2.4468   -0.4685 C   0  0  0  0  0  0  0  0  0  0  0  0
   -1.3751    4.7341    0.3404 C   0  0  0  0  0  0  0  0  0  0  0  0
   -2.3064    5.3482   -0.6547 C   0  0  0  0  0  0  0  0  0  0  0  0
   -1.5933    5.6959   -1.9249 C   0  0  0  0  0  0  0  0  0  0  0  0
   -0.1253    5.3164   -1.7495 C   0  0  0  0  0  0  0  0  0  0  0  0
    0.0191    3.8488   -1.4629 C   0  0  0  0  0  0  0  0  0  0  0  0
   -0.7225    3.4344   -0.1844 C   0  0  0  0  0  0  0  0  0  0  0  0
    6.5043   -2.8542   -0.6751 H   0  0  0  0  0  0  0  0  0  0  0  0
    7.5471   -1.8407    0.2885 H   0  0  0  0  0  0  0  0  0  0  0  0
    7.3358   -0.1603   -1.4715 H   0  0  0  0  0  0  0  0  0  0  0  0
    6.2725    0.8069    0.2933 H   0  0  0  0  0  0  0  0  0  0  0  0
    5.8095   -0.8299    0.8700 H   0  0  0  0  0  0  0  0  0  0  0  0
    3.7697    0.6261    0.3423 H   0  0  0  0  0  0  0  0  0  0  0  0
    4.3671    0.6510   -1.3273 H   0  0  0  0  0  0  0  0  0  0  0  0
    4.2081   -1.9736    0.1293 H   0  0  0  0  0  0  0  0  0  0  0  0
    4.4098   -2.8942   -2.0614 H   0  0  0  0  0  0  0  0  0  0  0  0
    3.6040   -1.4713   -2.7612 H   0  0  0  0  0  0  0  0  0  0  0  0
    6.2249   -1.8185   -2.9747 H   0  0  0  0  0  0  0  0  0  0  0  0
    5.5274   -0.1816   -2.9259 H   0  0  0  0  0  0  0  0  0  0  0  0
    0.7953   -2.7522   -1.7772 H   0  0  0  0  0  0  0  0  0  0  0  0
    2.4859    0.4195   -2.0723 H   0  0  0  0  0  0  0  0  0  0  0  0
    2.0770   -2.1757    1.6929 H   0  0  0  0  0  0  0  0  0  0  0  0
    0.3535   -1.8768    1.7698 H   0  0  0  0  0  0  0  0  0  0  0  0
    2.5740   -0.5232    3.3619 H   0  0  0  0  0  0  0  0  0  0  0  0
    0.4997    0.2578    4.7270 H   0  0  0  0  0  0  0  0  0  0  0  0
    1.0521    1.3406    3.4632 H   0  0  0  0  0  0  0  0  0  0  0  0
   -0.4129    0.3215    3.2170 H   0  0  0  0  0  0  0  0  0  0  0  0
    0.1360   -2.0275    4.3119 H   0  0  0  0  0  0  0  0  0  0  0  0
    1.7773   -1.7217    5.1031 H   0  0  0  0  0  0  0  0  0  0  0  0
    1.5585   -2.8904    3.6824 H   0  0  0  0  0  0  0  0  0  0  0  0
    0.4589    1.2059    1.2296 H   0  0  0  0  0  0  0  0  0  0  0  0
    1.1828    1.2362   -0.4002 H   0  0  0  0  0  0  0  0  0  0  0  0
   -0.3552   -0.6503   -1.0153 H   0  0  0  0  0  0  0  0  0  0  0  0
   -1.8309    0.2019    1.3053 H   0  0  0  0  0  0  0  0  0  0  0  0
   -0.7369    1.3804   -1.9021 H   0  0  0  0  0  0  0  0  0  0  0  0
   -2.1678   -0.0754   -2.4529 H   0  0  0  0  0  0  0  0  0  0  0  0
   -4.4449   -0.2307   -1.6781 H   0  0  0  0  0  0  0  0  0  0  0  0
   -4.1888    0.4162    0.9116 H   0  0  0  0  0  0  0  0  0  0  0  0
   -4.8873   -2.0202   -1.6731 H   0  0  0  0  0  0  0  0  0  0  0  0
   -3.8445   -3.9910   -2.2718 H   0  0  0  0  0  0  0  0  0  0  0  0
   -2.3587   -3.2932   -1.6121 H   0  0  0  0  0  0  0  0  0  0  0  0
   -5.5151   -4.8416   -0.2990 H   0  0  0  0  0  0  0  0  0  0  0  0
   -5.6846   -3.6266    2.8754 H   0  0  0  0  0  0  0  0  0  0  0  0
   -3.8815   -3.7742    3.2046 H   0  0  0  0  0  0  0  0  0  0  0  0
   -5.0977   -1.5439    2.0368 H   0  0  0  0  0  0  0  0  0  0  0  0
   -3.4336   -2.1462    1.5877 H   0  0  0  0  0  0  0  0  0  0  0  0
   -6.0945   -2.5874    0.1288 H   0  0  0  0  0  0  0  0  0  0  0  0
   -2.5416    2.3878    0.3824 H   0  0  0  0  0  0  0  0  0  0  0  0
   -2.4299    2.9235   -1.2870 H   0  0  0  0  0  0  0  0  0  0  0  0
   -1.9517    4.4130    1.2368 H   0  0  0  0  0  0  0  0  0  0  0  0
   -0.5862    5.4333    0.6253 H   0  0  0  0  0  0  0  0  0  0  0  0
   -3.2157    4.7245   -0.8293 H   0  0  0  0  0  0  0  0  0  0  0  0
   -2.6984    6.2889   -0.1855 H   0  0  0  0  0  0  0  0  0  0  0  0
   -2.0314    5.1517   -2.7906 H   0  0  0  0  0  0  0  0  0  0  0  0
   -1.6483    6.7881   -2.0998 H   0  0  0  0  0  0  0  0  0  0  0  0
    0.3338    5.4970   -2.7528 H   0  0  0  0  0  0  0  0  0  0  0  0
    0.4008    5.9567   -1.0473 H   0  0  0  0  0  0  0  0  0  0  0  0
    1.0700    3.5662   -1.4482 H   0  0  0  0  0  0  0  0  0  0  0  0
   -0.4404    3.3265   -2.3531 H   0  0  0  0  0  0  0  0  0  0  0  0
    0.0571    3.1721    0.5230 H   0  0  0  0  0  0  0  0  0  0  0  0
  1  2  1  0
  2  3  1  0
  3  4  1  0
  4  5  1  0
  5  6  1  0
  2  7  1  0
  6  7  1  0
  5  8  1  0
  8  9  1  0
  8 10  1  0
  8 11  1  0
 11 12  1  0
 12 13  1  0
 13 14  1  0
 13 15  1  0
 11 16  1  0
 16 17  1  0
 17 18  1  0
 17 19  1  0
 19 20  1  0
 20 21  1  0
 21 22  1  0
 21 23  1  0
 23 24  1  0
 24 25  1  0
 25 26  1  0
 26 27  1  0
 27 28  1  0
 28 29  1  0
 29 30  1  0
 24 31  1  0
 27 31  1  0
 30 31  1  0
 19 32  1  0
 33 34  1  0
 34 35  1  0
 35 36  1  0
 36 37  1  0
 32 38  1  0
 33 38  1  0
 37 38  1  0
  1 39  1  0
  1 40  1  0
  2 41  1  0
  3 42  1  0
  3 43  1  0
  4 44  1  0
  4 45  1  0
  5 46  1  0
  6 47  1  0
  6 48  1  0
  7 49  1  0
  7 50  1  0
  9 51  1  0
 10 52  1  0
 12 53  1  0
 12 54  1  0
 13 55  1  0
 14 56  1  0
 14 57  1  0
 14 58  1  0
 15 59  1  0
 15 60  1  0
 15 61  1  0
 16 62  1  0
 16 63  1  0
 17 64  1  6
 18 65  1  0
 19 66  1  6
 20 67  1  0
 21 68  1  0
 22 69  1  0
 24 70  1  6
 25 71  1  0
 25 72  1  0
 27 73  1  6
 29 74  1  0
 29 75  1  0
 30 76  1  0
 30 77  1  0
 31 78  1  6
 32 79  1  0
 32 80  1  0
 33 81  1  0
 33 82  1  0
 34 83  1  0
 34 84  1  0
 35 85  1  0
 35 86  1  0
 36 87  1  0
 36 88  1  0
 37 89  1  0
 37 90  1  0
 38 91  1  0
M  END
>  <PDBID>  (1) 
4HLA

>  <PDB ID>  (1) 
4HLA

>  <Generic Name>  (1) 
Darunavir

>  <Brand Name>  (1) 
Pat-darunavir#Prezcobix#Prezista

>  <DrugBank ID>  (1) 
DB01264

>  <ATC Codes>  (1) 
J05AE10#J05AR14

>  <Ligand ID>  (1) 
17

>  <Target Name>  (1) 
Pol polyprotein

>  <UniProt ID>  (1) 
Q72874

>  <PDB ID.1>  (1) 
4HLA

>  <Seq. Identity>  (1) 
99%

$$$$
