PDB_DB00866_09
     RDKit          3D

 49 49  0  0  0  0  0  0  0  0999 V2000
   -4.8750   -0.6335   -0.8662 C   0  0  0  0  0  0  0  0  0  0  0  0
   -2.9812    0.8895   -0.5429 N   0  0  0  0  0  0  0  0  0  0  0  0
   -0.9671    2.1009    0.9850 O   0  0  0  0  0  0  0  0  0  0  0  0
   -4.3299    0.7537   -1.0355 C   0  0  0  0  0  0  0  0  0  0  0  0
    0.7566   -0.0402    1.0793 O   0  0  0  0  0  0  0  0  0  0  0  0
   -5.2891    1.7469   -0.4069 C   0  0  0  0  0  0  0  0  0  0  0  0
   -2.8772    0.6448    0.8846 C   0  0  0  0  0  0  0  0  0  0  0  0
   -1.4333    0.8195    1.2675 C   0  0  1  0  0  0  0  0  0  0  0  0
   -0.5369   -0.1922    0.5904 C   0  0  0  0  0  0  0  0  0  0  0  0
    1.5786   -0.9486    0.4789 C   0  0  0  0  0  0  0  0  0  0  0  0
    2.1460   -1.9412    1.5057 C   0  0  0  0  0  0  0  0  0  0  0  0
    2.4147   -3.2218    0.7421 C   0  0  0  0  0  0  0  0  0  0  0  0
    3.0209   -2.8815   -0.6001 C   0  0  0  0  0  0  0  0  0  0  0  0
    3.7043   -1.5478   -0.6026 C   0  0  0  0  0  0  0  0  0  0  0  0
    2.7353   -0.4151   -0.2840 C   0  0  0  0  0  0  0  0  0  0  0  0
    3.5325    0.6575    0.3682 C   0  0  0  0  0  0  0  0  0  0  0  0
    2.8084    1.9118    0.7082 C   0  0  0  0  0  0  0  0  0  0  0  0
    2.2071    2.5686   -0.5337 C   0  0  0  0  0  0  0  0  0  0  0  0
   -5.6215   -0.8859   -1.6762 H   0  0  0  0  0  0  0  0  0  0  0  0
   -5.4054   -0.8018    0.0837 H   0  0  0  0  0  0  0  0  0  0  0  0
   -4.0653   -1.4088   -1.0070 H   0  0  0  0  0  0  0  0  0  0  0  0
   -2.5301    1.7566   -0.8396 H   0  0  0  0  0  0  0  0  0  0  0  0
   -0.7189    2.1763    0.0246 H   0  0  0  0  0  0  0  0  0  0  0  0
   -4.3034    0.9825   -2.1202 H   0  0  0  0  0  0  0  0  0  0  0  0
   -5.1223    2.7668   -0.8058 H   0  0  0  0  0  0  0  0  0  0  0  0
   -6.3081    1.4547   -0.7905 H   0  0  0  0  0  0  0  0  0  0  0  0
   -5.3452    1.6765    0.6790 H   0  0  0  0  0  0  0  0  0  0  0  0
   -3.2315   -0.3456    1.1716 H   0  0  0  0  0  0  0  0  0  0  0  0
   -3.4787    1.3939    1.4506 H   0  0  0  0  0  0  0  0  0  0  0  0
   -1.2840    0.6654    2.3774 H   0  0  0  0  0  0  0  0  0  0  0  0
   -0.9192   -1.2275    0.7025 H   0  0  0  0  0  0  0  0  0  0  0  0
   -0.5422    0.0035   -0.5221 H   0  0  0  0  0  0  0  0  0  0  0  0
    0.9780   -1.5688   -0.2523 H   0  0  0  0  0  0  0  0  0  0  0  0
    3.1122   -1.5100    1.8391 H   0  0  0  0  0  0  0  0  0  0  0  0
    1.4375   -2.0867    2.3478 H   0  0  0  0  0  0  0  0  0  0  0  0
    1.4107   -3.6741    0.5293 H   0  0  0  0  0  0  0  0  0  0  0  0
    3.0432   -3.9088    1.3426 H   0  0  0  0  0  0  0  0  0  0  0  0
    3.8214   -3.6476   -0.7767 H   0  0  0  0  0  0  0  0  0  0  0  0
    2.2998   -2.9845   -1.4414 H   0  0  0  0  0  0  0  0  0  0  0  0
    4.1501   -1.3836   -1.5928 H   0  0  0  0  0  0  0  0  0  0  0  0
    4.5140   -1.5581    0.1528 H   0  0  0  0  0  0  0  0  0  0  0  0
    2.3618   -0.0583   -1.2761 H   0  0  0  0  0  0  0  0  0  0  0  0
    4.3368    0.9476   -0.3719 H   0  0  0  0  0  0  0  0  0  0  0  0
    4.0909    0.2253    1.2284 H   0  0  0  0  0  0  0  0  0  0  0  0
    2.0129    1.8369    1.4550 H   0  0  0  0  0  0  0  0  0  0  0  0
    3.6108    2.6418    1.0494 H   0  0  0  0  0  0  0  0  0  0  0  0
    1.6370    3.4746   -0.2323 H   0  0  0  0  0  0  0  0  0  0  0  0
    2.9911    2.8920   -1.2429 H   0  0  0  0  0  0  0  0  0  0  0  0
    1.4529    1.8847   -1.0104 H   0  0  0  0  0  0  0  0  0  0  0  0
  1  4  1  0
  2  4  1  0
  4  6  1  0
  2  7  1  0
  3  8  1  0
  7  8  1  0
  5  9  1  0
  8  9  1  0
  5 10  1  0
 10 11  1  0
 11 12  1  0
 12 13  1  0
 13 14  1  0
 10 15  1  0
 14 15  1  0
 15 16  1  0
 16 17  1  0
 17 18  1  0
  1 19  1  0
  1 20  1  0
  1 21  1  0
  2 22  1  0
  3 23  1  0
  4 24  1  0
  6 25  1  0
  6 26  1  0
  6 27  1  0
  7 28  1  0
  7 29  1  0
  8 30  1  1
  9 31  1  0
  9 32  1  0
 10 33  1  0
 11 34  1  0
 11 35  1  0
 12 36  1  0
 12 37  1  0
 13 38  1  0
 13 39  1  0
 14 40  1  0
 14 41  1  0
 15 42  1  0
 16 43  1  0
 16 44  1  0
 17 45  1  0
 17 46  1  0
 18 47  1  0
 18 48  1  0
 18 49  1  0
M  END
>  <PDBID>  (1) 
3NYA

>  <PDB ID>  (1) 
3NYA

>  <Generic Name>  (1) 
Alprenolol

>  <Brand Name>  (1) 
Apllobal#Aptin#Aptine#Aptol Duriles#Atenenol#Elp#Gubernal#Regletin#Skajilol#Yobir

>  <DrugBank ID>  (1) 
DB00866

>  <ATC Codes>  (1) 
C07AA01

>  <Ligand ID>  (1) 
JTZ

>  <Target Name>  (1) 
Beta-1 adrenergic receptor

>  <UniProt ID>  (1) 
P08588

>  <PDB ID.1>  (1) 
3NYA

>  <Seq. Identity>  (1) 
67%

$$$$
