PDB_DB01222_05
     RDKit          3D

 73 77  0  0  0  0  0  0  0  0999 V2000
    3.6439    2.6162   -0.8506 C   0  0  0  0  0  0  0  0  0  0  0  0
    4.1453    1.9670   -2.1006 C   0  0  0  0  0  0  0  0  0  0  0  0
    3.2330    0.8462   -2.5295 C   0  0  0  0  0  0  0  0  0  0  0  0
    2.3938   -1.9677   -0.5371 C   0  0  1  0  0  0  0  0  0  0  0  0
    0.9609   -2.5242   -0.3367 C   0  0  0  0  0  0  0  0  0  0  0  0
    0.3438   -1.2363    0.0289 C   0  0  1  0  0  0  0  0  0  0  0  0
   -1.0559   -1.0588    0.2860 C   0  0  2  0  0  0  0  0  0  0  0  0
   -2.0396   -1.7983   -0.5719 C   0  0  0  0  0  0  0  0  0  0  0  0
   -3.3709   -1.5270    0.1019 C   0  0  0  0  0  0  0  0  0  0  0  0
   -3.7826   -0.0826    0.0225 C   0  0  0  0  0  0  0  0  0  0  0  0
   -3.9432    2.2438   -1.7464 C   0  0  0  0  0  0  0  0  0  0  0  0
   -2.7038    1.4233   -1.5064 C   0  0  0  0  0  0  0  0  0  0  0  0
   -2.6540    0.8939   -0.0579 C   0  0  2  0  0  0  0  0  0  0  0  0
    0.8371    0.6978    1.4206 C   0  0  0  0  0  0  0  0  0  0  0  0
    3.7295   -0.9349    1.3511 C   0  0  0  0  0  0  0  0  0  0  0  0
    4.2833   -2.2089    1.8484 C   0  0  0  0  0  0  0  0  0  0  0  0
    1.0085   -1.5664    2.4155 C   0  0  0  0  0  0  0  0  0  0  0  0
    3.1856   -0.1831   -1.4330 C   0  0  2  0  0  0  0  0  0  0  0  0
    2.3595   -1.2625   -1.7672 O   0  0  0  0  0  0  0  0  0  0  0  0
   -4.7757   -0.0076   -1.0902 C   0  0  0  0  0  0  0  0  0  0  0  0
   -5.1213    1.3240   -1.6216 C   0  0  0  0  0  0  0  0  0  0  0  0
   -6.2150    1.9308   -0.9708 O   0  0  0  0  0  0  0  0  0  0  0  0
   -1.3072    0.4550    0.2459 C   0  0  1  0  0  0  0  0  0  0  0  0
   -0.6489    0.9634    1.5093 C   0  0  1  0  0  0  0  0  0  0  0  0
    1.1833   -0.7554    1.1979 C   0  0  1  0  0  0  0  0  0  0  0  0
    2.5343   -0.9261    0.5065 C   0  0  2  0  0  0  0  0  0  0  0  0
    2.5788    0.2623   -0.2867 O   0  0  0  0  0  0  0  0  0  0  0  0
    3.7606    0.1334    2.2477 O   0  0  0  0  0  0  0  0  0  0  0  0
    3.7559   -2.8079    2.9370 O   0  0  0  0  0  0  0  0  0  0  0  0
   -1.2039    0.5667    2.6816 O   0  0  0  0  0  0  0  0  0  0  0  0
   -3.0158    2.1403    0.7671 C   0  0  0  0  0  0  0  0  0  0  0  0
    4.0372    3.6583   -0.7316 H   0  0  0  0  0  0  0  0  0  0  0  0
    3.9971    2.0731    0.0353 H   0  0  0  0  0  0  0  0  0  0  0  0
    2.5402    2.6355   -0.8801 H   0  0  0  0  0  0  0  0  0  0  0  0
    4.3449    2.6886   -2.9184 H   0  0  0  0  0  0  0  0  0  0  0  0
    5.1293    1.4797   -1.8393 H   0  0  0  0  0  0  0  0  0  0  0  0
    3.6095    0.4449   -3.4753 H   0  0  0  0  0  0  0  0  0  0  0  0
    2.2021    1.2483   -2.7542 H   0  0  0  0  0  0  0  0  0  0  0  0
    3.1374   -2.7338   -0.6244 H   0  0  0  0  0  0  0  0  0  0  0  0
    0.5659   -2.8672   -1.3149 H   0  0  0  0  0  0  0  0  0  0  0  0
    0.9335   -3.3259    0.3873 H   0  0  0  0  0  0  0  0  0  0  0  0
    0.6540   -0.5276   -0.8127 H   0  0  0  0  0  0  0  0  0  0  0  0
   -1.3052   -1.3841    1.3173 H   0  0  0  0  0  0  0  0  0  0  0  0
   -2.0079   -1.5884   -1.6269 H   0  0  0  0  0  0  0  0  0  0  0  0
   -1.8383   -2.8821   -0.4299 H   0  0  0  0  0  0  0  0  0  0  0  0
   -3.2011   -1.7681    1.1895 H   0  0  0  0  0  0  0  0  0  0  0  0
   -4.1645   -2.1911   -0.2480 H   0  0  0  0  0  0  0  0  0  0  0  0
   -4.3547    0.1449    0.9699 H   0  0  0  0  0  0  0  0  0  0  0  0
   -3.8144    2.6416   -2.7981 H   0  0  0  0  0  0  0  0  0  0  0  0
   -4.0071    3.1494   -1.1176 H   0  0  0  0  0  0  0  0  0  0  0  0
   -2.6769    0.6269   -2.2423 H   0  0  0  0  0  0  0  0  0  0  0  0
   -1.8186    2.0718   -1.6607 H   0  0  0  0  0  0  0  0  0  0  0  0
    1.3241    1.0472    2.3466 H   0  0  0  0  0  0  0  0  0  0  0  0
    1.2036    1.2954    0.5667 H   0  0  0  0  0  0  0  0  0  0  0  0
    4.5842   -0.5873    0.6328 H   0  0  0  0  0  0  0  0  0  0  0  0
    5.3890   -2.0585    2.0704 H   0  0  0  0  0  0  0  0  0  0  0  0
    4.3090   -2.9680    1.0133 H   0  0  0  0  0  0  0  0  0  0  0  0
   -0.0387   -1.4362    2.8166 H   0  0  0  0  0  0  0  0  0  0  0  0
    1.1193   -2.6455    2.2979 H   0  0  0  0  0  0  0  0  0  0  0  0
    1.6108   -1.2428    3.2878 H   0  0  0  0  0  0  0  0  0  0  0  0
    4.1912   -0.5912   -1.3346 H   0  0  0  0  0  0  0  0  0  0  0  0
   -5.7229   -0.4975   -0.7238 H   0  0  0  0  0  0  0  0  0  0  0  0
   -4.4274   -0.6874   -1.9182 H   0  0  0  0  0  0  0  0  0  0  0  0
   -5.5046    1.1650   -2.6765 H   0  0  0  0  0  0  0  0  0  0  0  0
   -7.0634    1.5263   -1.2153 H   0  0  0  0  0  0  0  0  0  0  0  0
   -0.6063    0.8686   -0.5496 H   0  0  0  0  0  0  0  0  0  0  0  0
   -0.7389    2.0903    1.4552 H   0  0  0  0  0  0  0  0  0  0  0  0
    4.2481   -0.1710    3.0483 H   0  0  0  0  0  0  0  0  0  0  0  0
    3.3117   -3.6833    2.7487 H   0  0  0  0  0  0  0  0  0  0  0  0
   -1.9696   -0.0204    2.6694 H   0  0  0  0  0  0  0  0  0  0  0  0
   -4.1107    2.3289    0.7417 H   0  0  0  0  0  0  0  0  0  0  0  0
   -2.4284    2.9809    0.3233 H   0  0  0  0  0  0  0  0  0  0  0  0
   -2.7419    2.0756    1.8129 H   0  0  0  0  0  0  0  0  0  0  0  0
  1  2  1  0
  2  3  1  0
  4  5  1  0
  5  6  1  0
  6  7  1  0
  7  8  1  0
  8  9  1  0
  9 10  1  0
 11 12  1  0
 10 13  1  0
 12 13  1  0
 15 16  1  0
  3 18  1  0
  4 19  1  0
 18 19  1  0
 10 20  1  0
 11 21  1  0
 20 21  1  0
 21 22  1  0
  7 23  1  0
 13 23  1  0
 14 24  1  0
 23 24  1  0
  6 25  1  0
 14 25  1  0
 25 17  1  1
  4 26  1  0
 26 15  1  1
 25 26  1  0
 18 27  1  0
 26 27  1  0
 15 28  1  0
 16 29  1  0
 24 30  1  0
 13 31  1  1
  1 32  1  0
  1 33  1  0
  1 34  1  0
  2 35  1  0
  2 36  1  0
  3 37  1  0
  3 38  1  0
  4 39  1  6
  5 40  1  0
  5 41  1  0
  6 42  1  6
  7 43  1  1
  8 44  1  0
  8 45  1  0
  9 46  1  0
  9 47  1  0
 10 48  1  0
 11 49  1  0
 11 50  1  0
 12 51  1  0
 12 52  1  0
 14 53  1  0
 14 54  1  0
 15 55  1  0
 16 56  1  0
 16 57  1  0
 17 58  1  0
 17 59  1  0
 17 60  1  0
 18 61  1  1
 20 62  1  0
 20 63  1  0
 21 64  1  0
 22 65  1  0
 23 66  1  6
 24 67  1  6
 28 68  1  0
 29 69  1  0
 30 70  1  0
 31 71  1  0
 31 72  1  0
 31 73  1  0
M  END
>  <PDBID>  (1) 
5NFP

>  <PDB ID>  (1) 
5NFP

>  <Generic Name>  (1) 
Budesonide

>  <Brand Name>  (1) 
Budesonide#Budesonide (enteric Coated)#Budesonide Inhalation#Budesonide Nasal#Childrens Rhinocort Allergy#Cortiment#Entocort#Entocort EC#Entocort Enema#Mylan-budesonide AQ#Pulmicort Flexhaler#Pulmicort Nebuamp 0.125 mg/ml#Pulmicort Nebuamp 0.25 mg/ml#Pulmicort Nebuamp 0.5 mg/ml#Pulmicort Respules#Pulmicort Turbuhaler 100 Mcg/dose#Pulmicort Turbuhaler 200 Mcg/dose#Pulmicort Turbuhaler 400 Mcg/dose#Rhinocort Allergy#Rhinocort Aqua#Rhinocort Aqua 100mcg#Rhinocort Turbuhaler 100 Mcg/dose#Symbicort#Symbicort 100 Turbuhaler#Symbicort 200 Turbuhaler#Symbicort Forte Turbuhaler#Uceris#Bidien#Budeson#Budicort#ENTOCORT#Noex#Pulmicort#Rhinocort#Rhinosol#Spirocort

>  <DrugBank ID>  (1) 
DB01222

>  <ATC Codes>  (1) 
R03AK07#A07EA06#R03BA02#D07AC09#R03AK12#R01AD05

>  <Ligand ID>  (1) 
8W5

>  <Target Name>  (1) 
Glucocorticoid receptor

>  <UniProt ID>  (1) 
P04150

>  <PDB ID.1>  (1) 
5NFP

>  <Seq. Identity>  (1) 
98%

$$$$
