PDB_DB01232_01
     RDKit          3D

123127  0  0  0  0  0  0  0  0999 V2000
    4.0155    0.3937    1.0114 C   0  0  0  0  0  0  0  0  0  0  0  0
    3.6940    0.7654    2.3198 O   0  0  0  0  0  0  0  0  0  0  0  0
    5.6206    2.1895    1.0084 N   0  0  0  0  0  0  0  0  0  0  0  0
    5.4821    0.7820    0.8305 C   0  0  2  0  0  0  0  0  0  0  0  0
    5.9601    0.2844   -0.4883 C   0  0  0  0  0  0  0  0  0  0  0  0
    7.4720    0.4629   -0.4843 C   0  0  0  0  0  0  0  0  0  0  0  0
    9.1599    2.1827   -0.2449 C   0  0  0  0  0  0  0  0  0  0  0  0
    9.3799    3.6089    0.2039 C   0  0  0  0  0  0  0  0  0  0  0  0
    8.2593    4.5098   -0.2399 C   0  0  0  0  0  0  0  0  0  0  0  0
    6.9603    3.7199   -0.3929 C   0  0  0  0  0  0  0  0  0  0  0  0
    7.9345    1.5583    0.4363 C   0  0  0  0  0  0  0  0  0  0  0  0
    6.9563    2.6534    0.6806 C   0  0  0  0  0  0  0  0  0  0  0  0
    3.8066   -0.9860    0.7105 N   0  0  0  0  0  0  0  0  0  0  0  0
    2.5871   -1.2863   -0.0212 C   0  0  2  0  0  0  0  0  0  0  0  0
    1.4024   -1.0274    0.7990 C   0  0  0  0  0  0  0  0  0  0  0  0
    1.4196    0.2914    1.2456 O   0  0  0  0  0  0  0  0  0  0  0  0
    2.7601   -2.6962   -0.5199 C   0  0  0  0  0  0  0  0  0  0  0  0
    2.9725   -3.7010    0.5728 C   0  0  1  0  0  0  0  0  0  0  0  0
    1.9846   -3.8296    1.4962 O   0  0  0  0  0  0  0  0  0  0  0  0
    3.2649   -5.0226    0.0257 N   0  0  0  0  0  0  0  0  0  0  0  0
   -0.8633    0.5524   -0.7679 C   0  0  1  0  0  0  0  0  0  0  0  0
    0.3810    1.2260   -0.6301 O   0  0  0  0  0  0  0  0  0  0  0  0
   -0.4441   -0.9317   -0.8477 C   0  0  1  0  0  0  0  0  0  0  0  0
    0.1362   -1.4586    0.3036 N   0  0  0  0  0  0  0  0  0  0  0  0
   -1.5676   -1.6940   -1.3993 C   0  0  0  0  0  0  0  0  0  0  0  0
   -1.4145   -3.1713   -1.6006 C   0  0  0  0  0  0  0  0  0  0  0  0
   -1.0910   -3.9841   -0.4098 C   0  0  0  0  0  0  0  0  0  0  0  0
   -0.6162   -3.5784   -2.7810 C   0  0  0  0  0  0  0  0  0  0  0  0
   -1.7166   -5.3695   -0.6591 C   0  0  0  0  0  0  0  0  0  0  0  0
   -0.2276   -5.0186   -2.6926 C   0  0  0  0  0  0  0  0  0  0  0  0
   -1.1166   -5.9195   -1.9066 C   0  0  0  0  0  0  0  0  0  0  0  0
   -3.0339    0.3536    0.3409 N   0  0  0  0  0  0  0  0  0  0  0  0
   -1.7225    0.8068    0.4124 C   0  0  0  0  0  0  0  0  0  0  0  0
   -3.9932    1.0317   -0.4508 C   0  0  2  0  0  0  0  0  0  0  0  0
   -3.8355    2.5620   -0.4735 C   0  0  0  0  0  0  0  0  0  0  0  0
   -2.6766    2.9993   -1.0544 O   0  0  0  0  0  0  0  0  0  0  0  0
   -5.4255    0.8030   -0.1004 C   0  0  0  0  0  0  0  0  0  0  0  0
   -5.7700   -0.5188    0.4862 C   0  0  2  0  0  0  0  0  0  0  0  0
   -6.9860   -0.2945    1.3627 C   0  0  0  0  0  0  0  0  0  0  0  0
   -7.3475   -1.5563    2.0906 C   0  0  0  0  0  0  0  0  0  0  0  0
   -6.1794   -1.7662    3.0684 C   0  0  0  0  0  0  0  0  0  0  0  0
   -5.0131   -2.1801    2.2390 C   0  0  0  0  0  0  0  0  0  0  0  0
   -4.6456   -1.2321    1.1255 C   0  0  2  0  0  0  0  0  0  0  0  0
   -3.5468   -0.2855    1.5246 C   0  0  0  0  0  0  0  0  0  0  0  0
   -4.9703    3.0904   -1.1824 N   0  0  0  0  0  0  0  0  0  0  0  0
   -5.1538    4.5157   -1.0460 C   0  0  0  0  0  0  0  0  0  0  0  0
   -4.0604    5.3508   -1.6229 C   0  0  0  0  0  0  0  0  0  0  0  0
   -5.3004    4.8667    0.4311 C   0  0  0  0  0  0  0  0  0  0  0  0
   -6.4568    4.8774   -1.7234 C   0  0  0  0  0  0  0  0  0  0  0  0
    3.4403    1.0154    0.2702 H   0  0  0  0  0  0  0  0  0  0  0  0
    3.6949   -0.0325    2.8867 H   0  0  0  0  0  0  0  0  0  0  0  0
    5.3316    2.4478    1.9746 H   0  0  0  0  0  0  0  0  0  0  0  0
    6.0597    0.2015    1.6108 H   0  0  0  0  0  0  0  0  0  0  0  0
    5.7318   -0.7915   -0.5727 H   0  0  0  0  0  0  0  0  0  0  0  0
    5.5014    0.7898   -1.3676 H   0  0  0  0  0  0  0  0  0  0  0  0
    7.8565    0.5496   -1.5169 H   0  0  0  0  0  0  0  0  0  0  0  0
    7.8821   -0.4927   -0.0434 H   0  0  0  0  0  0  0  0  0  0  0  0
    8.9653    2.2240   -1.3472 H   0  0  0  0  0  0  0  0  0  0  0  0
   10.0675    1.5875   -0.0518 H   0  0  0  0  0  0  0  0  0  0  0  0
   10.2958    3.9533   -0.3331 H   0  0  0  0  0  0  0  0  0  0  0  0
    9.5619    3.7121    1.2821 H   0  0  0  0  0  0  0  0  0  0  0  0
    8.4836    5.0618   -1.1658 H   0  0  0  0  0  0  0  0  0  0  0  0
    8.0596    5.2612    0.5638 H   0  0  0  0  0  0  0  0  0  0  0  0
    6.9566    3.3238   -1.4117 H   0  0  0  0  0  0  0  0  0  0  0  0
    6.0807    4.3839   -0.2088 H   0  0  0  0  0  0  0  0  0  0  0  0
    8.2761    1.1541    1.4299 H   0  0  0  0  0  0  0  0  0  0  0  0
    7.3159    3.1912    1.6112 H   0  0  0  0  0  0  0  0  0  0  0  0
    3.7016   -1.4948    1.6322 H   0  0  0  0  0  0  0  0  0  0  0  0
    2.5951   -0.6193   -0.9108 H   0  0  0  0  0  0  0  0  0  0  0  0
    1.5453   -1.6009    1.7751 H   0  0  0  0  0  0  0  0  0  0  0  0
    0.9864    0.4139    2.1192 H   0  0  0  0  0  0  0  0  0  0  0  0
    3.6823   -2.6978   -1.1383 H   0  0  0  0  0  0  0  0  0  0  0  0
    1.9500   -3.0570   -1.1786 H   0  0  0  0  0  0  0  0  0  0  0  0
    3.9310   -3.4550    1.1391 H   0  0  0  0  0  0  0  0  0  0  0  0
    2.3302   -3.7521    2.4202 H   0  0  0  0  0  0  0  0  0  0  0  0
    2.6735   -5.2688   -0.7870 H   0  0  0  0  0  0  0  0  0  0  0  0
    3.2822   -5.7470    0.7682 H   0  0  0  0  0  0  0  0  0  0  0  0
   -1.3047    0.8169   -1.6940 H   0  0  0  0  0  0  0  0  0  0  0  0
    0.5011    1.8051   -1.4123 H   0  0  0  0  0  0  0  0  0  0  0  0
    0.3763   -0.8966   -1.6394 H   0  0  0  0  0  0  0  0  0  0  0  0
   -0.5575   -1.5644    1.1118 H   0  0  0  0  0  0  0  0  0  0  0  0
   -1.6779   -1.2993   -2.4924 H   0  0  0  0  0  0  0  0  0  0  0  0
   -2.5476   -1.4825   -0.9820 H   0  0  0  0  0  0  0  0  0  0  0  0
   -2.4962   -3.5073   -1.8789 H   0  0  0  0  0  0  0  0  0  0  0  0
    0.0048   -4.2234   -0.3438 H   0  0  0  0  0  0  0  0  0  0  0  0
   -1.4713   -3.6063    0.5563 H   0  0  0  0  0  0  0  0  0  0  0  0
   -1.2421   -3.4624   -3.7125 H   0  0  0  0  0  0  0  0  0  0  0  0
    0.3149   -2.9617   -2.9101 H   0  0  0  0  0  0  0  0  0  0  0  0
   -2.8236   -5.3106   -0.6832 H   0  0  0  0  0  0  0  0  0  0  0  0
   -1.3734   -5.9846    0.2155 H   0  0  0  0  0  0  0  0  0  0  0  0
   -0.2308   -5.4277   -3.7559 H   0  0  0  0  0  0  0  0  0  0  0  0
    0.8126   -5.1030   -2.2787 H   0  0  0  0  0  0  0  0  0  0  0  0
   -0.4878   -6.8179   -1.6169 H   0  0  0  0  0  0  0  0  0  0  0  0
   -1.9377   -6.2744   -2.5894 H   0  0  0  0  0  0  0  0  0  0  0  0
   -1.2769    0.3552    1.3587 H   0  0  0  0  0  0  0  0  0  0  0  0
   -1.6537    1.9099    0.6579 H   0  0  0  0  0  0  0  0  0  0  0  0
   -3.8459    0.7140   -1.5143 H   0  0  0  0  0  0  0  0  0  0  0  0
   -3.9172    2.9340    0.5986 H   0  0  0  0  0  0  0  0  0  0  0  0
   -2.2395    3.7736   -0.6691 H   0  0  0  0  0  0  0  0  0  0  0  0
   -5.7511    1.6251    0.6034 H   0  0  0  0  0  0  0  0  0  0  0  0
   -6.0247    1.0197   -1.0294 H   0  0  0  0  0  0  0  0  0  0  0  0
   -6.1692   -1.1417   -0.3718 H   0  0  0  0  0  0  0  0  0  0  0  0
   -6.6571    0.4602    2.1305 H   0  0  0  0  0  0  0  0  0  0  0  0
   -7.7725    0.1068    0.7270 H   0  0  0  0  0  0  0  0  0  0  0  0
   -8.3137   -1.5330    2.5771 H   0  0  0  0  0  0  0  0  0  0  0  0
   -7.3299   -2.4055    1.3779 H   0  0  0  0  0  0  0  0  0  0  0  0
   -6.4685   -2.6061    3.7175 H   0  0  0  0  0  0  0  0  0  0  0  0
   -6.0191   -0.8110    3.5786 H   0  0  0  0  0  0  0  0  0  0  0  0
   -5.3058   -3.1562    1.7575 H   0  0  0  0  0  0  0  0  0  0  0  0
   -4.0965   -2.4048    2.8023 H   0  0  0  0  0  0  0  0  0  0  0  0
   -4.2104   -1.9104    0.3365 H   0  0  0  0  0  0  0  0  0  0  0  0
   -2.6966   -0.8121    2.0117 H   0  0  0  0  0  0  0  0  0  0  0  0
   -4.0116    0.4480    2.2224 H   0  0  0  0  0  0  0  0  0  0  0  0
   -4.9169    2.8957   -2.2140 H   0  0  0  0  0  0  0  0  0  0  0  0
   -3.4577    5.8027   -0.8093 H   0  0  0  0  0  0  0  0  0  0  0  0
   -3.4782    4.8589   -2.4157 H   0  0  0  0  0  0  0  0  0  0  0  0
   -4.5282    6.2484   -2.1336 H   0  0  0  0  0  0  0  0  0  0  0  0
   -5.6245    3.9783    0.9673 H   0  0  0  0  0  0  0  0  0  0  0  0
   -4.3323    5.2784    0.7870 H   0  0  0  0  0  0  0  0  0  0  0  0
   -6.0613    5.6620    0.5568 H   0  0  0  0  0  0  0  0  0  0  0  0
   -6.5179    5.9565   -1.9595 H   0  0  0  0  0  0  0  0  0  0  0  0
   -6.5744    4.3053   -2.6640 H   0  0  0  0  0  0  0  0  0  0  0  0
   -7.2817    4.5570   -1.0476 H   0  0  0  0  0  0  0  0  0  0  0  0
  1  2  1  0
  1  4  1  0
  3  4  1  0
  4  5  1  0
  5  6  1  0
  7  8  1  0
  8  9  1  0
  9 10  1  0
  6 11  1  0
  7 11  1  0
  3 12  1  0
 10 12  1  0
 11 12  1  0
  1 13  1  0
 13 14  1  0
 14 15  1  0
 15 16  1  0
 14 17  1  0
 17 18  1  0
 18 19  1  0
 18 20  1  0
 21 22  1  0
 21 23  1  0
 15 24  1  0
 23 24  1  0
 23 25  1  0
 25 26  1  0
 26 27  1  0
 26 28  1  0
 27 29  1  0
 28 30  1  0
 29 31  1  0
 30 31  1  0
 21 33  1  0
 32 33  1  0
 32 34  1  0
 34 35  1  0
 35 36  1  0
 34 37  1  0
 37 38  1  0
 38 39  1  0
 39 40  1  0
 40 41  1  0
 41 42  1  0
 38 43  1  0
 42 43  1  0
 32 44  1  0
 43 44  1  0
 35 45  1  0
 46 45  1  0
 46 47  1  0
 46 48  1  0
 46 49  1  0
  1 50  1  0
  2 51  1  0
  3 52  1  0
  4 53  1  1
  5 54  1  0
  5 55  1  0
  6 56  1  0
  6 57  1  0
  7 58  1  0
  7 59  1  0
  8 60  1  0
  8 61  1  0
  9 62  1  0
  9 63  1  0
 10 64  1  0
 10 65  1  0
 11 66  1  0
 12 67  1  0
 13 68  1  0
 14 69  1  6
 15 70  1  0
 16 71  1  0
 17 72  1  0
 17 73  1  0
 18 74  1  1
 19 75  1  0
 20 76  1  0
 20 77  1  0
 21 78  1  6
 22 79  1  0
 23 80  1  6
 24 81  1  0
 25 82  1  0
 25 83  1  0
 26 84  1  0
 27 85  1  0
 27 86  1  0
 28 87  1  0
 28 88  1  0
 29 89  1  0
 29 90  1  0
 30 91  1  0
 30 92  1  0
 31 93  1  0
 31 94  1  0
 33 95  1  0
 33 96  1  0
 34 97  1  6
 35 98  1  0
 36 99  1  0
 37100  1  0
 37101  1  0
 38102  1  6
 39103  1  0
 39104  1  0
 40105  1  0
 40106  1  0
 41107  1  0
 41108  1  0
 42109  1  0
 42110  1  0
 43111  1  6
 44112  1  0
 44113  1  0
 45114  1  0
 47115  1  0
 47116  1  0
 47117  1  0
 48118  1  0
 48119  1  0
 48120  1  0
 49121  1  0
 49122  1  0
 49123  1  0
M  END
>  <PDBID>  (1) 
1HXB

>  <PDB ID>  (1) 
1HXB

>  <Generic Name>  (1) 
Saquinavir

>  <Brand Name>  (1) 
Fortovase Roche#Invirase#Invirase - Cap 200mg#Fortovase#ROC

>  <DrugBank ID>  (1) 
DB01232

>  <ATC Codes>  (1) 
J05AE01

>  <Ligand ID>  (1) 
ROC

>  <Target Name>  (1) 
Pol polyprotein

>  <UniProt ID>  (1) 
Q72874

>  <PDB ID.1>  (1) 
1HXB

>  <Seq. Identity>  (1) 
100%

$$$$
