PDB_DB00503_01
     RDKit          3D

124127  0  0  0  0  0  0  0  0999 V2000
   -3.5600    4.8059    3.7575 C   0  0  0  0  0  0  0  0  0  0  0  0
   -3.3195    3.4062    3.1548 C   0  0  0  0  0  0  0  0  0  0  0  0
   -4.3321    2.4261    4.3029 S   0  0  0  0  0  0  0  0  0  0  0  0
   -4.6342    3.7559    5.5435 C   0  0  0  0  0  0  0  0  0  0  0  0
   -3.4893    4.6117    5.1905 N   0  0  0  0  0  0  0  0  0  0  0  0
   -3.7769    3.3542    1.7453 C   0  0  0  0  0  0  0  0  0  0  0  0
   -3.6415    2.1762    1.0675 O   0  0  0  0  0  0  0  0  0  0  0  0
   -2.3572    1.7531    0.9836 C   0  0  0  0  0  0  0  0  0  0  0  0
   -1.7898    1.9003   -0.3089 O   0  0  0  0  0  0  0  0  0  0  0  0
   -2.0171    0.5228    1.5009 N   0  0  0  0  0  0  0  0  0  0  0  0
   -2.5461   -0.7080    1.2454 C   0  0  2  0  0  0  0  0  0  0  0  0
   -2.3547   -1.1555   -0.1749 C   0  0  2  0  0  0  0  0  0  0  0  0
   -0.8990   -1.3204   -0.4885 C   0  0  0  0  0  0  0  0  0  0  0  0
   -0.6390   -1.7616   -1.9132 C   0  0  2  0  0  0  0  0  0  0  0  0
   -3.7400   -1.2602    1.8681 C   0  0  0  0  0  0  0  0  0  0  0  0
   -5.0645   -0.6454    1.8162 C   0  0  0  0  0  0  0  0  0  0  0  0
   -6.0255   -1.5703    2.6209 C   0  0  0  0  0  0  0  0  0  0  0  0
   -7.3829   -1.6420    2.0167 C   0  0  0  0  0  0  0  0  0  0  0  0
   -7.3870   -2.2972    0.6624 C   0  0  0  0  0  0  0  0  0  0  0  0
   -6.1968   -1.7616   -0.1165 C   0  0  0  0  0  0  0  0  0  0  0  0
   -5.7501   -0.4503    0.5102 C   0  0  0  0  0  0  0  0  0  0  0  0
   -2.8981   -0.2377   -1.0401 O   0  0  0  0  0  0  0  0  0  0  0  0
   -1.2697   -3.0563   -2.2389 C   0  0  0  0  0  0  0  0  0  0  0  0
   -1.0440   -3.5380   -3.6376 C   0  0  0  0  0  0  0  0  0  0  0  0
   -1.5877   -2.5891   -4.6586 C   0  0  0  0  0  0  0  0  0  0  0  0
   -3.1082   -2.5576   -4.6447 C   0  0  0  0  0  0  0  0  0  0  0  0
   -3.7108   -3.9184   -4.4535 C   0  0  0  0  0  0  0  0  0  0  0  0
   -2.6441   -4.9343   -4.8820 C   0  0  0  0  0  0  0  0  0  0  0  0
   -1.5887   -4.9457   -3.8231 C   0  0  0  0  0  0  0  0  0  0  0  0
    0.8223   -1.9396   -2.1021 N   0  0  0  0  0  0  0  0  0  0  0  0
    3.5323    0.4523   -1.8248 N   0  0  0  0  0  0  0  0  0  0  0  0
    2.8800   -0.5890   -2.5549 C   0  0  2  0  0  0  0  0  0  0  0  0
    1.5299   -0.7450   -1.8851 C   0  0  1  0  0  0  0  0  0  0  0  0
    0.8157    0.4421   -2.0175 O   0  0  0  0  0  0  0  0  0  0  0  0
    3.6281   -1.8545   -2.7312 C   0  0  0  0  0  0  0  0  0  0  0  0
    2.8317   -2.8582   -3.5570 C   0  0  0  0  0  0  0  0  0  0  0  0
    4.0360   -2.5043   -1.4206 C   0  0  0  0  0  0  0  0  0  0  0  0
    4.7466    0.9716   -2.3133 C   0  0  1  0  0  0  0  0  0  0  0  0
    5.2310    2.0278   -1.4264 N   0  0  0  0  0  0  0  0  0  0  0  0
    5.3350    1.6519   -0.0615 C   0  0  0  0  0  0  0  0  0  0  0  0
    5.7409    0.0062   -2.3522 O   0  0  0  0  0  0  0  0  0  0  0  0
    5.9089    2.7821    0.8059 C   0  0  0  0  0  0  0  0  0  0  0  0
    7.2991    3.0983    0.2653 C   0  0  0  0  0  0  0  0  0  0  0  0
    8.1406    3.5769    1.8193 S   0  0  0  0  0  0  0  0  0  0  0  0
    6.7686    3.1322    2.9632 C   0  0  0  0  0  0  0  0  0  0  0  0
    6.0522    2.2222    2.1150 N   0  0  0  0  0  0  0  0  0  0  0  0
    7.3180    2.3136    4.1226 C   0  0  0  0  0  0  0  0  0  0  0  0
    6.1539    1.9904    5.0319 C   0  0  0  0  0  0  0  0  0  0  0  0
    8.3738    3.0297    4.9033 C   0  0  0  0  0  0  0  0  0  0  0  0
    4.6823    3.3118   -1.6989 C   0  0  0  0  0  0  0  0  0  0  0  0
   -4.5710    5.1261    3.4529 H   0  0  0  0  0  0  0  0  0  0  0  0
   -2.7493    5.4810    3.4870 H   0  0  0  0  0  0  0  0  0  0  0  0
   -2.2384    3.2435    3.3282 H   0  0  0  0  0  0  0  0  0  0  0  0
   -4.4784    3.3337    6.5420 H   0  0  0  0  0  0  0  0  0  0  0  0
   -5.5948    4.2531    5.3760 H   0  0  0  0  0  0  0  0  0  0  0  0
   -3.5208    5.5203    5.6679 H   0  0  0  0  0  0  0  0  0  0  0  0
   -4.8277    3.7429    1.7218 H   0  0  0  0  0  0  0  0  0  0  0  0
   -3.1974    4.1378    1.1669 H   0  0  0  0  0  0  0  0  0  0  0  0
   -1.7398    2.5333    1.5575 H   0  0  0  0  0  0  0  0  0  0  0  0
   -1.8216    2.8696   -0.4962 H   0  0  0  0  0  0  0  0  0  0  0  0
   -1.6367    0.5814    2.4903 H   0  0  0  0  0  0  0  0  0  0  0  0
   -1.7017   -1.4343    1.7594 H   0  0  0  0  0  0  0  0  0  0  0  0
   -2.8355   -2.1774   -0.3228 H   0  0  0  0  0  0  0  0  0  0  0  0
   -0.5204   -2.1223    0.2074 H   0  0  0  0  0  0  0  0  0  0  0  0
   -0.3545   -0.4081   -0.2053 H   0  0  0  0  0  0  0  0  0  0  0  0
   -0.9820   -0.9694   -2.5794 H   0  0  0  0  0  0  0  0  0  0  0  0
   -3.5422   -1.6123    2.9484 H   0  0  0  0  0  0  0  0  0  0  0  0
   -3.8708   -2.2966    1.3829 H   0  0  0  0  0  0  0  0  0  0  0  0
   -5.1590    0.3222    2.3652 H   0  0  0  0  0  0  0  0  0  0  0  0
   -5.6062   -2.6029    2.6041 H   0  0  0  0  0  0  0  0  0  0  0  0
   -6.0561   -1.2658    3.6723 H   0  0  0  0  0  0  0  0  0  0  0  0
   -7.9628   -2.3577    2.6816 H   0  0  0  0  0  0  0  0  0  0  0  0
   -7.9799   -0.7096    2.0769 H   0  0  0  0  0  0  0  0  0  0  0  0
   -7.2865   -3.3886    0.8011 H   0  0  0  0  0  0  0  0  0  0  0  0
   -8.3367   -2.1236    0.1304 H   0  0  0  0  0  0  0  0  0  0  0  0
   -5.3600   -2.4518   -0.1857 H   0  0  0  0  0  0  0  0  0  0  0  0
   -6.5522   -1.5218   -1.1287 H   0  0  0  0  0  0  0  0  0  0  0  0
   -5.2873    0.1624   -0.2387 H   0  0  0  0  0  0  0  0  0  0  0  0
   -6.7144    0.1257    0.7647 H   0  0  0  0  0  0  0  0  0  0  0  0
   -2.8750   -0.5081   -1.9879 H   0  0  0  0  0  0  0  0  0  0  0  0
   -0.8542   -3.8705   -1.5643 H   0  0  0  0  0  0  0  0  0  0  0  0
   -2.3598   -3.1030   -2.0573 H   0  0  0  0  0  0  0  0  0  0  0  0
    0.0710   -3.5858   -3.8038 H   0  0  0  0  0  0  0  0  0  0  0  0
   -1.2350   -1.5706   -4.4314 H   0  0  0  0  0  0  0  0  0  0  0  0
   -1.2072   -2.8036   -5.6862 H   0  0  0  0  0  0  0  0  0  0  0  0
   -3.4398   -2.1730   -5.6474 H   0  0  0  0  0  0  0  0  0  0  0  0
   -3.5069   -1.8413   -3.9107 H   0  0  0  0  0  0  0  0  0  0  0  0
   -3.9973   -4.1499   -3.4175 H   0  0  0  0  0  0  0  0  0  0  0  0
   -4.6201   -4.0662   -5.0793 H   0  0  0  0  0  0  0  0  0  0  0  0
   -2.2008   -4.5647   -5.8278 H   0  0  0  0  0  0  0  0  0  0  0  0
   -3.0816   -5.9476   -5.0056 H   0  0  0  0  0  0  0  0  0  0  0  0
   -0.7906   -5.6528   -4.0679 H   0  0  0  0  0  0  0  0  0  0  0  0
   -2.0740   -5.2686   -2.8580 H   0  0  0  0  0  0  0  0  0  0  0  0
    1.0373   -2.6756   -1.3482 H   0  0  0  0  0  0  0  0  0  0  0  0
    2.8317    1.2436   -1.7583 H   0  0  0  0  0  0  0  0  0  0  0  0
    2.6639   -0.1947   -3.5776 H   0  0  0  0  0  0  0  0  0  0  0  0
    1.7836   -0.7491   -0.7569 H   0  0  0  0  0  0  0  0  0  0  0  0
    0.9487    0.8526   -2.9273 H   0  0  0  0  0  0  0  0  0  0  0  0
    4.5581   -1.6932   -3.3066 H   0  0  0  0  0  0  0  0  0  0  0  0
    3.4578   -3.2845   -4.3730 H   0  0  0  0  0  0  0  0  0  0  0  0
    2.0397   -2.2657   -4.0939 H   0  0  0  0  0  0  0  0  0  0  0  0
    2.3897   -3.6650   -2.9798 H   0  0  0  0  0  0  0  0  0  0  0  0
    3.9870   -1.7872   -0.5986 H   0  0  0  0  0  0  0  0  0  0  0  0
    3.4075   -3.4218   -1.2201 H   0  0  0  0  0  0  0  0  0  0  0  0
    5.0781   -2.8847   -1.4666 H   0  0  0  0  0  0  0  0  0  0  0  0
    4.6503    1.4878   -3.3044 H   0  0  0  0  0  0  0  0  0  0  0  0
    4.2895    1.4501    0.3097 H   0  0  0  0  0  0  0  0  0  0  0  0
    5.8919    0.7151    0.1189 H   0  0  0  0  0  0  0  0  0  0  0  0
    5.9812   -0.3994   -1.5113 H   0  0  0  0  0  0  0  0  0  0  0  0
    5.2864    3.6700    0.8253 H   0  0  0  0  0  0  0  0  0  0  0  0
    7.2913    3.9674   -0.4177 H   0  0  0  0  0  0  0  0  0  0  0  0
    7.7695    2.1952   -0.1761 H   0  0  0  0  0  0  0  0  0  0  0  0
    6.1805    3.9931    3.2633 H   0  0  0  0  0  0  0  0  0  0  0  0
    5.1612    1.8966    2.5113 H   0  0  0  0  0  0  0  0  0  0  0  0
    7.7207    1.3864    3.6526 H   0  0  0  0  0  0  0  0  0  0  0  0
    5.7965    2.9843    5.4313 H   0  0  0  0  0  0  0  0  0  0  0  0
    6.4642    1.3793    5.9045 H   0  0  0  0  0  0  0  0  0  0  0  0
    5.2822    1.5628    4.5007 H   0  0  0  0  0  0  0  0  0  0  0  0
    8.2543    4.1228    4.8823 H   0  0  0  0  0  0  0  0  0  0  0  0
    9.3879    2.6906    4.5637 H   0  0  0  0  0  0  0  0  0  0  0  0
    8.2832    2.6884    5.9769 H   0  0  0  0  0  0  0  0  0  0  0  0
    4.1487    3.7488   -0.8518 H   0  0  0  0  0  0  0  0  0  0  0  0
    4.0370    3.2298   -2.6067 H   0  0  0  0  0  0  0  0  0  0  0  0
    5.5231    3.9900   -2.0358 H   0  0  0  0  0  0  0  0  0  0  0  0
  1  2  1  0
  2  3  1  0
  3  4  1  0
  1  5  1  0
  4  5  1  0
  2  6  1  0
  6  7  1  0
  7  8  1  0
  8  9  1  0
  8 10  1  0
 10 11  1  0
 11 12  1  0
 12 13  1  0
 13 14  1  0
 11 15  1  0
 15 16  1  0
 16 17  1  0
 17 18  1  0
 18 19  1  0
 19 20  1  0
 16 21  1  0
 20 21  1  0
 12 22  1  0
 14 23  1  0
 23 24  1  0
 24 25  1  0
 25 26  1  0
 26 27  1  0
 27 28  1  0
 24 29  1  0
 28 29  1  0
 14 30  1  0
 31 32  1  0
 30 33  1  0
 32 33  1  0
 33 34  1  0
 32 35  1  0
 35 36  1  0
 35 37  1  0
 31 38  1  0
 38 39  1  0
 39 40  1  0
 38 41  1  0
 40 42  1  0
 42 43  1  0
 43 44  1  0
 44 45  1  0
 42 46  1  0
 45 46  1  0
 45 47  1  0
 47 48  1  0
 47 49  1  0
 39 50  1  0
  1 51  1  0
  1 52  1  0
  2 53  1  0
  4 54  1  0
  4 55  1  0
  5 56  1  0
  6 57  1  0
  6 58  1  0
  8 59  1  0
  9 60  1  0
 10 61  1  0
 11 62  1  1
 12 63  1  1
 13 64  1  0
 13 65  1  0
 14 66  1  6
 15 67  1  0
 15 68  1  0
 16 69  1  0
 17 70  1  0
 17 71  1  0
 18 72  1  0
 18 73  1  0
 19 74  1  0
 19 75  1  0
 20 76  1  0
 20 77  1  0
 21 78  1  0
 21 79  1  0
 22 80  1  0
 23 81  1  0
 23 82  1  0
 24 83  1  0
 25 84  1  0
 25 85  1  0
 26 86  1  0
 26 87  1  0
 27 88  1  0
 27 89  1  0
 28 90  1  0
 28 91  1  0
 29 92  1  0
 29 93  1  0
 30 94  1  0
 31 95  1  0
 32 96  1  6
 33 97  1  1
 34 98  1  0
 35 99  1  0
 36100  1  0
 36101  1  0
 36102  1  0
 37103  1  0
 37104  1  0
 37105  1  0
 38106  1  6
 40107  1  0
 40108  1  0
 41109  1  0
 42110  1  0
 43111  1  0
 43112  1  0
 45113  1  0
 46114  1  0
 47115  1  0
 48116  1  0
 48117  1  0
 48118  1  0
 49119  1  0
 49120  1  0
 49121  1  0
 50122  1  0
 50123  1  0
 50124  1  0
M  END
>  <PDBID>  (1) 
1HXW

>  <PDB ID>  (1) 
1HXW

>  <Generic Name>  (1) 
Ritonavir

>  <Brand Name>  (1) 
Holkira Pak#Kaletra#Lopinavir-ritonavir#Norvir#Norvir Sec#Technivie#Viekira Pak#Viekira XR#Busvir#Empetus#Normune

>  <DrugBank ID>  (1) 
DB00503

>  <ATC Codes>  (1) 
J05AX67#J05AR10#J05AE03#J05AX66

>  <Ligand ID>  (1) 
RIT

>  <Target Name>  (1) 
Pol polyprotein

>  <UniProt ID>  (1) 
Q72874

>  <PDB ID.1>  (1) 
1HXW

>  <Seq. Identity>  (1) 
98%

$$$$
