PDB_DB08864_02
     RDKit          3D

 74 76  0  0  0  0  0  0  0  0999 V2000
    3.0491   -0.8858   -0.9424 C   0  0  0  0  0  0  0  0  0  0  0  0
   -2.4334   -0.0406    1.3868 N   0  0  0  0  0  0  0  0  0  0  0  0
    4.9370    0.4950   -0.4216 C   0  0  0  0  0  0  0  0  0  0  0  0
    4.1732    1.2355    0.6156 C   0  0  0  0  0  0  0  0  0  0  0  0
    2.7280    0.7827    0.7291 C   0  0  0  0  0  0  0  0  0  0  0  0
    2.2727    0.3631   -0.6401 C   0  0  0  0  0  0  0  0  0  0  0  0
    2.2822   -2.1425   -0.8621 C   0  0  0  0  0  0  0  0  0  0  0  0
    4.4253   -0.9465   -0.3300 C   0  0  0  0  0  0  0  0  0  0  0  0
    2.0007    1.9015    1.3688 C   0  0  0  0  0  0  0  0  0  0  0  0
    0.9718    0.1495   -0.8936 N   0  0  0  0  0  0  0  0  0  0  0  0
   -1.8118   -1.3187    1.2569 C   0  0  0  0  0  0  0  0  0  0  0  0
   -0.4865   -1.3552    0.5421 C   0  0  0  0  0  0  0  0  0  0  0  0
   -0.1745   -0.1861   -0.2976 C   0  0  0  0  0  0  0  0  0  0  0  0
   -0.9571    1.0167    0.0059 N   0  0  0  0  0  0  0  0  0  0  0  0
   -2.3318    0.7535    0.1760 C   0  0  1  0  0  0  0  0  0  0  0  0
   -2.9837    0.1073   -0.9393 N   0  0  0  0  0  0  0  0  0  0  0  0
   -7.2090    0.0513   -0.8896 C   0  0  0  0  0  0  0  0  0  0  0  0
   -6.4755   -1.2557   -1.0222 C   0  0  0  0  0  0  0  0  0  0  0  0
   -5.0870   -0.9723   -1.5895 C   0  0  0  0  0  0  0  0  0  0  0  0
   -4.4206    0.0014   -0.6358 C   0  0  0  0  0  0  0  0  0  0  0  0
   -5.0684    1.3300   -0.8434 C   0  0  0  0  0  0  0  0  0  0  0  0
   -6.4450    1.2066   -1.4798 C   0  0  0  0  0  0  0  0  0  0  0  0
   -8.3199   -0.7335    1.0773 N   0  0  0  0  0  0  0  0  0  0  0  0
   -7.5047    0.3436    0.5640 C   0  0  0  0  0  0  0  0  0  0  0  0
    6.9963    0.0800    0.9860 C   0  0  0  0  0  0  0  0  0  0  0  0
    6.4024    0.5964   -0.2750 C   0  0  0  0  0  0  0  0  0  0  0  0
    8.9000    1.6104    0.9601 N   0  0  0  0  0  0  0  0  0  0  0  0
    8.5047    0.2384    1.0398 C   0  0  0  0  0  0  0  0  0  0  0  0
    4.6923    1.0946    1.6009 H   0  0  0  0  0  0  0  0  0  0  0  0
    2.0790   -2.4324    0.1610 H   0  0  0  0  0  0  0  0  0  0  0  0
    2.8678   -2.9543   -1.4034 H   0  0  0  0  0  0  0  0  0  0  0  0
    1.3478   -2.0210   -1.4415 H   0  0  0  0  0  0  0  0  0  0  0  0
    4.3225   -1.2340    0.7212 H   0  0  0  0  0  0  0  0  0  0  0  0
    1.1481    1.4667    1.9745 H   0  0  0  0  0  0  0  0  0  0  0  0
    2.6069    2.4336    2.1524 H   0  0  0  0  0  0  0  0  0  0  0  0
    1.6469    2.6660    0.6822 H   0  0  0  0  0  0  0  0  0  0  0  0
    0.8493    0.3040   -1.9674 H   0  0  0  0  0  0  0  0  0  0  0  0
   -1.7281   -1.7430    2.2845 H   0  0  0  0  0  0  0  0  0  0  0  0
    0.2686   -1.5370    1.3588 H   0  0  0  0  0  0  0  0  0  0  0  0
   -2.7098   -0.9004   -1.0684 H   0  0  0  0  0  0  0  0  0  0  0  0
   -7.0186   -1.9831   -1.6286 H   0  0  0  0  0  0  0  0  0  0  0  0
   -5.2363   -0.5556   -2.6039 H   0  0  0  0  0  0  0  0  0  0  0  0
   -5.1574    1.8732    0.1012 H   0  0  0  0  0  0  0  0  0  0  0  0
   -7.0197    2.1190   -1.2340 H   0  0  0  0  0  0  0  0  0  0  0  0
    6.6225    0.7244    1.8353 H   0  0  0  0  0  0  0  0  0  0  0  0
    6.6998    1.6442   -0.4882 H   0  0  0  0  0  0  0  0  0  0  0  0
    3.2991   -0.8013   -2.0859 H   0  0  0  0  0  0  0  0  0  0  0  0
   -2.1300    0.5528    2.1636 H   0  0  0  0  0  0  0  0  0  0  0  0
    4.6934    0.8252   -1.4762 H   0  0  0  0  0  0  0  0  0  0  0  0
    4.2420    2.3255    0.4106 H   0  0  0  0  0  0  0  0  0  0  0  0
    2.7695   -0.1422    1.3763 H   0  0  0  0  0  0  0  0  0  0  0  0
    2.6790    1.1689   -1.3071 H   0  0  0  0  0  0  0  0  0  0  0  0
    5.0473   -1.6208   -0.9488 H   0  0  0  0  0  0  0  0  0  0  0  0
   -2.5652   -1.9931    0.7498 H   0  0  0  0  0  0  0  0  0  0  0  0
   -0.4923   -2.3218   -0.0116 H   0  0  0  0  0  0  0  0  0  0  0  0
   -0.8462   -0.4869   -1.2473 H   0  0  0  0  0  0  0  0  0  0  0  0
   -0.6961    1.8222   -0.5728 H   0  0  0  0  0  0  0  0  0  0  0  0
   -2.8705    1.6991    0.3542 H   0  0  0  0  0  0  0  0  0  0  0  0
   -8.2049    0.0357   -1.4104 H   0  0  0  0  0  0  0  0  0  0  0  0
   -6.3112   -1.7409   -0.0236 H   0  0  0  0  0  0  0  0  0  0  0  0
   -4.5546   -1.9371   -1.6389 H   0  0  0  0  0  0  0  0  0  0  0  0
   -4.4952   -0.4196    0.3760 H   0  0  0  0  0  0  0  0  0  0  0  0
   -4.4404    1.8942   -1.5886 H   0  0  0  0  0  0  0  0  0  0  0  0
   -6.3534    1.1481   -2.5719 H   0  0  0  0  0  0  0  0  0  0  0  0
   -7.6910   -1.4655    1.4503 H   0  0  0  0  0  0  0  0  0  0  0  0
   -8.9331   -0.3925    1.8527 H   0  0  0  0  0  0  0  0  0  0  0  0
   -6.5965    0.3846    1.1776 H   0  0  0  0  0  0  0  0  0  0  0  0
   -7.9962    1.3407    0.6585 H   0  0  0  0  0  0  0  0  0  0  0  0
    6.7093   -0.9533    1.2306 H   0  0  0  0  0  0  0  0  0  0  0  0
    6.8779    0.0060   -1.1136 H   0  0  0  0  0  0  0  0  0  0  0  0
    8.9980    2.0071    1.9248 H   0  0  0  0  0  0  0  0  0  0  0  0
    9.7897    1.7405    0.4020 H   0  0  0  0  0  0  0  0  0  0  0  0
    8.9980   -0.3226    0.2147 H   0  0  0  0  0  0  0  0  0  0  0  0
    8.8575   -0.2554    1.9725 H   0  0  0  0  0  0  0  0  0  0  0  0
  3  4  1  0
  4  5  1  0
  1  6  1  0
  5  6  1  0
  1  7  1  0
  1  8  1  0
  3  8  1  0
  5  9  1  0
  6 10  1  0
  2 11  1  0
 11 12  1  0
 10 13  1  0
 12 13  1  0
 13 14  1  0
  2 15  1  0
 14 15  1  0
 15 16  1  0
 17 18  1  0
 18 19  1  0
 16 20  1  0
 19 20  1  0
 20 21  1  0
 17 22  1  0
 21 22  1  0
 17 24  1  0
 23 24  1  0
  3 26  1  0
 25 26  1  0
 25 28  1  0
 27 28  1  0
  4 29  1  0
  7 30  1  0
  7 31  1  0
  7 32  1  0
  8 33  1  0
  9 34  1  0
  9 35  1  0
  9 36  1  0
 10 37  1  0
 11 38  1  0
 12 39  1  0
 16 40  1  0
 18 41  1  0
 19 42  1  0
 21 43  1  0
 22 44  1  0
 25 45  1  0
 26 46  1  0
  1 47  1  0
  2 48  1  0
  3 49  1  0
  4 50  1  0
  5 51  1  0
  6 52  1  0
  8 53  1  0
 11 54  1  0
 12 55  1  0
 13 56  1  0
 14 57  1  0
 15 58  1  1
 17 59  1  0
 18 60  1  0
 19 61  1  0
 20 62  1  0
 21 63  1  0
 22 64  1  0
 23 65  1  0
 23 66  1  0
 24 67  1  0
 24 68  1  0
 25 69  1  0
 26 70  1  0
 27 71  1  0
 27 72  1  0
 28 73  1  0
 28 74  1  0
M  END
>  <PDBID>  (1) 
4G1Q

>  <PDB ID>  (1) 
4G1Q

>  <Generic Name>  (1) 
Rilpivirine

>  <Brand Name>  (1) 
Complera#Edurant#Odefsey

>  <DrugBank ID>  (1) 
DB08864

>  <ATC Codes>  (1) 
nan

>  <Ligand ID>  (1) 
T27

>  <Target Name>  (1) 
Reverse transcriptase/RNaseH

>  <UniProt ID>  (1) 
Q72547

>  <PDB ID.1>  (1) 
4G1Q

>  <Seq. Identity>  (1) 
95%

$$$$
