PDB_DB09330_08
     RDKit          3D

 94 97  0  0  0  0  0  0  0  0999 V2000
    8.2425   -0.5899   -0.6517 C   0  0  0  0  0  0  0  0  0  0  0  0
    7.6895   -0.3921    0.6552 N   0  0  0  0  0  0  0  0  0  0  0  0
    7.4052    0.9566    1.0060 C   0  0  0  0  0  0  0  0  0  0  0  0
    6.7977   -1.3977    1.0902 C   0  0  0  0  0  0  0  0  0  0  0  0
    5.4897   -1.5049    0.3796 C   0  0  0  0  0  0  0  0  0  0  0  0
    4.6836   -0.2819    0.5392 N   0  0  0  0  0  0  0  0  0  0  0  0
    4.2904   -0.3591    1.9734 C   0  0  0  0  0  0  0  0  0  0  0  0
    2.5935   -1.4297    0.2204 C   0  0  0  0  0  0  0  0  0  0  0  0
    1.3655   -1.5456   -0.6954 C   0  0  0  0  0  0  0  0  0  0  0  0
    1.8629   -2.0974   -1.8954 O   0  0  0  0  0  0  0  0  0  0  0  0
    1.3618   -3.3721   -2.0764 C   0  0  0  0  0  0  0  0  0  0  0  0
    3.5150   -0.3387   -0.2943 C   0  0  0  0  0  0  0  0  0  0  0  0
    2.8429    0.8951   -0.7037 C   0  0  2  0  0  0  0  0  0  0  0  0
    3.4273    2.1504   -0.5700 N   0  0  0  0  0  0  0  0  0  0  0  0
    3.7395    2.7601    0.6381 C   0  0  0  0  0  0  0  0  0  0  0  0
    2.5760    3.0683    1.3802 O   0  0  0  0  0  0  0  0  0  0  0  0
    4.3742    4.1385    0.3337 C   0  0  0  0  0  0  0  0  0  0  0  0
    3.4266    5.0183   -0.4404 C   0  0  0  0  0  0  0  0  0  0  0  0
    1.4095    0.8591   -0.1528 C   0  0  0  0  0  0  0  0  0  0  0  0
    0.6701   -0.2610   -0.9204 C   0  0  0  0  0  0  0  0  0  0  0  0
   -0.7011   -0.1473   -0.5318 N   0  0  0  0  0  0  0  0  0  0  0  0
   -1.6193   -1.0459   -1.1946 C   0  0  0  0  0  0  0  0  0  0  0  0
   -2.9503   -0.4681   -1.2652 N   0  0  0  0  0  0  0  0  0  0  0  0
   -1.6520   -2.3382   -0.5267 N   0  0  0  0  0  0  0  0  0  0  0  0
   -2.2861   -2.2903    0.7626 C   0  0  0  0  0  0  0  0  0  0  0  0
   -3.6668   -1.6106    0.6917 C   0  0  0  0  0  0  0  0  0  0  0  0
   -3.9137   -1.3803   -0.7524 C   0  0  0  0  0  0  0  0  0  0  0  0
   -5.3158   -1.0513   -1.1618 C   0  0  0  0  0  0  0  0  0  0  0  0
   -5.8449    0.2640   -0.8064 C   0  0  0  0  0  0  0  0  0  0  0  0
   -4.9029    1.3935   -0.6671 C   0  0  0  0  0  0  0  0  0  0  0  0
   -5.6755    2.5566   -0.0222 C   0  0  0  0  0  0  0  0  0  0  0  0
   -7.1622    2.4059   -0.2822 C   0  0  0  0  0  0  0  0  0  0  0  0
   -7.7424    1.1830    0.3988 C   0  0  0  0  0  0  0  0  0  0  0  0
   -6.7357    0.0252    0.3938 C   0  0  0  0  0  0  0  0  0  0  0  0
   -7.3605   -1.2223    0.0148 N   0  0  0  0  0  0  0  0  0  0  0  0
   -8.0291   -1.8920    1.0803 C   0  0  0  0  0  0  0  0  0  0  0  0
   -6.2983   -2.0228   -0.6107 C   0  0  0  0  0  0  0  0  0  0  0  0
    9.3515   -0.3963   -0.5834 H   0  0  0  0  0  0  0  0  0  0  0  0
    7.8132    0.1072   -1.4043 H   0  0  0  0  0  0  0  0  0  0  0  0
    8.0837   -1.6464   -0.9302 H   0  0  0  0  0  0  0  0  0  0  0  0
    8.2227    1.6071    0.5668 H   0  0  0  0  0  0  0  0  0  0  0  0
    7.5101    1.0717    2.1060 H   0  0  0  0  0  0  0  0  0  0  0  0
    6.4479    1.3260    0.6347 H   0  0  0  0  0  0  0  0  0  0  0  0
    7.3574   -2.3793    1.0307 H   0  0  0  0  0  0  0  0  0  0  0  0
    6.6581   -1.2607    2.1978 H   0  0  0  0  0  0  0  0  0  0  0  0
    4.9192   -2.3185    0.9211 H   0  0  0  0  0  0  0  0  0  0  0  0
    5.5577   -1.8433   -0.6506 H   0  0  0  0  0  0  0  0  0  0  0  0
    3.4017    0.2316    2.1865 H   0  0  0  0  0  0  0  0  0  0  0  0
    5.1394    0.0666    2.5394 H   0  0  0  0  0  0  0  0  0  0  0  0
    4.2061   -1.4220    2.2981 H   0  0  0  0  0  0  0  0  0  0  0  0
    3.1101   -2.3980    0.1081 H   0  0  0  0  0  0  0  0  0  0  0  0
    2.2356   -1.2237    1.2247 H   0  0  0  0  0  0  0  0  0  0  0  0
    0.6981   -2.2818   -0.2379 H   0  0  0  0  0  0  0  0  0  0  0  0
    0.2607   -3.4041   -2.1581 H   0  0  0  0  0  0  0  0  0  0  0  0
    1.6210   -4.0345   -1.2049 H   0  0  0  0  0  0  0  0  0  0  0  0
    1.7861   -3.8719   -2.9715 H   0  0  0  0  0  0  0  0  0  0  0  0
    3.9669   -0.8174   -1.2781 H   0  0  0  0  0  0  0  0  0  0  0  0
    2.6450    0.7798   -1.8499 H   0  0  0  0  0  0  0  0  0  0  0  0
    3.1918    2.8517   -1.3046 H   0  0  0  0  0  0  0  0  0  0  0  0
    4.4445    2.2878    1.3212 H   0  0  0  0  0  0  0  0  0  0  0  0
    2.8362    3.7581    2.0410 H   0  0  0  0  0  0  0  0  0  0  0  0
    4.5897    4.6571    1.3051 H   0  0  0  0  0  0  0  0  0  0  0  0
    5.3163    4.0037   -0.2180 H   0  0  0  0  0  0  0  0  0  0  0  0
    2.3975    4.8385   -0.1183 H   0  0  0  0  0  0  0  0  0  0  0  0
    3.7322    6.0806   -0.2110 H   0  0  0  0  0  0  0  0  0  0  0  0
    3.5468    4.8391   -1.5342 H   0  0  0  0  0  0  0  0  0  0  0  0
    1.4083    0.5701    0.9070 H   0  0  0  0  0  0  0  0  0  0  0  0
    0.8590    1.7786   -0.3897 H   0  0  0  0  0  0  0  0  0  0  0  0
    0.7109    0.0025   -2.0259 H   0  0  0  0  0  0  0  0  0  0  0  0
   -0.7479   -0.2698    0.5169 H   0  0  0  0  0  0  0  0  0  0  0  0
   -1.2685   -1.2074   -2.2219 H   0  0  0  0  0  0  0  0  0  0  0  0
   -3.1705   -0.0998   -2.2157 H   0  0  0  0  0  0  0  0  0  0  0  0
   -1.8686   -3.1357   -1.1172 H   0  0  0  0  0  0  0  0  0  0  0  0
   -2.4616   -3.3430    1.0816 H   0  0  0  0  0  0  0  0  0  0  0  0
   -1.6343   -1.8301    1.5172 H   0  0  0  0  0  0  0  0  0  0  0  0
   -4.4064   -2.1989    1.2361 H   0  0  0  0  0  0  0  0  0  0  0  0
   -3.5361   -0.6637    1.2801 H   0  0  0  0  0  0  0  0  0  0  0  0
   -3.7164   -2.3732   -1.2708 H   0  0  0  0  0  0  0  0  0  0  0  0
   -5.3247   -1.1616   -2.2873 H   0  0  0  0  0  0  0  0  0  0  0  0
   -6.5742    0.5718   -1.6205 H   0  0  0  0  0  0  0  0  0  0  0  0
   -4.6342    1.7534   -1.6916 H   0  0  0  0  0  0  0  0  0  0  0  0
   -4.0222    1.2611   -0.0528 H   0  0  0  0  0  0  0  0  0  0  0  0
   -5.5543    2.5194    1.0868 H   0  0  0  0  0  0  0  0  0  0  0  0
   -5.3755    3.5239   -0.4629 H   0  0  0  0  0  0  0  0  0  0  0  0
   -7.6417    3.2942    0.1856 H   0  0  0  0  0  0  0  0  0  0  0  0
   -7.4177    2.4580   -1.3649 H   0  0  0  0  0  0  0  0  0  0  0  0
   -8.1543    1.3687    1.3898 H   0  0  0  0  0  0  0  0  0  0  0  0
   -8.5830    0.8285   -0.2585 H   0  0  0  0  0  0  0  0  0  0  0  0
   -6.2057    0.0151    1.3421 H   0  0  0  0  0  0  0  0  0  0  0  0
   -7.7281   -2.9289    1.2491 H   0  0  0  0  0  0  0  0  0  0  0  0
   -9.1249   -1.9079    0.8108 H   0  0  0  0  0  0  0  0  0  0  0  0
   -8.0174   -1.2901    2.0345 H   0  0  0  0  0  0  0  0  0  0  0  0
   -6.8505   -2.5739   -1.4333 H   0  0  0  0  0  0  0  0  0  0  0  0
   -5.9130   -2.8056    0.0381 H   0  0  0  0  0  0  0  0  0  0  0  0
  1  2  1  0
  2  3  1  0
  2  4  1  0
  4  5  1  0
  5  6  1  0
  6  7  1  0
  8  9  1  0
  9 10  1  0
 10 11  1  0
  6 12  1  0
  8 12  1  0
 12 13  1  0
 13 14  1  0
 14 15  1  0
 15 16  1  0
 15 17  1  0
 17 18  1  0
 13 19  1  0
  9 20  1  0
 19 20  1  0
 20 21  1  0
 21 22  1  0
 22 23  1  0
 22 24  1  0
 24 25  1  0
 25 26  1  0
 23 27  1  0
 26 27  1  0
 27 28  1  0
 28 29  1  0
 29 30  1  0
 30 31  1  0
 31 32  1  0
 32 33  1  0
 29 34  1  0
 33 34  1  0
 34 35  1  0
 35 36  1  0
 28 37  1  0
 35 37  1  0
  1 38  1  0
  1 39  1  0
  1 40  1  0
  3 41  1  0
  3 42  1  0
  3 43  1  0
  4 44  1  0
  4 45  1  0
  5 46  1  0
  5 47  1  0
  7 48  1  0
  7 49  1  0
  7 50  1  0
  8 51  1  0
  8 52  1  0
  9 53  1  0
 11 54  1  0
 11 55  1  0
 11 56  1  0
 12 57  1  0
 13 58  1  6
 14 59  1  0
 15 60  1  0
 16 61  1  0
 17 62  1  0
 17 63  1  0
 18 64  1  0
 18 65  1  0
 18 66  1  0
 19 67  1  0
 19 68  1  0
 20 69  1  0
 21 70  1  0
 22 71  1  0
 23 72  1  0
 24 73  1  0
 25 74  1  0
 25 75  1  0
 26 76  1  0
 26 77  1  0
 27 78  1  0
 28 79  1  0
 29 80  1  0
 30 81  1  0
 30 82  1  0
 31 83  1  0
 31 84  1  0
 32 85  1  0
 32 86  1  0
 33 87  1  0
 33 88  1  0
 34 89  1  0
 36 90  1  0
 36 91  1  0
 36 92  1  0
 37 93  1  0
 37 94  1  0
M  END
>  <PDBID>  (1) 
4ZAU

>  <PDB ID>  (1) 
4ZAU

>  <Generic Name>  (1) 
Osimertinib

>  <Brand Name>  (1) 
Tagrisso

>  <DrugBank ID>  (1) 
DB09330

>  <ATC Codes>  (1) 
nan

>  <Ligand ID>  (1) 
YY3

>  <Target Name>  (1) 
Epidermal growth factor receptor

>  <UniProt ID>  (1) 
P00533

>  <PDB ID.1>  (1) 
4ZAU

>  <Seq. Identity>  (1) 
96%

$$$$
