PDB_DB00866_06
     RDKit          3D

 49 49  0  0  0  0  0  0  0  0999 V2000
    6.0181    0.2161   -1.1782 C   0  0  0  0  0  0  0  0  0  0  0  0
    4.1049   -0.6382    0.1148 N   0  0  0  0  0  0  0  0  0  0  0  0
    1.3893   -1.0198    0.6916 O   0  0  0  0  0  0  0  0  0  0  0  0
    5.3585   -0.9427   -0.5125 C   0  0  0  0  0  0  0  0  0  0  0  0
   -0.4342    0.9425   -0.3425 O   0  0  0  0  0  0  0  0  0  0  0  0
    6.2759   -1.5258    0.5398 C   0  0  0  0  0  0  0  0  0  0  0  0
    3.0864   -0.1971   -0.7994 C   0  0  0  0  0  0  0  0  0  0  0  0
    1.8262    0.1090    0.0132 C   0  0  1  0  0  0  0  0  0  0  0  0
    0.7088    0.5837   -0.8881 C   0  0  0  0  0  0  0  0  0  0  0  0
   -1.2720    0.2245    0.3763 C   0  0  0  0  0  0  0  0  0  0  0  0
   -1.6917    0.6676    1.7166 C   0  0  0  0  0  0  0  0  0  0  0  0
   -2.7270    1.7076    1.8070 C   0  0  0  0  0  0  0  0  0  0  0  0
   -3.3412    2.1587    0.5232 C   0  0  0  0  0  0  0  0  0  0  0  0
   -3.1185    1.3041   -0.6680 C   0  0  0  0  0  0  0  0  0  0  0  0
   -2.5783   -0.0523   -0.4345 C   0  0  0  0  0  0  0  0  0  0  0  0
   -3.3682   -1.0396    0.3012 C   0  0  0  0  0  0  0  0  0  0  0  0
   -4.6410   -1.5059   -0.3030 C   0  0  0  0  0  0  0  0  0  0  0  0
   -5.7157   -0.4925   -0.5127 C   0  0  0  0  0  0  0  0  0  0  0  0
    7.1183    0.1297   -1.0240 H   0  0  0  0  0  0  0  0  0  0  0  0
    5.7237    1.2087   -0.7830 H   0  0  0  0  0  0  0  0  0  0  0  0
    5.8638    0.1315   -2.2754 H   0  0  0  0  0  0  0  0  0  0  0  0
    4.1919   -0.0506    0.9742 H   0  0  0  0  0  0  0  0  0  0  0  0
    1.8377   -1.0414    1.5958 H   0  0  0  0  0  0  0  0  0  0  0  0
    5.1716   -1.7523   -1.2511 H   0  0  0  0  0  0  0  0  0  0  0  0
    6.5095   -2.6008    0.3411 H   0  0  0  0  0  0  0  0  0  0  0  0
    5.8177   -1.5002    1.5513 H   0  0  0  0  0  0  0  0  0  0  0  0
    7.2729   -1.0225    0.5385 H   0  0  0  0  0  0  0  0  0  0  0  0
    2.8275   -1.0511   -1.4607 H   0  0  0  0  0  0  0  0  0  0  0  0
    3.3355    0.6765   -1.3941 H   0  0  0  0  0  0  0  0  0  0  0  0
    2.1446    0.9031    0.7254 H   0  0  0  0  0  0  0  0  0  0  0  0
    1.1805    1.2877   -1.6031 H   0  0  0  0  0  0  0  0  0  0  0  0
    0.5060   -0.3213   -1.5502 H   0  0  0  0  0  0  0  0  0  0  0  0
   -0.8684   -0.8097    0.4664 H   0  0  0  0  0  0  0  0  0  0  0  0
   -1.9864   -0.2188    2.3151 H   0  0  0  0  0  0  0  0  0  0  0  0
   -0.7524    0.9994    2.2681 H   0  0  0  0  0  0  0  0  0  0  0  0
   -2.2990    2.5937    2.3718 H   0  0  0  0  0  0  0  0  0  0  0  0
   -3.5767    1.3977    2.4714 H   0  0  0  0  0  0  0  0  0  0  0  0
   -4.4246    2.3883    0.6005 H   0  0  0  0  0  0  0  0  0  0  0  0
   -2.8873    3.1722    0.2966 H   0  0  0  0  0  0  0  0  0  0  0  0
   -2.3207    1.8193   -1.3299 H   0  0  0  0  0  0  0  0  0  0  0  0
   -3.9818    1.2690   -1.3569 H   0  0  0  0  0  0  0  0  0  0  0  0
   -2.2879   -0.4887   -1.4180 H   0  0  0  0  0  0  0  0  0  0  0  0
   -2.7018   -1.9408    0.4959 H   0  0  0  0  0  0  0  0  0  0  0  0
   -3.6486   -0.7018    1.3463 H   0  0  0  0  0  0  0  0  0  0  0  0
   -5.0886   -2.2695    0.4195 H   0  0  0  0  0  0  0  0  0  0  0  0
   -4.4758   -2.0789   -1.2584 H   0  0  0  0  0  0  0  0  0  0  0  0
   -5.8019   -0.1150   -1.5607 H   0  0  0  0  0  0  0  0  0  0  0  0
   -6.7259   -0.8887   -0.1872 H   0  0  0  0  0  0  0  0  0  0  0  0
   -5.5537    0.3754    0.1434 H   0  0  0  0  0  0  0  0  0  0  0  0
  1  4  1  0
  2  4  1  0
  4  6  1  0
  2  7  1  0
  3  8  1  0
  7  8  1  0
  5  9  1  0
  8  9  1  0
  5 10  1  0
 10 11  1  0
 11 12  1  0
 12 13  1  0
 13 14  1  0
 10 15  1  0
 14 15  1  0
 15 16  1  0
 16 17  1  0
 17 18  1  0
  1 19  1  0
  1 20  1  0
  1 21  1  0
  2 22  1  0
  3 23  1  0
  4 24  1  0
  6 25  1  0
  6 26  1  0
  6 27  1  0
  7 28  1  0
  7 29  1  0
  8 30  1  1
  9 31  1  0
  9 32  1  0
 10 33  1  0
 11 34  1  0
 11 35  1  0
 12 36  1  0
 12 37  1  0
 13 38  1  0
 13 39  1  0
 14 40  1  0
 14 41  1  0
 15 42  1  0
 16 43  1  0
 16 44  1  0
 17 45  1  0
 17 46  1  0
 18 47  1  0
 18 48  1  0
 18 49  1  0
M  END
>  <PDBID>  (1) 
3NYA

>  <PDB ID>  (1) 
3NYA

>  <Generic Name>  (1) 
Alprenolol

>  <Brand Name>  (1) 
Apllobal#Aptin#Aptine#Aptol Duriles#Atenenol#Elp#Gubernal#Regletin#Skajilol#Yobir

>  <DrugBank ID>  (1) 
DB00866

>  <ATC Codes>  (1) 
C07AA01

>  <Ligand ID>  (1) 
JTZ

>  <Target Name>  (1) 
Beta-1 adrenergic receptor

>  <UniProt ID>  (1) 
P08588

>  <PDB ID.1>  (1) 
3NYA

>  <Seq. Identity>  (1) 
67%

$$$$
