PDB_DB01194_00
     RDKit          3D

 52 53  0  0  0  0  0  0  0  0999 V2000
    3.9795   -0.0531   -1.1267 C   0  0  0  0  0  0  0  0  0  0  0  0
   -0.9510   -0.0608    0.1294 C   0  0  0  0  0  0  0  0  0  0  0  0
   -0.2448    0.7518   -0.9378 C   0  0  1  0  0  0  0  0  0  0  0  0
   -0.1667   -1.2343    0.5500 C   0  0  2  0  0  0  0  0  0  0  0  0
    1.1319   -0.7918    1.1252 C   0  0  0  0  0  0  0  0  0  0  0  0
   -4.3861    1.3808   -0.7826 S   0  0  0  0  0  0  0  0  0  0  0  0
    5.0323   -0.1252   -0.0764 C   0  0  0  0  0  0  0  0  0  0  0  0
   -1.7704   -3.8248    0.8073 C   0  0  0  0  0  0  0  0  0  0  0  0
   -1.2929   -3.1488   -0.4668 C   0  0  0  0  0  0  0  0  0  0  0  0
   -1.5427    2.0357   -1.2013 S   0  0  0  0  0  0  0  0  0  0  0  0
   -5.3785    0.3773    0.1461 N   0  0  0  0  0  0  0  0  0  0  0  0
   -4.8457    2.9404    0.4020 O   0  0  0  0  0  0  0  0  0  0  0  0
   -4.8282    1.9127   -2.0076 O   0  0  0  0  0  0  0  0  0  0  0  0
   -2.8655    1.2428   -0.1999 C   0  0  0  0  0  0  0  0  0  0  0  0
   -2.3501   -0.2222   -0.3067 C   0  0  0  0  0  0  0  0  0  0  0  0
    1.1784    1.3982   -0.2709 S   0  0  0  0  0  0  0  0  0  0  0  0
    0.7255    2.4279    1.2381 O   0  0  0  0  0  0  0  0  0  0  0  0
    2.1381    2.4247   -1.2566 O   0  0  0  0  0  0  0  0  0  0  0  0
    2.0067    0.0269    0.3770 N   0  0  0  0  0  0  0  0  0  0  0  0
   -0.0996   -2.3846   -0.2603 N   0  0  0  0  0  0  0  0  0  0  0  0
    2.6706   -0.6670   -0.6940 C   0  0  0  0  0  0  0  0  0  0  0  0
    4.8283    0.4627    1.1217 O   0  0  0  0  0  0  0  0  0  0  0  0
    4.6925    1.8057    1.2121 C   0  0  0  0  0  0  0  0  0  0  0  0
    4.3383   -0.7143   -1.9712 H   0  0  0  0  0  0  0  0  0  0  0  0
    3.8726    0.9399   -1.5748 H   0  0  0  0  0  0  0  0  0  0  0  0
   -0.9825    0.6322    1.0256 H   0  0  0  0  0  0  0  0  0  0  0  0
   -0.0370    0.1948   -1.8423 H   0  0  0  0  0  0  0  0  0  0  0  0
   -0.7476   -1.6125    1.4970 H   0  0  0  0  0  0  0  0  0  0  0  0
    0.9346   -0.3309    2.1369 H   0  0  0  0  0  0  0  0  0  0  0  0
    1.7106   -1.7481    1.3323 H   0  0  0  0  0  0  0  0  0  0  0  0
    5.9988    0.3333   -0.4859 H   0  0  0  0  0  0  0  0  0  0  0  0
    5.3640   -1.1956    0.0984 H   0  0  0  0  0  0  0  0  0  0  0  0
   -2.2790   -3.1035    1.4808 H   0  0  0  0  0  0  0  0  0  0  0  0
   -0.9998   -4.4258    1.2969 H   0  0  0  0  0  0  0  0  0  0  0  0
   -2.5718   -4.5454    0.4787 H   0  0  0  0  0  0  0  0  0  0  0  0
   -2.1283   -2.6648   -0.9433 H   0  0  0  0  0  0  0  0  0  0  0  0
   -0.9890   -4.0125   -1.1453 H   0  0  0  0  0  0  0  0  0  0  0  0
   -6.3685    0.7336    0.2133 H   0  0  0  0  0  0  0  0  0  0  0  0
   -5.0050    0.3989    1.1234 H   0  0  0  0  0  0  0  0  0  0  0  0
   -5.7906    2.8902    0.1338 H   0  0  0  0  0  0  0  0  0  0  0  0
   -4.9838    2.8822   -2.2396 H   0  0  0  0  0  0  0  0  0  0  0  0
   -2.6517    1.5187    0.8508 H   0  0  0  0  0  0  0  0  0  0  0  0
   -2.9311   -0.8721    0.3303 H   0  0  0  0  0  0  0  0  0  0  0  0
   -2.4091   -0.4478   -1.4098 H   0  0  0  0  0  0  0  0  0  0  0  0
    0.1513    3.0913    0.8121 H   0  0  0  0  0  0  0  0  0  0  0  0
    1.6032    3.2276   -1.5071 H   0  0  0  0  0  0  0  0  0  0  0  0
    0.2464   -2.1339   -1.2205 H   0  0  0  0  0  0  0  0  0  0  0  0
    2.0477   -0.7141   -1.6116 H   0  0  0  0  0  0  0  0  0  0  0  0
    2.8628   -1.7011   -0.3646 H   0  0  0  0  0  0  0  0  0  0  0  0
    3.8743    2.2852    0.6795 H   0  0  0  0  0  0  0  0  0  0  0  0
    4.5580    2.0636    2.3113 H   0  0  0  0  0  0  0  0  0  0  0  0
    5.6505    2.3559    0.9564 H   0  0  0  0  0  0  0  0  0  0  0  0
  2  3  1  0
  2  4  1  0
  4  5  1  0
  1  7  1  0
  8  9  1  0
  3 10  1  0
  6 11  1  0
  6 12  1  0
  6 13  1  0
  6 14  1  0
 10 14  1  0
  2 15  1  0
 14 15  1  0
  3 16  1  0
 16 17  1  0
 16 18  1  0
  5 19  1  0
 16 19  1  0
  4 20  1  0
  9 20  1  0
  1 21  1  0
 19 21  1  0
  7 22  1  0
 22 23  1  0
  1 24  1  0
  1 25  1  0
  2 26  1  0
  3 27  1  6
  4 28  1  1
  5 29  1  0
  5 30  1  0
  7 31  1  0
  7 32  1  0
  8 33  1  0
  8 34  1  0
  8 35  1  0
  9 36  1  0
  9 37  1  0
 11 38  1  0
 11 39  1  0
 12 40  1  0
 13 41  1  0
 14 42  1  0
 15 43  1  0
 15 44  1  0
 17 45  1  0
 18 46  1  0
 20 47  1  0
 21 48  1  0
 21 49  1  0
 23 50  1  0
 23 51  1  0
 23 52  1  0
M  END
>  <PDBID>  (1) 
4M2R

>  <PDB ID>  (1) 
4M2R

>  <Generic Name>  (1) 
Brinzolamide

>  <Brand Name>  (1) 
Azarga#Azopt#Sandoz Brinzolamide#Simbrinza

>  <DrugBank ID>  (1) 
DB01194

>  <ATC Codes>  (1) 
S01EC54#S01EC04

>  <Ligand ID>  (1) 
BZ1

>  <Target Name>  (1) 
Carbonic anhydrase 2

>  <UniProt ID>  (1) 
P00918

>  <PDB ID.1>  (1) 
4M2R

>  <Seq. Identity>  (1) 
100%

$$$$
