PDB_DB05239_01
     RDKit          3D

 65 68  0  0  0  0  0  0  0  0999 V2000
   -0.9358    1.1080    0.5551 O   0  0  0  0  0  0  0  0  0  0  0  0
   -0.0769   -0.0718    0.7049 C   0  0  0  0  0  0  0  0  0  0  0  0
   -0.8020   -1.1343   -0.0769 C   0  0  0  0  0  0  0  0  0  0  0  0
   -0.1344   -2.4316   -0.0124 C   0  0  0  0  0  0  0  0  0  0  0  0
   -1.0113   -3.6030   -0.5067 C   0  0  0  0  0  0  0  0  0  0  0  0
   -2.1631   -3.6246    0.4352 C   0  0  2  0  0  0  0  0  0  0  0  0
   -2.9558   -4.7140    0.1607 F   0  0  0  0  0  0  0  0  0  0  0  0
   -2.9961   -2.3889    0.1893 C   0  0  1  0  0  0  0  0  0  0  0  0
   -3.9492   -2.4669    1.2285 F   0  0  0  0  0  0  0  0  0  0  0  0
   -2.2914   -1.1155    0.2381 C   0  0  2  0  0  0  0  0  0  0  0  0
   -2.9265   -0.0999   -0.5116 N   0  0  0  0  0  0  0  0  0  0  0  0
   -3.9727    0.6822   -0.0812 C   0  0  0  0  0  0  0  0  0  0  0  0
   -5.3371    0.1407    0.1302 C   0  0  0  0  0  0  0  0  0  0  0  0
   -6.3713    1.2453    0.1462 C   0  0  0  0  0  0  0  0  0  0  0  0
   -5.8278    2.5812    0.5473 C   0  0  1  0  0  0  0  0  0  0  0  0
   -5.3551    2.6607    2.6362 I   0  0  0  0  0  0  0  0  0  0  0  0
   -4.1078    1.8429   -1.0971 C   0  0  0  0  0  0  0  0  0  0  0  0
   -5.0116    1.4826   -2.0564 F   0  0  0  0  0  0  0  0  0  0  0  0
   -4.6433    3.0027   -0.2916 C   0  0  0  0  0  0  0  0  0  0  0  0
    1.1375    0.3861    0.2939 N   0  0  0  0  0  0  0  0  0  0  0  0
    2.0254    0.8597    1.3268 C   0  0  0  0  0  0  0  0  0  0  0  0
    3.1448    0.0331    0.7551 C   0  0  0  0  0  0  0  0  0  0  0  0
    2.1840   -0.0473   -0.4447 C   0  0  0  0  0  0  0  0  0  0  0  0
    3.3786   -1.1691    1.3782 O   0  0  0  0  0  0  0  0  0  0  0  0
    4.4314    0.7489    0.3998 C   0  0  2  0  0  0  0  0  0  0  0  0
    5.2310   -0.0458   -0.5968 C   0  0  0  0  0  0  0  0  0  0  0  0
    6.6997   -0.1138   -0.3295 C   0  0  0  0  0  0  0  0  0  0  0  0
    7.2538    1.1822    0.2060 C   0  0  0  0  0  0  0  0  0  0  0  0
    6.4838    1.5727    1.4286 C   0  0  0  0  0  0  0  0  0  0  0  0
    5.1970    1.0079    1.5578 N   0  0  0  0  0  0  0  0  0  0  0  0
   -0.9670    1.2141   -0.4396 H   0  0  0  0  0  0  0  0  0  0  0  0
   -0.2164   -0.2902    1.7948 H   0  0  0  0  0  0  0  0  0  0  0  0
   -0.7334   -0.7697   -1.1606 H   0  0  0  0  0  0  0  0  0  0  0  0
    0.7779   -2.5610   -0.6132 H   0  0  0  0  0  0  0  0  0  0  0  0
    0.1694   -2.6304    1.0625 H   0  0  0  0  0  0  0  0  0  0  0  0
   -0.3494   -4.4920   -0.4140 H   0  0  0  0  0  0  0  0  0  0  0  0
   -1.2776   -3.3893   -1.5489 H   0  0  0  0  0  0  0  0  0  0  0  0
   -1.7870   -3.6660    1.4822 H   0  0  0  0  0  0  0  0  0  0  0  0
   -3.5631   -2.5515   -0.7434 H   0  0  0  0  0  0  0  0  0  0  0  0
   -2.3217   -0.7655    1.3226 H   0  0  0  0  0  0  0  0  0  0  0  0
   -2.8272   -0.1292   -1.5412 H   0  0  0  0  0  0  0  0  0  0  0  0
   -3.6186    1.1772    0.9026 H   0  0  0  0  0  0  0  0  0  0  0  0
   -5.5218   -0.4584    1.0253 H   0  0  0  0  0  0  0  0  0  0  0  0
   -5.5906   -0.4966   -0.7615 H   0  0  0  0  0  0  0  0  0  0  0  0
   -7.1988    1.0137    0.8796 H   0  0  0  0  0  0  0  0  0  0  0  0
   -6.8913    1.3424   -0.8242 H   0  0  0  0  0  0  0  0  0  0  0  0
   -6.6265    3.3337    0.3832 H   0  0  0  0  0  0  0  0  0  0  0  0
   -3.1273    2.0495   -1.5430 H   0  0  0  0  0  0  0  0  0  0  0  0
   -4.9043    3.8118   -0.9946 H   0  0  0  0  0  0  0  0  0  0  0  0
   -3.8602    3.3566    0.4031 H   0  0  0  0  0  0  0  0  0  0  0  0
    1.7948    0.5491    2.3695 H   0  0  0  0  0  0  0  0  0  0  0  0
    2.2141    1.9662    1.2808 H   0  0  0  0  0  0  0  0  0  0  0  0
    2.5358    0.7862   -1.1650 H   0  0  0  0  0  0  0  0  0  0  0  0
    2.2769   -0.9600   -1.0218 H   0  0  0  0  0  0  0  0  0  0  0  0
    2.7873   -1.8983    1.1169 H   0  0  0  0  0  0  0  0  0  0  0  0
    4.1386    1.7409   -0.0458 H   0  0  0  0  0  0  0  0  0  0  0  0
    4.8804   -1.1164   -0.6480 H   0  0  0  0  0  0  0  0  0  0  0  0
    5.0940    0.4345   -1.6047 H   0  0  0  0  0  0  0  0  0  0  0  0
    7.1974   -0.3506   -1.2988 H   0  0  0  0  0  0  0  0  0  0  0  0
    6.9083   -0.9685    0.3441 H   0  0  0  0  0  0  0  0  0  0  0  0
    7.2658    1.9477   -0.5937 H   0  0  0  0  0  0  0  0  0  0  0  0
    8.3259    0.9746    0.4399 H   0  0  0  0  0  0  0  0  0  0  0  0
    6.4957    2.6871    1.5215 H   0  0  0  0  0  0  0  0  0  0  0  0
    7.0988    1.2235    2.3112 H   0  0  0  0  0  0  0  0  0  0  0  0
    5.1231    0.3744    2.3517 H   0  0  0  0  0  0  0  0  0  0  0  0
  1  2  1  0
  2  3  1  0
  3  4  1  0
  4  5  1  0
  5  6  1  0
  6  7  1  0
  6  8  1  0
  8  9  1  0
  3 10  1  0
  8 10  1  0
 10 11  1  0
 11 12  1  0
 12 13  1  0
 13 14  1  0
 14 15  1  0
 15 16  1  0
 12 17  1  0
 17 18  1  0
 15 19  1  0
 17 19  1  0
  2 20  1  0
 20 21  1  0
 21 22  1  0
 20 23  1  0
 22 23  1  0
 22 24  1  0
 22 25  1  0
 25 26  1  0
 26 27  1  0
 27 28  1  0
 28 29  1  0
 25 30  1  0
 29 30  1  0
  1 31  1  0
  2 32  1  0
  3 33  1  0
  4 34  1  0
  4 35  1  0
  5 36  1  0
  5 37  1  0
  6 38  1  1
  8 39  1  6
 10 40  1  1
 11 41  1  0
 12 42  1  0
 13 43  1  0
 13 44  1  0
 14 45  1  0
 14 46  1  0
 15 47  1  1
 17 48  1  0
 19 49  1  0
 19 50  1  0
 21 51  1  0
 21 52  1  0
 23 53  1  0
 23 54  1  0
 24 55  1  0
 25 56  1  6
 26 57  1  0
 26 58  1  0
 27 59  1  0
 27 60  1  0
 28 61  1  0
 28 62  1  0
 29 63  1  0
 29 64  1  0
 30 65  1  0
M  END
>  <PDBID>  (1) 
4LMN

>  <PDB ID>  (1) 
4LMN

>  <Generic Name>  (1) 
Cobimetinib

>  <Brand Name>  (1) 
Cotellic

>  <DrugBank ID>  (1) 
DB05239

>  <ATC Codes>  (1) 
nan

>  <Ligand ID>  (1) 
EUI

>  <Target Name>  (1) 
Dual specificity mitogen-activated protein kinase kinase 1

>  <UniProt ID>  (1) 
Q02750

>  <PDB ID.1>  (1) 
4LMN

>  <Seq. Identity>  (1) 
97%

$$$$
