PDB_DB12332_08
     RDKit          3D

116122  0  0  0  0  0  0  0  0999 V2000
   -2.9636    3.0066    0.6939 O   0  0  0  0  0  0  0  0  0  0  0  0
   -3.8020    2.0584    0.1443 C   0  0  1  0  0  0  0  0  0  0  0  0
   -3.7012    1.9432   -1.2717 N   0  0  0  0  0  0  0  0  0  0  0  0
   -2.2777    2.1743   -1.5774 C   0  0  0  0  0  0  0  0  0  0  0  0
   -1.6394    0.8091   -1.3858 C   0  0  0  0  0  0  0  0  0  0  0  0
   -1.2692    0.4822    0.0041 C   0  0  0  0  0  0  0  0  0  0  0  0
   -2.3182    0.1778    0.9807 C   0  0  0  0  0  0  0  0  0  0  0  0
   -3.6617    0.7388    0.8949 C   0  0  0  0  0  0  0  0  0  0  0  0
   -4.7800   -0.1883    0.5150 C   0  0  0  0  0  0  0  0  0  0  0  0
   -4.4428   -1.3623   -0.3144 C   0  0  0  0  0  0  0  0  0  0  0  0
   -4.6601   -1.0881   -1.6766 F   0  0  0  0  0  0  0  0  0  0  0  0
   -3.1186   -1.9917   -0.0490 C   0  0  0  0  0  0  0  0  0  0  0  0
   -2.3636   -1.3543    1.0580 C   0  0  0  0  0  0  0  0  0  0  0  0
   -0.9450   -1.6415    1.0340 N   0  0  0  0  0  0  0  0  0  0  0  0
   -0.4358   -0.7783   -0.0338 C   0  0  2  0  0  0  0  0  0  0  0  0
    1.0328   -0.5510    0.2646 C   0  0  0  0  0  0  0  0  0  0  0  0
    1.6641    0.4115   -0.7162 C   0  0  0  0  0  0  0  0  0  0  0  0
    3.1092    0.6359   -0.4321 C   0  0  0  0  0  0  0  0  0  0  0  0
    1.7377   -1.8936    0.0773 C   0  0  0  0  0  0  0  0  0  0  0  0
    3.1682   -1.7983   -0.2858 C   0  0  0  0  0  0  0  0  0  0  0  0
    3.8547   -0.5308    0.1121 C   0  0  0  0  0  0  0  0  0  0  0  0
    5.2677   -0.6272   -0.4849 C   0  0  0  0  0  0  0  0  0  0  0  0
    6.0643    0.5280   -0.2190 N   0  0  0  0  0  0  0  0  0  0  0  0
    6.4129    0.6834    1.1638 C   0  0  0  0  0  0  0  0  0  0  0  0
   -2.9636    3.0066    0.6939 O   0  0  0  0  0  0  0  0  0  0  0  0
   -3.8020    2.0584    0.1443 C   0  0  1  0  0  0  0  0  0  0  0  0
   -3.7012    1.9432   -1.2717 N   0  0  0  0  0  0  0  0  0  0  0  0
   -2.2777    2.1743   -1.5774 C   0  0  0  0  0  0  0  0  0  0  0  0
   -1.6394    0.8091   -1.3858 C   0  0  0  0  0  0  0  0  0  0  0  0
   -1.2692    0.4822    0.0041 C   0  0  0  0  0  0  0  0  0  0  0  0
   -2.3182    0.1778    0.9807 C   0  0  0  0  0  0  0  0  0  0  0  0
   -3.6617    0.7388    0.8949 C   0  0  0  0  0  0  0  0  0  0  0  0
   -4.7800   -0.1883    0.5150 C   0  0  0  0  0  0  0  0  0  0  0  0
   -4.4428   -1.3623   -0.3144 C   0  0  0  0  0  0  0  0  0  0  0  0
   -4.6601   -1.0881   -1.6766 F   0  0  0  0  0  0  0  0  0  0  0  0
   -3.1186   -1.9917   -0.0490 C   0  0  0  0  0  0  0  0  0  0  0  0
   -2.3636   -1.3543    1.0580 C   0  0  0  0  0  0  0  0  0  0  0  0
   -0.9450   -1.6415    1.0340 N   0  0  0  0  0  0  0  0  0  0  0  0
   -0.4358   -0.7783   -0.0338 C   0  0  2  0  0  0  0  0  0  0  0  0
    1.0328   -0.5510    0.2646 C   0  0  0  0  0  0  0  0  0  0  0  0
    1.6641    0.4115   -0.7162 C   0  0  0  0  0  0  0  0  0  0  0  0
    3.1092    0.6359   -0.4321 C   0  0  0  0  0  0  0  0  0  0  0  0
    1.7377   -1.8936    0.0773 C   0  0  0  0  0  0  0  0  0  0  0  0
    3.1682   -1.7983   -0.2858 C   0  0  0  0  0  0  0  0  0  0  0  0
    3.8547   -0.5308    0.1121 C   0  0  0  0  0  0  0  0  0  0  0  0
    5.2677   -0.6272   -0.4849 C   0  0  0  0  0  0  0  0  0  0  0  0
    6.0643    0.5280   -0.2190 N   0  0  0  0  0  0  0  0  0  0  0  0
    6.4129    0.6834    1.1638 C   0  0  0  0  0  0  0  0  0  0  0  0
   -3.4480    3.5148    1.3915 H   0  0  0  0  0  0  0  0  0  0  0  0
   -4.8661    2.3831    0.3527 H   0  0  0  0  0  0  0  0  0  0  0  0
   -4.3125    2.5876   -1.8036 H   0  0  0  0  0  0  0  0  0  0  0  0
   -2.2402    2.4051   -2.6597 H   0  0  0  0  0  0  0  0  0  0  0  0
   -1.8526    2.9456   -0.9334 H   0  0  0  0  0  0  0  0  0  0  0  0
   -0.7004    0.8455   -1.9920 H   0  0  0  0  0  0  0  0  0  0  0  0
   -2.2764    0.0961   -1.9122 H   0  0  0  0  0  0  0  0  0  0  0  0
   -0.5689    1.2933    0.3601 H   0  0  0  0  0  0  0  0  0  0  0  0
   -1.8505    0.4316    1.9914 H   0  0  0  0  0  0  0  0  0  0  0  0
   -3.9613    1.0778    1.9482 H   0  0  0  0  0  0  0  0  0  0  0  0
   -5.5493    0.4077   -0.0632 H   0  0  0  0  0  0  0  0  0  0  0  0
   -5.3778   -0.5469    1.4071 H   0  0  0  0  0  0  0  0  0  0  0  0
   -5.2396   -2.1475   -0.1230 H   0  0  0  0  0  0  0  0  0  0  0  0
   -2.4722   -2.0924   -0.9701 H   0  0  0  0  0  0  0  0  0  0  0  0
   -3.2423   -3.0730    0.2640 H   0  0  0  0  0  0  0  0  0  0  0  0
   -2.8281   -1.5930    2.0392 H   0  0  0  0  0  0  0  0  0  0  0  0
   -0.5592   -1.2190    1.9299 H   0  0  0  0  0  0  0  0  0  0  0  0
   -0.4949   -1.3099   -1.0008 H   0  0  0  0  0  0  0  0  0  0  0  0
    1.1086   -0.1788    1.2844 H   0  0  0  0  0  0  0  0  0  0  0  0
    1.5518    0.0519   -1.7515 H   0  0  0  0  0  0  0  0  0  0  0  0
    1.1798    1.4164   -0.6696 H   0  0  0  0  0  0  0  0  0  0  0  0
    3.5965    0.9257   -1.4094 H   0  0  0  0  0  0  0  0  0  0  0  0
    3.2557    1.4972    0.2534 H   0  0  0  0  0  0  0  0  0  0  0  0
    1.6120   -2.4438    1.0327 H   0  0  0  0  0  0  0  0  0  0  0  0
    1.2157   -2.4469   -0.7601 H   0  0  0  0  0  0  0  0  0  0  0  0
    3.3213   -1.9745   -1.3704 H   0  0  0  0  0  0  0  0  0  0  0  0
    3.7151   -2.6311    0.2459 H   0  0  0  0  0  0  0  0  0  0  0  0
    3.9308   -0.5139    1.2239 H   0  0  0  0  0  0  0  0  0  0  0  0
    5.1690   -0.7393   -1.5842 H   0  0  0  0  0  0  0  0  0  0  0  0
    5.7342   -1.5558   -0.0955 H   0  0  0  0  0  0  0  0  0  0  0  0
    6.8950    0.4866   -0.8243 H   0  0  0  0  0  0  0  0  0  0  0  0
    6.7820    1.7377    1.2824 H   0  0  0  0  0  0  0  0  0  0  0  0
    7.2690    0.0054    1.3709 H   0  0  0  0  0  0  0  0  0  0  0  0
    5.5710    0.5129    1.8519 H   0  0  0  0  0  0  0  0  0  0  0  0
   -3.4480    3.5148    1.3915 H   0  0  0  0  0  0  0  0  0  0  0  0
   -4.8661    2.3831    0.3527 H   0  0  0  0  0  0  0  0  0  0  0  0
   -4.3125    2.5876   -1.8036 H   0  0  0  0  0  0  0  0  0  0  0  0
   -2.2402    2.4051   -2.6597 H   0  0  0  0  0  0  0  0  0  0  0  0
   -1.8526    2.9456   -0.9334 H   0  0  0  0  0  0  0  0  0  0  0  0
   -0.7004    0.8455   -1.9920 H   0  0  0  0  0  0  0  0  0  0  0  0
   -2.2764    0.0961   -1.9122 H   0  0  0  0  0  0  0  0  0  0  0  0
   -0.5689    1.2933    0.3601 H   0  0  0  0  0  0  0  0  0  0  0  0
   -1.8505    0.4316    1.9914 H   0  0  0  0  0  0  0  0  0  0  0  0
   -3.9613    1.0778    1.9482 H   0  0  0  0  0  0  0  0  0  0  0  0
   -5.5493    0.4077   -0.0632 H   0  0  0  0  0  0  0  0  0  0  0  0
   -5.3778   -0.5469    1.4071 H   0  0  0  0  0  0  0  0  0  0  0  0
   -5.2396   -2.1475   -0.1230 H   0  0  0  0  0  0  0  0  0  0  0  0
   -2.4722   -2.0924   -0.9701 H   0  0  0  0  0  0  0  0  0  0  0  0
   -3.2423   -3.0730    0.2640 H   0  0  0  0  0  0  0  0  0  0  0  0
   -2.8281   -1.5930    2.0392 H   0  0  0  0  0  0  0  0  0  0  0  0
   -0.5592   -1.2190    1.9299 H   0  0  0  0  0  0  0  0  0  0  0  0
   -0.4949   -1.3099   -1.0008 H   0  0  0  0  0  0  0  0  0  0  0  0
    1.1086   -0.1788    1.2844 H   0  0  0  0  0  0  0  0  0  0  0  0
    1.5518    0.0519   -1.7515 H   0  0  0  0  0  0  0  0  0  0  0  0
    1.1798    1.4164   -0.6696 H   0  0  0  0  0  0  0  0  0  0  0  0
    3.5965    0.9257   -1.4094 H   0  0  0  0  0  0  0  0  0  0  0  0
    3.2557    1.4972    0.2534 H   0  0  0  0  0  0  0  0  0  0  0  0
    1.6120   -2.4438    1.0327 H   0  0  0  0  0  0  0  0  0  0  0  0
    1.2157   -2.4469   -0.7601 H   0  0  0  0  0  0  0  0  0  0  0  0
    3.3213   -1.9745   -1.3704 H   0  0  0  0  0  0  0  0  0  0  0  0
    3.7151   -2.6311    0.2459 H   0  0  0  0  0  0  0  0  0  0  0  0
    3.9308   -0.5139    1.2239 H   0  0  0  0  0  0  0  0  0  0  0  0
    5.1690   -0.7393   -1.5842 H   0  0  0  0  0  0  0  0  0  0  0  0
    5.7342   -1.5558   -0.0955 H   0  0  0  0  0  0  0  0  0  0  0  0
    6.8950    0.4866   -0.8243 H   0  0  0  0  0  0  0  0  0  0  0  0
    6.7820    1.7377    1.2824 H   0  0  0  0  0  0  0  0  0  0  0  0
    7.2690    0.0054    1.3709 H   0  0  0  0  0  0  0  0  0  0  0  0
    5.5710    0.5129    1.8519 H   0  0  0  0  0  0  0  0  0  0  0  0
  1  2  1  0
  2  3  1  0
  3  4  1  0
  4  5  1  0
  5  6  1  0
  6  7  1  0
  2  8  1  0
  7  8  1  0
  8  9  1  0
  9 10  1  0
 10 11  1  0
 10 12  1  0
  7 13  1  0
 12 13  1  0
 13 14  1  0
  6 15  1  0
 14 15  1  0
 15 16  1  0
 16 17  1  0
 17 18  1  0
 16 19  1  0
 19 20  1  0
 18 21  1  0
 20 21  1  0
 21 22  1  0
 22 23  1  0
 23 24  1  0
 25 26  1  0
 26 27  1  0
 27 28  1  0
 28 29  1  0
 29 30  1  0
 30 31  1  0
 26 32  1  0
 31 32  1  0
 32 33  1  0
 33 34  1  0
 34 35  1  0
 34 36  1  0
 31 37  1  0
 36 37  1  0
 37 38  1  0
 30 39  1  0
 38 39  1  0
 39 40  1  0
 40 41  1  0
 41 42  1  0
 40 43  1  0
 43 44  1  0
 42 45  1  0
 44 45  1  0
 45 46  1  0
 46 47  1  0
 47 48  1  0
  1 49  1  0
  2 50  1  6
  3 51  1  0
  4 52  1  0
  4 53  1  0
  5 54  1  0
  5 55  1  0
  6 56  1  0
  7 57  1  0
  8 58  1  0
  9 59  1  0
  9 60  1  0
 10 61  1  0
 12 62  1  0
 12 63  1  0
 13 64  1  0
 14 65  1  0
 15 66  1  6
 16 67  1  0
 17 68  1  0
 17 69  1  0
 18 70  1  0
 18 71  1  0
 19 72  1  0
 19 73  1  0
 20 74  1  0
 20 75  1  0
 21 76  1  0
 22 77  1  0
 22 78  1  0
 23 79  1  0
 24 80  1  0
 24 81  1  0
 24 82  1  0
 25 83  1  0
 26 84  1  6
 27 85  1  0
 28 86  1  0
 28 87  1  0
 29 88  1  0
 29 89  1  0
 30 90  1  0
 31 91  1  0
 32 92  1  0
 33 93  1  0
 33 94  1  0
 34 95  1  0
 36 96  1  0
 36 97  1  0
 37 98  1  0
 38 99  1  0
 39100  1  6
 40101  1  0
 41102  1  0
 41103  1  0
 42104  1  0
 42105  1  0
 43106  1  0
 43107  1  0
 44108  1  0
 44109  1  0
 45110  1  0
 46111  1  0
 46112  1  0
 47113  1  0
 48114  1  0
 48115  1  0
 48116  1  0
M  END
>  <PDBID>  (1) 
4RV6

>  <PDB ID>  (1) 
4RV6

>  <Generic Name>  (1) 
Rucaparib

>  <Brand Name>  (1) 
Rubraca

>  <DrugBank ID>  (1) 
DB12332

>  <ATC Codes>  (1) 
nan

>  <Ligand ID>  (1) 
RPB

>  <Target Name>  (1) 
Poly [ADP-ribose] polymerase 1

>  <UniProt ID>  (1) 
P09874

>  <PDB ID.1>  (1) 
4RV6

>  <Seq. Identity>  (1) 
100%

$$$$
