PDB_DB01030_03
     RDKit          3D

 72 76  0  0  0  0  0  0  0  0999 V2000
   -4.7761    1.3985   -0.4117 C   0  0  0  0  0  0  0  0  0  0  0  0
   -6.0174    2.2493   -0.2977 C   0  0  0  0  0  0  0  0  0  0  0  0
   -4.8032    0.3646    0.6827 C   0  0  2  0  0  0  0  0  0  0  0  0
   -4.8382    0.9856    1.9455 O   0  0  0  0  0  0  0  0  0  0  0  0
   -3.6576   -0.5862    0.6739 C   0  0  0  0  0  0  0  0  0  0  0  0
   -6.0725   -0.4487    0.5164 C   0  0  0  0  0  0  0  0  0  0  0  0
   -3.6239   -1.3547   -0.6010 C   0  0  0  0  0  0  0  0  0  0  0  0
   -2.3075    0.0604    0.8519 C   0  0  0  0  0  0  0  0  0  0  0  0
   -6.8270   -0.0765   -0.5749 O   0  0  0  0  0  0  0  0  0  0  0  0
   -5.7934   -1.8117    0.3704 O   0  0  0  0  0  0  0  0  0  0  0  0
   -2.4797   -2.3185   -0.6919 C   0  0  0  0  0  0  0  0  0  0  0  0
   -4.9804   -2.0522   -0.7382 C   0  0  0  0  0  0  0  0  0  0  0  0
   -1.3327   -1.0786    1.0484 C   0  0  0  0  0  0  0  0  0  0  0  0
   -2.9652   -3.5838   -0.2867 O   0  0  0  0  0  0  0  0  0  0  0  0
   -1.3243   -2.0333    0.0181 N   0  0  0  0  0  0  0  0  0  0  0  0
    0.0919   -0.5932    1.2363 C   0  0  0  0  0  0  0  0  0  0  0  0
   -0.0979   -1.8483   -0.7218 C   0  0  0  0  0  0  0  0  0  0  0  0
    0.8563   -1.5829    0.4239 C   0  0  0  0  0  0  0  0  0  0  0  0
    0.2665    0.7749    0.8191 N   0  0  0  0  0  0  0  0  0  0  0  0
    2.2207   -1.1478    0.0028 C   0  0  0  0  0  0  0  0  0  0  0  0
    1.6958    1.0550    1.0371 C   0  0  0  0  0  0  0  0  0  0  0  0
    2.4153    0.3181   -0.0754 C   0  0  0  0  0  0  0  0  0  0  0  0
    1.9922    2.5139    0.9894 C   0  0  0  0  0  0  0  0  0  0  0  0
    3.8460    0.7571   -0.1981 C   0  0  0  0  0  0  0  0  0  0  0  0
    3.4542    2.7114    1.2625 C   0  0  0  0  0  0  0  0  0  0  0  0
    4.2305    1.3974    1.1289 C   0  0  0  0  0  0  0  0  0  0  0  0
    4.8098   -0.3200   -0.5812 C   0  0  0  0  0  0  0  0  0  0  0  0
    6.1523    0.0919   -0.7009 N   0  0  0  0  0  0  0  0  0  0  0  0
    6.5327    0.9506   -1.7369 C   0  0  0  0  0  0  0  0  0  0  0  0
    7.1263   -0.6730   -0.0287 C   0  0  0  0  0  0  0  0  0  0  0  0
    5.5817    1.7389    1.1675 O   0  0  0  0  0  0  0  0  0  0  0  0
   -4.8481    0.8922   -1.4027 H   0  0  0  0  0  0  0  0  0  0  0  0
   -3.8465    1.9903   -0.4402 H   0  0  0  0  0  0  0  0  0  0  0  0
   -5.7225    3.3031   -0.1040 H   0  0  0  0  0  0  0  0  0  0  0  0
   -6.6806    2.1672   -1.1848 H   0  0  0  0  0  0  0  0  0  0  0  0
   -6.5960    1.9384    0.5919 H   0  0  0  0  0  0  0  0  0  0  0  0
   -5.0037    0.2774    2.5937 H   0  0  0  0  0  0  0  0  0  0  0  0
   -3.7915   -1.2711    1.5372 H   0  0  0  0  0  0  0  0  0  0  0  0
   -6.7030   -0.3808    1.4500 H   0  0  0  0  0  0  0  0  0  0  0  0
   -3.5429   -0.6463   -1.4515 H   0  0  0  0  0  0  0  0  0  0  0  0
   -2.2417    0.7078    1.7495 H   0  0  0  0  0  0  0  0  0  0  0  0
   -1.9922    0.6121   -0.0745 H   0  0  0  0  0  0  0  0  0  0  0  0
   -7.7597   -0.3724   -0.3963 H   0  0  0  0  0  0  0  0  0  0  0  0
   -2.2452   -2.4544   -1.7810 H   0  0  0  0  0  0  0  0  0  0  0  0
   -4.7753   -3.1344   -0.7517 H   0  0  0  0  0  0  0  0  0  0  0  0
   -5.4810   -1.7902   -1.6875 H   0  0  0  0  0  0  0  0  0  0  0  0
   -1.6146   -1.5759    2.0058 H   0  0  0  0  0  0  0  0  0  0  0  0
   -2.9660   -3.6361    0.6951 H   0  0  0  0  0  0  0  0  0  0  0  0
    0.4382   -0.6727    2.2863 H   0  0  0  0  0  0  0  0  0  0  0  0
   -0.2050   -0.9477   -1.3256 H   0  0  0  0  0  0  0  0  0  0  0  0
    0.2215   -2.7408   -1.2703 H   0  0  0  0  0  0  0  0  0  0  0  0
    0.9038   -2.5426    1.0079 H   0  0  0  0  0  0  0  0  0  0  0  0
    0.0137    0.9301   -0.1818 H   0  0  0  0  0  0  0  0  0  0  0  0
    2.4259   -1.6040   -0.9883 H   0  0  0  0  0  0  0  0  0  0  0  0
    2.9164   -1.5525    0.7987 H   0  0  0  0  0  0  0  0  0  0  0  0
    1.9207    0.6518    2.0405 H   0  0  0  0  0  0  0  0  0  0  0  0
    1.9060    0.6708   -1.0224 H   0  0  0  0  0  0  0  0  0  0  0  0
    1.6569    2.9804    0.0448 H   0  0  0  0  0  0  0  0  0  0  0  0
    1.4110    3.0126    1.8157 H   0  0  0  0  0  0  0  0  0  0  0  0
    3.9693    1.5756   -0.9582 H   0  0  0  0  0  0  0  0  0  0  0  0
    3.6288    3.0859    2.3035 H   0  0  0  0  0  0  0  0  0  0  0  0
    3.9297    3.4441    0.5935 H   0  0  0  0  0  0  0  0  0  0  0  0
    4.0399    0.7322    1.9842 H   0  0  0  0  0  0  0  0  0  0  0  0
    4.7809   -1.0998    0.2386 H   0  0  0  0  0  0  0  0  0  0  0  0
    4.5134   -0.8384   -1.5159 H   0  0  0  0  0  0  0  0  0  0  0  0
    7.5212    0.5916   -2.1499 H   0  0  0  0  0  0  0  0  0  0  0  0
    5.8205    0.8459   -2.5911 H   0  0  0  0  0  0  0  0  0  0  0  0
    6.7072    2.0090   -1.4636 H   0  0  0  0  0  0  0  0  0  0  0  0
    7.1814   -1.6846   -0.5143 H   0  0  0  0  0  0  0  0  0  0  0  0
    8.1370   -0.2627   -0.0442 H   0  0  0  0  0  0  0  0  0  0  0  0
    6.7829   -0.9078    1.0223 H   0  0  0  0  0  0  0  0  0  0  0  0
    5.8143    1.8390    2.1426 H   0  0  0  0  0  0  0  0  0  0  0  0
  1  2  1  0
  1  3  1  0
  3  4  1  1
  3  5  1  0
  3  6  1  0
  5  7  1  0
  5  8  1  0
  6  9  1  0
  6 10  1  0
  7 11  1  0
  7 12  1  0
 10 12  1  0
  8 13  1  0
 11 14  1  0
 11 15  1  0
 13 15  1  0
 13 16  1  0
 15 17  1  0
 16 18  1  0
 17 18  1  0
 16 19  1  0
 18 20  1  0
 19 21  1  0
 20 22  1  0
 21 22  1  0
 21 23  1  0
 22 24  1  0
 23 25  1  0
 24 26  1  0
 25 26  1  0
 24 27  1  0
 27 28  1  0
 28 29  1  0
 28 30  1  0
 26 31  1  0
  1 32  1  0
  1 33  1  0
  2 34  1  0
  2 35  1  0
  2 36  1  0
  4 37  1  0
  5 38  1  0
  6 39  1  0
  7 40  1  0
  8 41  1  0
  8 42  1  0
  9 43  1  0
 11 44  1  0
 12 45  1  0
 12 46  1  0
 13 47  1  0
 14 48  1  0
 16 49  1  0
 17 50  1  0
 17 51  1  0
 18 52  1  0
 19 53  1  0
 20 54  1  0
 20 55  1  0
 21 56  1  0
 22 57  1  0
 23 58  1  0
 23 59  1  0
 24 60  1  0
 25 61  1  0
 25 62  1  0
 26 63  1  0
 27 64  1  0
 27 65  1  0
 29 66  1  0
 29 67  1  0
 29 68  1  0
 30 69  1  0
 30 70  1  0
 30 71  1  0
 31 72  1  0
M  END
>  <PDBID>  (1) 
1K4T

>  <PDB ID>  (1) 
1K4T

>  <Generic Name>  (1) 
Topotecan

>  <Brand Name>  (1) 
Act Topotecan#Hycamtin#Mylan-topotecan Hydrochloride for Injection#PMS-topotecan#Topotecan#Topotecan Hydrochloride#Topotecan Hydrochloride for Injection#Topotecan Injection#Topotecan for Injection

>  <DrugBank ID>  (1) 
DB01030

>  <ATC Codes>  (1) 
L01XX17

>  <Ligand ID>  (1) 
TTC

>  <Target Name>  (1) 
DNA topoisomerase 1

>  <UniProt ID>  (1) 
P11387

>  <PDB ID.1>  (1) 
1K4T

>  <Seq. Identity>  (1) 
92%

$$$$
