PDB_DB06147_08
     RDKit          3D

 37 38  0  0  0  0  0  0  0  0999 V2000
   -0.0722   -1.6237   -0.8545 O   0  0  0  0  0  0  0  0  0  0  0  0
    0.3235   -0.2178   -0.3990 S   0  0  0  0  0  0  0  0  0  0  0  0
    0.7446   -0.6271    1.4124 O   0  0  0  0  0  0  0  0  0  0  0  0
   -1.0121    0.7960   -0.1404 C   0  0  0  0  0  0  0  0  0  0  0  0
   -1.7816    0.2478    1.0745 C   0  0  0  0  0  0  0  0  0  0  0  0
   -3.1258    0.9440    1.0631 C   0  0  0  0  0  0  0  0  0  0  0  0
   -1.9178    0.9547   -1.3131 C   0  0  0  0  0  0  0  0  0  0  0  0
   -3.1301    0.0546   -1.2759 C   0  0  0  0  0  0  0  0  0  0  0  0
   -3.9504    0.2509   -0.0226 C   0  0  0  0  0  0  0  0  0  0  0  0
   -4.2833   -1.0663    0.4888 N   0  0  0  0  0  0  0  0  0  0  0  0
    1.6765    0.4636   -0.7814 N   0  0  0  0  0  0  0  0  0  0  0  0
    2.8498   -0.2756   -0.4365 C   0  0  0  0  0  0  0  0  0  0  0  0
    4.3817    0.6151   -0.9330 S   0  0  0  0  0  0  0  0  0  0  0  0
    5.3533    0.1960    0.5741 C   0  0  0  0  0  0  0  0  0  0  0  0
    4.3850   -0.7657    1.2454 C   0  0  0  0  0  0  0  0  0  0  0  0
    3.0569   -0.2410    1.0214 N   0  0  0  0  0  0  0  0  0  0  0  0
    0.4684   -2.3934   -0.5300 H   0  0  0  0  0  0  0  0  0  0  0  0
    0.8186    0.2835    1.7404 H   0  0  0  0  0  0  0  0  0  0  0  0
   -0.6909    1.8112    0.1826 H   0  0  0  0  0  0  0  0  0  0  0  0
   -1.8839   -0.8459    0.8780 H   0  0  0  0  0  0  0  0  0  0  0  0
   -1.2000    0.4539    1.9757 H   0  0  0  0  0  0  0  0  0  0  0  0
   -2.9790    1.9730    0.7336 H   0  0  0  0  0  0  0  0  0  0  0  0
   -3.6301    0.8235    2.0301 H   0  0  0  0  0  0  0  0  0  0  0  0
   -2.3039    1.9995   -1.4448 H   0  0  0  0  0  0  0  0  0  0  0  0
   -1.3568    0.7122   -2.2274 H   0  0  0  0  0  0  0  0  0  0  0  0
   -2.8363   -0.9866   -1.4528 H   0  0  0  0  0  0  0  0  0  0  0  0
   -3.7741    0.3632   -2.1378 H   0  0  0  0  0  0  0  0  0  0  0  0
   -4.8502    0.8454   -0.1678 H   0  0  0  0  0  0  0  0  0  0  0  0
   -3.8099   -1.2983    1.3752 H   0  0  0  0  0  0  0  0  0  0  0  0
   -4.0382   -1.8319   -0.1919 H   0  0  0  0  0  0  0  0  0  0  0  0
    1.7702    0.7928   -1.7543 H   0  0  0  0  0  0  0  0  0  0  0  0
    2.8827   -1.2986   -0.8241 H   0  0  0  0  0  0  0  0  0  0  0  0
    5.5519    1.0834    1.1704 H   0  0  0  0  0  0  0  0  0  0  0  0
    6.2518   -0.3978    0.3063 H   0  0  0  0  0  0  0  0  0  0  0  0
    4.4553   -1.7690    0.8225 H   0  0  0  0  0  0  0  0  0  0  0  0
    4.5449   -0.8155    2.3211 H   0  0  0  0  0  0  0  0  0  0  0  0
    3.1117    0.7899    1.2488 H   0  0  0  0  0  0  0  0  0  0  0  0
  2  1  1  0
  2  3  1  0
  2  4  1  0
  4  5  1  0
  5  6  1  0
  4  7  1  0
  7  8  1  0
  6  9  1  0
  8  9  1  0
  9 10  1  0
  2 11  1  0
 11 12  1  0
 12 13  1  0
 13 14  1  0
 14 15  1  0
 12 16  1  0
 15 16  1  0
  1 17  1  0
  3 18  1  0
  4 19  1  0
  5 20  1  0
  5 21  1  0
  6 22  1  0
  6 23  1  0
  7 24  1  0
  7 25  1  0
  8 26  1  0
  8 27  1  0
  9 28  1  0
 10 29  1  0
 10 30  1  0
 11 31  1  0
 12 32  1  0
 14 33  1  0
 14 34  1  0
 15 35  1  0
 15 36  1  0
 16 37  1  0
M  END
>  <PDBID>  (1) 
3TYE

>  <PDB ID>  (1) 
3TYE

>  <Generic Name>  (1) 
Sulfathiazole

>  <Brand Name>  (1) 
Norsulfazolum#Sulfatiazol

>  <DrugBank ID>  (1) 
DB06147

>  <ATC Codes>  (1) 
J01EB07#D06BA02

>  <Ligand ID>  (1) 
YTZ

>  <Target Name>  (1) 
Dihydropteroate synthetase

>  <UniProt ID>  (1) 
Q27738

>  <PDB ID.1>  (1) 
3TYE

>  <Seq. Identity>  (1) 
35%

$$$$
