PDB_DB01764_05
     RDKit          3D

354360  0  0  0  0  0  0  0  0999 V2000
   -0.2752   -0.8406   -2.7592 O   0  0  0  0  0  0  0  0  0  0  0  0
   -0.2832    0.1035   -1.7636 C   0  0  0  0  0  0  0  0  0  0  0  0
   -1.5985    0.2802   -1.2503 N   0  0  0  0  0  0  0  0  0  0  0  0
   -2.5001    0.9056   -2.2150 C   0  0  0  0  0  0  0  0  0  0  0  0
   -3.8839    0.5066   -1.8277 C   0  0  0  0  0  0  0  0  0  0  0  0
   -3.6432   -0.3454   -0.5511 C   0  0  1  0  0  0  0  0  0  0  0  0
   -4.9015   -1.3431   -0.1773 S   0  0  0  0  0  0  0  0  0  0  0  0
   -5.2498   -2.4242   -1.0387 O   0  0  0  0  0  0  0  0  0  0  0  0
   -4.5949   -1.9067    1.4589 O   0  0  0  0  0  0  0  0  0  0  0  0
   -6.2745   -0.2198    0.1607 C   0  0  0  0  0  0  0  0  0  0  0  0
   -5.8673    0.6285    1.3054 C   0  0  0  0  0  0  0  0  0  0  0  0
   -6.8868    1.5855    1.6973 N   0  0  0  0  0  0  0  0  0  0  0  0
   -7.0966    2.6029    0.7077 C   0  0  0  0  0  0  0  0  0  0  0  0
   -5.8541    3.5010    0.6242 C   0  0  0  0  0  0  0  0  0  0  0  0
   -8.0609    0.9684    2.2160 C   0  0  0  0  0  0  0  0  0  0  0  0
   -9.0494    2.0404    2.6129 C   0  0  0  0  0  0  0  0  0  0  0  0
   -2.3176   -0.9498   -0.9620 C   0  0  2  0  0  0  0  0  0  0  0  0
    0.1310    1.4273   -2.4087 C   0  0  2  0  0  0  0  0  0  0  0  0
    1.5777    1.4349   -2.7782 C   0  0  0  0  0  0  0  0  0  0  0  0
    1.9198    2.7776   -2.6922 O   0  0  0  0  0  0  0  0  0  0  0  0
    0.0307    2.5145   -1.4575 N   0  0  0  0  0  0  0  0  0  0  0  0
    1.2215    3.2889   -1.6012 C   0  0  0  0  0  0  0  0  0  0  0  0
    2.1320    3.1722   -0.3789 C   0  0  0  0  0  0  0  0  0  0  0  0
    3.4800    3.7166   -0.7760 C   0  0  1  0  0  0  0  0  0  0  0  0
    3.2672    4.8828   -1.5183 O   0  0  0  0  0  0  0  0  0  0  0  0
    4.3578    3.9767    0.4284 C   0  0  0  0  0  0  0  0  0  0  0  0
    5.8105    3.9593    0.0848 C   0  0  2  0  0  0  0  0  0  0  0  0
    6.0104    4.8266   -0.9859 O   0  0  0  0  0  0  0  0  0  0  0  0
    6.3190    2.6107   -0.3159 C   0  0  0  0  0  0  0  0  0  0  0  0
    6.2705    1.6011    0.8079 C   0  0  2  0  0  0  0  0  0  0  0  0
    7.3266    1.9826    1.8203 C   0  0  0  0  0  0  0  0  0  0  0  0
    6.5357    0.2406    0.2038 C   0  0  0  0  0  0  0  0  0  0  0  0
    6.6587   -0.8279    1.2671 C   0  0  0  0  0  0  0  0  0  0  0  0
    5.4496   -0.7735    2.2008 C   0  0  0  0  0  0  0  0  0  0  0  0
    4.2761   -0.8698    1.3487 N   0  0  0  0  0  0  0  0  0  0  0  0
    3.6729   -2.1995    1.4091 C   0  0  2  0  0  0  0  0  0  0  0  0
    4.6734   -3.0445    1.9392 O   0  0  0  0  0  0  0  0  0  0  0  0
    3.3371   -2.6858    0.0365 C   0  0  0  0  0  0  0  0  0  0  0  0
    1.8980   -2.4986   -0.3469 C   0  0  0  0  0  0  0  0  0  0  0  0
    1.1374   -3.8066   -0.3722 C   0  0  1  0  0  0  0  0  0  0  0  0
    1.2810   -4.4356    0.9879 C   0  0  0  0  0  0  0  0  0  0  0  0
   -0.3496   -3.4772   -0.6734 C   0  0  1  0  0  0  0  0  0  0  0  0
   -1.1570   -4.7140   -0.3503 C   0  0  0  0  0  0  0  0  0  0  0  0
   -2.6321   -4.5765   -0.6034 C   0  0  0  0  0  0  0  0  0  0  0  0
   -0.6763   -5.9221   -1.1038 C   0  0  0  0  0  0  0  0  0  0  0  0
   -0.5894   -2.3721    0.0266 O   0  0  0  0  0  0  0  0  0  0  0  0
   -1.7363   -1.7290    0.1549 C   0  0  0  0  0  0  0  0  0  0  0  0
   -1.5276   -0.7551    1.1863 O   0  0  0  0  0  0  0  0  0  0  0  0
   -0.2752   -0.8406   -2.7592 O   0  0  0  0  0  0  0  0  0  0  0  0
   -0.2832    0.1035   -1.7636 C   0  0  0  0  0  0  0  0  0  0  0  0
   -1.5985    0.2802   -1.2503 N   0  0  0  0  0  0  0  0  0  0  0  0
   -2.5001    0.9056   -2.2150 C   0  0  0  0  0  0  0  0  0  0  0  0
   -3.8839    0.5066   -1.8277 C   0  0  0  0  0  0  0  0  0  0  0  0
   -3.6432   -0.3454   -0.5511 C   0  0  1  0  0  0  0  0  0  0  0  0
   -4.9015   -1.3431   -0.1773 S   0  0  0  0  0  0  0  0  0  0  0  0
   -5.2498   -2.4242   -1.0387 O   0  0  0  0  0  0  0  0  0  0  0  0
   -4.5949   -1.9067    1.4589 O   0  0  0  0  0  0  0  0  0  0  0  0
   -6.2745   -0.2198    0.1607 C   0  0  0  0  0  0  0  0  0  0  0  0
   -5.8673    0.6285    1.3054 C   0  0  0  0  0  0  0  0  0  0  0  0
   -6.8868    1.5855    1.6973 N   0  0  0  0  0  0  0  0  0  0  0  0
   -7.0966    2.6029    0.7077 C   0  0  0  0  0  0  0  0  0  0  0  0
   -5.8541    3.5010    0.6242 C   0  0  0  0  0  0  0  0  0  0  0  0
   -8.0609    0.9684    2.2160 C   0  0  0  0  0  0  0  0  0  0  0  0
   -9.0494    2.0404    2.6129 C   0  0  0  0  0  0  0  0  0  0  0  0
   -2.3176   -0.9498   -0.9620 C   0  0  2  0  0  0  0  0  0  0  0  0
    0.1310    1.4273   -2.4087 C   0  0  2  0  0  0  0  0  0  0  0  0
    1.5777    1.4349   -2.7782 C   0  0  0  0  0  0  0  0  0  0  0  0
    1.9198    2.7776   -2.6922 O   0  0  0  0  0  0  0  0  0  0  0  0
    0.0307    2.5145   -1.4575 N   0  0  0  0  0  0  0  0  0  0  0  0
    1.2215    3.2889   -1.6012 C   0  0  0  0  0  0  0  0  0  0  0  0
    2.1320    3.1722   -0.3789 C   0  0  0  0  0  0  0  0  0  0  0  0
    3.4800    3.7166   -0.7760 C   0  0  1  0  0  0  0  0  0  0  0  0
    3.2672    4.8828   -1.5183 O   0  0  0  0  0  0  0  0  0  0  0  0
    4.3578    3.9767    0.4284 C   0  0  0  0  0  0  0  0  0  0  0  0
    5.8105    3.9593    0.0848 C   0  0  2  0  0  0  0  0  0  0  0  0
    6.0104    4.8266   -0.9859 O   0  0  0  0  0  0  0  0  0  0  0  0
    6.3190    2.6107   -0.3159 C   0  0  0  0  0  0  0  0  0  0  0  0
    6.2705    1.6011    0.8079 C   0  0  2  0  0  0  0  0  0  0  0  0
    7.3266    1.9826    1.8203 C   0  0  0  0  0  0  0  0  0  0  0  0
    6.5357    0.2406    0.2038 C   0  0  0  0  0  0  0  0  0  0  0  0
    6.6587   -0.8279    1.2671 C   0  0  0  0  0  0  0  0  0  0  0  0
    5.4496   -0.7735    2.2008 C   0  0  0  0  0  0  0  0  0  0  0  0
    4.2761   -0.8698    1.3487 N   0  0  0  0  0  0  0  0  0  0  0  0
    3.6729   -2.1995    1.4091 C   0  0  2  0  0  0  0  0  0  0  0  0
    4.6734   -3.0445    1.9392 O   0  0  0  0  0  0  0  0  0  0  0  0
    3.3371   -2.6858    0.0365 C   0  0  0  0  0  0  0  0  0  0  0  0
    1.8980   -2.4986   -0.3469 C   0  0  0  0  0  0  0  0  0  0  0  0
    1.1374   -3.8066   -0.3722 C   0  0  1  0  0  0  0  0  0  0  0  0
    1.2810   -4.4356    0.9879 C   0  0  0  0  0  0  0  0  0  0  0  0
   -0.3496   -3.4772   -0.6734 C   0  0  1  0  0  0  0  0  0  0  0  0
   -1.1570   -4.7140   -0.3503 C   0  0  0  0  0  0  0  0  0  0  0  0
   -2.6321   -4.5765   -0.6034 C   0  0  0  0  0  0  0  0  0  0  0  0
   -0.6763   -5.9221   -1.1038 C   0  0  0  0  0  0  0  0  0  0  0  0
   -0.5894   -2.3721    0.0266 O   0  0  0  0  0  0  0  0  0  0  0  0
   -1.7363   -1.7290    0.1549 C   0  0  0  0  0  0  0  0  0  0  0  0
   -1.5276   -0.7551    1.1863 O   0  0  0  0  0  0  0  0  0  0  0  0
   -2.7484    2.0286   -1.6744 O   0  0  0  0  0  0  0  0  0  0  0  0
   -1.6604    1.2825   -1.1515 C   0  0  1  0  0  0  0  0  0  0  0  0
   -1.5878   -0.0356   -1.6692 N   0  0  0  0  0  0  0  0  0  0  0  0
   -2.4913   -0.0455   -2.8404 C   0  0  0  0  0  0  0  0  0  0  0  0
   -3.8799   -0.1075   -2.2542 C   0  0  0  0  0  0  0  0  0  0  0  0
   -3.6365   -0.3967   -0.7531 C   0  0  1  0  0  0  0  0  0  0  0  0
   -4.8734   -1.5401   -0.2471 S   0  0  0  0  0  0  0  0  0  0  0  0
   -4.8954   -2.7870   -1.0542 O   0  0  0  0  0  0  0  0  0  0  0  0
   -4.6430   -1.8226    1.3614 O   0  0  0  0  0  0  0  0  0  0  0  0
   -6.3755   -0.5994   -0.3494 C   0  0  0  0  0  0  0  0  0  0  0  0
   -6.2859    0.5572    0.5754 C   0  0  0  0  0  0  0  0  0  0  0  0
   -7.4177    1.4040    0.5940 N   0  0  0  0  0  0  0  0  0  0  0  0
   -7.7218    2.1864   -0.5245 C   0  0  0  0  0  0  0  0  0  0  0  0
   -6.6650    3.2584   -0.6965 C   0  0  0  0  0  0  0  0  0  0  0  0
   -8.1361    1.5567    1.7906 C   0  0  0  0  0  0  0  0  0  0  0  0
   -7.2731    2.3061    2.8052 C   0  0  0  0  0  0  0  0  0  0  0  0
   -2.2812   -1.0676   -0.8797 C   0  0  2  0  0  0  0  0  0  0  0  0
   -0.4295    2.0855   -1.5825 C   0  0  2  0  0  0  0  0  0  0  0  0
    0.6497    1.2408   -2.1796 C   0  0  0  0  0  0  0  0  0  0  0  0
    1.7947    1.4735   -1.3873 O   0  0  0  0  0  0  0  0  0  0  0  0
    0.1849    2.7599   -0.4630 N   0  0  0  0  0  0  0  0  0  0  0  0
    1.5853    2.7431   -0.8362 C   0  0  1  0  0  0  0  0  0  0  0  0
    2.4784    3.0477    0.3185 C   0  0  0  0  0  0  0  0  0  0  0  0
    3.7906    3.5742   -0.2629 C   0  0  1  0  0  0  0  0  0  0  0  0
    3.4300    4.6015   -1.1439 O   0  0  0  0  0  0  0  0  0  0  0  0
    4.7253    4.0788    0.7851 C   0  0  0  0  0  0  0  0  0  0  0  0
    6.1369    4.1145    0.2574 C   0  0  2  0  0  0  0  0  0  0  0  0
    6.1773    4.9923   -0.8036 O   0  0  0  0  0  0  0  0  0  0  0  0
    6.6259    2.7762   -0.2187 C   0  0  0  0  0  0  0  0  0  0  0  0
    6.4203    1.6864    0.8415 C   0  0  2  0  0  0  0  0  0  0  0  0
    7.3995    1.9586    1.9467 C   0  0  0  0  0  0  0  0  0  0  0  0
    6.6462    0.3721    0.1610 C   0  0  0  0  0  0  0  0  0  0  0  0
    7.0747   -0.7312    1.0771 C   0  0  0  0  0  0  0  0  0  0  0  0
    5.9761   -1.2796    1.9372 C   0  0  0  0  0  0  0  0  0  0  0  0
    4.7248   -1.1120    1.2536 N   0  0  0  0  0  0  0  0  0  0  0  0
    3.9256   -2.3164    1.2208 C   0  0  2  0  0  0  0  0  0  0  0  0
    4.7490   -3.4156    1.4674 O   0  0  0  0  0  0  0  0  0  0  0  0
    3.1901   -2.4238   -0.0985 C   0  0  0  0  0  0  0  0  0  0  0  0
    1.6972   -2.2272    0.0837 C   0  0  0  0  0  0  0  0  0  0  0  0
    1.0121   -3.5421   -0.3175 C   0  0  1  0  0  0  0  0  0  0  0  0
    1.6313   -4.6164    0.4875 C   0  0  0  0  0  0  0  0  0  0  0  0
   -0.4886   -3.4392   -0.2876 C   0  0  1  0  0  0  0  0  0  0  0  0
   -1.0734   -4.8271    0.0476 C   0  0  0  0  0  0  0  0  0  0  0  0
   -2.6059   -4.7563    0.0692 C   0  0  0  0  0  0  0  0  0  0  0  0
   -0.6974   -5.8810   -0.9241 C   0  0  0  0  0  0  0  0  0  0  0  0
   -1.0418   -2.6076    0.5884 O   0  0  0  0  0  0  0  0  0  0  0  0
   -1.6098   -1.4351    0.3594 C   0  0  0  0  0  0  0  0  0  0  0  0
   -0.6819   -0.4316    0.7589 O   0  0  0  0  0  0  0  0  0  0  0  0
   -0.0624   -0.5087   -3.6544 H   0  0  0  0  0  0  0  0  0  0  0  0
    0.3926   -0.1043   -0.9115 H   0  0  0  0  0  0  0  0  0  0  0  0
   -2.2513    0.4525   -3.2182 H   0  0  0  0  0  0  0  0  0  0  0  0
   -2.3868    2.0007   -2.2483 H   0  0  0  0  0  0  0  0  0  0  0  0
   -4.3275   -0.2043   -2.5565 H   0  0  0  0  0  0  0  0  0  0  0  0
   -4.5558    1.3466   -1.6029 H   0  0  0  0  0  0  0  0  0  0  0  0
   -3.4260    0.4249    0.2162 H   0  0  0  0  0  0  0  0  0  0  0  0
   -5.5771   -3.3312   -0.8416 H   0  0  0  0  0  0  0  0  0  0  0  0
   -4.1215   -1.2105    1.9387 H   0  0  0  0  0  0  0  0  0  0  0  0
   -7.1533   -0.8252    0.4465 H   0  0  0  0  0  0  0  0  0  0  0  0
   -6.4060    0.3188   -0.7895 H   0  0  0  0  0  0  0  0  0  0  0  0
   -5.7558   -0.0489    2.2001 H   0  0  0  0  0  0  0  0  0  0  0  0
   -4.9439    1.1905    1.2106 H   0  0  0  0  0  0  0  0  0  0  0  0
   -7.3917    2.2287   -0.2792 H   0  0  0  0  0  0  0  0  0  0  0  0
   -7.8985    3.2768    1.0657 H   0  0  0  0  0  0  0  0  0  0  0  0
   -5.6022    3.8006    1.6640 H   0  0  0  0  0  0  0  0  0  0  0  0
   -4.9921    2.9820    0.2041 H   0  0  0  0  0  0  0  0  0  0  0  0
   -6.1464    4.4230    0.0531 H   0  0  0  0  0  0  0  0  0  0  0  0
   -8.5193    0.2052    1.5535 H   0  0  0  0  0  0  0  0  0  0  0  0
   -7.7672    0.4590    3.1808 H   0  0  0  0  0  0  0  0  0  0  0  0
   -8.4626    2.9121    2.9758 H   0  0  0  0  0  0  0  0  0  0  0  0
   -9.7406    1.6652    3.3996 H   0  0  0  0  0  0  0  0  0  0  0  0
   -9.5941    2.3723    1.7073 H   0  0  0  0  0  0  0  0  0  0  0  0
   -2.4744   -1.4744   -1.8997 H   0  0  0  0  0  0  0  0  0  0  0  0
   -0.5436    1.6288   -3.2690 H   0  0  0  0  0  0  0  0  0  0  0  0
    1.6627    1.0697   -3.8223 H   0  0  0  0  0  0  0  0  0  0  0  0
    2.1501    0.8418   -2.0547 H   0  0  0  0  0  0  0  0  0  0  0  0
    0.0356    2.0853   -0.4956 H   0  0  0  0  0  0  0  0  0  0  0  0
    0.9362    4.3497   -1.7440 H   0  0  0  0  0  0  0  0  0  0  0  0
    2.2602    2.0684   -0.1922 H   0  0  0  0  0  0  0  0  0  0  0  0
    1.6826    3.6873    0.4838 H   0  0  0  0  0  0  0  0  0  0  0  0
    3.9373    2.9792   -1.4764 H   0  0  0  0  0  0  0  0  0  0  0  0
    3.0383    5.6392   -0.8922 H   0  0  0  0  0  0  0  0  0  0  0  0
    4.1179    5.0224    0.7736 H   0  0  0  0  0  0  0  0  0  0  0  0
    4.0635    3.2828    1.2226 H   0  0  0  0  0  0  0  0  0  0  0  0
    6.3776    4.2738    0.9910 H   0  0  0  0  0  0  0  0  0  0  0  0
    6.3042    5.7046   -0.6426 H   0  0  0  0  0  0  0  0  0  0  0  0
    5.8449    2.2302   -1.2442 H   0  0  0  0  0  0  0  0  0  0  0  0
    7.4056    2.7404   -0.5773 H   0  0  0  0  0  0  0  0  0  0  0  0
    5.2831    1.6461    1.2754 H   0  0  0  0  0  0  0  0  0  0  0  0
    6.9347    2.7885    2.4490 H   0  0  0  0  0  0  0  0  0  0  0  0
    8.1870    2.4033    1.2442 H   0  0  0  0  0  0  0  0  0  0  0  0
    7.6167    1.1425    2.4703 H   0  0  0  0  0  0  0  0  0  0  0  0
    5.6682   -0.0196   -0.4185 H   0  0  0  0  0  0  0  0  0  0  0  0
    7.4698    0.2719   -0.3583 H   0  0  0  0  0  0  0  0  0  0  0  0
    7.6013   -0.7933    1.8136 H   0  0  0  0  0  0  0  0  0  0  0  0
    6.6024   -1.8040    0.7453 H   0  0  0  0  0  0  0  0  0  0  0  0
    5.4562    0.1537    2.8047 H   0  0  0  0  0  0  0  0  0  0  0  0
    5.5509   -1.6191    2.8886 H   0  0  0  0  0  0  0  0  0  0  0  0
    3.5502   -0.1593    1.5922 H   0  0  0  0  0  0  0  0  0  0  0  0
    2.8276   -2.1432    2.0943 H   0  0  0  0  0  0  0  0  0  0  0  0
    5.0848   -3.6012    1.2310 H   0  0  0  0  0  0  0  0  0  0  0  0
    3.9557   -2.0868   -0.6841 H   0  0  0  0  0  0  0  0  0  0  0  0
    3.6696   -3.7501   -0.1380 H   0  0  0  0  0  0  0  0  0  0  0  0
    1.8036   -1.9880   -1.3467 H   0  0  0  0  0  0  0  0  0  0  0  0
    1.4501   -1.8096    0.3912 H   0  0  0  0  0  0  0  0  0  0  0  0
    1.5838   -4.4185   -1.1758 H   0  0  0  0  0  0  0  0  0  0  0  0
    2.3452   -4.3584    1.2954 H   0  0  0  0  0  0  0  0  0  0  0  0
    0.6951   -3.9029    1.7636 H   0  0  0  0  0  0  0  0  0  0  0  0
    0.9843   -5.4888    1.0335 H   0  0  0  0  0  0  0  0  0  0  0  0
   -0.3649   -3.3979   -1.7891 H   0  0  0  0  0  0  0  0  0  0  0  0
   -1.0558   -4.8612    0.7665 H   0  0  0  0  0  0  0  0  0  0  0  0
   -3.2520   -4.5971    0.3299 H   0  0  0  0  0  0  0  0  0  0  0  0
   -3.0233   -5.4954   -1.1522 H   0  0  0  0  0  0  0  0  0  0  0  0
   -2.8812   -3.7571   -1.2937 H   0  0  0  0  0  0  0  0  0  0  0  0
   -0.5080   -6.7501   -0.3530 H   0  0  0  0  0  0  0  0  0  0  0  0
    0.1765   -5.7607   -1.7556 H   0  0  0  0  0  0  0  0  0  0  0  0
   -1.4843   -6.3534   -1.7690 H   0  0  0  0  0  0  0  0  0  0  0  0
   -2.5106   -2.3786    0.6117 H   0  0  0  0  0  0  0  0  0  0  0  0
   -1.2947    0.1157    0.7810 H   0  0  0  0  0  0  0  0  0  0  0  0
   -0.0624   -0.5087   -3.6544 H   0  0  0  0  0  0  0  0  0  0  0  0
    0.3926   -0.1043   -0.9115 H   0  0  0  0  0  0  0  0  0  0  0  0
   -2.2513    0.4525   -3.2182 H   0  0  0  0  0  0  0  0  0  0  0  0
   -2.3868    2.0007   -2.2483 H   0  0  0  0  0  0  0  0  0  0  0  0
   -4.3275   -0.2043   -2.5565 H   0  0  0  0  0  0  0  0  0  0  0  0
   -4.5558    1.3466   -1.6029 H   0  0  0  0  0  0  0  0  0  0  0  0
   -3.4260    0.4249    0.2162 H   0  0  0  0  0  0  0  0  0  0  0  0
   -5.5771   -3.3312   -0.8416 H   0  0  0  0  0  0  0  0  0  0  0  0
   -4.1215   -1.2105    1.9387 H   0  0  0  0  0  0  0  0  0  0  0  0
   -7.1533   -0.8252    0.4465 H   0  0  0  0  0  0  0  0  0  0  0  0
   -6.4060    0.3188   -0.7895 H   0  0  0  0  0  0  0  0  0  0  0  0
   -5.7558   -0.0489    2.2001 H   0  0  0  0  0  0  0  0  0  0  0  0
   -4.9439    1.1905    1.2106 H   0  0  0  0  0  0  0  0  0  0  0  0
   -7.3917    2.2287   -0.2792 H   0  0  0  0  0  0  0  0  0  0  0  0
   -7.8985    3.2768    1.0657 H   0  0  0  0  0  0  0  0  0  0  0  0
   -5.6022    3.8006    1.6640 H   0  0  0  0  0  0  0  0  0  0  0  0
   -4.9921    2.9820    0.2041 H   0  0  0  0  0  0  0  0  0  0  0  0
   -6.1464    4.4230    0.0531 H   0  0  0  0  0  0  0  0  0  0  0  0
   -8.5193    0.2052    1.5535 H   0  0  0  0  0  0  0  0  0  0  0  0
   -7.7672    0.4590    3.1808 H   0  0  0  0  0  0  0  0  0  0  0  0
   -8.4626    2.9121    2.9758 H   0  0  0  0  0  0  0  0  0  0  0  0
   -9.7406    1.6652    3.3996 H   0  0  0  0  0  0  0  0  0  0  0  0
   -9.5941    2.3723    1.7073 H   0  0  0  0  0  0  0  0  0  0  0  0
   -2.4744   -1.4744   -1.8997 H   0  0  0  0  0  0  0  0  0  0  0  0
   -0.5436    1.6288   -3.2690 H   0  0  0  0  0  0  0  0  0  0  0  0
    1.6627    1.0697   -3.8223 H   0  0  0  0  0  0  0  0  0  0  0  0
    2.1501    0.8418   -2.0547 H   0  0  0  0  0  0  0  0  0  0  0  0
    0.0356    2.0853   -0.4956 H   0  0  0  0  0  0  0  0  0  0  0  0
    0.9362    4.3497   -1.7440 H   0  0  0  0  0  0  0  0  0  0  0  0
    2.2602    2.0684   -0.1922 H   0  0  0  0  0  0  0  0  0  0  0  0
    1.6826    3.6873    0.4838 H   0  0  0  0  0  0  0  0  0  0  0  0
    3.9373    2.9792   -1.4764 H   0  0  0  0  0  0  0  0  0  0  0  0
    3.0383    5.6392   -0.8922 H   0  0  0  0  0  0  0  0  0  0  0  0
    4.1179    5.0224    0.7736 H   0  0  0  0  0  0  0  0  0  0  0  0
    4.0635    3.2828    1.2226 H   0  0  0  0  0  0  0  0  0  0  0  0
    6.3776    4.2738    0.9910 H   0  0  0  0  0  0  0  0  0  0  0  0
    6.3042    5.7046   -0.6426 H   0  0  0  0  0  0  0  0  0  0  0  0
    5.8449    2.2302   -1.2442 H   0  0  0  0  0  0  0  0  0  0  0  0
    7.4056    2.7404   -0.5773 H   0  0  0  0  0  0  0  0  0  0  0  0
    5.2831    1.6461    1.2754 H   0  0  0  0  0  0  0  0  0  0  0  0
    6.9347    2.7885    2.4490 H   0  0  0  0  0  0  0  0  0  0  0  0
    8.1870    2.4033    1.2442 H   0  0  0  0  0  0  0  0  0  0  0  0
    7.6167    1.1425    2.4703 H   0  0  0  0  0  0  0  0  0  0  0  0
    5.6682   -0.0196   -0.4185 H   0  0  0  0  0  0  0  0  0  0  0  0
    7.4698    0.2719   -0.3583 H   0  0  0  0  0  0  0  0  0  0  0  0
    7.6013   -0.7933    1.8136 H   0  0  0  0  0  0  0  0  0  0  0  0
    6.6024   -1.8040    0.7453 H   0  0  0  0  0  0  0  0  0  0  0  0
    5.4562    0.1537    2.8047 H   0  0  0  0  0  0  0  0  0  0  0  0
    5.5509   -1.6191    2.8886 H   0  0  0  0  0  0  0  0  0  0  0  0
    3.5502   -0.1593    1.5922 H   0  0  0  0  0  0  0  0  0  0  0  0
    2.8276   -2.1432    2.0943 H   0  0  0  0  0  0  0  0  0  0  0  0
    5.0848   -3.6012    1.2310 H   0  0  0  0  0  0  0  0  0  0  0  0
    3.9557   -2.0868   -0.6841 H   0  0  0  0  0  0  0  0  0  0  0  0
    3.6696   -3.7501   -0.1380 H   0  0  0  0  0  0  0  0  0  0  0  0
    1.8036   -1.9880   -1.3467 H   0  0  0  0  0  0  0  0  0  0  0  0
    1.4501   -1.8096    0.3912 H   0  0  0  0  0  0  0  0  0  0  0  0
    1.5838   -4.4185   -1.1758 H   0  0  0  0  0  0  0  0  0  0  0  0
    2.3452   -4.3584    1.2954 H   0  0  0  0  0  0  0  0  0  0  0  0
    0.6951   -3.9029    1.7636 H   0  0  0  0  0  0  0  0  0  0  0  0
    0.9843   -5.4888    1.0335 H   0  0  0  0  0  0  0  0  0  0  0  0
   -0.3649   -3.3979   -1.7891 H   0  0  0  0  0  0  0  0  0  0  0  0
   -1.0558   -4.8612    0.7665 H   0  0  0  0  0  0  0  0  0  0  0  0
   -3.2520   -4.5971    0.3299 H   0  0  0  0  0  0  0  0  0  0  0  0
   -3.0233   -5.4954   -1.1522 H   0  0  0  0  0  0  0  0  0  0  0  0
   -2.8812   -3.7571   -1.2937 H   0  0  0  0  0  0  0  0  0  0  0  0
   -0.5080   -6.7501   -0.3530 H   0  0  0  0  0  0  0  0  0  0  0  0
    0.1765   -5.7607   -1.7556 H   0  0  0  0  0  0  0  0  0  0  0  0
   -1.4843   -6.3534   -1.7690 H   0  0  0  0  0  0  0  0  0  0  0  0
   -2.5106   -2.3786    0.6117 H   0  0  0  0  0  0  0  0  0  0  0  0
   -1.2947    0.1157    0.7810 H   0  0  0  0  0  0  0  0  0  0  0  0
   -2.4863    2.6896   -2.3311 H   0  0  0  0  0  0  0  0  0  0  0  0
   -1.7517    1.4114   -0.0757 H   0  0  0  0  0  0  0  0  0  0  0  0
   -2.3252   -0.9619   -3.4501 H   0  0  0  0  0  0  0  0  0  0  0  0
   -2.4015    0.8732   -3.4296 H   0  0  0  0  0  0  0  0  0  0  0  0
   -4.4582   -0.9817   -2.6846 H   0  0  0  0  0  0  0  0  0  0  0  0
   -4.5073    0.7581   -2.4233 H   0  0  0  0  0  0  0  0  0  0  0  0
   -3.6063    0.5085   -0.1577 H   0  0  0  0  0  0  0  0  0  0  0  0
   -5.6865   -3.2414   -1.4402 H   0  0  0  0  0  0  0  0  0  0  0  0
   -4.6130   -1.0276    1.9447 H   0  0  0  0  0  0  0  0  0  0  0  0
   -7.2182   -1.2793   -0.1015 H   0  0  0  0  0  0  0  0  0  0  0  0
   -6.4220   -0.2577   -1.4073 H   0  0  0  0  0  0  0  0  0  0  0  0
   -6.2044    0.1206    1.6200 H   0  0  0  0  0  0  0  0  0  0  0  0
   -5.3901    1.1587    0.3601 H   0  0  0  0  0  0  0  0  0  0  0  0
   -7.9110    1.6353   -1.4657 H   0  0  0  0  0  0  0  0  0  0  0  0
   -8.6753    2.7465   -0.3092 H   0  0  0  0  0  0  0  0  0  0  0  0
   -6.1839    3.4822    0.2810 H   0  0  0  0  0  0  0  0  0  0  0  0
   -5.8672    2.9528   -1.4078 H   0  0  0  0  0  0  0  0  0  0  0  0
   -7.0899    4.2161   -1.0614 H   0  0  0  0  0  0  0  0  0  0  0  0
   -8.5263    0.6082    2.2207 H   0  0  0  0  0  0  0  0  0  0  0  0
   -9.0157    2.2053    1.6201 H   0  0  0  0  0  0  0  0  0  0  0  0
   -6.2467    1.8808    2.8435 H   0  0  0  0  0  0  0  0  0  0  0  0
   -7.7539    2.3144    3.8000 H   0  0  0  0  0  0  0  0  0  0  0  0
   -7.1984    3.3483    2.4516 H   0  0  0  0  0  0  0  0  0  0  0  0
   -2.4503   -1.8858   -1.6136 H   0  0  0  0  0  0  0  0  0  0  0  0
   -0.6902    2.8657   -2.3341 H   0  0  0  0  0  0  0  0  0  0  0  0
    0.8699    1.4930   -3.2364 H   0  0  0  0  0  0  0  0  0  0  0  0
    0.4099    0.1705   -2.0802 H   0  0  0  0  0  0  0  0  0  0  0  0
    0.0729    2.1683    0.3722 H   0  0  0  0  0  0  0  0  0  0  0  0
    1.7849    3.4819   -1.6392 H   0  0  0  0  0  0  0  0  0  0  0  0
    2.6382    2.2274    1.0230 H   0  0  0  0  0  0  0  0  0  0  0  0
    1.9920    3.8729    0.9146 H   0  0  0  0  0  0  0  0  0  0  0  0
    4.2174    2.7441   -0.8510 H   0  0  0  0  0  0  0  0  0  0  0  0
    3.0552    5.3632   -0.6290 H   0  0  0  0  0  0  0  0  0  0  0  0
    4.4492    5.1356    1.0138 H   0  0  0  0  0  0  0  0  0  0  0  0
    4.6506    3.5350    1.7463 H   0  0  0  0  0  0  0  0  0  0  0  0
    6.8407    4.4618    1.0416 H   0  0  0  0  0  0  0  0  0  0  0  0
    6.0799    4.5351   -1.6549 H   0  0  0  0  0  0  0  0  0  0  0  0
    6.2417    2.4767   -1.2019 H   0  0  0  0  0  0  0  0  0  0  0  0
    7.7452    2.8678   -0.3279 H   0  0  0  0  0  0  0  0  0  0  0  0
    5.3604    1.7050    1.1954 H   0  0  0  0  0  0  0  0  0  0  0  0
    7.0583    2.9049    2.4485 H   0  0  0  0  0  0  0  0  0  0  0  0
    8.3802    2.1662    1.5039 H   0  0  0  0  0  0  0  0  0  0  0  0
    7.4123    1.1959    2.7315 H   0  0  0  0  0  0  0  0  0  0  0  0
    5.7514    0.0482   -0.3867 H   0  0  0  0  0  0  0  0  0  0  0  0
    7.4533    0.4920   -0.6100 H   0  0  0  0  0  0  0  0  0  0  0  0
    7.9817   -0.4549    1.6731 H   0  0  0  0  0  0  0  0  0  0  0  0
    7.4211   -1.5776    0.4206 H   0  0  0  0  0  0  0  0  0  0  0  0
    5.8940   -0.7679    2.9185 H   0  0  0  0  0  0  0  0  0  0  0  0
    6.2046   -2.3445    2.1598 H   0  0  0  0  0  0  0  0  0  0  0  0
    4.1536   -0.3233    1.6257 H   0  0  0  0  0  0  0  0  0  0  0  0
    3.2180   -2.2276    2.0879 H   0  0  0  0  0  0  0  0  0  0  0  0
    4.5690   -4.1481    0.8473 H   0  0  0  0  0  0  0  0  0  0  0  0
    3.6352   -1.6399   -0.7711 H   0  0  0  0  0  0  0  0  0  0  0  0
    3.4717   -3.3760   -0.5476 H   0  0  0  0  0  0  0  0  0  0  0  0
    1.4206   -1.4286   -0.6313 H   0  0  0  0  0  0  0  0  0  0  0  0
    1.5297   -2.0044    1.1340 H   0  0  0  0  0  0  0  0  0  0  0  0
    1.3955   -3.6840   -1.3792 H   0  0  0  0  0  0  0  0  0  0  0  0
    2.5392   -5.0700   -0.0233 H   0  0  0  0  0  0  0  0  0  0  0  0
    2.0695   -4.2287    1.4562 H   0  0  0  0  0  0  0  0  0  0  0  0
    1.0309   -5.4734    0.7686 H   0  0  0  0  0  0  0  0  0  0  0  0
   -0.7916   -3.2853   -1.3657 H   0  0  0  0  0  0  0  0  0  0  0  0
   -0.8594   -5.0820    1.1293 H   0  0  0  0  0  0  0  0  0  0  0  0
   -2.9418   -3.8294    0.5617 H   0  0  0  0  0  0  0  0  0  0  0  0
   -2.9843   -5.6270    0.6370 H   0  0  0  0  0  0  0  0  0  0  0  0
   -2.9814   -4.7345   -0.9723 H   0  0  0  0  0  0  0  0  0  0  0  0
   -0.5338   -6.8759   -0.4226 H   0  0  0  0  0  0  0  0  0  0  0  0
    0.2323   -5.6857   -1.4944 H   0  0  0  0  0  0  0  0  0  0  0  0
   -1.4819   -6.0902   -1.6996 H   0  0  0  0  0  0  0  0  0  0  0  0
   -2.3949   -1.3135    1.1816 H   0  0  0  0  0  0  0  0  0  0  0  0
   -0.4066   -0.5542    1.6948 H   0  0  0  0  0  0  0  0  0  0  0  0
  1  2  1  0
  2  3  1  0
  3  4  1  0
  4  5  1  0
  5  6  1  0
  6  7  1  0
  7  8  1  0
  7  9  1  0
  7 10  1  0
 10 11  1  0
 11 12  1  0
 12 13  1  0
 13 14  1  0
 12 15  1  0
 15 16  1  0
  3 17  1  0
  6 17  1  0
  2 18  1  0
 18 19  1  0
 19 20  1  0
 18 21  1  0
 20 22  1  0
 21 22  1  0
 22 23  1  0
 23 24  1  0
 24 25  1  0
 24 26  1  0
 26 27  1  0
 27 28  1  0
 27 29  1  0
 29 30  1  0
 30 31  1  0
 30 32  1  0
 32 33  1  0
 33 34  1  0
 34 35  1  0
 35 36  1  0
 36 37  1  0
 36 38  1  0
 38 39  1  0
 39 40  1  0
 40 41  1  0
 40 42  1  0
 42 43  1  0
 43 44  1  0
 43 45  1  0
 42 46  1  0
 17 47  1  0
 46 47  1  0
 47 48  1  0
 49 50  1  0
 50 51  1  0
 51 52  1  0
 52 53  1  0
 53 54  1  0
 54 55  1  0
 55 56  1  0
 55 57  1  0
 55 58  1  0
 58 59  1  0
 59 60  1  0
 60 61  1  0
 61 62  1  0
 60 63  1  0
 63 64  1  0
 51 65  1  0
 54 65  1  0
 50 66  1  0
 66 67  1  0
 67 68  1  0
 66 69  1  0
 68 70  1  0
 69 70  1  0
 70 71  1  0
 71 72  1  0
 72 73  1  0
 72 74  1  0
 74 75  1  0
 75 76  1  0
 75 77  1  0
 77 78  1  0
 78 79  1  0
 78 80  1  0
 80 81  1  0
 81 82  1  0
 82 83  1  0
 83 84  1  0
 84 85  1  0
 84 86  1  0
 86 87  1  0
 87 88  1  0
 88 89  1  0
 88 90  1  0
 90 91  1  0
 91 92  1  0
 91 93  1  0
 90 94  1  0
 65 95  1  0
 94 95  1  0
 95 96  1  0
 97 98  1  0
 98 99  1  0
 99100  1  0
100101  1  0
101102  1  0
102103  1  0
103104  1  0
103105  1  0
103106  1  0
106107  1  0
107108  1  0
108109  1  0
109110  1  0
108111  1  0
111112  1  0
 99113  1  0
102113  1  0
 98114  1  0
114115  1  0
115116  1  0
114117  1  0
116118  1  0
117118  1  0
118119  1  0
119120  1  0
120121  1  0
120122  1  0
122123  1  0
123124  1  0
123125  1  0
125126  1  0
126127  1  0
126128  1  0
128129  1  0
129130  1  0
130131  1  0
131132  1  0
132133  1  0
132134  1  0
134135  1  0
135136  1  0
136137  1  0
136138  1  0
138139  1  0
139140  1  0
139141  1  0
138142  1  0
113143  1  0
142143  1  0
143144  1  0
  1145  1  0
  2146  1  0
  4147  1  0
  4148  1  0
  5149  1  0
  5150  1  0
  6151  1  1
  8152  1  0
  9153  1  0
 10154  1  0
 10155  1  0
 11156  1  0
 11157  1  0
 13158  1  0
 13159  1  0
 14160  1  0
 14161  1  0
 14162  1  0
 15163  1  0
 15164  1  0
 16165  1  0
 16166  1  0
 16167  1  0
 17168  1  6
 18169  1  6
 19170  1  0
 19171  1  0
 21172  1  0
 22173  1  0
 23174  1  0
 23175  1  0
 24176  1  6
 25177  1  0
 26178  1  0
 26179  1  0
 27180  1  1
 28181  1  0
 29182  1  0
 29183  1  0
 30184  1  1
 31185  1  0
 31186  1  0
 31187  1  0
 32188  1  0
 32189  1  0
 33190  1  0
 33191  1  0
 34192  1  0
 34193  1  0
 35194  1  0
 36195  1  1
 37196  1  0
 38197  1  0
 38198  1  0
 39199  1  0
 39200  1  0
 40201  1  6
 41202  1  0
 41203  1  0
 41204  1  0
 42205  1  6
 43206  1  0
 44207  1  0
 44208  1  0
 44209  1  0
 45210  1  0
 45211  1  0
 45212  1  0
 47213  1  0
 48214  1  0
 49215  1  0
 50216  1  0
 52217  1  0
 52218  1  0
 53219  1  0
 53220  1  0
 54221  1  1
 56222  1  0
 57223  1  0
 58224  1  0
 58225  1  0
 59226  1  0
 59227  1  0
 61228  1  0
 61229  1  0
 62230  1  0
 62231  1  0
 62232  1  0
 63233  1  0
 63234  1  0
 64235  1  0
 64236  1  0
 64237  1  0
 65238  1  6
 66239  1  6
 67240  1  0
 67241  1  0
 69242  1  0
 70243  1  0
 71244  1  0
 71245  1  0
 72246  1  6
 73247  1  0
 74248  1  0
 74249  1  0
 75250  1  1
 76251  1  0
 77252  1  0
 77253  1  0
 78254  1  1
 79255  1  0
 79256  1  0
 79257  1  0
 80258  1  0
 80259  1  0
 81260  1  0
 81261  1  0
 82262  1  0
 82263  1  0
 83264  1  0
 84265  1  1
 85266  1  0
 86267  1  0
 86268  1  0
 87269  1  0
 87270  1  0
 88271  1  6
 89272  1  0
 89273  1  0
 89274  1  0
 90275  1  6
 91276  1  0
 92277  1  0
 92278  1  0
 92279  1  0
 93280  1  0
 93281  1  0
 93282  1  0
 95283  1  0
 96284  1  0
 97285  1  0
 98286  1  1
100287  1  0
100288  1  0
101289  1  0
101290  1  0
102291  1  1
104292  1  0
105293  1  0
106294  1  0
106295  1  0
107296  1  0
107297  1  0
109298  1  0
109299  1  0
110300  1  0
110301  1  0
110302  1  0
111303  1  0
111304  1  0
112305  1  0
112306  1  0
112307  1  0
113308  1  6
114309  1  6
115310  1  0
115311  1  0
117312  1  0
118313  1  6
119314  1  0
119315  1  0
120316  1  6
121317  1  0
122318  1  0
122319  1  0
123320  1  1
124321  1  0
125322  1  0
125323  1  0
126324  1  1
127325  1  0
127326  1  0
127327  1  0
128328  1  0
128329  1  0
129330  1  0
129331  1  0
130332  1  0
130333  1  0
131334  1  0
132335  1  1
133336  1  0
134337  1  0
134338  1  0
135339  1  0
135340  1  0
136341  1  6
137342  1  0
137343  1  0
137344  1  0
138345  1  6
139346  1  0
140347  1  0
140348  1  0
140349  1  0
141350  1  0
141351  1  0
141352  1  0
143353  1  0
144354  1  0
M  END
>  <PDBID>  (1) 
1MRL

>  <PDB ID>  (1) 
1MRL

>  <Generic Name>  (1) 
Dalfopristin

>  <Brand Name>  (1) 
Synercid

>  <DrugBank ID>  (1) 
DB01764

>  <ATC Codes>  (1) 
nan

>  <Ligand ID>  (1) 
DOL

>  <Target Name>  (1) 
Streptogramin A acetyltransferase

>  <UniProt ID>  (1) 
P50870

>  <PDB ID.1>  (1) 
1MRL

>  <Seq. Identity>  (1) 
100%

$$$$
