PDB_DB00311_03
     RDKit          3D

 36 37  0  0  0  0  0  0  0  0999 V2000
   -4.5465    1.8880    0.1312 N   0  0  0  0  0  0  0  0  0  0  0  0
   -0.4989   -0.7897   -0.5316 C   0  0  2  0  0  0  0  0  0  0  0  0
   -0.1255    0.0725    0.6897 C   0  0  1  0  0  0  0  0  0  0  0  0
    1.0951    0.8154    0.2737 C   0  0  0  0  0  0  0  0  0  0  0  0
    2.1910   -0.2282    0.0562 C   0  0  0  0  0  0  0  0  0  0  0  0
    4.1781    0.3115   -0.9721 C   0  0  0  0  0  0  0  0  0  0  0  0
   -5.2573   -0.5670   -0.5227 O   0  0  0  0  0  0  0  0  0  0  0  0
   -4.1415   -0.1120    1.8263 O   0  0  0  0  0  0  0  0  0  0  0  0
   -4.2216    0.0173    0.0969 S   0  0  0  0  0  0  0  0  0  0  0  0
   -2.6218    0.1043   -0.4033 C   0  0  0  0  0  0  0  0  0  0  0  0
   -1.8853   -1.1171   -0.3985 N   0  0  0  0  0  0  0  0  0  0  0  0
   -1.6110    1.1108    0.7658 S   0  0  0  0  0  0  0  0  0  0  0  0
    1.6907   -1.6280    0.2518 C   0  0  0  0  0  0  0  0  0  0  0  0
    0.4286   -1.9387   -0.5107 C   0  0  0  0  0  0  0  0  0  0  0  0
    2.8296   -0.0464   -1.1571 O   0  0  0  0  0  0  0  0  0  0  0  0
    4.2572    1.5861   -0.1985 C   0  0  0  0  0  0  0  0  0  0  0  0
   -4.3521    2.0663   -0.8972 H   0  0  0  0  0  0  0  0  0  0  0  0
   -3.7344    2.1783    0.7321 H   0  0  0  0  0  0  0  0  0  0  0  0
   -0.3614   -0.2121   -1.4559 H   0  0  0  0  0  0  0  0  0  0  0  0
    0.0173   -0.5372    1.5784 H   0  0  0  0  0  0  0  0  0  0  0  0
    1.4008    1.6086    0.9635 H   0  0  0  0  0  0  0  0  0  0  0  0
    0.8938    1.2508   -0.7457 H   0  0  0  0  0  0  0  0  0  0  0  0
    2.9383   -0.0363    0.8577 H   0  0  0  0  0  0  0  0  0  0  0  0
    4.7184    0.3790   -1.9184 H   0  0  0  0  0  0  0  0  0  0  0  0
    4.7065   -0.4787   -0.3673 H   0  0  0  0  0  0  0  0  0  0  0  0
   -5.9238   -1.2607   -0.6390 H   0  0  0  0  0  0  0  0  0  0  0  0
   -5.0007    0.2648    2.1789 H   0  0  0  0  0  0  0  0  0  0  0  0
   -2.4917    0.6049   -1.3866 H   0  0  0  0  0  0  0  0  0  0  0  0
   -2.1176   -1.7591    0.3654 H   0  0  0  0  0  0  0  0  0  0  0  0
    1.5777   -1.8383    1.3309 H   0  0  0  0  0  0  0  0  0  0  0  0
    2.4753   -2.3126   -0.1328 H   0  0  0  0  0  0  0  0  0  0  0  0
   -0.0672   -2.7892    0.0389 H   0  0  0  0  0  0  0  0  0  0  0  0
    0.6592   -2.3502   -1.5242 H   0  0  0  0  0  0  0  0  0  0  0  0
    3.3272    2.1860   -0.3460 H   0  0  0  0  0  0  0  0  0  0  0  0
    4.4308    1.3755    0.8856 H   0  0  0  0  0  0  0  0  0  0  0  0
    5.1429    2.1813   -0.5547 H   0  0  0  0  0  0  0  0  0  0  0  0
  2  3  1  0
  3  4  1  0
  4  5  1  0
  1  9  1  0
  9  7  1  0
  8  9  1  0
  9 10  1  0
  2 11  1  0
 10 11  1  0
  3 12  1  0
 10 12  1  0
  5 13  1  0
  2 14  1  0
 13 14  1  0
  5 15  1  0
  6 15  1  0
  6 16  1  0
  1 17  1  0
  1 18  1  0
  2 19  1  6
  3 20  1  1
  4 21  1  0
  4 22  1  0
  5 23  1  0
  6 24  1  0
  6 25  1  0
  7 26  1  0
  8 27  1  0
 10 28  1  0
 11 29  1  0
 13 30  1  0
 13 31  1  0
 14 32  1  0
 14 33  1  0
 16 34  1  0
 16 35  1  0
 16 36  1  0
M  END
>  <PDBID>  (1) 
3DD0

>  <PDB ID>  (1) 
3DD0

>  <Generic Name>  (1) 
Ethoxzolamide

>  <Brand Name>  (1) 
Cardrase#Ethamide

>  <DrugBank ID>  (1) 
DB00311

>  <ATC Codes>  (1) 
nan

>  <Ligand ID>  (1) 
EZL

>  <Target Name>  (1) 
Carbonic anhydrase 1

>  <UniProt ID>  (1) 
P00915

>  <PDB ID.1>  (1) 
3DD0

>  <Seq. Identity>  (1) 
61%

$$$$
