PDB_DB00398_05
     RDKit          3D

 70 72  0  0  0  0  0  0  0  0999 V2000
   -6.3942    1.1314    0.9712 C   0  0  0  0  0  0  0  0  0  0  0  0
   -5.3770    0.5875    0.0026 C   0  0  2  0  0  0  0  0  0  0  0  0
   -5.8214   -0.5930   -0.7644 C   0  0  0  0  0  0  0  0  0  0  0  0
   -7.2637   -0.6122   -1.1603 C   0  0  0  0  0  0  0  0  0  0  0  0
   -3.0486   -0.0963   -0.0116 C   0  0  0  0  0  0  0  0  0  0  0  0
   -0.7806   -0.7489    0.1098 C   0  0  0  0  0  0  0  0  0  0  0  0
   -0.2156    0.1680   -0.9047 C   0  0  0  0  0  0  0  0  0  0  0  0
    1.0227    0.9217   -0.4777 C   0  0  0  0  0  0  0  0  0  0  0  0
    2.0387    0.0716    0.2242 C   0  0  0  0  0  0  0  0  0  0  0  0
    1.5694   -1.3591    0.2316 C   0  0  0  0  0  0  0  0  0  0  0  0
    0.2848   -1.3567    1.0351 C   0  0  0  0  0  0  0  0  0  0  0  0
    3.3363    0.2423   -0.1944 O   0  0  0  0  0  0  0  0  0  0  0  0
    4.7707    2.0488    0.2835 C   0  0  0  0  0  0  0  0  0  0  0  0
    5.3364    1.7902   -1.0899 C   0  0  0  0  0  0  0  0  0  0  0  0
    6.4790    0.1050    0.1765 C   0  0  0  0  0  0  0  0  0  0  0  0
    5.3021   -0.2382    0.9936 C   0  0  0  0  0  0  0  0  0  0  0  0
    7.2216   -2.1379   -0.6310 N   0  0  0  0  0  0  0  0  0  0  0  0
    6.2153   -3.0232   -0.1976 C   0  0  0  0  0  0  0  0  0  0  0  0
   -8.1967   -0.0226   -0.1577 C   0  0  0  0  0  0  0  0  0  0  0  0
   -7.7642    1.2773    0.4143 C   0  0  0  0  0  0  0  0  0  0  0  0
   -7.9012    2.4392   -0.5403 C   0  0  0  0  0  0  0  0  0  0  0  0
   -7.0594    2.3263   -1.6303 F   0  0  0  0  0  0  0  0  0  0  0  0
   -9.1881    2.5468   -1.0288 F   0  0  0  0  0  0  0  0  0  0  0  0
   -7.5965    3.6333    0.0824 F   0  0  0  0  0  0  0  0  0  0  0  0
   -8.3597   -1.1969    1.1845 Cl  0  0  0  0  0  0  0  0  0  0  0  0
   -4.1916    0.3202    0.7847 N   0  0  0  0  0  0  0  0  0  0  0  0
   -1.9109   -0.2948    0.8511 N   0  0  0  0  0  0  0  0  0  0  0  0
   -3.2964   -1.3098   -0.6515 O   0  0  0  0  0  0  0  0  0  0  0  0
    4.1612    0.7705    0.7903 C   0  0  0  0  0  0  0  0  0  0  0  0
    6.1929    0.6470   -1.1401 N   0  0  0  0  0  0  0  0  0  0  0  0
    7.4971   -0.9635    0.0860 C   0  0  0  0  0  0  0  0  0  0  0  0
    8.7076   -0.3694   -0.4305 O   0  0  0  0  0  0  0  0  0  0  0  0
   -6.0337    2.1701    1.2324 H   0  0  0  0  0  0  0  0  0  0  0  0
   -6.4315    0.5956    1.9310 H   0  0  0  0  0  0  0  0  0  0  0  0
   -5.1046    1.4388   -0.6881 H   0  0  0  0  0  0  0  0  0  0  0  0
   -5.5668   -1.5243   -0.2141 H   0  0  0  0  0  0  0  0  0  0  0  0
   -5.2420   -0.6360   -1.7194 H   0  0  0  0  0  0  0  0  0  0  0  0
   -7.4377   -0.0920   -2.1385 H   0  0  0  0  0  0  0  0  0  0  0  0
   -7.5612   -1.6683   -1.3305 H   0  0  0  0  0  0  0  0  0  0  0  0
   -2.8368    0.7207   -0.7167 H   0  0  0  0  0  0  0  0  0  0  0  0
   -1.1421   -1.6652   -0.4647 H   0  0  0  0  0  0  0  0  0  0  0  0
   -0.0221   -0.3470   -1.8954 H   0  0  0  0  0  0  0  0  0  0  0  0
   -0.9566    0.9472   -1.1611 H   0  0  0  0  0  0  0  0  0  0  0  0
    1.4931    1.3105   -1.4069 H   0  0  0  0  0  0  0  0  0  0  0  0
    0.6878    1.8073    0.1191 H   0  0  0  0  0  0  0  0  0  0  0  0
    2.0145    0.4160    1.3030 H   0  0  0  0  0  0  0  0  0  0  0  0
    2.3173   -2.0701    0.5997 H   0  0  0  0  0  0  0  0  0  0  0  0
    1.2924   -1.6024   -0.8345 H   0  0  0  0  0  0  0  0  0  0  0  0
   -0.0181   -2.3483    1.3830 H   0  0  0  0  0  0  0  0  0  0  0  0
    0.4227   -0.6286    1.8848 H   0  0  0  0  0  0  0  0  0  0  0  0
    4.0130    2.8698    0.2247 H   0  0  0  0  0  0  0  0  0  0  0  0
    5.5986    2.3722    0.9401 H   0  0  0  0  0  0  0  0  0  0  0  0
    4.4501    1.5848   -1.7578 H   0  0  0  0  0  0  0  0  0  0  0  0
    5.8042    2.7203   -1.5124 H   0  0  0  0  0  0  0  0  0  0  0  0
    7.0181    0.9979    0.6887 H   0  0  0  0  0  0  0  0  0  0  0  0
    4.8422   -1.2122    0.8566 H   0  0  0  0  0  0  0  0  0  0  0  0
    5.5253   -0.1358    2.1081 H   0  0  0  0  0  0  0  0  0  0  0  0
    8.0031   -2.6155   -1.0745 H   0  0  0  0  0  0  0  0  0  0  0  0
    5.2487   -2.8476   -0.7298 H   0  0  0  0  0  0  0  0  0  0  0  0
    6.0991   -3.1352    0.9040 H   0  0  0  0  0  0  0  0  0  0  0  0
    6.5110   -4.0609   -0.6008 H   0  0  0  0  0  0  0  0  0  0  0  0
   -9.1940    0.0711   -0.6256 H   0  0  0  0  0  0  0  0  0  0  0  0
   -8.4459    1.5082    1.2754 H   0  0  0  0  0  0  0  0  0  0  0  0
   -3.9331    1.1086    1.3965 H   0  0  0  0  0  0  0  0  0  0  0  0
   -2.1389   -0.9630    1.6043 H   0  0  0  0  0  0  0  0  0  0  0  0
   -2.9060   -1.3059   -1.5528 H   0  0  0  0  0  0  0  0  0  0  0  0
    3.6166    0.9650    1.7361 H   0  0  0  0  0  0  0  0  0  0  0  0
    7.1137    0.9625   -1.5266 H   0  0  0  0  0  0  0  0  0  0  0  0
    7.8352   -1.2771    1.1202 H   0  0  0  0  0  0  0  0  0  0  0  0
    9.2943   -1.1359   -0.6080 H   0  0  0  0  0  0  0  0  0  0  0  0
  1  2  1  0
  2  3  1  0
  3  4  1  0
  6  7  1  0
  7  8  1  0
  8  9  1  0
  9 10  1  0
  6 11  1  0
 10 11  1  0
  9 12  1  0
 13 14  1  0
 15 16  1  0
 17 18  1  0
  4 19  1  0
  1 20  1  0
 19 20  1  0
 20 21  1  0
 21 22  1  0
 21 23  1  0
 21 24  1  0
 19 25  1  0
  2 26  1  0
  5 26  1  0
  5 27  1  0
  6 27  1  0
  5 28  1  0
 12 29  1  0
 13 29  1  0
 16 29  1  0
 14 30  1  0
 15 30  1  0
 15 31  1  0
 17 31  1  0
 31 32  1  0
  1 33  1  0
  1 34  1  0
  2 35  1  6
  3 36  1  0
  3 37  1  0
  4 38  1  0
  4 39  1  0
  5 40  1  0
  6 41  1  0
  7 42  1  0
  7 43  1  0
  8 44  1  0
  8 45  1  0
  9 46  1  0
 10 47  1  0
 10 48  1  0
 11 49  1  0
 11 50  1  0
 13 51  1  0
 13 52  1  0
 14 53  1  0
 14 54  1  0
 15 55  1  0
 16 56  1  0
 16 57  1  0
 17 58  1  0
 18 59  1  0
 18 60  1  0
 18 61  1  0
 19 62  1  0
 20 63  1  0
 26 64  1  0
 27 65  1  0
 28 66  1  0
 29 67  1  0
 30 68  1  0
 31 69  1  0
 32 70  1  0
M  END
>  <PDBID>  (1) 
3WZE

>  <PDB ID>  (1) 
3WZE

>  <Generic Name>  (1) 
Sorafenib

>  <Brand Name>  (1) 
Nexavar

>  <DrugBank ID>  (1) 
DB00398

>  <ATC Codes>  (1) 
L01XE05

>  <Ligand ID>  (1) 
BAX

>  <Target Name>  (1) 
Vascular endothelial growth factor receptor 3

>  <UniProt ID>  (1) 
P35916

>  <PDB ID.1>  (1) 
3WZE

>  <Seq. Identity>  (1) 
67%

$$$$
