PDB_DB01264_01
     RDKit          3D

 91 94  0  0  0  0  0  0  0  0999 V2000
    6.7608   -1.4376   -3.4711 N   0  0  0  0  0  0  0  0  0  0  0  0
    5.4137   -1.2448   -2.9028 C   0  0  0  0  0  0  0  0  0  0  0  0
    5.3415    0.2056   -2.5316 C   0  0  0  0  0  0  0  0  0  0  0  0
    4.0976    0.5271   -1.6705 C   0  0  0  0  0  0  0  0  0  0  0  0
    4.2379   -0.2940   -0.4179 C   0  0  0  0  0  0  0  0  0  0  0  0
    4.1084   -1.7519   -0.9046 C   0  0  0  0  0  0  0  0  0  0  0  0
    5.3732   -2.1106   -1.6772 C   0  0  0  0  0  0  0  0  0  0  0  0
    3.3907    0.0965    0.9342 S   0  0  0  0  0  0  0  0  0  0  0  0
    4.1859   -1.3396    2.0199 O   0  0  0  0  0  0  0  0  0  0  0  0
    4.2953    1.3319    1.7030 O   0  0  0  0  0  0  0  0  0  0  0  0
    1.9968    0.0595    1.2421 N   0  0  0  0  0  0  0  0  0  0  0  0
    1.4238   -0.4292    2.4405 C   0  0  0  0  0  0  0  0  0  0  0  0
    2.1369   -0.2341    3.7216 C   0  0  0  0  0  0  0  0  0  0  0  0
    1.2467   -0.8830    4.8025 C   0  0  0  0  0  0  0  0  0  0  0  0
    2.1448    1.2620    4.0658 C   0  0  0  0  0  0  0  0  0  0  0  0
    1.0160   -0.1549    0.1744 C   0  0  0  0  0  0  0  0  0  0  0  0
   -0.2040    0.7273    0.3430 C   0  0  1  0  0  0  0  0  0  0  0  0
    0.1293    2.0579    0.3742 O   0  0  0  0  0  0  0  0  0  0  0  0
   -1.0713    0.4974   -0.8751 C   0  0  1  0  0  0  0  0  0  0  0  0
   -1.3260   -0.9382   -0.8716 N   0  0  0  0  0  0  0  0  0  0  0  0
   -2.7301   -0.9956   -1.8421 C   0  0  0  0  0  0  0  0  0  0  0  0
   -2.3537   -2.5043   -2.2564 O   0  0  0  0  0  0  0  0  0  0  0  0
   -3.4697   -1.3876   -0.8778 O   0  0  0  0  0  0  0  0  0  0  0  0
   -3.1287   -1.8362    0.3417 C   0  0  1  0  0  0  0  0  0  0  0  0
   -3.9375   -1.2123    1.4618 C   0  0  0  0  0  0  0  0  0  0  0  0
   -4.1294   -2.2297    2.3942 O   0  0  0  0  0  0  0  0  0  0  0  0
   -4.4368   -3.3613    1.6274 C   0  0  1  0  0  0  0  0  0  0  0  0
   -5.7728   -3.3476    1.2286 O   0  0  0  0  0  0  0  0  0  0  0  0
   -5.7384   -4.1916    0.0990 C   0  0  0  0  0  0  0  0  0  0  0  0
   -4.5942   -3.6069   -0.6970 C   0  0  0  0  0  0  0  0  0  0  0  0
   -3.5792   -3.3011    0.4102 C   0  0  1  0  0  0  0  0  0  0  0  0
   -2.3094    1.3040   -0.7754 C   0  0  0  0  0  0  0  0  0  0  0  0
   -3.6549    3.2910   -0.6240 C   0  0  0  0  0  0  0  0  0  0  0  0
   -3.6144    4.7245   -0.1376 C   0  0  0  0  0  0  0  0  0  0  0  0
   -2.5780    5.4703   -0.9673 C   0  0  0  0  0  0  0  0  0  0  0  0
   -2.2472    4.7148   -2.2296 C   0  0  0  0  0  0  0  0  0  0  0  0
   -1.6033    3.3651   -1.9604 C   0  0  0  0  0  0  0  0  0  0  0  0
   -2.1853    2.7862   -0.7011 C   0  0  0  0  0  0  0  0  0  0  0  0
    6.7677   -2.4238   -3.8664 H   0  0  0  0  0  0  0  0  0  0  0  0
    7.4755   -1.4409   -2.7057 H   0  0  0  0  0  0  0  0  0  0  0  0
    4.6238   -1.5739   -3.5709 H   0  0  0  0  0  0  0  0  0  0  0  0
    6.2158    0.3945   -1.8509 H   0  0  0  0  0  0  0  0  0  0  0  0
    5.4273    0.9020   -3.3648 H   0  0  0  0  0  0  0  0  0  0  0  0
    4.1390    1.6027   -1.4994 H   0  0  0  0  0  0  0  0  0  0  0  0
    3.2536    0.2041   -2.3085 H   0  0  0  0  0  0  0  0  0  0  0  0
    5.3516   -0.2168   -0.1861 H   0  0  0  0  0  0  0  0  0  0  0  0
    4.1301   -2.3693    0.0083 H   0  0  0  0  0  0  0  0  0  0  0  0
    3.2243   -1.8997   -1.5194 H   0  0  0  0  0  0  0  0  0  0  0  0
    5.3431   -3.1833   -1.9203 H   0  0  0  0  0  0  0  0  0  0  0  0
    6.2548   -1.9611   -1.0004 H   0  0  0  0  0  0  0  0  0  0  0  0
    3.4192   -1.9442    1.8586 H   0  0  0  0  0  0  0  0  0  0  0  0
    4.7420    1.8548    0.9699 H   0  0  0  0  0  0  0  0  0  0  0  0
    0.3885   -0.0034    2.6424 H   0  0  0  0  0  0  0  0  0  0  0  0
    1.2064   -1.5238    2.2839 H   0  0  0  0  0  0  0  0  0  0  0  0
    3.1072   -0.6688    3.8687 H   0  0  0  0  0  0  0  0  0  0  0  0
    0.1955   -0.6774    4.5103 H   0  0  0  0  0  0  0  0  0  0  0  0
    1.4293   -0.4778    5.7948 H   0  0  0  0  0  0  0  0  0  0  0  0
    1.3869   -1.9959    4.7475 H   0  0  0  0  0  0  0  0  0  0  0  0
    1.3418    1.4783    4.7817 H   0  0  0  0  0  0  0  0  0  0  0  0
    2.0221    1.8482    3.1391 H   0  0  0  0  0  0  0  0  0  0  0  0
    3.1054    1.4868    4.5652 H   0  0  0  0  0  0  0  0  0  0  0  0
    1.4352    0.0905   -0.8179 H   0  0  0  0  0  0  0  0  0  0  0  0
    0.7050   -1.2004    0.1895 H   0  0  0  0  0  0  0  0  0  0  0  0
   -0.8687    0.3941    1.1876 H   0  0  0  0  0  0  0  0  0  0  0  0
    1.0029    2.2207    0.8027 H   0  0  0  0  0  0  0  0  0  0  0  0
   -0.4866    0.7229   -1.8102 H   0  0  0  0  0  0  0  0  0  0  0  0
   -0.6805   -1.4121   -1.4765 H   0  0  0  0  0  0  0  0  0  0  0  0
   -2.1271   -0.6766   -2.6271 H   0  0  0  0  0  0  0  0  0  0  0  0
   -1.9415   -2.8314   -1.4634 H   0  0  0  0  0  0  0  0  0  0  0  0
   -2.0619   -1.8503    0.5907 H   0  0  0  0  0  0  0  0  0  0  0  0
   -4.8650   -0.7536    1.1294 H   0  0  0  0  0  0  0  0  0  0  0  0
   -3.3043   -0.4531    1.9512 H   0  0  0  0  0  0  0  0  0  0  0  0
   -4.2786   -4.2327    2.2785 H   0  0  0  0  0  0  0  0  0  0  0  0
   -6.7089   -4.1677   -0.4349 H   0  0  0  0  0  0  0  0  0  0  0  0
   -5.5121   -5.2320    0.4064 H   0  0  0  0  0  0  0  0  0  0  0  0
   -4.9371   -2.6563   -1.1721 H   0  0  0  0  0  0  0  0  0  0  0  0
   -4.2158   -4.3323   -1.4312 H   0  0  0  0  0  0  0  0  0  0  0  0
   -2.7415   -4.0052    0.4414 H   0  0  0  0  0  0  0  0  0  0  0  0
   -2.9072    1.0233    0.1480 H   0  0  0  0  0  0  0  0  0  0  0  0
   -3.0367    1.1002   -1.6030 H   0  0  0  0  0  0  0  0  0  0  0  0
   -4.2679    2.6236    0.0069 H   0  0  0  0  0  0  0  0  0  0  0  0
   -4.0727    3.2684   -1.6459 H   0  0  0  0  0  0  0  0  0  0  0  0
   -4.5973    5.2195   -0.1482 H   0  0  0  0  0  0  0  0  0  0  0  0
   -3.2617    4.7087    0.9143 H   0  0  0  0  0  0  0  0  0  0  0  0
   -3.0457    6.4220   -1.2834 H   0  0  0  0  0  0  0  0  0  0  0  0
   -1.6744    5.7246   -0.3826 H   0  0  0  0  0  0  0  0  0  0  0  0
   -3.1412    4.6031   -2.8578 H   0  0  0  0  0  0  0  0  0  0  0  0
   -1.5072    5.3165   -2.7976 H   0  0  0  0  0  0  0  0  0  0  0  0
   -0.4937    3.4643   -1.8803 H   0  0  0  0  0  0  0  0  0  0  0  0
   -1.8899    2.6913   -2.7967 H   0  0  0  0  0  0  0  0  0  0  0  0
   -1.7036    3.1697    0.2115 H   0  0  0  0  0  0  0  0  0  0  0  0
  1  2  1  0
  2  3  1  0
  3  4  1  0
  4  5  1  0
  5  6  1  0
  2  7  1  0
  6  7  1  0
  5  8  1  0
  8  9  1  0
  8 10  1  0
  8 11  1  0
 11 12  1  0
 12 13  1  0
 13 14  1  0
 13 15  1  0
 11 16  1  0
 16 17  1  0
 17 18  1  0
 17 19  1  0
 19 20  1  0
 20 21  1  0
 21 22  1  0
 21 23  1  0
 23 24  1  0
 24 25  1  0
 25 26  1  0
 26 27  1  0
 27 28  1  0
 28 29  1  0
 29 30  1  0
 24 31  1  0
 27 31  1  0
 30 31  1  0
 19 32  1  0
 33 34  1  0
 34 35  1  0
 35 36  1  0
 36 37  1  0
 32 38  1  0
 33 38  1  0
 37 38  1  0
  1 39  1  0
  1 40  1  0
  2 41  1  0
  3 42  1  0
  3 43  1  0
  4 44  1  0
  4 45  1  0
  5 46  1  0
  6 47  1  0
  6 48  1  0
  7 49  1  0
  7 50  1  0
  9 51  1  0
 10 52  1  0
 12 53  1  0
 12 54  1  0
 13 55  1  0
 14 56  1  0
 14 57  1  0
 14 58  1  0
 15 59  1  0
 15 60  1  0
 15 61  1  0
 16 62  1  0
 16 63  1  0
 17 64  1  1
 18 65  1  0
 19 66  1  6
 20 67  1  0
 21 68  1  0
 22 69  1  0
 24 70  1  1
 25 71  1  0
 25 72  1  0
 27 73  1  1
 29 74  1  0
 29 75  1  0
 30 76  1  0
 30 77  1  0
 31 78  1  1
 32 79  1  0
 32 80  1  0
 33 81  1  0
 33 82  1  0
 34 83  1  0
 34 84  1  0
 35 85  1  0
 35 86  1  0
 36 87  1  0
 36 88  1  0
 37 89  1  0
 37 90  1  0
 38 91  1  0
M  END
>  <PDBID>  (1) 
4HLA

>  <PDB ID>  (1) 
4HLA

>  <Generic Name>  (1) 
Darunavir

>  <Brand Name>  (1) 
Pat-darunavir#Prezcobix#Prezista

>  <DrugBank ID>  (1) 
DB01264

>  <ATC Codes>  (1) 
J05AE10#J05AR14

>  <Ligand ID>  (1) 
17

>  <Target Name>  (1) 
Pol polyprotein

>  <UniProt ID>  (1) 
Q72874

>  <PDB ID.1>  (1) 
4HLA

>  <Seq. Identity>  (1) 
99%

$$$$
