PDB_DB00398_00
     RDKit          3D

 70 72  0  0  0  0  0  0  0  0999 V2000
   -5.8300    1.1995    0.2727 C   0  0  0  0  0  0  0  0  0  0  0  0
   -5.1910    0.5824   -0.9112 C   0  0  2  0  0  0  0  0  0  0  0  0
   -6.1201    0.1027   -1.9935 C   0  0  0  0  0  0  0  0  0  0  0  0
   -7.4125   -0.4476   -1.4997 C   0  0  0  0  0  0  0  0  0  0  0  0
   -2.9978    0.1815    0.0610 C   0  0  0  0  0  0  0  0  0  0  0  0
   -0.9143   -0.3199    1.0832 C   0  0  0  0  0  0  0  0  0  0  0  0
   -0.0726    0.7519    0.4712 C   0  0  0  0  0  0  0  0  0  0  0  0
    0.6261    0.2747   -0.7660 C   0  0  0  0  0  0  0  0  0  0  0  0
    1.5204   -0.8797   -0.4744 C   0  0  0  0  0  0  0  0  0  0  0  0
    0.7632   -1.9726    0.2541 C   0  0  0  0  0  0  0  0  0  0  0  0
    0.0369   -1.4548    1.4797 C   0  0  0  0  0  0  0  0  0  0  0  0
    2.6261   -0.5784    0.3019 O   0  0  0  0  0  0  0  0  0  0  0  0
    4.4593   -1.9983    0.4483 C   0  0  0  0  0  0  0  0  0  0  0  0
    5.9625   -1.9302    0.5671 C   0  0  0  0  0  0  0  0  0  0  0  0
    6.0726    0.2733   -0.1375 C   0  0  0  0  0  0  0  0  0  0  0  0
    4.6248    0.3515   -0.4730 C   0  0  0  0  0  0  0  0  0  0  0  0
    8.0033    1.7685    0.2462 N   0  0  0  0  0  0  0  0  0  0  0  0
    8.6319    1.3206   -0.9932 C   0  0  0  0  0  0  0  0  0  0  0  0
   -8.0810    0.5871   -0.6605 C   0  0  0  0  0  0  0  0  0  0  0  0
   -7.2404    0.8353    0.5657 C   0  0  0  0  0  0  0  0  0  0  0  0
   -7.4027   -0.2644    1.5945 C   0  0  0  0  0  0  0  0  0  0  0  0
   -6.8457    0.1137    2.7778 F   0  0  0  0  0  0  0  0  0  0  0  0
   -8.7809   -0.3848    1.8236 F   0  0  0  0  0  0  0  0  0  0  0  0
   -6.9447   -1.4790    1.2034 F   0  0  0  0  0  0  0  0  0  0  0  0
   -8.0948    2.1130   -1.5973 Cl  0  0  0  0  0  0  0  0  0  0  0  0
   -4.1592   -0.3870   -0.6216 N   0  0  0  0  0  0  0  0  0  0  0  0
   -2.0078   -0.7993    0.3243 N   0  0  0  0  0  0  0  0  0  0  0  0
   -2.4838    1.1661   -0.8106 O   0  0  0  0  0  0  0  0  0  0  0  0
    3.8428   -0.9025   -0.3503 C   0  0  0  0  0  0  0  0  0  0  0  0
    6.2616   -0.5701    1.0066 N   0  0  0  0  0  0  0  0  0  0  0  0
    6.5771    1.6833    0.0919 C   0  0  0  0  0  0  0  0  0  0  0  0
    5.8804    2.2149    1.1559 O   0  0  0  0  0  0  0  0  0  0  0  0
   -5.7305    2.3288    0.2825 H   0  0  0  0  0  0  0  0  0  0  0  0
   -5.2369    0.9031    1.1899 H   0  0  0  0  0  0  0  0  0  0  0  0
   -4.6206    1.4313   -1.4205 H   0  0  0  0  0  0  0  0  0  0  0  0
   -5.6025   -0.7144   -2.5513 H   0  0  0  0  0  0  0  0  0  0  0  0
   -6.3396    0.8843   -2.7457 H   0  0  0  0  0  0  0  0  0  0  0  0
   -7.3558   -1.4520   -1.0498 H   0  0  0  0  0  0  0  0  0  0  0  0
   -8.0657   -0.5779   -2.4159 H   0  0  0  0  0  0  0  0  0  0  0  0
   -3.2724    0.6642    1.0144 H   0  0  0  0  0  0  0  0  0  0  0  0
   -1.2914    0.0989    2.0631 H   0  0  0  0  0  0  0  0  0  0  0  0
    0.7474    0.9598    1.2321 H   0  0  0  0  0  0  0  0  0  0  0  0
   -0.6277    1.6799    0.3748 H   0  0  0  0  0  0  0  0  0  0  0  0
    1.2227    1.1140   -1.1801 H   0  0  0  0  0  0  0  0  0  0  0  0
   -0.1400   -0.0692   -1.4897 H   0  0  0  0  0  0  0  0  0  0  0  0
    1.8106   -1.3216   -1.4590 H   0  0  0  0  0  0  0  0  0  0  0  0
    0.0850   -2.5189   -0.4432 H   0  0  0  0  0  0  0  0  0  0  0  0
    1.5243   -2.6933    0.6334 H   0  0  0  0  0  0  0  0  0  0  0  0
    0.7706   -1.0659    2.1793 H   0  0  0  0  0  0  0  0  0  0  0  0
   -0.5151   -2.2780    1.9243 H   0  0  0  0  0  0  0  0  0  0  0  0
    4.2272   -2.9730   -0.0522 H   0  0  0  0  0  0  0  0  0  0  0  0
    4.0667   -2.0842    1.4913 H   0  0  0  0  0  0  0  0  0  0  0  0
    6.4892   -2.1957   -0.3681 H   0  0  0  0  0  0  0  0  0  0  0  0
    6.2725   -2.6764    1.3211 H   0  0  0  0  0  0  0  0  0  0  0  0
    6.6630   -0.1147   -1.0090 H   0  0  0  0  0  0  0  0  0  0  0  0
    4.5493    0.6938   -1.5490 H   0  0  0  0  0  0  0  0  0  0  0  0
    4.1827    1.1860    0.1170 H   0  0  0  0  0  0  0  0  0  0  0  0
    8.3724    1.1523    1.0024 H   0  0  0  0  0  0  0  0  0  0  0  0
    7.9236    1.4375   -1.8645 H   0  0  0  0  0  0  0  0  0  0  0  0
    9.5776    1.8741   -1.2013 H   0  0  0  0  0  0  0  0  0  0  0  0
    8.9004    0.2436   -0.9728 H   0  0  0  0  0  0  0  0  0  0  0  0
   -9.1126    0.3307   -0.3673 H   0  0  0  0  0  0  0  0  0  0  0  0
   -7.7253    1.7311    1.0641 H   0  0  0  0  0  0  0  0  0  0  0  0
   -4.5531   -1.0926    0.0377 H   0  0  0  0  0  0  0  0  0  0  0  0
   -2.3594   -1.7299    0.5913 H   0  0  0  0  0  0  0  0  0  0  0  0
   -2.8562    2.0508   -0.6101 H   0  0  0  0  0  0  0  0  0  0  0  0
    3.5415   -1.2971   -1.3444 H   0  0  0  0  0  0  0  0  0  0  0  0
    7.1871   -0.5405    1.4404 H   0  0  0  0  0  0  0  0  0  0  0  0
    6.2943    2.2790   -0.8114 H   0  0  0  0  0  0  0  0  0  0  0  0
    5.6871    3.2005    1.0462 H   0  0  0  0  0  0  0  0  0  0  0  0
  1  2  1  0
  2  3  1  0
  3  4  1  0
  6  7  1  0
  7  8  1  0
  8  9  1  0
  9 10  1  0
  6 11  1  0
 10 11  1  0
  9 12  1  0
 13 14  1  0
 15 16  1  0
 17 18  1  0
  4 19  1  0
  1 20  1  0
 19 20  1  0
 20 21  1  0
 21 22  1  0
 21 23  1  0
 21 24  1  0
 19 25  1  0
  2 26  1  0
  5 26  1  0
  5 27  1  0
  6 27  1  0
  5 28  1  0
 12 29  1  0
 13 29  1  0
 16 29  1  0
 14 30  1  0
 15 30  1  0
 15 31  1  0
 17 31  1  0
 31 32  1  0
  1 33  1  0
  1 34  1  0
  2 35  1  6
  3 36  1  0
  3 37  1  0
  4 38  1  0
  4 39  1  0
  5 40  1  0
  6 41  1  0
  7 42  1  0
  7 43  1  0
  8 44  1  0
  8 45  1  0
  9 46  1  0
 10 47  1  0
 10 48  1  0
 11 49  1  0
 11 50  1  0
 13 51  1  0
 13 52  1  0
 14 53  1  0
 14 54  1  0
 15 55  1  0
 16 56  1  0
 16 57  1  0
 17 58  1  0
 18 59  1  0
 18 60  1  0
 18 61  1  0
 19 62  1  0
 20 63  1  0
 26 64  1  0
 27 65  1  0
 28 66  1  0
 29 67  1  0
 30 68  1  0
 31 69  1  0
 32 70  1  0
M  END
>  <PDBID>  (1) 
3WZE

>  <PDB ID>  (1) 
3WZE

>  <Generic Name>  (1) 
Sorafenib

>  <Brand Name>  (1) 
Nexavar

>  <DrugBank ID>  (1) 
DB00398

>  <ATC Codes>  (1) 
L01XE05

>  <Ligand ID>  (1) 
BAX

>  <Target Name>  (1) 
Vascular endothelial growth factor receptor 3

>  <UniProt ID>  (1) 
P35916

>  <PDB ID.1>  (1) 
3WZE

>  <Seq. Identity>  (1) 
67%

$$$$
