PDB_DB08864_01
     RDKit          3D

 74 76  0  0  0  0  0  0  0  0999 V2000
   -3.1424   -1.5707   -0.3792 C   0  0  0  0  0  0  0  0  0  0  0  0
    2.0560    1.4335    0.1099 N   0  0  0  0  0  0  0  0  0  0  0  0
   -4.9957   -0.1171    0.5027 C   0  0  0  0  0  0  0  0  0  0  0  0
   -4.3428    1.0841   -0.0892 C   0  0  0  0  0  0  0  0  0  0  0  0
   -3.1501    0.7895   -0.9564 C   0  0  0  0  0  0  0  0  0  0  0  0
   -2.2773   -0.3120   -0.4645 C   0  0  0  0  0  0  0  0  0  0  0  0
   -2.2986   -2.7444    0.0415 C   0  0  0  0  0  0  0  0  0  0  0  0
   -4.1603   -1.3280    0.6798 C   0  0  0  0  0  0  0  0  0  0  0  0
   -3.5219    0.6125   -2.4305 C   0  0  0  0  0  0  0  0  0  0  0  0
   -1.1286   -0.5064   -1.2728 N   0  0  0  0  0  0  0  0  0  0  0  0
    1.9089    1.5640   -1.3043 C   0  0  0  0  0  0  0  0  0  0  0  0
    1.0065    0.5028   -1.8952 C   0  0  0  0  0  0  0  0  0  0  0  0
    0.0055    0.1720   -0.7659 C   0  0  0  0  0  0  0  0  0  0  0  0
    0.7329   -0.5629    0.2132 N   0  0  0  0  0  0  0  0  0  0  0  0
    1.9981    0.0664    0.5824 C   0  0  1  0  0  0  0  0  0  0  0  0
    3.0627   -0.7353    0.1151 N   0  0  0  0  0  0  0  0  0  0  0  0
    7.0774    0.3649    0.8901 C   0  0  0  0  0  0  0  0  0  0  0  0
    6.5756   -1.0150    1.1506 C   0  0  0  0  0  0  0  0  0  0  0  0
    5.3565   -1.4063    0.3517 C   0  0  0  0  0  0  0  0  0  0  0  0
    4.3795   -0.2606    0.2240 C   0  0  0  0  0  0  0  0  0  0  0  0
    4.6604    0.6507    1.3954 C   0  0  0  0  0  0  0  0  0  0  0  0
    5.9715    1.3591    1.0275 C   0  0  0  0  0  0  0  0  0  0  0  0
    8.9163   -0.5006   -0.4694 N   0  0  0  0  0  0  0  0  0  0  0  0
    7.7773    0.4108   -0.4416 C   0  0  0  0  0  0  0  0  0  0  0  0
   -7.3824    0.6352    0.1061 C   0  0  0  0  0  0  0  0  0  0  0  0
   -6.3510   -0.4381   -0.0871 C   0  0  0  0  0  0  0  0  0  0  0  0
   -8.1601   -0.3407    2.2108 N   0  0  0  0  0  0  0  0  0  0  0  0
   -7.6722    0.8777    1.5773 C   0  0  0  0  0  0  0  0  0  0  0  0
   -4.0557    1.8475    0.6790 H   0  0  0  0  0  0  0  0  0  0  0  0
   -2.9824   -3.4834    0.5439 H   0  0  0  0  0  0  0  0  0  0  0  0
   -1.4662   -2.4413    0.6781 H   0  0  0  0  0  0  0  0  0  0  0  0
   -1.9256   -3.2524   -0.8820 H   0  0  0  0  0  0  0  0  0  0  0  0
   -3.5835   -1.2370    1.6525 H   0  0  0  0  0  0  0  0  0  0  0  0
   -3.7087    1.5830   -2.8888 H   0  0  0  0  0  0  0  0  0  0  0  0
   -4.2750   -0.1585   -2.5926 H   0  0  0  0  0  0  0  0  0  0  0  0
   -2.5781    0.2086   -2.9061 H   0  0  0  0  0  0  0  0  0  0  0  0
   -0.9040   -1.5432   -1.2841 H   0  0  0  0  0  0  0  0  0  0  0  0
    1.4086    2.5477   -1.4951 H   0  0  0  0  0  0  0  0  0  0  0  0
    0.4788    0.9278   -2.7585 H   0  0  0  0  0  0  0  0  0  0  0  0
    2.9317   -1.4740   -0.5329 H   0  0  0  0  0  0  0  0  0  0  0  0
    7.4062   -1.7183    0.8389 H   0  0  0  0  0  0  0  0  0  0  0  0
    4.9278   -2.3067    0.8375 H   0  0  0  0  0  0  0  0  0  0  0  0
    4.8120    0.0866    2.3477 H   0  0  0  0  0  0  0  0  0  0  0  0
    6.1886    2.2126    1.6677 H   0  0  0  0  0  0  0  0  0  0  0  0
   -8.2805    0.3508   -0.4373 H   0  0  0  0  0  0  0  0  0  0  0  0
   -6.1897   -0.4907   -1.2060 H   0  0  0  0  0  0  0  0  0  0  0  0
   -3.6087   -1.8240   -1.3464 H   0  0  0  0  0  0  0  0  0  0  0  0
    1.3784    2.0000    0.6710 H   0  0  0  0  0  0  0  0  0  0  0  0
   -5.2611    0.2023    1.5731 H   0  0  0  0  0  0  0  0  0  0  0  0
   -5.0816    1.5926   -0.7547 H   0  0  0  0  0  0  0  0  0  0  0  0
   -2.5179    1.7307   -0.9578 H   0  0  0  0  0  0  0  0  0  0  0  0
   -1.9713   -0.0650    0.5695 H   0  0  0  0  0  0  0  0  0  0  0  0
   -4.8299   -2.2230    0.7341 H   0  0  0  0  0  0  0  0  0  0  0  0
    2.8893    1.6332   -1.8528 H   0  0  0  0  0  0  0  0  0  0  0  0
    1.6141   -0.3563   -2.1589 H   0  0  0  0  0  0  0  0  0  0  0  0
   -0.2634    1.1610   -0.2895 H   0  0  0  0  0  0  0  0  0  0  0  0
    0.8769   -1.5525   -0.0830 H   0  0  0  0  0  0  0  0  0  0  0  0
    2.0148    0.1018    1.6845 H   0  0  0  0  0  0  0  0  0  0  0  0
    7.8475    0.5849    1.6628 H   0  0  0  0  0  0  0  0  0  0  0  0
    6.4528   -1.2104    2.2566 H   0  0  0  0  0  0  0  0  0  0  0  0
    5.7351   -1.7271   -0.6596 H   0  0  0  0  0  0  0  0  0  0  0  0
    4.7276    0.3087   -0.6835 H   0  0  0  0  0  0  0  0  0  0  0  0
    3.9229    1.4250    1.5691 H   0  0  0  0  0  0  0  0  0  0  0  0
    5.7471    1.8033    0.0080 H   0  0  0  0  0  0  0  0  0  0  0  0
    9.5355   -0.2867   -1.2954 H   0  0  0  0  0  0  0  0  0  0  0  0
    9.4954   -0.2851    0.3705 H   0  0  0  0  0  0  0  0  0  0  0  0
    7.0982    0.0709   -1.2635 H   0  0  0  0  0  0  0  0  0  0  0  0
    8.0903    1.4502   -0.6854 H   0  0  0  0  0  0  0  0  0  0  0  0
   -7.0079    1.5790   -0.3075 H   0  0  0  0  0  0  0  0  0  0  0  0
   -6.6971   -1.4441    0.2003 H   0  0  0  0  0  0  0  0  0  0  0  0
   -7.4862   -0.7347    2.9085 H   0  0  0  0  0  0  0  0  0  0  0  0
   -8.4302   -1.0552    1.4921 H   0  0  0  0  0  0  0  0  0  0  0  0
   -6.8464    1.3030    2.1315 H   0  0  0  0  0  0  0  0  0  0  0  0
   -8.5304    1.5913    1.6229 H   0  0  0  0  0  0  0  0  0  0  0  0
  3  4  1  0
  4  5  1  0
  1  6  1  0
  5  6  1  0
  1  7  1  0
  1  8  1  0
  3  8  1  0
  5  9  1  0
  6 10  1  0
  2 11  1  0
 11 12  1  0
 10 13  1  0
 12 13  1  0
 13 14  1  0
  2 15  1  0
 14 15  1  0
 15 16  1  0
 17 18  1  0
 18 19  1  0
 16 20  1  0
 19 20  1  0
 20 21  1  0
 17 22  1  0
 21 22  1  0
 17 24  1  0
 23 24  1  0
  3 26  1  0
 25 26  1  0
 25 28  1  0
 27 28  1  0
  4 29  1  0
  7 30  1  0
  7 31  1  0
  7 32  1  0
  8 33  1  0
  9 34  1  0
  9 35  1  0
  9 36  1  0
 10 37  1  0
 11 38  1  0
 12 39  1  0
 16 40  1  0
 18 41  1  0
 19 42  1  0
 21 43  1  0
 22 44  1  0
 25 45  1  0
 26 46  1  0
  1 47  1  0
  2 48  1  0
  3 49  1  0
  4 50  1  0
  5 51  1  0
  6 52  1  0
  8 53  1  0
 11 54  1  0
 12 55  1  0
 13 56  1  0
 14 57  1  0
 15 58  1  1
 17 59  1  0
 18 60  1  0
 19 61  1  0
 20 62  1  0
 21 63  1  0
 22 64  1  0
 23 65  1  0
 23 66  1  0
 24 67  1  0
 24 68  1  0
 25 69  1  0
 26 70  1  0
 27 71  1  0
 27 72  1  0
 28 73  1  0
 28 74  1  0
M  END
>  <PDBID>  (1) 
4G1Q

>  <PDB ID>  (1) 
4G1Q

>  <Generic Name>  (1) 
Rilpivirine

>  <Brand Name>  (1) 
Complera#Edurant#Odefsey

>  <DrugBank ID>  (1) 
DB08864

>  <ATC Codes>  (1) 
nan

>  <Ligand ID>  (1) 
T27

>  <Target Name>  (1) 
Reverse transcriptase/RNaseH

>  <UniProt ID>  (1) 
Q72547

>  <PDB ID.1>  (1) 
4G1Q

>  <Seq. Identity>  (1) 
95%

$$$$
