PDB_DB06700_03
     RDKit          3D

 50 51  0  0  0  0  0  0  0  0999 V2000
   -0.9315    1.7638    0.7853 O   0  0  0  0  0  0  0  0  0  0  0  0
   -1.1792    0.5235    0.1369 C   0  0  0  0  0  0  0  0  0  0  0  0
   -2.4691    0.0590    0.8482 C   0  0  0  0  0  0  0  0  0  0  0  0
   -1.5895    0.8024   -1.2539 C   0  0  0  0  0  0  0  0  0  0  0  0
   -2.2369    2.1942   -1.2555 C   0  0  0  0  0  0  0  0  0  0  0  0
   -3.2000    2.2563   -0.1274 C   0  0  0  0  0  0  0  0  0  0  0  0
   -3.6161    0.9651    0.4741 C   0  0  0  0  0  0  0  0  0  0  0  0
   -0.0304   -0.3656    0.3815 C   0  0  1  0  0  0  0  0  0  0  0  0
   -0.0501   -1.7149   -0.2275 C   0  0  0  0  0  0  0  0  0  0  0  0
   -1.1050   -2.5936    0.1437 N   0  0  0  0  0  0  0  0  0  0  0  0
   -0.8954   -3.8295   -0.6412 C   0  0  0  0  0  0  0  0  0  0  0  0
   -1.0164   -3.0440    1.5263 C   0  0  0  0  0  0  0  0  0  0  0  0
    1.2788    0.3196    0.1798 C   0  0  0  0  0  0  0  0  0  0  0  0
    1.5548    0.8679   -1.1731 C   0  0  0  0  0  0  0  0  0  0  0  0
    3.0682    1.1676   -1.2223 C   0  0  0  0  0  0  0  0  0  0  0  0
    3.5563    1.6008    0.1384 C   0  0  0  0  0  0  0  0  0  0  0  0
    4.8308    2.1517    0.0327 O   0  0  0  0  0  0  0  0  0  0  0  0
    3.5633    0.3744    1.0456 C   0  0  0  0  0  0  0  0  0  0  0  0
    2.4598   -0.5532    0.5784 C   0  0  0  0  0  0  0  0  0  0  0  0
   -0.6030    1.5442    1.7103 H   0  0  0  0  0  0  0  0  0  0  0  0
   -2.3173    0.0469    1.9438 H   0  0  0  0  0  0  0  0  0  0  0  0
   -2.7450   -0.9592    0.5389 H   0  0  0  0  0  0  0  0  0  0  0  0
   -2.4467    0.1162   -1.5326 H   0  0  0  0  0  0  0  0  0  0  0  0
   -0.8557    0.6980   -2.0443 H   0  0  0  0  0  0  0  0  0  0  0  0
   -1.4253    2.9474   -1.0493 H   0  0  0  0  0  0  0  0  0  0  0  0
   -2.6494    2.4442   -2.2430 H   0  0  0  0  0  0  0  0  0  0  0  0
   -2.8988    3.0033    0.6660 H   0  0  0  0  0  0  0  0  0  0  0  0
   -4.1427    2.7253   -0.5450 H   0  0  0  0  0  0  0  0  0  0  0  0
   -4.1662    1.1999    1.4211 H   0  0  0  0  0  0  0  0  0  0  0  0
   -4.3513    0.4190   -0.1508 H   0  0  0  0  0  0  0  0  0  0  0  0
   -0.0552   -0.5761    1.5232 H   0  0  0  0  0  0  0  0  0  0  0  0
   -0.0059   -1.6990   -1.3419 H   0  0  0  0  0  0  0  0  0  0  0  0
    0.9140   -2.2220    0.0727 H   0  0  0  0  0  0  0  0  0  0  0  0
   -0.0851   -4.4111   -0.1466 H   0  0  0  0  0  0  0  0  0  0  0  0
   -0.5445   -3.5943   -1.6571 H   0  0  0  0  0  0  0  0  0  0  0  0
   -1.8311   -4.4128   -0.6964 H   0  0  0  0  0  0  0  0  0  0  0  0
   -1.8232   -3.7909    1.6705 H   0  0  0  0  0  0  0  0  0  0  0  0
   -0.0306   -3.5024    1.7462 H   0  0  0  0  0  0  0  0  0  0  0  0
   -1.2487   -2.1887    2.1902 H   0  0  0  0  0  0  0  0  0  0  0  0
    1.3107    1.1858    0.8876 H   0  0  0  0  0  0  0  0  0  0  0  0
    1.4199    0.1214   -1.9958 H   0  0  0  0  0  0  0  0  0  0  0  0
    1.0918    1.8519   -1.3863 H   0  0  0  0  0  0  0  0  0  0  0  0
    3.2754    2.0090   -1.9175 H   0  0  0  0  0  0  0  0  0  0  0  0
    3.6328    0.3031   -1.6043 H   0  0  0  0  0  0  0  0  0  0  0  0
    2.8989    2.4028    0.5164 H   0  0  0  0  0  0  0  0  0  0  0  0
    4.8046    3.1485   -0.0146 H   0  0  0  0  0  0  0  0  0  0  0  0
    4.5552   -0.1171    1.0434 H   0  0  0  0  0  0  0  0  0  0  0  0
    3.2922    0.7471    2.0546 H   0  0  0  0  0  0  0  0  0  0  0  0
    2.1888   -1.2942    1.3589 H   0  0  0  0  0  0  0  0  0  0  0  0
    2.8492   -1.0914   -0.3097 H   0  0  0  0  0  0  0  0  0  0  0  0
  2  1  1  0
  2  3  1  0
  2  4  1  0
  4  5  1  0
  5  6  1  0
  3  7  1  0
  6  7  1  0
  2  8  1  0
  8  9  1  0
  9 10  1  0
 10 11  1  0
 10 12  1  0
  8 13  1  0
 13 14  1  0
 14 15  1  0
 15 16  1  0
 16 17  1  0
 16 18  1  0
 13 19  1  0
 18 19  1  0
  1 20  1  0
  3 21  1  0
  3 22  1  0
  4 23  1  0
  4 24  1  0
  5 25  1  0
  5 26  1  0
  6 27  1  0
  6 28  1  0
  7 29  1  0
  7 30  1  0
  8 31  1  1
  9 32  1  0
  9 33  1  0
 11 34  1  0
 11 35  1  0
 11 36  1  0
 12 37  1  0
 12 38  1  0
 12 39  1  0
 13 40  1  0
 14 41  1  0
 14 42  1  0
 15 43  1  0
 15 44  1  0
 16 45  1  0
 17 46  1  0
 18 47  1  0
 18 48  1  0
 19 49  1  0
 19 50  1  0
M  END
>  <PDBID>  (1) 
4MM7

>  <PDB ID>  (1) 
4MM7

>  <Generic Name>  (1) 
Desvenlafaxine

>  <Brand Name>  (1) 
Desvenlafaxine#Desvenlafaxine Extended-release#Desvenlafaxine Succinate#Gd-desvenlafaxine#Khedezla Extended-release#Pristiq#Pristiq Extended Release#Pristiq Extended-release#Pristiq Extended-release Extended-release#Zyven-OD

>  <DrugBank ID>  (1) 
DB06700

>  <ATC Codes>  (1) 
N06AX23

>  <Ligand ID>  (1) 
29J

>  <Target Name>  (1) 
Sodium-dependent noradrenaline transporter

>  <UniProt ID>  (1) 
P23975

>  <PDB ID.1>  (1) 
4MM7

>  <Seq. Identity>  (1) 
30%

$$$$
