PDB_DB00951_08
     RDKit          3D

 25 25  0  0  0  0  0  0  0  0999 V2000
    1.3446   -0.3549   -0.3396 C   0  0  2  0  0  0  0  0  0  0  0  0
   -0.0202   -0.5483    0.3364 C   0  0  0  0  0  0  0  0  0  0  0  0
   -2.4943    0.7293   -0.1944 N   0  0  0  0  0  0  0  0  0  0  0  0
    1.7354   -1.5534   -0.9059 O   0  0  0  0  0  0  0  0  0  0  0  0
   -0.3917    0.7558    0.9238 C   0  0  0  0  0  0  0  0  0  0  0  0
    2.2806    0.0591    0.6851 N   0  0  0  0  0  0  0  0  0  0  0  0
   -1.8707    0.9935    1.0450 C   0  0  0  0  0  0  0  0  0  0  0  0
    3.5481    0.2486    0.1096 N   0  0  0  0  0  0  0  0  0  0  0  0
   -2.3110   -0.5779   -0.7222 C   0  0  0  0  0  0  0  0  0  0  0  0
   -0.9491   -1.1362   -0.6448 C   0  0  0  0  0  0  0  0  0  0  0  0
    1.2391    0.4665   -1.0611 H   0  0  0  0  0  0  0  0  0  0  0  0
    0.2005   -1.2579    1.1882 H   0  0  0  0  0  0  0  0  0  0  0  0
   -2.5764    1.4923   -0.8596 H   0  0  0  0  0  0  0  0  0  0  0  0
    2.3348   -1.3952   -1.6937 H   0  0  0  0  0  0  0  0  0  0  0  0
    0.0328    0.8663    1.9603 H   0  0  0  0  0  0  0  0  0  0  0  0
    0.0336    1.6280    0.3534 H   0  0  0  0  0  0  0  0  0  0  0  0
    1.9757    0.9478    1.1163 H   0  0  0  0  0  0  0  0  0  0  0  0
   -2.2925    0.3185    1.8168 H   0  0  0  0  0  0  0  0  0  0  0  0
   -2.0259    2.0488    1.3174 H   0  0  0  0  0  0  0  0  0  0  0  0
    4.0501    1.0126    0.5742 H   0  0  0  0  0  0  0  0  0  0  0  0
    3.4505    0.4283   -0.9112 H   0  0  0  0  0  0  0  0  0  0  0  0
   -2.6892   -0.5515   -1.7876 H   0  0  0  0  0  0  0  0  0  0  0  0
   -3.0542   -1.2523   -0.2014 H   0  0  0  0  0  0  0  0  0  0  0  0
   -0.5112   -1.1271   -1.6873 H   0  0  0  0  0  0  0  0  0  0  0  0
   -1.0396   -2.2408   -0.4178 H   0  0  0  0  0  0  0  0  0  0  0  0
  1  2  1  0
  1  4  1  0
  2  5  1  0
  1  6  1  0
  3  7  1  0
  5  7  1  0
  6  8  1  0
  3  9  1  0
  2 10  1  0
  9 10  1  0
  1 11  1  6
  2 12  1  0
  3 13  1  0
  4 14  1  0
  5 15  1  0
  5 16  1  0
  6 17  1  0
  7 18  1  0
  7 19  1  0
  8 20  1  0
  8 21  1  0
  9 22  1  0
  9 23  1  0
 10 24  1  0
 10 25  1  0
M  END
>  <PDBID>  (1) 
5KSG

>  <PDB ID>  (1) 
5KSG

>  <Generic Name>  (1) 
Isoniazid

>  <Brand Name>  (1) 
Dom-isoniazid 300mg Tablets#Isonarif#Isoniazid#Isoniazid Syrup 50mg/5ml#Isoniazid Tab 100mg#Isoniazid Tab 300mg#Isoniazid Tab 50mg#Isoniazide 100mg Tablets#Isotamine B 300#Isotamine Powder#Isotamine Syr Pediatric 50mg/5ml#Isotamine-100#Isotamine-300#Pdp-isoniazid#Rifamate#Rifater#Nicozid#Nidrazid#Nydrazid#Rimicid#Rimifon#Servizid#Tibinide

>  <DrugBank ID>  (1) 
DB00951

>  <ATC Codes>  (1) 
J04AM04#J04AM02#J04AM06#J04AM03#J04AM05#J04AM01#J04AC51#J04AC01

>  <Ligand ID>  (1) 
NIZ

>  <Target Name>  (1) 
Catalase-peroxidase

>  <UniProt ID>  (1) 
Q08129

>  <PDB ID.1>  (1) 
5KSG

>  <Seq. Identity>  (1) 
66%

$$$$
