PDB_DB04552_06
     RDKit          3D

 43 44  0  0  0  0  0  0  0  0999 V2000
    5.7547   -0.9041    0.7207 F   0  0  0  0  0  0  0  0  0  0  0  0
    4.6563   -1.2733   -0.0693 C   0  0  0  0  0  0  0  0  0  0  0  0
    4.5530   -2.6324   -0.0689 F   0  0  0  0  0  0  0  0  0  0  0  0
    4.9178   -0.7847   -1.3290 F   0  0  0  0  0  0  0  0  0  0  0  0
    3.4736   -0.5745    0.4762 C   0  0  2  0  0  0  0  0  0  0  0  0
    2.2207   -0.9026   -0.2969 C   0  0  0  0  0  0  0  0  0  0  0  0
    0.9933   -0.3836    0.4893 C   0  0  0  0  0  0  0  0  0  0  0  0
    1.1692    1.0218    0.9250 C   0  0  0  0  0  0  0  0  0  0  0  0
    2.5368    1.5551    1.0715 C   0  0  0  0  0  0  0  0  0  0  0  0
    3.6190    0.9357    0.2637 C   0  0  0  0  0  0  0  0  0  0  0  0
   -0.1058   -0.7372   -0.2699 N   0  0  0  0  0  0  0  0  0  0  0  0
   -1.1860    0.0980   -0.5667 C   0  0  0  0  0  0  0  0  0  0  0  0
   -2.0576   -0.7153   -1.4014 N   0  0  0  0  0  0  0  0  0  0  0  0
   -2.0164    0.5885    0.5624 C   0  0  0  0  0  0  0  0  0  0  0  0
   -3.1399    1.4272   -0.0033 C   0  0  0  0  0  0  0  0  0  0  0  0
   -3.9354    1.9434    1.0507 O   0  0  0  0  0  0  0  0  0  0  0  0
   -2.6739    2.5345   -0.7060 O   0  0  0  0  0  0  0  0  0  0  0  0
   -2.6372   -0.5881    1.3407 C   0  0  0  0  0  0  0  0  0  0  0  0
   -3.3820   -1.5251    0.4494 C   0  0  0  0  0  0  0  0  0  0  0  0
   -2.4938   -1.9072   -0.7043 C   0  0  0  0  0  0  0  0  0  0  0  0
    3.2970   -0.7173    1.5634 H   0  0  0  0  0  0  0  0  0  0  0  0
    2.0978   -1.9628   -0.4933 H   0  0  0  0  0  0  0  0  0  0  0  0
    2.2494   -0.3573   -1.2552 H   0  0  0  0  0  0  0  0  0  0  0  0
    0.9971   -1.0376    1.4014 H   0  0  0  0  0  0  0  0  0  0  0  0
    0.7122    1.1362    1.9566 H   0  0  0  0  0  0  0  0  0  0  0  0
    0.5492    1.6790    0.2746 H   0  0  0  0  0  0  0  0  0  0  0  0
    2.5183    2.6537    0.8092 H   0  0  0  0  0  0  0  0  0  0  0  0
    2.9130    1.5755    2.1354 H   0  0  0  0  0  0  0  0  0  0  0  0
    4.5927    1.2104    0.6806 H   0  0  0  0  0  0  0  0  0  0  0  0
    3.5998    1.1967   -0.8061 H   0  0  0  0  0  0  0  0  0  0  0  0
    0.1051   -1.3164   -1.1427 H   0  0  0  0  0  0  0  0  0  0  0  0
   -0.8545    0.9534   -1.1780 H   0  0  0  0  0  0  0  0  0  0  0  0
   -2.8240   -0.2643   -1.8530 H   0  0  0  0  0  0  0  0  0  0  0  0
   -1.5456    1.2072    1.3121 H   0  0  0  0  0  0  0  0  0  0  0  0
   -3.8692    0.8119   -0.5929 H   0  0  0  0  0  0  0  0  0  0  0  0
   -3.7588    2.9250    1.1664 H   0  0  0  0  0  0  0  0  0  0  0  0
   -3.3881    3.0307   -1.1437 H   0  0  0  0  0  0  0  0  0  0  0  0
   -3.2150   -0.1850    2.1734 H   0  0  0  0  0  0  0  0  0  0  0  0
   -1.7410   -1.1584    1.7088 H   0  0  0  0  0  0  0  0  0  0  0  0
   -3.6084   -2.4335    1.0591 H   0  0  0  0  0  0  0  0  0  0  0  0
   -4.3624   -1.1452    0.0924 H   0  0  0  0  0  0  0  0  0  0  0  0
   -1.6297   -2.4977   -0.3203 H   0  0  0  0  0  0  0  0  0  0  0  0
   -3.1014   -2.4800   -1.4084 H   0  0  0  0  0  0  0  0  0  0  0  0
  2  1  1  0
  2  3  1  0
  2  4  1  0
  2  5  1  0
  5  6  1  0
  6  7  1  0
  7  8  1  0
  8  9  1  0
  5 10  1  0
  9 10  1  0
  7 11  1  0
 11 12  1  0
 12 13  1  0
 12 14  1  0
 14 15  1  0
 15 16  1  0
 15 17  1  0
 14 18  1  0
 18 19  1  0
 13 20  1  0
 19 20  1  0
  5 21  1  1
  6 22  1  0
  6 23  1  0
  7 24  1  0
  8 25  1  0
  8 26  1  0
  9 27  1  0
  9 28  1  0
 10 29  1  0
 10 30  1  0
 11 31  1  0
 12 32  1  0
 13 33  1  0
 14 34  1  0
 15 35  1  0
 16 36  1  0
 17 37  1  0
 18 38  1  0
 18 39  1  0
 19 40  1  0
 19 41  1  0
 20 42  1  0
 20 43  1  0
M  END
>  <PDBID>  (1) 
1TD7

>  <PDB ID>  (1) 
1TD7

>  <Generic Name>  (1) 
Niflumic Acid

>  <Brand Name>  (1) 
Niflam#Niflugel#Nifluril

>  <DrugBank ID>  (1) 
DB04552

>  <ATC Codes>  (1) 
M02AA17#M01AX02

>  <Ligand ID>  (1) 
NFL

>  <Target Name>  (1) 
Phospholipase A2

>  <UniProt ID>  (1) 
P04054

>  <PDB ID.1>  (1) 
1TD7

>  <Seq. Identity>  (1) 
43%

$$$$
