PDB_DB01144_00
     RDKit          3D

 32 32  0  0  0  0  0  0  0  0999 V2000
   -2.5391    0.2687    0.4411 S   0  0  0  0  0  0  0  0  0  0  0  0
   -2.2655    1.6852    0.6933 O   0  0  0  0  0  0  0  0  0  0  0  0
   -3.8423    0.0329   -0.6123 O   0  0  0  0  0  0  0  0  0  0  0  0
   -2.9276   -0.7182    1.7473 N   0  0  0  0  0  0  0  0  0  0  0  0
    2.6147   -0.1708    0.9355 S   0  0  0  0  0  0  0  0  0  0  0  0
    2.1061    0.0796    2.6599 O   0  0  0  0  0  0  0  0  0  0  0  0
    3.7064    1.0205    0.7986 O   0  0  0  0  0  0  0  0  0  0  0  0
    3.1519   -1.5658    0.7782 N   0  0  0  0  0  0  0  0  0  0  0  0
   -1.1628   -0.5595   -0.3611 C   0  0  0  0  0  0  0  0  0  0  0  0
    0.0093   -0.5897    0.5184 C   0  0  0  0  0  0  0  0  0  0  0  0
    1.1747    0.2459    0.1370 C   0  0  0  0  0  0  0  0  0  0  0  0
    1.3552    0.2389   -1.3653 C   0  0  0  0  0  0  0  0  0  0  0  0
    0.1262    0.9483   -1.9074 C   0  0  0  0  0  0  0  0  0  0  0  0
   -1.0300    0.0259   -1.7006 C   0  0  0  0  0  0  0  0  0  0  0  0
    2.8529    0.9737   -1.8843 Cl  0  0  0  0  0  0  0  0  0  0  0  0
    0.3000    1.3625   -3.6167 Cl  0  0  0  0  0  0  0  0  0  0  0  0
   -2.9762    2.3916    0.6047 H   0  0  0  0  0  0  0  0  0  0  0  0
   -3.9862   -0.9594   -0.6262 H   0  0  0  0  0  0  0  0  0  0  0  0
   -3.9261   -0.5237    2.0015 H   0  0  0  0  0  0  0  0  0  0  0  0
   -2.9051   -1.7204    1.4127 H   0  0  0  0  0  0  0  0  0  0  0  0
    2.0811    1.0625    2.7425 H   0  0  0  0  0  0  0  0  0  0  0  0
    3.3750    1.9444    0.9327 H   0  0  0  0  0  0  0  0  0  0  0  0
    2.6890   -2.4003    0.3591 H   0  0  0  0  0  0  0  0  0  0  0  0
    4.1846   -1.7225    0.6630 H   0  0  0  0  0  0  0  0  0  0  0  0
   -1.5393   -1.6190   -0.4765 H   0  0  0  0  0  0  0  0  0  0  0  0
   -0.3120   -0.2624    1.5520 H   0  0  0  0  0  0  0  0  0  0  0  0
    0.3913   -1.6397    0.6874 H   0  0  0  0  0  0  0  0  0  0  0  0
    0.9222    1.3166    0.3996 H   0  0  0  0  0  0  0  0  0  0  0  0
    1.2872   -0.8390   -1.6820 H   0  0  0  0  0  0  0  0  0  0  0  0
   -0.0167    1.8796   -1.3331 H   0  0  0  0  0  0  0  0  0  0  0  0
   -0.9428   -0.7806   -2.4873 H   0  0  0  0  0  0  0  0  0  0  0  0
   -1.9559    0.5940   -2.0120 H   0  0  0  0  0  0  0  0  0  0  0  0
  1  2  1  0
  1  3  1  0
  1  4  1  0
  5  6  1  0
  5  7  1  0
  5  8  1  0
  1  9  1  0
  9 10  1  0
  5 11  1  0
 10 11  1  0
 11 12  1  0
 12 13  1  0
  9 14  1  0
 13 14  1  0
 12 15  1  0
 13 16  1  0
  2 17  1  0
  3 18  1  0
  4 19  1  0
  4 20  1  0
  6 21  1  0
  7 22  1  0
  8 23  1  0
  8 24  1  0
  9 25  1  0
 10 26  1  0
 10 27  1  0
 11 28  1  0
 12 29  1  0
 13 30  1  0
 14 31  1  0
 14 32  1  0
M  END
>  <PDBID>  (1) 
2POU

>  <PDB ID>  (1) 
2POU

>  <Generic Name>  (1) 
Diclofenamide

>  <Brand Name>  (1) 
Daranide#Keveyis#Oratrol

>  <DrugBank ID>  (1) 
DB01144

>  <ATC Codes>  (1) 
S01EC02

>  <Ligand ID>  (1) 
I7A

>  <Target Name>  (1) 
Carbonic anhydrase 1

>  <UniProt ID>  (1) 
P00915

>  <PDB ID.1>  (1) 
2POU

>  <Seq. Identity>  (1) 
61%

$$$$
