PDB_DB01034_09
     RDKit          3D

 82 82  0  0  0  0  0  0  0  0999 V2000
   -5.9005   -0.8605   -0.2031 O   0  0  0  0  0  0  0  0  0  0  0  0
   -5.0781    0.2316   -0.5298 C   0  0  0  0  0  0  0  0  0  0  0  0
   -5.9773    1.3742   -0.7668 N   0  0  0  0  0  0  0  0  0  0  0  0
   -4.1856    0.4781    0.6299 C   0  0  2  0  0  0  0  0  0  0  0  0
   -3.3356    1.6575    0.4346 O   0  0  0  0  0  0  0  0  0  0  0  0
   -2.7798    0.3047    0.7027 C   0  0  2  0  0  0  0  0  0  0  0  0
   -1.8417   -0.1847   -0.3437 C   0  0  1  0  0  0  0  0  0  0  0  0
   -2.3400   -0.3055   -1.6109 O   0  0  0  0  0  0  0  0  0  0  0  0
   -0.6400    0.7349   -0.3972 C   0  0  0  0  0  0  0  0  0  0  0  0
    0.1054    0.7973    0.8920 C   0  0  0  0  0  0  0  0  0  0  0  0
    0.6401   -0.5125    1.3560 C   0  0  0  0  0  0  0  0  0  0  0  0
    1.5934   -1.1463    0.3957 C   0  0  0  0  0  0  0  0  0  0  0  0
    2.7974   -0.2541    0.1570 C   0  0  0  0  0  0  0  0  0  0  0  0
    3.6892   -0.9992   -0.8191 C   0  0  0  0  0  0  0  0  0  0  0  0
    4.9385   -0.2134   -1.1466 C   0  0  0  0  0  0  0  0  0  0  0  0
    5.7754    0.0766    0.0540 C   0  0  0  0  0  0  0  0  0  0  0  0
    5.1557    2.5587   -0.6326 O   0  0  0  0  0  0  0  0  0  0  0  0
    4.6721    1.4314    0.0709 C   0  0  0  0  0  0  0  0  0  0  0  0
    5.7583    0.9781    0.9304 N   0  0  0  0  0  0  0  0  0  0  0  0
    4.4264    0.3388   -0.9498 C   0  0  2  0  0  0  0  0  0  0  0  0
    3.4168    0.5442   -1.8978 O   0  0  0  0  0  0  0  0  0  0  0  0
    3.3446   -0.5622   -0.9043 C   0  0  2  0  0  0  0  0  0  0  0  0
    2.0661   -0.3689   -0.1136 C   0  0  0  0  0  0  0  0  0  0  0  0
    2.0410   -1.4359    0.8115 O   0  0  0  0  0  0  0  0  0  0  0  0
    0.9479   -0.4692   -1.1055 C   0  0  0  0  0  0  0  0  0  0  0  0
   -0.4266   -0.3084   -0.5741 C   0  0  0  0  0  0  0  0  0  0  0  0
   -0.8403   -1.2890    0.4526 C   0  0  0  0  0  0  0  0  0  0  0  0
   -2.2508   -1.0398    0.9242 C   0  0  0  0  0  0  0  0  0  0  0  0
   -3.2732   -1.1280   -0.1719 C   0  0  0  0  0  0  0  0  0  0  0  0
   -4.6757   -0.8786    0.3306 C   0  0  0  0  0  0  0  0  0  0  0  0
   -4.8210    0.4917    0.9481 C   0  0  0  0  0  0  0  0  0  0  0  0
   -4.4969    1.5428   -0.0796 C   0  0  0  0  0  0  0  0  0  0  0  0
   -5.4225   -1.7208   -0.3314 H   0  0  0  0  0  0  0  0  0  0  0  0
   -4.5796    0.0637   -1.4875 H   0  0  0  0  0  0  0  0  0  0  0  0
   -5.5526    2.0385   -1.4549 H   0  0  0  0  0  0  0  0  0  0  0  0
   -6.0054    1.8982    0.1422 H   0  0  0  0  0  0  0  0  0  0  0  0
   -4.7451    0.5832    1.6019 H   0  0  0  0  0  0  0  0  0  0  0  0
   -2.3183    0.3825    1.7391 H   0  0  0  0  0  0  0  0  0  0  0  0
   -1.5258   -1.2265   -0.0385 H   0  0  0  0  0  0  0  0  0  0  0  0
   -1.7970   -0.9780   -2.1106 H   0  0  0  0  0  0  0  0  0  0  0  0
    0.0104    0.5031   -1.2468 H   0  0  0  0  0  0  0  0  0  0  0  0
   -1.0517    1.7613   -0.5924 H   0  0  0  0  0  0  0  0  0  0  0  0
    0.9648    1.4953    0.7425 H   0  0  0  0  0  0  0  0  0  0  0  0
   -0.5068    1.2809    1.6836 H   0  0  0  0  0  0  0  0  0  0  0  0
    1.1843   -0.3306    2.3148 H   0  0  0  0  0  0  0  0  0  0  0  0
   -0.1407   -1.2566    1.5968 H   0  0  0  0  0  0  0  0  0  0  0  0
    1.0295   -1.2904   -0.5640 H   0  0  0  0  0  0  0  0  0  0  0  0
    1.8947   -2.1654    0.6996 H   0  0  0  0  0  0  0  0  0  0  0  0
    3.3384   -0.1156    1.1114 H   0  0  0  0  0  0  0  0  0  0  0  0
    2.5224    0.7134   -0.2698 H   0  0  0  0  0  0  0  0  0  0  0  0
    3.9581   -1.9750   -0.3852 H   0  0  0  0  0  0  0  0  0  0  0  0
    3.1158   -1.1550   -1.7448 H   0  0  0  0  0  0  0  0  0  0  0  0
    5.5032   -0.8112   -1.8909 H   0  0  0  0  0  0  0  0  0  0  0  0
    4.6504    0.7231   -1.6500 H   0  0  0  0  0  0  0  0  0  0  0  0
    6.7735   -0.4174   -0.0699 H   0  0  0  0  0  0  0  0  0  0  0  0
    5.3638   -0.3338    1.0002 H   0  0  0  0  0  0  0  0  0  0  0  0
    5.8753    1.1542    0.1853 H   0  0  0  0  0  0  0  0  0  0  0  0
    4.8117    3.3696   -0.1872 H   0  0  0  0  0  0  0  0  0  0  0  0
    3.7999    1.6781    0.6766 H   0  0  0  0  0  0  0  0  0  0  0  0
    5.6291   -0.0090    1.2468 H   0  0  0  0  0  0  0  0  0  0  0  0
    6.6489    1.0964    0.3991 H   0  0  0  0  0  0  0  0  0  0  0  0
    5.3770   -0.0031   -1.4267 H   0  0  0  0  0  0  0  0  0  0  0  0
    3.4019   -1.5531   -1.3983 H   0  0  0  0  0  0  0  0  0  0  0  0
    2.1026    0.5786    0.4257 H   0  0  0  0  0  0  0  0  0  0  0  0
    2.3529   -1.1611    1.6910 H   0  0  0  0  0  0  0  0  0  0  0  0
    1.0654   -1.4795   -1.6004 H   0  0  0  0  0  0  0  0  0  0  0  0
    1.1758    0.2523   -1.9228 H   0  0  0  0  0  0  0  0  0  0  0  0
   -1.1085   -0.2746   -1.4575 H   0  0  0  0  0  0  0  0  0  0  0  0
   -0.4977    0.7171   -0.1200 H   0  0  0  0  0  0  0  0  0  0  0  0
   -0.1957   -1.1433    1.3519 H   0  0  0  0  0  0  0  0  0  0  0  0
   -0.7755   -2.3406    0.1404 H   0  0  0  0  0  0  0  0  0  0  0  0
   -2.3401   -0.0146    1.3739 H   0  0  0  0  0  0  0  0  0  0  0  0
   -2.5600   -1.7381    1.7227 H   0  0  0  0  0  0  0  0  0  0  0  0
   -3.2822   -2.1153   -0.6755 H   0  0  0  0  0  0  0  0  0  0  0  0
   -3.0644   -0.3262   -0.9394 H   0  0  0  0  0  0  0  0  0  0  0  0
   -5.3469   -0.9053   -0.5577 H   0  0  0  0  0  0  0  0  0  0  0  0
   -4.9728   -1.6868    0.9995 H   0  0  0  0  0  0  0  0  0  0  0  0
   -4.2320    0.5661    1.8678 H   0  0  0  0  0  0  0  0  0  0  0  0
   -5.8923    0.5915    1.2501 H   0  0  0  0  0  0  0  0  0  0  0  0
   -5.1856    2.4226   -0.0098 H   0  0  0  0  0  0  0  0  0  0  0  0
   -4.4783    1.1349   -1.1047 H   0  0  0  0  0  0  0  0  0  0  0  0
   -3.4774    1.9373    0.1455 H   0  0  0  0  0  0  0  0  0  0  0  0
  1  2  1  0
  2  3  1  0
  2  4  1  0
  4  5  1  0
  4  6  1  0
  5  6  1  0
  6  7  1  0
  7  8  1  0
  7  9  1  0
  9 10  1  0
 10 11  1  0
 11 12  1  0
 12 13  1  0
 13 14  1  0
 14 15  1  0
 15 16  1  0
 17 18  1  0
 18 19  1  0
 18 20  1  0
 20 21  1  0
 20 22  1  0
 21 22  1  0
 22 23  1  0
 23 24  1  0
 23 25  1  0
 25 26  1  0
 26 27  1  0
 27 28  1  0
 28 29  1  0
 29 30  1  0
 30 31  1  0
 31 32  1  0
  1 33  1  0
  2 34  1  0
  3 35  1  0
  3 36  1  0
  4 37  1  1
  6 38  1  1
  7 39  1  1
  8 40  1  0
  9 41  1  0
  9 42  1  0
 10 43  1  0
 10 44  1  0
 11 45  1  0
 11 46  1  0
 12 47  1  0
 12 48  1  0
 13 49  1  0
 13 50  1  0
 14 51  1  0
 14 52  1  0
 15 53  1  0
 15 54  1  0
 16 55  1  0
 16 56  1  0
 16 57  1  0
 17 58  1  0
 18 59  1  0
 19 60  1  0
 19 61  1  0
 20 62  1  6
 22 63  1  6
 23 64  1  0
 24 65  1  0
 25 66  1  0
 25 67  1  0
 26 68  1  0
 26 69  1  0
 27 70  1  0
 27 71  1  0
 28 72  1  0
 28 73  1  0
 29 74  1  0
 29 75  1  0
 30 76  1  0
 30 77  1  0
 31 78  1  0
 31 79  1  0
 32 80  1  0
 32 81  1  0
 32 82  1  0
M  END
>  <PDBID>  (1) 
4LS7

>  <PDB ID>  (1) 
4LS7

>  <Generic Name>  (1) 
Cerulenin

>  <Brand Name>  (1) 
Helicocerin

>  <DrugBank ID>  (1) 
DB01034

>  <ATC Codes>  (1) 
nan

>  <Ligand ID>  (1) 
1X9

>  <Target Name>  (1) 
3-oxoacyl-[acyl-carrier-protein] synthase 2

>  <UniProt ID>  (1) 
P0AAI5

>  <PDB ID.1>  (1) 
4LS7

>  <Seq. Identity>  (1) 
51%

$$$$
