PDB_DB00642_00
     RDKit          3D

288296  0  0  0  0  0  0  0  0999 V2000
    0.7079   -0.9091   -1.1042 C   0  0  0  0  0  0  0  0  0  0  0  0
   -0.5441   -0.3392   -1.8208 C   0  0  0  0  0  0  0  0  0  0  0  0
   -1.7806   -0.8379   -1.1221 C   0  0  0  0  0  0  0  0  0  0  0  0
   -1.9496    0.0309    0.1067 C   0  0  0  0  0  0  0  0  0  0  0  0
   -0.6328    0.0203    0.8322 C   0  0  0  0  0  0  0  0  0  0  0  0
    0.3190   -1.0459    0.3163 C   0  0  0  0  0  0  0  0  0  0  0  0
    1.8214    0.0394   -1.4288 C   0  0  0  0  0  0  0  0  0  0  0  0
    3.1755   -0.2014   -0.9666 C   0  0  0  0  0  0  0  0  0  0  0  0
    3.5703   -0.3099    0.4304 C   0  0  0  0  0  0  0  0  0  0  0  0
    3.2760    0.8691    1.3075 C   0  0  0  0  0  0  0  0  0  0  0  0
    4.2110    1.8792    0.8656 N   0  0  0  0  0  0  0  0  0  0  0  0
    5.3429    1.2105    0.3154 C   0  0  0  0  0  0  0  0  0  0  0  0
    5.0929   -0.2491    0.6144 C   0  0  0  0  0  0  0  0  0  0  0  0
    5.9035   -1.1262   -0.2211 C   0  0  0  0  0  0  0  0  0  0  0  0
    6.2285   -2.3235    0.4349 O   0  0  0  0  0  0  0  0  0  0  0  0
    7.1795   -0.4060   -0.4152 N   0  0  0  0  0  0  0  0  0  0  0  0
    7.5221    0.4121    0.7077 C   0  0  0  0  0  0  0  0  0  0  0  0
    6.6095    1.5115    0.9660 N   0  0  0  0  0  0  0  0  0  0  0  0
    8.8012    1.0497    0.3646 N   0  0  0  0  0  0  0  0  0  0  0  0
   -3.0498   -0.3966    1.0134 C   0  0  0  0  0  0  0  0  0  0  0  0
   -2.7771   -1.7096    1.4441 O   0  0  0  0  0  0  0  0  0  0  0  0
   -4.3363   -0.4388    0.3849 N   0  0  0  0  0  0  0  0  0  0  0  0
   -4.8405    0.7888   -0.1228 C   0  0  1  0  0  0  0  0  0  0  0  0
   -6.1255    0.5503   -0.8620 C   0  0  0  0  0  0  0  0  0  0  0  0
   -7.2371   -0.0276   -0.0755 C   0  0  0  0  0  0  0  0  0  0  0  0
   -7.0225   -1.3655    0.5364 C   0  0  0  0  0  0  0  0  0  0  0  0
   -8.2306   -1.6740    1.2231 O   0  0  0  0  0  0  0  0  0  0  0  0
   -6.8224   -2.3703   -0.4159 O   0  0  0  0  0  0  0  0  0  0  0  0
   -5.0941    1.8669    0.8893 C   0  0  0  0  0  0  0  0  0  0  0  0
   -3.9745    2.2778    1.5958 O   0  0  0  0  0  0  0  0  0  0  0  0
   -5.5230    2.9998    0.1570 O   0  0  0  0  0  0  0  0  0  0  0  0
    0.7079   -0.9091   -1.1042 C   0  0  0  0  0  0  0  0  0  0  0  0
   -0.5441   -0.3392   -1.8208 C   0  0  0  0  0  0  0  0  0  0  0  0
   -1.7806   -0.8379   -1.1221 C   0  0  0  0  0  0  0  0  0  0  0  0
   -1.9496    0.0309    0.1067 C   0  0  0  0  0  0  0  0  0  0  0  0
   -0.6328    0.0203    0.8322 C   0  0  0  0  0  0  0  0  0  0  0  0
    0.3190   -1.0459    0.3163 C   0  0  0  0  0  0  0  0  0  0  0  0
    1.8214    0.0394   -1.4288 C   0  0  0  0  0  0  0  0  0  0  0  0
    3.1755   -0.2014   -0.9666 C   0  0  0  0  0  0  0  0  0  0  0  0
    3.5703   -0.3099    0.4304 C   0  0  0  0  0  0  0  0  0  0  0  0
    3.2760    0.8691    1.3075 C   0  0  0  0  0  0  0  0  0  0  0  0
    4.2110    1.8792    0.8656 N   0  0  0  0  0  0  0  0  0  0  0  0
    5.3429    1.2105    0.3154 C   0  0  0  0  0  0  0  0  0  0  0  0
    5.0929   -0.2491    0.6144 C   0  0  0  0  0  0  0  0  0  0  0  0
    5.9035   -1.1262   -0.2211 C   0  0  0  0  0  0  0  0  0  0  0  0
    6.2285   -2.3235    0.4349 O   0  0  0  0  0  0  0  0  0  0  0  0
    7.1795   -0.4060   -0.4152 N   0  0  0  0  0  0  0  0  0  0  0  0
    7.5221    0.4121    0.7077 C   0  0  0  0  0  0  0  0  0  0  0  0
    6.6095    1.5115    0.9660 N   0  0  0  0  0  0  0  0  0  0  0  0
    8.8012    1.0497    0.3646 N   0  0  0  0  0  0  0  0  0  0  0  0
   -3.0498   -0.3966    1.0134 C   0  0  0  0  0  0  0  0  0  0  0  0
   -2.7771   -1.7096    1.4441 O   0  0  0  0  0  0  0  0  0  0  0  0
   -4.3363   -0.4388    0.3849 N   0  0  0  0  0  0  0  0  0  0  0  0
   -4.8405    0.7888   -0.1228 C   0  0  1  0  0  0  0  0  0  0  0  0
   -6.1255    0.5503   -0.8620 C   0  0  0  0  0  0  0  0  0  0  0  0
   -7.2371   -0.0276   -0.0755 C   0  0  0  0  0  0  0  0  0  0  0  0
   -7.0225   -1.3655    0.5364 C   0  0  0  0  0  0  0  0  0  0  0  0
   -8.2306   -1.6740    1.2231 O   0  0  0  0  0  0  0  0  0  0  0  0
   -6.8224   -2.3703   -0.4159 O   0  0  0  0  0  0  0  0  0  0  0  0
   -5.0941    1.8669    0.8893 C   0  0  0  0  0  0  0  0  0  0  0  0
   -3.9745    2.2778    1.5958 O   0  0  0  0  0  0  0  0  0  0  0  0
   -5.5230    2.9998    0.1570 O   0  0  0  0  0  0  0  0  0  0  0  0
    0.7079   -0.9091   -1.1042 C   0  0  0  0  0  0  0  0  0  0  0  0
   -0.5441   -0.3392   -1.8208 C   0  0  0  0  0  0  0  0  0  0  0  0
   -1.7806   -0.8379   -1.1221 C   0  0  0  0  0  0  0  0  0  0  0  0
   -1.9496    0.0309    0.1067 C   0  0  0  0  0  0  0  0  0  0  0  0
   -0.6328    0.0203    0.8322 C   0  0  0  0  0  0  0  0  0  0  0  0
    0.3190   -1.0459    0.3163 C   0  0  0  0  0  0  0  0  0  0  0  0
    1.8214    0.0394   -1.4288 C   0  0  0  0  0  0  0  0  0  0  0  0
    3.1755   -0.2014   -0.9666 C   0  0  0  0  0  0  0  0  0  0  0  0
    3.5703   -0.3099    0.4304 C   0  0  0  0  0  0  0  0  0  0  0  0
    3.2760    0.8691    1.3075 C   0  0  0  0  0  0  0  0  0  0  0  0
    4.2110    1.8792    0.8656 N   0  0  0  0  0  0  0  0  0  0  0  0
    5.3429    1.2105    0.3154 C   0  0  0  0  0  0  0  0  0  0  0  0
    5.0929   -0.2491    0.6144 C   0  0  0  0  0  0  0  0  0  0  0  0
    5.9035   -1.1262   -0.2211 C   0  0  0  0  0  0  0  0  0  0  0  0
    6.2285   -2.3235    0.4349 O   0  0  0  0  0  0  0  0  0  0  0  0
    7.1795   -0.4060   -0.4152 N   0  0  0  0  0  0  0  0  0  0  0  0
    7.5221    0.4121    0.7077 C   0  0  0  0  0  0  0  0  0  0  0  0
    6.6095    1.5115    0.9660 N   0  0  0  0  0  0  0  0  0  0  0  0
    8.8012    1.0497    0.3646 N   0  0  0  0  0  0  0  0  0  0  0  0
   -3.0498   -0.3966    1.0134 C   0  0  0  0  0  0  0  0  0  0  0  0
   -2.7771   -1.7096    1.4441 O   0  0  0  0  0  0  0  0  0  0  0  0
   -4.3363   -0.4388    0.3849 N   0  0  0  0  0  0  0  0  0  0  0  0
   -4.8405    0.7888   -0.1228 C   0  0  1  0  0  0  0  0  0  0  0  0
   -6.1255    0.5503   -0.8620 C   0  0  0  0  0  0  0  0  0  0  0  0
   -7.2371   -0.0276   -0.0755 C   0  0  0  0  0  0  0  0  0  0  0  0
   -7.0225   -1.3655    0.5364 C   0  0  0  0  0  0  0  0  0  0  0  0
   -8.2306   -1.6740    1.2231 O   0  0  0  0  0  0  0  0  0  0  0  0
   -6.8224   -2.3703   -0.4159 O   0  0  0  0  0  0  0  0  0  0  0  0
   -5.0941    1.8669    0.8893 C   0  0  0  0  0  0  0  0  0  0  0  0
   -3.9745    2.2778    1.5958 O   0  0  0  0  0  0  0  0  0  0  0  0
   -5.5230    2.9998    0.1570 O   0  0  0  0  0  0  0  0  0  0  0  0
    0.7079   -0.9091   -1.1042 C   0  0  0  0  0  0  0  0  0  0  0  0
   -0.5441   -0.3392   -1.8208 C   0  0  0  0  0  0  0  0  0  0  0  0
   -1.7806   -0.8379   -1.1221 C   0  0  0  0  0  0  0  0  0  0  0  0
   -1.9496    0.0309    0.1067 C   0  0  0  0  0  0  0  0  0  0  0  0
   -0.6328    0.0203    0.8322 C   0  0  0  0  0  0  0  0  0  0  0  0
    0.3190   -1.0459    0.3163 C   0  0  0  0  0  0  0  0  0  0  0  0
    1.8214    0.0394   -1.4288 C   0  0  0  0  0  0  0  0  0  0  0  0
    3.1755   -0.2014   -0.9666 C   0  0  0  0  0  0  0  0  0  0  0  0
    3.5703   -0.3099    0.4304 C   0  0  0  0  0  0  0  0  0  0  0  0
    3.2760    0.8691    1.3075 C   0  0  0  0  0  0  0  0  0  0  0  0
    4.2110    1.8792    0.8656 N   0  0  0  0  0  0  0  0  0  0  0  0
    5.3429    1.2105    0.3154 C   0  0  0  0  0  0  0  0  0  0  0  0
    5.0929   -0.2491    0.6144 C   0  0  0  0  0  0  0  0  0  0  0  0
    5.9035   -1.1262   -0.2211 C   0  0  0  0  0  0  0  0  0  0  0  0
    6.2285   -2.3235    0.4349 O   0  0  0  0  0  0  0  0  0  0  0  0
    7.1795   -0.4060   -0.4152 N   0  0  0  0  0  0  0  0  0  0  0  0
    7.5221    0.4121    0.7077 C   0  0  0  0  0  0  0  0  0  0  0  0
    6.6095    1.5115    0.9660 N   0  0  0  0  0  0  0  0  0  0  0  0
    8.8012    1.0497    0.3646 N   0  0  0  0  0  0  0  0  0  0  0  0
   -3.0498   -0.3966    1.0134 C   0  0  0  0  0  0  0  0  0  0  0  0
   -2.7771   -1.7096    1.4441 O   0  0  0  0  0  0  0  0  0  0  0  0
   -4.3363   -0.4388    0.3849 N   0  0  0  0  0  0  0  0  0  0  0  0
   -4.8405    0.7888   -0.1228 C   0  0  1  0  0  0  0  0  0  0  0  0
   -6.1255    0.5503   -0.8620 C   0  0  0  0  0  0  0  0  0  0  0  0
   -7.2371   -0.0276   -0.0755 C   0  0  0  0  0  0  0  0  0  0  0  0
   -7.0225   -1.3655    0.5364 C   0  0  0  0  0  0  0  0  0  0  0  0
   -8.2306   -1.6740    1.2231 O   0  0  0  0  0  0  0  0  0  0  0  0
   -6.8224   -2.3703   -0.4159 O   0  0  0  0  0  0  0  0  0  0  0  0
   -5.0941    1.8669    0.8893 C   0  0  0  0  0  0  0  0  0  0  0  0
   -3.9745    2.2778    1.5958 O   0  0  0  0  0  0  0  0  0  0  0  0
   -5.5230    2.9998    0.1570 O   0  0  0  0  0  0  0  0  0  0  0  0
    0.8978   -1.8748   -1.5978 H   0  0  0  0  0  0  0  0  0  0  0  0
   -0.5502   -0.6069   -2.8756 H   0  0  0  0  0  0  0  0  0  0  0  0
   -0.5121    0.7741   -1.6974 H   0  0  0  0  0  0  0  0  0  0  0  0
   -1.8029   -1.9017   -0.9070 H   0  0  0  0  0  0  0  0  0  0  0  0
   -2.6507   -0.6342   -1.8021 H   0  0  0  0  0  0  0  0  0  0  0  0
   -2.1366    1.0749   -0.2622 H   0  0  0  0  0  0  0  0  0  0  0  0
   -0.1451    1.0100    0.8428 H   0  0  0  0  0  0  0  0  0  0  0  0
   -0.7865   -0.2453    1.9210 H   0  0  0  0  0  0  0  0  0  0  0  0
    1.0949   -1.1456    1.0617 H   0  0  0  0  0  0  0  0  0  0  0  0
   -0.2826   -2.0098    0.4009 H   0  0  0  0  0  0  0  0  0  0  0  0
    1.8614   -0.0013   -2.5762 H   0  0  0  0  0  0  0  0  0  0  0  0
    1.4695    1.1093   -1.2941 H   0  0  0  0  0  0  0  0  0  0  0  0
    3.8779    0.5504   -1.4642 H   0  0  0  0  0  0  0  0  0  0  0  0
    3.5313   -1.1678   -1.4771 H   0  0  0  0  0  0  0  0  0  0  0  0
    3.2936   -1.2573    0.9549 H   0  0  0  0  0  0  0  0  0  0  0  0
    3.6066    0.5890    2.3517 H   0  0  0  0  0  0  0  0  0  0  0  0
    2.2469    1.1725    1.3630 H   0  0  0  0  0  0  0  0  0  0  0  0
    3.7729    2.5727    0.2178 H   0  0  0  0  0  0  0  0  0  0  0  0
    5.5086    1.4156   -0.7644 H   0  0  0  0  0  0  0  0  0  0  0  0
    5.2893   -0.4363    1.6842 H   0  0  0  0  0  0  0  0  0  0  0  0
    5.5409   -1.3773   -1.2133 H   0  0  0  0  0  0  0  0  0  0  0  0
    6.8806   -2.8126   -0.1276 H   0  0  0  0  0  0  0  0  0  0  0  0
    7.2480    0.0314   -1.3374 H   0  0  0  0  0  0  0  0  0  0  0  0
    7.7194   -0.2054    1.5868 H   0  0  0  0  0  0  0  0  0  0  0  0
    6.4017    1.5024    2.0021 H   0  0  0  0  0  0  0  0  0  0  0  0
    9.4170    0.4110   -0.1820 H   0  0  0  0  0  0  0  0  0  0  0  0
    8.5271    1.8120   -0.3244 H   0  0  0  0  0  0  0  0  0  0  0  0
   -3.0734    0.2172    1.9076 H   0  0  0  0  0  0  0  0  0  0  0  0
   -3.0956   -2.2919    0.7022 H   0  0  0  0  0  0  0  0  0  0  0  0
   -4.3886   -1.1479   -0.3840 H   0  0  0  0  0  0  0  0  0  0  0  0
   -4.1278    1.2536   -0.8745 H   0  0  0  0  0  0  0  0  0  0  0  0
   -5.9038   -0.1792   -1.6971 H   0  0  0  0  0  0  0  0  0  0  0  0
   -6.5030    1.4990   -1.3249 H   0  0  0  0  0  0  0  0  0  0  0  0
   -8.1080   -0.1363   -0.7842 H   0  0  0  0  0  0  0  0  0  0  0  0
   -7.6317    0.6542    0.7139 H   0  0  0  0  0  0  0  0  0  0  0  0
   -6.2388   -1.4352    1.2875 H   0  0  0  0  0  0  0  0  0  0  0  0
   -8.5864   -0.8212    1.5929 H   0  0  0  0  0  0  0  0  0  0  0  0
   -6.2052   -3.0622   -0.0382 H   0  0  0  0  0  0  0  0  0  0  0  0
   -5.8771    1.5954    1.6242 H   0  0  0  0  0  0  0  0  0  0  0  0
   -4.3024    2.7395    2.4120 H   0  0  0  0  0  0  0  0  0  0  0  0
   -5.0975    2.9902   -0.7368 H   0  0  0  0  0  0  0  0  0  0  0  0
    0.8978   -1.8748   -1.5978 H   0  0  0  0  0  0  0  0  0  0  0  0
   -0.5502   -0.6069   -2.8756 H   0  0  0  0  0  0  0  0  0  0  0  0
   -0.5121    0.7741   -1.6974 H   0  0  0  0  0  0  0  0  0  0  0  0
   -1.8029   -1.9017   -0.9070 H   0  0  0  0  0  0  0  0  0  0  0  0
   -2.6507   -0.6342   -1.8021 H   0  0  0  0  0  0  0  0  0  0  0  0
   -2.1366    1.0749   -0.2622 H   0  0  0  0  0  0  0  0  0  0  0  0
   -0.1451    1.0100    0.8428 H   0  0  0  0  0  0  0  0  0  0  0  0
   -0.7865   -0.2453    1.9210 H   0  0  0  0  0  0  0  0  0  0  0  0
    1.0949   -1.1456    1.0617 H   0  0  0  0  0  0  0  0  0  0  0  0
   -0.2826   -2.0098    0.4009 H   0  0  0  0  0  0  0  0  0  0  0  0
    1.8614   -0.0013   -2.5762 H   0  0  0  0  0  0  0  0  0  0  0  0
    1.4695    1.1093   -1.2941 H   0  0  0  0  0  0  0  0  0  0  0  0
    3.8779    0.5504   -1.4642 H   0  0  0  0  0  0  0  0  0  0  0  0
    3.5313   -1.1678   -1.4771 H   0  0  0  0  0  0  0  0  0  0  0  0
    3.2936   -1.2573    0.9549 H   0  0  0  0  0  0  0  0  0  0  0  0
    3.6066    0.5890    2.3517 H   0  0  0  0  0  0  0  0  0  0  0  0
    2.2469    1.1725    1.3630 H   0  0  0  0  0  0  0  0  0  0  0  0
    3.7729    2.5727    0.2178 H   0  0  0  0  0  0  0  0  0  0  0  0
    5.5086    1.4156   -0.7644 H   0  0  0  0  0  0  0  0  0  0  0  0
    5.2893   -0.4363    1.6842 H   0  0  0  0  0  0  0  0  0  0  0  0
    5.5409   -1.3773   -1.2133 H   0  0  0  0  0  0  0  0  0  0  0  0
    6.8806   -2.8126   -0.1276 H   0  0  0  0  0  0  0  0  0  0  0  0
    7.2480    0.0314   -1.3374 H   0  0  0  0  0  0  0  0  0  0  0  0
    7.7194   -0.2054    1.5868 H   0  0  0  0  0  0  0  0  0  0  0  0
    6.4017    1.5024    2.0021 H   0  0  0  0  0  0  0  0  0  0  0  0
    9.4170    0.4110   -0.1820 H   0  0  0  0  0  0  0  0  0  0  0  0
    8.5271    1.8120   -0.3244 H   0  0  0  0  0  0  0  0  0  0  0  0
   -3.0734    0.2172    1.9076 H   0  0  0  0  0  0  0  0  0  0  0  0
   -3.0956   -2.2919    0.7022 H   0  0  0  0  0  0  0  0  0  0  0  0
   -4.3886   -1.1479   -0.3840 H   0  0  0  0  0  0  0  0  0  0  0  0
   -4.1278    1.2536   -0.8745 H   0  0  0  0  0  0  0  0  0  0  0  0
   -5.9038   -0.1792   -1.6971 H   0  0  0  0  0  0  0  0  0  0  0  0
   -6.5030    1.4990   -1.3249 H   0  0  0  0  0  0  0  0  0  0  0  0
   -8.1080   -0.1363   -0.7842 H   0  0  0  0  0  0  0  0  0  0  0  0
   -7.6317    0.6542    0.7139 H   0  0  0  0  0  0  0  0  0  0  0  0
   -6.2388   -1.4352    1.2875 H   0  0  0  0  0  0  0  0  0  0  0  0
   -8.5864   -0.8212    1.5929 H   0  0  0  0  0  0  0  0  0  0  0  0
   -6.2052   -3.0622   -0.0382 H   0  0  0  0  0  0  0  0  0  0  0  0
   -5.8771    1.5954    1.6242 H   0  0  0  0  0  0  0  0  0  0  0  0
   -4.3024    2.7395    2.4120 H   0  0  0  0  0  0  0  0  0  0  0  0
   -5.0975    2.9902   -0.7368 H   0  0  0  0  0  0  0  0  0  0  0  0
    0.8978   -1.8748   -1.5978 H   0  0  0  0  0  0  0  0  0  0  0  0
   -0.5502   -0.6069   -2.8756 H   0  0  0  0  0  0  0  0  0  0  0  0
   -0.5121    0.7741   -1.6974 H   0  0  0  0  0  0  0  0  0  0  0  0
   -1.8029   -1.9017   -0.9070 H   0  0  0  0  0  0  0  0  0  0  0  0
   -2.6507   -0.6342   -1.8021 H   0  0  0  0  0  0  0  0  0  0  0  0
   -2.1366    1.0749   -0.2622 H   0  0  0  0  0  0  0  0  0  0  0  0
   -0.1451    1.0100    0.8428 H   0  0  0  0  0  0  0  0  0  0  0  0
   -0.7865   -0.2453    1.9210 H   0  0  0  0  0  0  0  0  0  0  0  0
    1.0949   -1.1456    1.0617 H   0  0  0  0  0  0  0  0  0  0  0  0
   -0.2826   -2.0098    0.4009 H   0  0  0  0  0  0  0  0  0  0  0  0
    1.8614   -0.0013   -2.5762 H   0  0  0  0  0  0  0  0  0  0  0  0
    1.4695    1.1093   -1.2941 H   0  0  0  0  0  0  0  0  0  0  0  0
    3.8779    0.5504   -1.4642 H   0  0  0  0  0  0  0  0  0  0  0  0
    3.5313   -1.1678   -1.4771 H   0  0  0  0  0  0  0  0  0  0  0  0
    3.2936   -1.2573    0.9549 H   0  0  0  0  0  0  0  0  0  0  0  0
    3.6066    0.5890    2.3517 H   0  0  0  0  0  0  0  0  0  0  0  0
    2.2469    1.1725    1.3630 H   0  0  0  0  0  0  0  0  0  0  0  0
    3.7729    2.5727    0.2178 H   0  0  0  0  0  0  0  0  0  0  0  0
    5.5086    1.4156   -0.7644 H   0  0  0  0  0  0  0  0  0  0  0  0
    5.2893   -0.4363    1.6842 H   0  0  0  0  0  0  0  0  0  0  0  0
    5.5409   -1.3773   -1.2133 H   0  0  0  0  0  0  0  0  0  0  0  0
    6.8806   -2.8126   -0.1276 H   0  0  0  0  0  0  0  0  0  0  0  0
    7.2480    0.0314   -1.3374 H   0  0  0  0  0  0  0  0  0  0  0  0
    7.7194   -0.2054    1.5868 H   0  0  0  0  0  0  0  0  0  0  0  0
    6.4017    1.5024    2.0021 H   0  0  0  0  0  0  0  0  0  0  0  0
    9.4170    0.4110   -0.1820 H   0  0  0  0  0  0  0  0  0  0  0  0
    8.5271    1.8120   -0.3244 H   0  0  0  0  0  0  0  0  0  0  0  0
   -3.0734    0.2172    1.9076 H   0  0  0  0  0  0  0  0  0  0  0  0
   -3.0956   -2.2919    0.7022 H   0  0  0  0  0  0  0  0  0  0  0  0
   -4.3886   -1.1479   -0.3840 H   0  0  0  0  0  0  0  0  0  0  0  0
   -4.1278    1.2536   -0.8745 H   0  0  0  0  0  0  0  0  0  0  0  0
   -5.9038   -0.1792   -1.6971 H   0  0  0  0  0  0  0  0  0  0  0  0
   -6.5030    1.4990   -1.3249 H   0  0  0  0  0  0  0  0  0  0  0  0
   -8.1080   -0.1363   -0.7842 H   0  0  0  0  0  0  0  0  0  0  0  0
   -7.6317    0.6542    0.7139 H   0  0  0  0  0  0  0  0  0  0  0  0
   -6.2388   -1.4352    1.2875 H   0  0  0  0  0  0  0  0  0  0  0  0
   -8.5864   -0.8212    1.5929 H   0  0  0  0  0  0  0  0  0  0  0  0
   -6.2052   -3.0622   -0.0382 H   0  0  0  0  0  0  0  0  0  0  0  0
   -5.8771    1.5954    1.6242 H   0  0  0  0  0  0  0  0  0  0  0  0
   -4.3024    2.7395    2.4120 H   0  0  0  0  0  0  0  0  0  0  0  0
   -5.0975    2.9902   -0.7368 H   0  0  0  0  0  0  0  0  0  0  0  0
    0.8978   -1.8748   -1.5978 H   0  0  0  0  0  0  0  0  0  0  0  0
   -0.5502   -0.6069   -2.8756 H   0  0  0  0  0  0  0  0  0  0  0  0
   -0.5121    0.7741   -1.6974 H   0  0  0  0  0  0  0  0  0  0  0  0
   -1.8029   -1.9017   -0.9070 H   0  0  0  0  0  0  0  0  0  0  0  0
   -2.6507   -0.6342   -1.8021 H   0  0  0  0  0  0  0  0  0  0  0  0
   -2.1366    1.0749   -0.2622 H   0  0  0  0  0  0  0  0  0  0  0  0
   -0.1451    1.0100    0.8428 H   0  0  0  0  0  0  0  0  0  0  0  0
   -0.7865   -0.2453    1.9210 H   0  0  0  0  0  0  0  0  0  0  0  0
    1.0949   -1.1456    1.0617 H   0  0  0  0  0  0  0  0  0  0  0  0
   -0.2826   -2.0098    0.4009 H   0  0  0  0  0  0  0  0  0  0  0  0
    1.8614   -0.0013   -2.5762 H   0  0  0  0  0  0  0  0  0  0  0  0
    1.4695    1.1093   -1.2941 H   0  0  0  0  0  0  0  0  0  0  0  0
    3.8779    0.5504   -1.4642 H   0  0  0  0  0  0  0  0  0  0  0  0
    3.5313   -1.1678   -1.4771 H   0  0  0  0  0  0  0  0  0  0  0  0
    3.2936   -1.2573    0.9549 H   0  0  0  0  0  0  0  0  0  0  0  0
    3.6066    0.5890    2.3517 H   0  0  0  0  0  0  0  0  0  0  0  0
    2.2469    1.1725    1.3630 H   0  0  0  0  0  0  0  0  0  0  0  0
    3.7729    2.5727    0.2178 H   0  0  0  0  0  0  0  0  0  0  0  0
    5.5086    1.4156   -0.7644 H   0  0  0  0  0  0  0  0  0  0  0  0
    5.2893   -0.4363    1.6842 H   0  0  0  0  0  0  0  0  0  0  0  0
    5.5409   -1.3773   -1.2133 H   0  0  0  0  0  0  0  0  0  0  0  0
    6.8806   -2.8126   -0.1276 H   0  0  0  0  0  0  0  0  0  0  0  0
    7.2480    0.0314   -1.3374 H   0  0  0  0  0  0  0  0  0  0  0  0
    7.7194   -0.2054    1.5868 H   0  0  0  0  0  0  0  0  0  0  0  0
    6.4017    1.5024    2.0021 H   0  0  0  0  0  0  0  0  0  0  0  0
    9.4170    0.4110   -0.1820 H   0  0  0  0  0  0  0  0  0  0  0  0
    8.5271    1.8120   -0.3244 H   0  0  0  0  0  0  0  0  0  0  0  0
   -3.0734    0.2172    1.9076 H   0  0  0  0  0  0  0  0  0  0  0  0
   -3.0956   -2.2919    0.7022 H   0  0  0  0  0  0  0  0  0  0  0  0
   -4.3886   -1.1479   -0.3840 H   0  0  0  0  0  0  0  0  0  0  0  0
   -4.1278    1.2536   -0.8745 H   0  0  0  0  0  0  0  0  0  0  0  0
   -5.9038   -0.1792   -1.6971 H   0  0  0  0  0  0  0  0  0  0  0  0
   -6.5030    1.4990   -1.3249 H   0  0  0  0  0  0  0  0  0  0  0  0
   -8.1080   -0.1363   -0.7842 H   0  0  0  0  0  0  0  0  0  0  0  0
   -7.6317    0.6542    0.7139 H   0  0  0  0  0  0  0  0  0  0  0  0
   -6.2388   -1.4352    1.2875 H   0  0  0  0  0  0  0  0  0  0  0  0
   -8.5864   -0.8212    1.5929 H   0  0  0  0  0  0  0  0  0  0  0  0
   -6.2052   -3.0622   -0.0382 H   0  0  0  0  0  0  0  0  0  0  0  0
   -5.8771    1.5954    1.6242 H   0  0  0  0  0  0  0  0  0  0  0  0
   -4.3024    2.7395    2.4120 H   0  0  0  0  0  0  0  0  0  0  0  0
   -5.0975    2.9902   -0.7368 H   0  0  0  0  0  0  0  0  0  0  0  0
  1  2  1  0
  2  3  1  0
  3  4  1  0
  4  5  1  0
  1  6  1  0
  5  6  1  0
  1  7  1  0
  7  8  1  0
  8  9  1  0
  9 10  1  0
 10 11  1  0
 11 12  1  0
  9 13  1  0
 12 13  1  0
 13 14  1  0
 14 15  1  0
 14 16  1  0
 16 17  1  0
 12 18  1  0
 17 18  1  0
 17 19  1  0
  4 20  1  0
 20 21  1  0
 20 22  1  0
 22 23  1  0
 23 24  1  0
 24 25  1  0
 25 26  1  0
 26 27  1  0
 26 28  1  0
 23 29  1  0
 29 30  1  0
 29 31  1  0
 32 33  1  0
 33 34  1  0
 34 35  1  0
 35 36  1  0
 32 37  1  0
 36 37  1  0
 32 38  1  0
 38 39  1  0
 39 40  1  0
 40 41  1  0
 41 42  1  0
 42 43  1  0
 40 44  1  0
 43 44  1  0
 44 45  1  0
 45 46  1  0
 45 47  1  0
 47 48  1  0
 43 49  1  0
 48 49  1  0
 48 50  1  0
 35 51  1  0
 51 52  1  0
 51 53  1  0
 53 54  1  0
 54 55  1  0
 55 56  1  0
 56 57  1  0
 57 58  1  0
 57 59  1  0
 54 60  1  0
 60 61  1  0
 60 62  1  0
 63 64  1  0
 64 65  1  0
 65 66  1  0
 66 67  1  0
 63 68  1  0
 67 68  1  0
 63 69  1  0
 69 70  1  0
 70 71  1  0
 71 72  1  0
 72 73  1  0
 73 74  1  0
 71 75  1  0
 74 75  1  0
 75 76  1  0
 76 77  1  0
 76 78  1  0
 78 79  1  0
 74 80  1  0
 79 80  1  0
 79 81  1  0
 66 82  1  0
 82 83  1  0
 82 84  1  0
 84 85  1  0
 85 86  1  0
 86 87  1  0
 87 88  1  0
 88 89  1  0
 88 90  1  0
 85 91  1  0
 91 92  1  0
 91 93  1  0
 94 95  1  0
 95 96  1  0
 96 97  1  0
 97 98  1  0
 94 99  1  0
 98 99  1  0
 94100  1  0
100101  1  0
101102  1  0
102103  1  0
103104  1  0
104105  1  0
102106  1  0
105106  1  0
106107  1  0
107108  1  0
107109  1  0
109110  1  0
105111  1  0
110111  1  0
110112  1  0
 97113  1  0
113114  1  0
113115  1  0
115116  1  0
116117  1  0
117118  1  0
118119  1  0
119120  1  0
119121  1  0
116122  1  0
122123  1  0
122124  1  0
  1125  1  0
  2126  1  0
  2127  1  0
  3128  1  0
  3129  1  0
  4130  1  0
  5131  1  0
  5132  1  0
  6133  1  0
  6134  1  0
  7135  1  0
  7136  1  0
  8137  1  0
  8138  1  0
  9139  1  0
 10140  1  0
 10141  1  0
 11142  1  0
 12143  1  0
 13144  1  0
 14145  1  0
 15146  1  0
 16147  1  0
 17148  1  0
 18149  1  0
 19150  1  0
 19151  1  0
 20152  1  0
 21153  1  0
 22154  1  0
 23155  1  6
 24156  1  0
 24157  1  0
 25158  1  0
 25159  1  0
 26160  1  0
 27161  1  0
 28162  1  0
 29163  1  0
 30164  1  0
 31165  1  0
 32166  1  0
 33167  1  0
 33168  1  0
 34169  1  0
 34170  1  0
 35171  1  0
 36172  1  0
 36173  1  0
 37174  1  0
 37175  1  0
 38176  1  0
 38177  1  0
 39178  1  0
 39179  1  0
 40180  1  0
 41181  1  0
 41182  1  0
 42183  1  0
 43184  1  0
 44185  1  0
 45186  1  0
 46187  1  0
 47188  1  0
 48189  1  0
 49190  1  0
 50191  1  0
 50192  1  0
 51193  1  0
 52194  1  0
 53195  1  0
 54196  1  6
 55197  1  0
 55198  1  0
 56199  1  0
 56200  1  0
 57201  1  0
 58202  1  0
 59203  1  0
 60204  1  0
 61205  1  0
 62206  1  0
 63207  1  0
 64208  1  0
 64209  1  0
 65210  1  0
 65211  1  0
 66212  1  0
 67213  1  0
 67214  1  0
 68215  1  0
 68216  1  0
 69217  1  0
 69218  1  0
 70219  1  0
 70220  1  0
 71221  1  0
 72222  1  0
 72223  1  0
 73224  1  0
 74225  1  0
 75226  1  0
 76227  1  0
 77228  1  0
 78229  1  0
 79230  1  0
 80231  1  0
 81232  1  0
 81233  1  0
 82234  1  0
 83235  1  0
 84236  1  0
 85237  1  6
 86238  1  0
 86239  1  0
 87240  1  0
 87241  1  0
 88242  1  0
 89243  1  0
 90244  1  0
 91245  1  0
 92246  1  0
 93247  1  0
 94248  1  0
 95249  1  0
 95250  1  0
 96251  1  0
 96252  1  0
 97253  1  0
 98254  1  0
 98255  1  0
 99256  1  0
 99257  1  0
100258  1  0
100259  1  0
101260  1  0
101261  1  0
102262  1  0
103263  1  0
103264  1  0
104265  1  0
105266  1  0
106267  1  0
107268  1  0
108269  1  0
109270  1  0
110271  1  0
111272  1  0
112273  1  0
112274  1  0
113275  1  0
114276  1  0
115277  1  0
116278  1  6
117279  1  0
117280  1  0
118281  1  0
118282  1  0
119283  1  0
120284  1  0
121285  1  0
122286  1  0
123287  1  0
124288  1  0
M  END
>  <PDBID>  (1) 
1JU6

>  <PDB ID>  (1) 
1JU6

>  <Generic Name>  (1) 
Pemetrexed

>  <Brand Name>  (1) 
Act Pemetrexed#Alimta#Pemetrexed#Pemetrexed Disodium for Injection#Taro-pemetrexed

>  <DrugBank ID>  (1) 
DB00642

>  <ATC Codes>  (1) 
L01BA04

>  <Ligand ID>  (1) 
LYA

>  <Target Name>  (1) 
Thymidylate synthase

>  <UniProt ID>  (1) 
P04818

>  <PDB ID.1>  (1) 
1JU6

>  <Seq. Identity>  (1) 
100%

$$$$
