PDB_DB00655_06
     RDKit          3D

100106  0  0  0  0  0  0  0  0999 V2000
    0.2685   -0.6955    0.0684 C   0  0  2  0  0  0  0  0  0  0  0  0
   -1.8059   -1.2167    1.3947 C   0  0  0  0  0  0  0  0  0  0  0  0
   -2.5408   -0.2082    0.5854 C   0  0  2  0  0  0  0  0  0  0  0  0
   -2.4951    1.1491    1.2189 C   0  0  0  0  0  0  0  0  0  0  0  0
   -4.8105   -0.1554    1.2894 O   0  0  0  0  0  0  0  0  0  0  0  0
    5.5914    0.4789    0.4058 O   0  0  0  0  0  0  0  0  0  0  0  0
   -3.9486   -0.5600    0.2679 C   0  0  1  0  0  0  0  0  0  0  0  0
   -4.2281    0.1845   -1.0211 C   0  0  0  0  0  0  0  0  0  0  0  0
   -2.8873    0.6170   -1.5769 C   0  0  0  0  0  0  0  0  0  0  0  0
   -1.9170   -0.1942   -0.8125 C   0  0  1  0  0  0  0  0  0  0  0  0
   -0.5509    0.3705   -0.6704 C   0  0  2  0  0  0  0  0  0  0  0  0
   -0.3303   -1.0909    1.3628 C   0  0  0  0  0  0  0  0  0  0  0  0
    0.1201    0.5310   -2.0242 C   0  0  0  0  0  0  0  0  0  0  0  0
    1.4540    1.1663   -1.8267 C   0  0  0  0  0  0  0  0  0  0  0  0
    2.0365    1.0064   -0.4710 C   0  0  0  0  0  0  0  0  0  0  0  0
    1.6764   -0.2463    0.2390 C   0  0  0  0  0  0  0  0  0  0  0  0
    3.5622    1.0219   -0.6180 C   0  0  0  0  0  0  0  0  0  0  0  0
    4.2157    0.2779    0.5414 C   0  0  0  0  0  0  0  0  0  0  0  0
    3.9752   -1.2084    0.4049 C   0  0  0  0  0  0  0  0  0  0  0  0
    2.5957   -1.3968   -0.1643 C   0  0  0  0  0  0  0  0  0  0  0  0
    0.2685   -0.6955    0.0684 C   0  0  2  0  0  0  0  0  0  0  0  0
   -1.8059   -1.2167    1.3947 C   0  0  0  0  0  0  0  0  0  0  0  0
   -2.5408   -0.2082    0.5854 C   0  0  2  0  0  0  0  0  0  0  0  0
   -2.4951    1.1491    1.2189 C   0  0  0  0  0  0  0  0  0  0  0  0
   -4.8105   -0.1554    1.2894 O   0  0  0  0  0  0  0  0  0  0  0  0
    5.5914    0.4789    0.4058 O   0  0  0  0  0  0  0  0  0  0  0  0
   -3.9486   -0.5600    0.2679 C   0  0  1  0  0  0  0  0  0  0  0  0
   -4.2281    0.1845   -1.0211 C   0  0  0  0  0  0  0  0  0  0  0  0
   -2.8873    0.6170   -1.5769 C   0  0  0  0  0  0  0  0  0  0  0  0
   -1.9170   -0.1942   -0.8125 C   0  0  1  0  0  0  0  0  0  0  0  0
   -0.5509    0.3705   -0.6704 C   0  0  2  0  0  0  0  0  0  0  0  0
   -0.3303   -1.0909    1.3628 C   0  0  0  0  0  0  0  0  0  0  0  0
    0.1201    0.5310   -2.0242 C   0  0  0  0  0  0  0  0  0  0  0  0
    1.4540    1.1663   -1.8267 C   0  0  0  0  0  0  0  0  0  0  0  0
    2.0365    1.0064   -0.4710 C   0  0  0  0  0  0  0  0  0  0  0  0
    1.6764   -0.2463    0.2390 C   0  0  0  0  0  0  0  0  0  0  0  0
    3.5622    1.0219   -0.6180 C   0  0  0  0  0  0  0  0  0  0  0  0
    4.2157    0.2779    0.5414 C   0  0  0  0  0  0  0  0  0  0  0  0
    3.9752   -1.2084    0.4049 C   0  0  0  0  0  0  0  0  0  0  0  0
    2.5957   -1.3968   -0.1643 C   0  0  0  0  0  0  0  0  0  0  0  0
    0.2265   -1.5953   -0.6138 H   0  0  0  0  0  0  0  0  0  0  0  0
   -2.1624   -2.2586    1.1446 H   0  0  0  0  0  0  0  0  0  0  0  0
   -2.1334   -1.0811    2.4680 H   0  0  0  0  0  0  0  0  0  0  0  0
   -3.4595    1.2693    1.7905 H   0  0  0  0  0  0  0  0  0  0  0  0
   -1.6915    1.2582    1.9705 H   0  0  0  0  0  0  0  0  0  0  0  0
   -2.4644    1.9749    0.5052 H   0  0  0  0  0  0  0  0  0  0  0  0
   -4.5361   -0.6841    2.0926 H   0  0  0  0  0  0  0  0  0  0  0  0
    5.7808    1.4344    0.3543 H   0  0  0  0  0  0  0  0  0  0  0  0
   -4.0388   -1.6635    0.1140 H   0  0  0  0  0  0  0  0  0  0  0  0
   -4.8983    1.0355   -0.8156 H   0  0  0  0  0  0  0  0  0  0  0  0
   -4.7632   -0.4892   -1.7288 H   0  0  0  0  0  0  0  0  0  0  0  0
   -2.7324    1.7066   -1.5020 H   0  0  0  0  0  0  0  0  0  0  0  0
   -2.8614    0.3085   -2.6420 H   0  0  0  0  0  0  0  0  0  0  0  0
   -1.8579   -1.2247   -1.1863 H   0  0  0  0  0  0  0  0  0  0  0  0
   -0.5272    1.3277   -0.1120 H   0  0  0  0  0  0  0  0  0  0  0  0
    0.1004   -2.0969    1.6397 H   0  0  0  0  0  0  0  0  0  0  0  0
    0.0714   -0.4034    2.1597 H   0  0  0  0  0  0  0  0  0  0  0  0
    0.2763   -0.5184   -2.4095 H   0  0  0  0  0  0  0  0  0  0  0  0
   -0.5359    1.0557   -2.7427 H   0  0  0  0  0  0  0  0  0  0  0  0
    2.1972    0.8420   -2.6107 H   0  0  0  0  0  0  0  0  0  0  0  0
    1.3305    2.2701   -2.0168 H   0  0  0  0  0  0  0  0  0  0  0  0
    1.7637    1.8768    0.1932 H   0  0  0  0  0  0  0  0  0  0  0  0
    1.8766   -0.0855    1.3381 H   0  0  0  0  0  0  0  0  0  0  0  0
    3.7645    0.4250   -1.5438 H   0  0  0  0  0  0  0  0  0  0  0  0
    3.9315    2.0460   -0.6996 H   0  0  0  0  0  0  0  0  0  0  0  0
    3.8604    0.6610    1.5108 H   0  0  0  0  0  0  0  0  0  0  0  0
    4.6943   -1.6169   -0.3515 H   0  0  0  0  0  0  0  0  0  0  0  0
    4.1044   -1.7270    1.3711 H   0  0  0  0  0  0  0  0  0  0  0  0
    2.1244   -2.3135    0.2955 H   0  0  0  0  0  0  0  0  0  0  0  0
    2.5785   -1.5642   -1.2470 H   0  0  0  0  0  0  0  0  0  0  0  0
    0.2265   -1.5953   -0.6138 H   0  0  0  0  0  0  0  0  0  0  0  0
   -2.1624   -2.2586    1.1446 H   0  0  0  0  0  0  0  0  0  0  0  0
   -2.1334   -1.0811    2.4680 H   0  0  0  0  0  0  0  0  0  0  0  0
   -3.4595    1.2693    1.7905 H   0  0  0  0  0  0  0  0  0  0  0  0
   -1.6915    1.2582    1.9705 H   0  0  0  0  0  0  0  0  0  0  0  0
   -2.4644    1.9749    0.5052 H   0  0  0  0  0  0  0  0  0  0  0  0
   -4.5361   -0.6841    2.0926 H   0  0  0  0  0  0  0  0  0  0  0  0
    5.7808    1.4344    0.3543 H   0  0  0  0  0  0  0  0  0  0  0  0
   -4.0388   -1.6635    0.1140 H   0  0  0  0  0  0  0  0  0  0  0  0
   -4.8983    1.0355   -0.8156 H   0  0  0  0  0  0  0  0  0  0  0  0
   -4.7632   -0.4892   -1.7288 H   0  0  0  0  0  0  0  0  0  0  0  0
   -2.7324    1.7066   -1.5020 H   0  0  0  0  0  0  0  0  0  0  0  0
   -2.8614    0.3085   -2.6420 H   0  0  0  0  0  0  0  0  0  0  0  0
   -1.8579   -1.2247   -1.1863 H   0  0  0  0  0  0  0  0  0  0  0  0
   -0.5272    1.3277   -0.1120 H   0  0  0  0  0  0  0  0  0  0  0  0
    0.1004   -2.0969    1.6397 H   0  0  0  0  0  0  0  0  0  0  0  0
    0.0714   -0.4034    2.1597 H   0  0  0  0  0  0  0  0  0  0  0  0
    0.2763   -0.5184   -2.4095 H   0  0  0  0  0  0  0  0  0  0  0  0
   -0.5359    1.0557   -2.7427 H   0  0  0  0  0  0  0  0  0  0  0  0
    2.1972    0.8420   -2.6107 H   0  0  0  0  0  0  0  0  0  0  0  0
    1.3305    2.2701   -2.0168 H   0  0  0  0  0  0  0  0  0  0  0  0
    1.7637    1.8768    0.1932 H   0  0  0  0  0  0  0  0  0  0  0  0
    1.8766   -0.0855    1.3381 H   0  0  0  0  0  0  0  0  0  0  0  0
    3.7645    0.4250   -1.5438 H   0  0  0  0  0  0  0  0  0  0  0  0
    3.9315    2.0460   -0.6996 H   0  0  0  0  0  0  0  0  0  0  0  0
    3.8604    0.6610    1.5108 H   0  0  0  0  0  0  0  0  0  0  0  0
    4.6943   -1.6169   -0.3515 H   0  0  0  0  0  0  0  0  0  0  0  0
    4.1044   -1.7270    1.3711 H   0  0  0  0  0  0  0  0  0  0  0  0
    2.1244   -2.3135    0.2955 H   0  0  0  0  0  0  0  0  0  0  0  0
    2.5785   -1.5642   -1.2470 H   0  0  0  0  0  0  0  0  0  0  0  0
  2  3  1  0
  3  4  1  1
  3  7  1  0
  5  7  1  0
  7  8  1  0
  8  9  1  0
  3 10  1  0
  9 10  1  0
  1 11  1  0
 10 11  1  0
  1 12  1  0
  2 12  1  0
 11 13  1  0
 13 14  1  0
 14 15  1  0
  1 16  1  0
 15 16  1  0
 15 17  1  0
  6 18  1  0
 17 18  1  0
 18 19  1  0
 16 20  1  0
 19 20  1  0
 22 23  1  0
 23 24  1  1
 23 27  1  0
 25 27  1  0
 27 28  1  0
 28 29  1  0
 23 30  1  0
 29 30  1  0
 21 31  1  0
 30 31  1  0
 21 32  1  0
 22 32  1  0
 31 33  1  0
 33 34  1  0
 34 35  1  0
 21 36  1  0
 35 36  1  0
 35 37  1  0
 26 38  1  0
 37 38  1  0
 38 39  1  0
 36 40  1  0
 39 40  1  0
  1 41  1  6
  2 42  1  0
  2 43  1  0
  4 44  1  0
  4 45  1  0
  4 46  1  0
  5 47  1  0
  6 48  1  0
  7 49  1  6
  8 50  1  0
  8 51  1  0
  9 52  1  0
  9 53  1  0
 10 54  1  6
 11 55  1  1
 12 56  1  0
 12 57  1  0
 13 58  1  0
 13 59  1  0
 14 60  1  0
 14 61  1  0
 15 62  1  0
 16 63  1  0
 17 64  1  0
 17 65  1  0
 18 66  1  0
 19 67  1  0
 19 68  1  0
 20 69  1  0
 20 70  1  0
 21 71  1  6
 22 72  1  0
 22 73  1  0
 24 74  1  0
 24 75  1  0
 24 76  1  0
 25 77  1  0
 26 78  1  0
 27 79  1  6
 28 80  1  0
 28 81  1  0
 29 82  1  0
 29 83  1  0
 30 84  1  6
 31 85  1  1
 32 86  1  0
 32 87  1  0
 33 88  1  0
 33 89  1  0
 34 90  1  0
 34 91  1  0
 35 92  1  0
 36 93  1  0
 37 94  1  0
 37 95  1  0
 38 96  1  0
 39 97  1  0
 39 98  1  0
 40 99  1  0
 40100  1  0
M  END
>  <PDBID>  (1) 
3HM1

>  <PDB ID>  (1) 
3HM1

>  <Generic Name>  (1) 
Estrone

>  <Brand Name>  (1) 
Estragyn Vaginal Cream#Oestrilin Cones Vaginaux#Oestrilin Creme Vaginale 1mg#Estrone

>  <DrugBank ID>  (1) 
DB00655

>  <ATC Codes>  (1) 
G03CA07#G03CC04

>  <Ligand ID>  (1) 
J3Z

>  <Target Name>  (1) 
Estrogen receptor

>  <UniProt ID>  (1) 
P03372

>  <PDB ID.1>  (1) 
3HM1

>  <Seq. Identity>  (1) 
93%

$$$$
