PDB_DB00696_01
     RDKit          3D

100107  0  0  0  0  0  0  0  0999 V2000
   -8.4178    1.0767    1.6187 C   0  0  0  0  0  0  0  0  0  0  0  0
   -8.7884    1.1787    0.2151 N   0  0  0  0  0  0  0  0  0  0  0  0
   -0.9350    0.3174    2.4273 O   0  0  0  0  0  0  0  0  0  0  0  0
   -5.1947    0.4072   -1.2228 C   0  0  0  0  0  0  0  0  0  0  0  0
   -6.0837    0.9057   -2.3690 C   0  0  0  0  0  0  0  0  0  0  0  0
   -7.5009    1.1597   -1.8975 C   0  0  0  0  0  0  0  0  0  0  0  0
   -7.5741    0.8104   -0.4611 C   0  0  0  0  0  0  0  0  0  0  0  0
   -6.5971    1.7351    0.2846 C   0  0  0  0  0  0  0  0  0  0  0  0
   -4.7996   -2.4224    1.7843 C   0  0  0  0  0  0  0  0  0  0  0  0
   -0.8054    0.0282    1.0344 C   0  0  0  0  0  0  0  0  0  0  0  0
    0.5658   -1.3290   -0.4983 C   0  0  2  0  0  0  0  0  0  0  0  0
    1.2764   -0.1711   -1.2128 C   0  0  0  0  0  0  0  0  0  0  0  0
    3.6027    0.5431   -1.1477 C   0  0  2  0  0  0  0  0  0  0  0  0
   -4.3183   -1.2067    1.1564 N   0  0  0  0  0  0  0  0  0  0  0  0
   -6.9156    1.3185    1.6931 C   0  0  0  0  0  0  0  0  0  0  0  0
    1.6275   -2.2584   -0.2871 O   0  0  0  0  0  0  0  0  0  0  0  0
    4.3675   -0.3577   -2.0667 C   0  0  0  0  0  0  0  0  0  0  0  0
    5.8594   -2.2670   -1.8604 C   0  0  0  0  0  0  0  0  0  0  0  0
    5.9573   -3.3568   -0.7813 C   0  0  0  0  0  0  0  0  0  0  0  0
    4.6160   -3.2793   -0.0381 C   0  0  0  0  0  0  0  0  0  0  0  0
    3.8812   -2.2576   -0.8372 C   0  0  1  0  0  0  0  0  0  0  0  0
    2.7962   -1.5268   -0.1321 C   0  0  1  0  0  0  0  0  0  0  0  0
   -0.4616   -1.9846   -1.3650 C   0  0  0  0  0  0  0  0  0  0  0  0
    4.4179    1.1056   -0.0516 C   0  0  0  0  0  0  0  0  0  0  0  0
    5.5731    1.9767   -0.2806 C   0  0  0  0  0  0  0  0  0  0  0  0
    6.7565    1.5202   -1.0210 C   0  0  0  0  0  0  0  0  0  0  0  0
   -6.2671    0.0009    2.0659 C   0  0  0  0  0  0  0  0  0  0  0  0
    0.1078   -0.9825    0.7777 N   0  0  0  0  0  0  0  0  0  0  0  0
    1.3404   -0.3713   -2.5697 O   0  0  0  0  0  0  0  0  0  0  0  0
    8.0113    2.1273   -0.3256 C   0  0  0  0  0  0  0  0  0  0  0  0
    8.2058    1.4861    1.0217 C   0  0  0  0  0  0  0  0  0  0  0  0
    6.9055    1.5080    1.7961 C   0  0  0  0  0  0  0  0  0  0  0  0
    5.9959    2.4914    1.1134 C   0  0  0  0  0  0  0  0  0  0  0  0
   -4.8026   -0.0206    1.8253 C   0  0  2  0  0  0  0  0  0  0  0  0
    2.5266   -0.2030   -0.5279 N   0  0  0  0  0  0  0  0  0  0  0  0
    5.1610    0.2371   -2.9963 O   0  0  0  0  0  0  0  0  0  0  0  0
   -2.8769   -1.1884    1.3415 C   0  0  0  0  0  0  0  0  0  0  0  0
    4.9720   -1.3520   -1.2265 N   0  0  0  0  0  0  0  0  0  0  0  0
    3.0925   -1.5881    1.2523 O   0  0  0  0  0  0  0  0  0  0  0  0
   -2.2237   -0.0847    0.5554 C   0  0  1  0  0  0  0  0  0  0  0  0
   -2.9072    1.2480    0.7487 C   0  0  0  0  0  0  0  0  0  0  0  0
   -4.3586    1.1807    1.0345 C   0  0  1  0  0  0  0  0  0  0  0  0
   -5.2164    1.4445   -0.1690 C   0  0  0  0  0  0  0  0  0  0  0  0
   -8.6853    0.0762    2.0152 H   0  0  0  0  0  0  0  0  0  0  0  0
   -8.9432    1.8708    2.1571 H   0  0  0  0  0  0  0  0  0  0  0  0
   -9.6033    0.5766   -0.0087 H   0  0  0  0  0  0  0  0  0  0  0  0
   -0.0980    0.7334    2.7535 H   0  0  0  0  0  0  0  0  0  0  0  0
   -4.1740    0.3619   -1.6733 H   0  0  0  0  0  0  0  0  0  0  0  0
   -5.4602   -0.6016   -0.9018 H   0  0  0  0  0  0  0  0  0  0  0  0
   -6.1337    0.1506   -3.1816 H   0  0  0  0  0  0  0  0  0  0  0  0
   -5.5976    1.8426   -2.7279 H   0  0  0  0  0  0  0  0  0  0  0  0
   -7.7123    2.2561   -2.0022 H   0  0  0  0  0  0  0  0  0  0  0  0
   -8.2462    0.6327   -2.5265 H   0  0  0  0  0  0  0  0  0  0  0  0
   -7.3769   -0.2473   -0.2462 H   0  0  0  0  0  0  0  0  0  0  0  0
   -6.9267    2.7647    0.1257 H   0  0  0  0  0  0  0  0  0  0  0  0
   -4.6778   -2.3602    2.8835 H   0  0  0  0  0  0  0  0  0  0  0  0
   -4.1381   -3.2491    1.4138 H   0  0  0  0  0  0  0  0  0  0  0  0
   -5.8286   -2.6938    1.4707 H   0  0  0  0  0  0  0  0  0  0  0  0
   -0.4034    1.0405    0.6325 H   0  0  0  0  0  0  0  0  0  0  0  0
    0.7867    0.7934   -1.0187 H   0  0  0  0  0  0  0  0  0  0  0  0
    3.0705    1.3537   -1.7345 H   0  0  0  0  0  0  0  0  0  0  0  0
   -6.6446    2.0694    2.4473 H   0  0  0  0  0  0  0  0  0  0  0  0
    3.5953   -0.9488   -2.6895 H   0  0  0  0  0  0  0  0  0  0  0  0
    5.4499   -2.7267   -2.7672 H   0  0  0  0  0  0  0  0  0  0  0  0
    6.8646   -1.8251   -2.0006 H   0  0  0  0  0  0  0  0  0  0  0  0
    6.1527   -4.3412   -1.1966 H   0  0  0  0  0  0  0  0  0  0  0  0
    6.7291   -2.9856   -0.0722 H   0  0  0  0  0  0  0  0  0  0  0  0
    4.7339   -3.0093    1.0113 H   0  0  0  0  0  0  0  0  0  0  0  0
    4.1535   -4.2947   -0.1561 H   0  0  0  0  0  0  0  0  0  0  0  0
    3.5498   -2.7530   -1.7750 H   0  0  0  0  0  0  0  0  0  0  0  0
   -0.8958   -1.3095   -2.1502 H   0  0  0  0  0  0  0  0  0  0  0  0
   -1.2941   -2.4692   -0.8495 H   0  0  0  0  0  0  0  0  0  0  0  0
    0.0114   -2.8409   -1.9602 H   0  0  0  0  0  0  0  0  0  0  0  0
    4.7791    0.2807    0.6551 H   0  0  0  0  0  0  0  0  0  0  0  0
    3.7439    1.6937    0.6805 H   0  0  0  0  0  0  0  0  0  0  0  0
    5.2263    2.9360   -0.7853 H   0  0  0  0  0  0  0  0  0  0  0  0
    6.9832    0.4489   -1.0268 H   0  0  0  0  0  0  0  0  0  0  0  0
    6.8174    2.0068   -2.0348 H   0  0  0  0  0  0  0  0  0  0  0  0
   -6.7255   -0.8658    1.5803 H   0  0  0  0  0  0  0  0  0  0  0  0
   -6.4664   -0.1349    3.1693 H   0  0  0  0  0  0  0  0  0  0  0  0
    0.8448   -1.0195    1.4913 H   0  0  0  0  0  0  0  0  0  0  0  0
    1.1854    0.4370   -3.1156 H   0  0  0  0  0  0  0  0  0  0  0  0
    7.9226    3.2127   -0.2824 H   0  0  0  0  0  0  0  0  0  0  0  0
    8.8897    1.8061   -0.9561 H   0  0  0  0  0  0  0  0  0  0  0  0
    8.6194    0.4582    0.9438 H   0  0  0  0  0  0  0  0  0  0  0  0
    8.9541    2.0703    1.5924 H   0  0  0  0  0  0  0  0  0  0  0  0
    6.4546    0.5009    1.8807 H   0  0  0  0  0  0  0  0  0  0  0  0
    7.1085    1.8661    2.8095 H   0  0  0  0  0  0  0  0  0  0  0  0
    6.4568    3.4817    1.0702 H   0  0  0  0  0  0  0  0  0  0  0  0
    5.0865    2.5886    1.7721 H   0  0  0  0  0  0  0  0  0  0  0  0
   -4.2486    0.0259    2.8069 H   0  0  0  0  0  0  0  0  0  0  0  0
    4.6232    0.5858   -3.7308 H   0  0  0  0  0  0  0  0  0  0  0  0
   -2.4110   -2.1469    1.1745 H   0  0  0  0  0  0  0  0  0  0  0  0
   -2.7431   -0.9729    2.4463 H   0  0  0  0  0  0  0  0  0  0  0  0
    2.7859   -2.4516    1.6301 H   0  0  0  0  0  0  0  0  0  0  0  0
   -2.2238   -0.3665   -0.5051 H   0  0  0  0  0  0  0  0  0  0  0  0
   -2.7640    1.8104   -0.2092 H   0  0  0  0  0  0  0  0  0  0  0  0
   -2.3420    1.8340    1.5101 H   0  0  0  0  0  0  0  0  0  0  0  0
   -4.5751    2.0572    1.7269 H   0  0  0  0  0  0  0  0  0  0  0  0
   -4.8110    2.3912   -0.6326 H   0  0  0  0  0  0  0  0  0  0  0  0
  1  2  1  0
  4  5  1  0
  5  6  1  0
  2  7  1  0
  6  7  1  0
  7  8  1  0
  3 10  1  0
 11 12  1  0
  9 14  1  0
  1 15  1  0
  8 15  1  0
 11 16  1  0
 13 17  1  0
 18 19  1  0
 19 20  1  0
 20 21  1  0
 16 22  1  0
 21 22  1  0
 11 23  1  0
 13 24  1  0
 24 25  1  0
 25 26  1  0
 15 27  1  0
 10 28  1  0
 11 28  1  1
 12 29  1  0
 26 30  1  0
 30 31  1  0
 31 32  1  0
 25 33  1  0
 32 33  1  0
 14 34  1  0
 27 34  1  0
 12 35  1  0
 13 35  1  0
 22 35  1  0
 17 36  1  0
 14 37  1  0
 17 38  1  0
 18 38  1  0
 21 38  1  0
 22 39  1  1
 10 40  1  0
 37 40  1  0
 40 41  1  0
 34 42  1  0
 41 42  1  0
  4 43  1  0
  8 43  1  0
 42 43  1  0
  1 44  1  0
  1 45  1  0
  2 46  1  0
  3 47  1  0
  4 48  1  0
  4 49  1  0
  5 50  1  0
  5 51  1  0
  6 52  1  0
  6 53  1  0
  7 54  1  0
  8 55  1  0
  9 56  1  0
  9 57  1  0
  9 58  1  0
 10 59  1  0
 12 60  1  0
 13 61  1  6
 15 62  1  0
 17 63  1  0
 18 64  1  0
 18 65  1  0
 19 66  1  0
 19 67  1  0
 20 68  1  0
 20 69  1  0
 21 70  1  6
 23 71  1  0
 23 72  1  0
 23 73  1  0
 24 74  1  0
 24 75  1  0
 25 76  1  0
 26 77  1  0
 26 78  1  0
 27 79  1  0
 27 80  1  0
 28 81  1  0
 29 82  1  0
 30 83  1  0
 30 84  1  0
 31 85  1  0
 31 86  1  0
 32 87  1  0
 32 88  1  0
 33 89  1  0
 33 90  1  0
 34 91  1  1
 36 92  1  0
 37 93  1  0
 37 94  1  0
 39 95  1  0
 40 96  1  6
 41 97  1  0
 41 98  1  0
 42 99  1  1
 43100  1  0
M  END
>  <PDBID>  (1) 
4IB4

>  <PDB ID>  (1) 
4IB4

>  <Generic Name>  (1) 
Ergotamine

>  <Brand Name>  (1) 
Cafergot#Cafergot Sup#Cafergot Tab#Ergodryl Cap#Ergomar#Ergomar Slt 2mg#Ergomar Sublingual#Ergotamine#Ergotamine Tartrate and Caffeine#Gravergol Capsules#Megral Tabs#Migergot#Anervan#Antimigraine#Enxak#Ergam#Ergo-Kranit#Gynaemine#Wigrettes

>  <DrugBank ID>  (1) 
DB00696

>  <ATC Codes>  (1) 
N02CA52#N02CA72#N02CA02

>  <Ligand ID>  (1) 
ERM

>  <Target Name>  (1) 
5-hydroxytryptamine receptor 2A

>  <UniProt ID>  (1) 
P28223

>  <PDB ID.1>  (1) 
4IB4

>  <Seq. Identity>  (1) 
58%

$$$$
