PDB_DB04552_00
     RDKit          3D

 43 44  0  0  0  0  0  0  0  0999 V2000
   -2.9989    1.4263   -2.1693 F   0  0  0  0  0  0  0  0  0  0  0  0
   -3.4024    1.8844   -0.9429 C   0  0  0  0  0  0  0  0  0  0  0  0
   -4.7626    2.1554   -1.0285 F   0  0  0  0  0  0  0  0  0  0  0  0
   -2.7979    3.0829   -0.6023 F   0  0  0  0  0  0  0  0  0  0  0  0
   -3.1196    0.8964    0.1768 C   0  0  2  0  0  0  0  0  0  0  0  0
   -1.6480    0.5982    0.2856 C   0  0  0  0  0  0  0  0  0  0  0  0
   -1.2042   -0.6086   -0.4406 C   0  0  0  0  0  0  0  0  0  0  0  0
   -2.1369   -1.7942   -0.2756 C   0  0  0  0  0  0  0  0  0  0  0  0
   -3.5230   -1.4124   -0.7519 C   0  0  0  0  0  0  0  0  0  0  0  0
   -4.0045   -0.2995    0.1247 C   0  0  0  0  0  0  0  0  0  0  0  0
    0.0902   -1.0100   -0.0986 N   0  0  0  0  0  0  0  0  0  0  0  0
    1.1984   -0.2157   -0.3533 C   0  0  0  0  0  0  0  0  0  0  0  0
    1.1865    1.0896    0.2186 N   0  0  0  0  0  0  0  0  0  0  0  0
    2.4717   -0.9697    0.0170 C   0  0  0  0  0  0  0  0  0  0  0  0
    2.6138   -1.1373    1.4990 C   0  0  0  0  0  0  0  0  0  0  0  0
    3.8196   -1.8440    1.7032 O   0  0  0  0  0  0  0  0  0  0  0  0
    2.7664    0.0653    2.1766 O   0  0  0  0  0  0  0  0  0  0  0  0
    3.6002   -0.2112   -0.6142 C   0  0  0  0  0  0  0  0  0  0  0  0
    3.6086    1.2124   -0.1922 C   0  0  0  0  0  0  0  0  0  0  0  0
    2.2984    1.9085   -0.1425 C   0  0  0  0  0  0  0  0  0  0  0  0
   -3.3885    1.4574    1.1219 H   0  0  0  0  0  0  0  0  0  0  0  0
   -1.3507    0.4857    1.3601 H   0  0  0  0  0  0  0  0  0  0  0  0
   -1.1140    1.4880   -0.0973 H   0  0  0  0  0  0  0  0  0  0  0  0
   -1.2124   -0.4020   -1.5565 H   0  0  0  0  0  0  0  0  0  0  0  0
   -1.7474   -2.6070   -0.9126 H   0  0  0  0  0  0  0  0  0  0  0  0
   -2.1949   -2.0865    0.7856 H   0  0  0  0  0  0  0  0  0  0  0  0
   -4.1774   -2.2818   -0.5908 H   0  0  0  0  0  0  0  0  0  0  0  0
   -3.5014   -1.1237   -1.8114 H   0  0  0  0  0  0  0  0  0  0  0  0
   -4.1632   -0.6787    1.1568 H   0  0  0  0  0  0  0  0  0  0  0  0
   -5.0084    0.0586   -0.2337 H   0  0  0  0  0  0  0  0  0  0  0  0
    0.2280   -1.9735    0.2346 H   0  0  0  0  0  0  0  0  0  0  0  0
    1.2798   -0.0671   -1.4731 H   0  0  0  0  0  0  0  0  0  0  0  0
    0.9245    1.1309    1.2200 H   0  0  0  0  0  0  0  0  0  0  0  0
    2.3772   -1.9767   -0.4261 H   0  0  0  0  0  0  0  0  0  0  0  0
    1.8103   -1.7646    1.8847 H   0  0  0  0  0  0  0  0  0  0  0  0
    3.9729   -1.8197    2.6852 H   0  0  0  0  0  0  0  0  0  0  0  0
    2.2665    0.1349    3.0038 H   0  0  0  0  0  0  0  0  0  0  0  0
    4.5524   -0.6808   -0.2561 H   0  0  0  0  0  0  0  0  0  0  0  0
    3.5076   -0.3253   -1.7174 H   0  0  0  0  0  0  0  0  0  0  0  0
    4.1686    1.3188    0.7781 H   0  0  0  0  0  0  0  0  0  0  0  0
    4.2598    1.7648   -0.9329 H   0  0  0  0  0  0  0  0  0  0  0  0
    2.0793    2.3898   -1.1200 H   0  0  0  0  0  0  0  0  0  0  0  0
    2.3757    2.7416    0.6039 H   0  0  0  0  0  0  0  0  0  0  0  0
  2  1  1  0
  2  3  1  0
  2  4  1  0
  2  5  1  0
  5  6  1  0
  6  7  1  0
  7  8  1  0
  8  9  1  0
  5 10  1  0
  9 10  1  0
  7 11  1  0
 11 12  1  0
 12 13  1  0
 12 14  1  0
 14 15  1  0
 15 16  1  0
 15 17  1  0
 14 18  1  0
 18 19  1  0
 13 20  1  0
 19 20  1  0
  5 21  1  1
  6 22  1  0
  6 23  1  0
  7 24  1  0
  8 25  1  0
  8 26  1  0
  9 27  1  0
  9 28  1  0
 10 29  1  0
 10 30  1  0
 11 31  1  0
 12 32  1  0
 13 33  1  0
 14 34  1  0
 15 35  1  0
 16 36  1  0
 17 37  1  0
 18 38  1  0
 18 39  1  0
 19 40  1  0
 19 41  1  0
 20 42  1  0
 20 43  1  0
M  END
>  <PDBID>  (1) 
1TD7

>  <PDB ID>  (1) 
1TD7

>  <Generic Name>  (1) 
Niflumic Acid

>  <Brand Name>  (1) 
Niflam#Niflugel#Nifluril

>  <DrugBank ID>  (1) 
DB04552

>  <ATC Codes>  (1) 
M02AA17#M01AX02

>  <Ligand ID>  (1) 
NFL

>  <Target Name>  (1) 
Phospholipase A2

>  <UniProt ID>  (1) 
P04054

>  <PDB ID.1>  (1) 
1TD7

>  <Seq. Identity>  (1) 
43%

$$$$
