PDB_DB04868_06
     RDKit          3D

 91 95  0  0  0  0  0  0  0  0999 V2000
    2.7196    3.1951    1.1210 O   0  0  0  0  0  0  0  0  0  0  0  0
    2.4886    1.9893    0.3174 C   0  0  1  0  0  0  0  0  0  0  0  0
    3.2889    1.0382    0.8857 N   0  0  0  0  0  0  0  0  0  0  0  0
    3.6664   -0.2161    0.5180 C   0  0  2  0  0  0  0  0  0  0  0  0
    4.5003   -0.3307   -0.7687 C   0  0  0  0  0  0  0  0  0  0  0  0
    5.3512   -1.5480   -0.7040 C   0  0  0  0  0  0  0  0  0  0  0  0
    6.7610   -1.3022   -0.5915 N   0  0  0  0  0  0  0  0  0  0  0  0
    7.3475   -0.5979   -1.7041 C   0  0  0  0  0  0  0  0  0  0  0  0
    8.3898    0.3412   -1.1330 C   0  0  0  0  0  0  0  0  0  0  0  0
    7.9427    1.7616   -1.0442 C   0  0  0  0  0  0  0  0  0  0  0  0
    8.5703   -0.1793    0.2071 N   0  0  0  0  0  0  0  0  0  0  0  0
    7.2763   -0.7737    0.5947 C   0  0  0  0  0  0  0  0  0  0  0  0
    4.8751   -2.5752    0.2693 C   0  0  0  0  0  0  0  0  0  0  0  0
    2.6882   -1.3410    0.3953 C   0  0  0  0  0  0  0  0  0  0  0  0
    3.4632   -2.6303    0.6463 C   0  0  0  0  0  0  0  0  0  0  0  0
    3.2313   -3.0312    2.1033 C   0  0  0  0  0  0  0  0  0  0  0  0
    1.8638   -3.0618    2.3767 F   0  0  0  0  0  0  0  0  0  0  0  0
    3.6854   -4.3062    2.3702 F   0  0  0  0  0  0  0  0  0  0  0  0
    3.8893   -2.1757    2.9598 F   0  0  0  0  0  0  0  0  0  0  0  0
    1.0293    1.9583    0.1877 C   0  0  1  0  0  0  0  0  0  0  0  0
    0.6930    3.3363   -0.5095 C   0  0  0  0  0  0  0  0  0  0  0  0
   -0.6967    3.2867   -1.0861 C   0  0  0  0  0  0  0  0  0  0  0  0
   -1.6654    2.4871   -0.2391 C   0  0  0  0  0  0  0  0  0  0  0  0
   -1.8932    3.1405    1.0868 C   0  0  0  0  0  0  0  0  0  0  0  0
   -1.1906    1.0892   -0.0677 C   0  0  2  0  0  0  0  0  0  0  0  0
    0.2802    0.9828   -0.6023 C   0  0  0  0  0  0  0  0  0  0  0  0
   -2.0264    0.0755   -0.5878 N   0  0  0  0  0  0  0  0  0  0  0  0
   -3.2814    0.0351    0.0735 C   0  0  0  0  0  0  0  0  0  0  0  0
   -3.2789   -0.3614    1.4435 N   0  0  0  0  0  0  0  0  0  0  0  0
   -4.5628   -0.0343    2.0248 C   0  0  0  0  0  0  0  0  0  0  0  0
   -5.7212   -0.6990    1.2766 C   0  0  0  0  0  0  0  0  0  0  0  0
   -5.5564   -0.3417   -0.1840 C   0  0  0  0  0  0  0  0  0  0  0  0
   -4.2603   -0.8052   -0.6343 N   0  0  0  0  0  0  0  0  0  0  0  0
   -6.7009   -0.7333   -1.0417 C   0  0  0  0  0  0  0  0  0  0  0  0
   -8.0034   -0.0968   -0.6430 C   0  0  0  0  0  0  0  0  0  0  0  0
   -9.0987   -1.0894   -0.3285 C   0  0  0  0  0  0  0  0  0  0  0  0
   -8.6018   -2.2210    0.5138 C   0  0  0  0  0  0  0  0  0  0  0  0
   -7.3998   -2.8378    0.0392 N   0  0  0  0  0  0  0  0  0  0  0  0
   -6.9255   -2.2167   -1.1721 C   0  0  0  0  0  0  0  0  0  0  0  0
    2.1632    2.9765    1.9370 H   0  0  0  0  0  0  0  0  0  0  0  0
    2.8732    2.3836   -0.6865 H   0  0  0  0  0  0  0  0  0  0  0  0
    3.5932    1.2892    1.8999 H   0  0  0  0  0  0  0  0  0  0  0  0
    4.3684   -0.5923    1.3780 H   0  0  0  0  0  0  0  0  0  0  0  0
    3.7558   -0.4765   -1.5732 H   0  0  0  0  0  0  0  0  0  0  0  0
    5.0364    0.5903   -0.9904 H   0  0  0  0  0  0  0  0  0  0  0  0
    5.2582   -2.0379   -1.7217 H   0  0  0  0  0  0  0  0  0  0  0  0
    6.5769    0.0238   -2.2024 H   0  0  0  0  0  0  0  0  0  0  0  0
    7.7882   -1.2949   -2.4538 H   0  0  0  0  0  0  0  0  0  0  0  0
    9.3223    0.2148   -1.7372 H   0  0  0  0  0  0  0  0  0  0  0  0
    8.6668    2.3894   -1.6019 H   0  0  0  0  0  0  0  0  0  0  0  0
    7.8492    2.0684    0.0163 H   0  0  0  0  0  0  0  0  0  0  0  0
    6.9451    1.9316   -1.5216 H   0  0  0  0  0  0  0  0  0  0  0  0
    9.2791   -0.9471    0.1268 H   0  0  0  0  0  0  0  0  0  0  0  0
    6.7257    0.0146    1.0996 H   0  0  0  0  0  0  0  0  0  0  0  0
    7.5763   -1.6204    1.2777 H   0  0  0  0  0  0  0  0  0  0  0  0
    5.4733   -2.3915    1.2146 H   0  0  0  0  0  0  0  0  0  0  0  0
    5.2181   -3.6143   -0.0287 H   0  0  0  0  0  0  0  0  0  0  0  0
    2.2964   -1.3674   -0.6553 H   0  0  0  0  0  0  0  0  0  0  0  0
    1.9145   -1.2565    1.1612 H   0  0  0  0  0  0  0  0  0  0  0  0
    2.9457   -3.4004    0.0346 H   0  0  0  0  0  0  0  0  0  0  0  0
    0.5386    2.0836    1.2027 H   0  0  0  0  0  0  0  0  0  0  0  0
    0.7364    4.1316    0.2368 H   0  0  0  0  0  0  0  0  0  0  0  0
    1.4043    3.4497   -1.3538 H   0  0  0  0  0  0  0  0  0  0  0  0
   -1.1184    4.3357   -1.0908 H   0  0  0  0  0  0  0  0  0  0  0  0
   -0.7533    2.9534   -2.1289 H   0  0  0  0  0  0  0  0  0  0  0  0
   -2.6191    2.4760   -0.8050 H   0  0  0  0  0  0  0  0  0  0  0  0
   -1.7446    2.4374    1.9243 H   0  0  0  0  0  0  0  0  0  0  0  0
   -1.1315    3.9457    1.1918 H   0  0  0  0  0  0  0  0  0  0  0  0
   -2.9064    3.5718    1.1826 H   0  0  0  0  0  0  0  0  0  0  0  0
   -1.0222    0.8742    1.0361 H   0  0  0  0  0  0  0  0  0  0  0  0
    0.4729   -0.0674   -0.5431 H   0  0  0  0  0  0  0  0  0  0  0  0
    0.2352    1.2372   -1.6991 H   0  0  0  0  0  0  0  0  0  0  0  0
   -1.5839   -0.8298   -0.7328 H   0  0  0  0  0  0  0  0  0  0  0  0
   -3.7631    1.0659    0.0600 H   0  0  0  0  0  0  0  0  0  0  0  0
   -2.5848    0.1972    1.9762 H   0  0  0  0  0  0  0  0  0  0  0  0
   -4.6162   -0.2705    3.1064 H   0  0  0  0  0  0  0  0  0  0  0  0
   -4.6896    1.0754    1.9350 H   0  0  0  0  0  0  0  0  0  0  0  0
   -6.6373   -0.2154    1.6715 H   0  0  0  0  0  0  0  0  0  0  0  0
   -5.6529   -1.7628    1.4863 H   0  0  0  0  0  0  0  0  0  0  0  0
   -5.4728    0.7863   -0.1920 H   0  0  0  0  0  0  0  0  0  0  0  0
   -4.1193   -0.5941   -1.6449 H   0  0  0  0  0  0  0  0  0  0  0  0
   -6.5009   -0.3786   -2.0990 H   0  0  0  0  0  0  0  0  0  0  0  0
   -8.4262    0.5714   -1.4413 H   0  0  0  0  0  0  0  0  0  0  0  0
   -7.9039    0.5581    0.2475 H   0  0  0  0  0  0  0  0  0  0  0  0
   -9.6489   -1.4216   -1.2324 H   0  0  0  0  0  0  0  0  0  0  0  0
   -9.8626   -0.5433    0.2999 H   0  0  0  0  0  0  0  0  0  0  0  0
   -8.4792   -1.8657    1.5639 H   0  0  0  0  0  0  0  0  0  0  0  0
   -9.4494   -2.9647    0.5731 H   0  0  0  0  0  0  0  0  0  0  0  0
   -7.6273   -3.8350   -0.2131 H   0  0  0  0  0  0  0  0  0  0  0  0
   -6.0775   -2.7694   -1.6159 H   0  0  0  0  0  0  0  0  0  0  0  0
   -7.7601   -2.3259   -1.9286 H   0  0  0  0  0  0  0  0  0  0  0  0
  1  2  1  0
  2  3  1  0
  3  4  1  0
  4  5  1  0
  5  6  1  0
  6  7  1  0
  7  8  1  0
  8  9  1  0
  9 10  1  0
  9 11  1  0
  7 12  1  0
 11 12  1  0
  6 13  1  0
  4 14  1  0
 13 15  1  0
 14 15  1  0
 15 16  1  0
 16 17  1  0
 16 18  1  0
 16 19  1  0
  2 20  1  0
 20 21  1  0
 21 22  1  0
 22 23  1  0
 23 24  1  0
 23 25  1  0
 20 26  1  0
 25 26  1  0
 25 27  1  0
 27 28  1  0
 28 29  1  0
 29 30  1  0
 30 31  1  0
 31 32  1  0
 28 33  1  0
 32 33  1  0
 32 34  1  0
 34 35  1  0
 35 36  1  0
 36 37  1  0
 37 38  1  0
 34 39  1  0
 38 39  1  0
  1 40  1  0
  2 41  1  6
  3 42  1  0
  4 43  1  1
  5 44  1  0
  5 45  1  0
  6 46  1  0
  8 47  1  0
  8 48  1  0
  9 49  1  0
 10 50  1  0
 10 51  1  0
 10 52  1  0
 11 53  1  0
 12 54  1  0
 12 55  1  0
 13 56  1  0
 13 57  1  0
 14 58  1  0
 14 59  1  0
 15 60  1  0
 20 61  1  1
 21 62  1  0
 21 63  1  0
 22 64  1  0
 22 65  1  0
 23 66  1  0
 24 67  1  0
 24 68  1  0
 24 69  1  0
 25 70  1  1
 26 71  1  0
 26 72  1  0
 27 73  1  0
 28 74  1  0
 29 75  1  0
 30 76  1  0
 30 77  1  0
 31 78  1  0
 31 79  1  0
 32 80  1  0
 33 81  1  0
 34 82  1  0
 35 83  1  0
 35 84  1  0
 36 85  1  0
 36 86  1  0
 37 87  1  0
 37 88  1  0
 38 89  1  0
 39 90  1  0
 39 91  1  0
M  END
>  <PDBID>  (1) 
5MO4

>  <PDB ID>  (1) 
5MO4

>  <Generic Name>  (1) 
Nilotinib

>  <Brand Name>  (1) 
Tasigna

>  <DrugBank ID>  (1) 
DB04868

>  <ATC Codes>  (1) 
L01XE08

>  <Ligand ID>  (1) 
NIL

>  <Target Name>  (1) 
Tyrosine-protein kinase ABL1

>  <UniProt ID>  (1) 
P00519

>  <PDB ID.1>  (1) 
5MO4

>  <Seq. Identity>  (1) 
97%

$$$$
