PDB_DB00884_02
     RDKit          3D

 38 38  0  0  0  0  0  0  0  0999 V2000
   -3.0298   -2.5265   -0.7708 O   0  0  0  0  0  0  0  0  0  0  0  0
   -1.8322   -1.6114    0.0265 P   0  0  0  0  0  0  0  0  0  0  0  0
   -0.8367   -2.4368   -0.7722 O   0  0  0  0  0  0  0  0  0  0  0  0
   -1.3465   -2.1080    1.5004 O   0  0  0  0  0  0  0  0  0  0  0  0
   -1.4322   -0.0225   -0.5524 C   0  0  0  0  0  0  0  0  0  0  0  0
   -1.0782   -0.1694   -1.9562 O   0  0  0  0  0  0  0  0  0  0  0  0
   -2.7411    1.1067   -0.5376 P   0  0  0  0  0  0  0  0  0  0  0  0
   -3.6743   -0.0229   -1.3503 O   0  0  0  0  0  0  0  0  0  0  0  0
   -2.7108    0.9357    1.1460 O   0  0  0  0  0  0  0  0  0  0  0  0
   -1.9935    2.2788   -1.2759 O   0  0  0  0  0  0  0  0  0  0  0  0
   -0.2411    0.7012   -0.0342 C   0  0  0  0  0  0  0  0  0  0  0  0
    1.1439    0.3249   -0.1232 C   0  0  1  0  0  0  0  0  0  0  0  0
    2.0161    1.4985    0.5201 C   0  0  0  0  0  0  0  0  0  0  0  0
    3.4484    1.1253    0.2169 C   0  0  0  0  0  0  0  0  0  0  0  0
    3.8219   -0.1316    0.9807 C   0  0  0  0  0  0  0  0  0  0  0  0
    2.9986   -1.1740    0.4480 N   0  0  0  0  0  0  0  0  0  0  0  0
    1.5904   -0.8089    0.7558 C   0  0  0  0  0  0  0  0  0  0  0  0
   -0.1293   -0.3173   -2.0597 H   0  0  0  0  0  0  0  0  0  0  0  0
   -0.2885    1.7996   -0.3818 H   0  0  0  0  0  0  0  0  0  0  0  0
   -0.5070    0.8789    1.0876 H   0  0  0  0  0  0  0  0  0  0  0  0
    1.7705    1.5682    1.5761 H   0  0  0  0  0  0  0  0  0  0  0  0
    3.4677    0.8558   -0.8802 H   0  0  0  0  0  0  0  0  0  0  0  0
    4.8925   -0.3210    0.7669 H   0  0  0  0  0  0  0  0  0  0  0  0
    1.0732   -1.7360    0.7100 H   0  0  0  0  0  0  0  0  0  0  0  0
    3.1800   -2.0537    0.9789 H   0  0  0  0  0  0  0  0  0  0  0  0
   -3.1258   -2.2156   -1.6570 H   0  0  0  0  0  0  0  0  0  0  0  0
   -2.9284   -1.2042    0.6187 H   0  0  0  0  0  0  0  0  0  0  0  0
   -0.7037   -2.2374   -1.7086 H   0  0  0  0  0  0  0  0  0  0  0  0
   -1.7703   -2.8483    1.9225 H   0  0  0  0  0  0  0  0  0  0  0  0
   -3.8252    1.7068   -0.3361 H   0  0  0  0  0  0  0  0  0  0  0  0
   -3.4416    0.0736   -2.2808 H   0  0  0  0  0  0  0  0  0  0  0  0
   -2.2945    1.7334    1.4845 H   0  0  0  0  0  0  0  0  0  0  0  0
   -2.1912    3.2182   -1.2357 H   0  0  0  0  0  0  0  0  0  0  0  0
    1.6116    0.2036   -1.0931 H   0  0  0  0  0  0  0  0  0  0  0  0
    1.8173    2.4264   -0.0027 H   0  0  0  0  0  0  0  0  0  0  0  0
    4.1304    1.9541    0.3938 H   0  0  0  0  0  0  0  0  0  0  0  0
    3.5975    0.0280    2.0364 H   0  0  0  0  0  0  0  0  0  0  0  0
    1.5622   -0.4721    1.8387 H   0  0  0  0  0  0  0  0  0  0  0  0
  1  2  1  0
  2  3  1  0
  2  4  1  0
  2  5  1  0
  5  6  1  0
  5  7  1  0
  7  8  1  0
  7  9  1  0
  7 10  1  0
  5 11  1  0
 11 12  1  0
 12 13  1  0
 13 14  1  0
 14 15  1  0
 15 16  1  0
 12 17  1  0
 16 17  1  0
 18  6  1  0
 11 19  1  0
 11 20  1  0
 13 21  1  0
 14 22  1  0
 15 23  1  0
 17 24  1  0
 25 16  1  0
  1 26  1  0
  2 27  1  0
  3 28  1  0
  4 29  1  0
  7 30  1  0
  8 31  1  0
  9 32  1  0
 10 33  1  0
 12 34  1  6
 13 35  1  0
 14 36  1  0
 15 37  1  0
 17 38  1  0
M  END
>  <PDBID>  (1) 
5CG5

>  <PDB ID>  (1) 
5CG5

>  <Generic Name>  (1) 
Risedronate

>  <Brand Name>  (1) 
Actonel#Actonel Dr#Actonel Plus Calcium#Actonel Sachet Kit#Apo-risedronate#Atelvia#Auro-risedronate#Dom-risedronate#Jamp-risedronate#Mylan-risedronate#Ntp-risedronate#PHL-risedronate#PMS-risedronate#PMS-risedronate Plus Calcium#Pendo-risedronate#Q-risedronate#Ratio-risedronate#Risedronate#Risedronate Sodium#Risedronate-35#Riva-risedronate#Sandoz Risedronate#Teva-risedronate#Benet

>  <DrugBank ID>  (1) 
DB00884

>  <ATC Codes>  (1) 
M05BB02#M05BA07#M05BB04#M05BB07

>  <Ligand ID>  (1) 
RIS

>  <Target Name>  (1) 
Farnesyl pyrophosphate synthase

>  <UniProt ID>  (1) 
P14324

>  <PDB ID.1>  (1) 
5CG5

>  <Seq. Identity>  (1) 
100%

$$$$
