PDB_DB05015_04
     RDKit          3D

108110  0  0  0  0  0  0  0  0999 V2000
   -6.7090   -0.2935   -1.4392 O   0  0  0  0  0  0  0  0  0  0  0  0
   -5.3738   -0.1772   -1.8077 C   0  0  0  0  0  0  0  0  0  0  0  0
   -5.2543    0.8724   -2.8013 N   0  0  0  0  0  0  0  0  0  0  0  0
   -5.6743    2.0492   -2.3242 O   0  0  0  0  0  0  0  0  0  0  0  0
   -4.5914    0.1978   -0.5368 C   0  0  0  0  0  0  0  0  0  0  0  0
   -3.1359    0.3471   -0.8296 C   0  0  0  0  0  0  0  0  0  0  0  0
   -2.3277    0.7347    0.3763 C   0  0  0  0  0  0  0  0  0  0  0  0
   -0.8689    0.8713    0.0248 C   0  0  0  0  0  0  0  0  0  0  0  0
   -2.5716   -0.1020    1.5771 C   0  0  0  0  0  0  0  0  0  0  0  0
   -1.9246   -1.4521    1.5176 C   0  0  0  0  0  0  0  0  0  0  0  0
   -0.8668   -1.6157    0.4976 C   0  0  0  0  0  0  0  0  0  0  0  0
   -0.0606   -0.3793    0.1730 C   0  0  2  0  0  0  0  0  0  0  0  0
    1.2219   -0.2001    1.2020 S   0  0  0  0  0  0  0  0  0  0  0  0
    0.4441    0.1190    2.7656 O   0  0  0  0  0  0  0  0  0  0  0  0
    1.8658   -1.7951    1.5275 O   0  0  0  0  0  0  0  0  0  0  0  0
    2.3305    0.7529    1.0213 N   0  0  0  0  0  0  0  0  0  0  0  0
    3.6021    0.5421    0.3982 C   0  0  0  0  0  0  0  0  0  0  0  0
    4.4253   -0.5324    1.0491 C   0  0  0  0  0  0  0  0  0  0  0  0
    5.8518   -0.3849    0.5586 C   0  0  0  0  0  0  0  0  0  0  0  0
    5.9323    0.4857   -0.6658 C   0  0  0  0  0  0  0  0  0  0  0  0
    4.8515    0.1967   -1.6721 C   0  0  0  0  0  0  0  0  0  0  0  0
    3.4658    0.2754   -1.1000 C   0  0  0  0  0  0  0  0  0  0  0  0
   -6.7048   -0.3353   -1.4575 O   0  0  0  0  0  0  0  0  0  0  0  0
   -5.3692   -0.2098   -1.8209 C   0  0  0  0  0  0  0  0  0  0  0  0
   -5.2504    0.8438   -2.8093 N   0  0  0  0  0  0  0  0  0  0  0  0
   -5.6752    2.0182   -2.3373 O   0  0  0  0  0  0  0  0  0  0  0  0
   -4.5920    0.1615   -0.5433 C   0  0  0  0  0  0  0  0  0  0  0  0
   -3.1376    0.3199   -0.8305 C   0  0  0  0  0  0  0  0  0  0  0  0
   -2.3347    0.7039    0.3805 C   0  0  0  0  0  0  0  0  0  0  0  0
   -0.8764    0.8502    0.0357 C   0  0  0  0  0  0  0  0  0  0  0  0
   -2.5808   -0.1406    1.5761 C   0  0  0  0  0  0  0  0  0  0  0  0
   -1.9262   -1.4861    1.5104 C   0  0  0  0  0  0  0  0  0  0  0  0
   -0.8627   -1.6388    0.4953 C   0  0  0  0  0  0  0  0  0  0  0  0
   -0.0601   -0.3964    0.1814 C   0  0  2  0  0  0  0  0  0  0  0  0
    1.2161   -0.2177    1.2155 S   0  0  0  0  0  0  0  0  0  0  0  0
    0.4288    0.0901    2.7778 O   0  0  0  0  0  0  0  0  0  0  0  0
    1.8660   -1.8117    1.5368 O   0  0  0  0  0  0  0  0  0  0  0  0
    2.3190    0.7433    1.0524 N   0  0  0  0  0  0  0  0  0  0  0  0
    3.5867    0.5549    0.4141 C   0  0  0  0  0  0  0  0  0  0  0  0
    4.4186   -0.5355    1.0308 C   0  0  0  0  0  0  0  0  0  0  0  0
    5.8412   -0.3672    0.5353 C   0  0  0  0  0  0  0  0  0  0  0  0
    5.9128    0.5440   -0.6682 C   0  0  0  0  0  0  0  0  0  0  0  0
    4.8267    0.2753   -1.6722 C   0  0  0  0  0  0  0  0  0  0  0  0
    3.4438    0.3311   -1.0896 C   0  0  0  0  0  0  0  0  0  0  0  0
   -6.8381   -0.7769   -0.5938 H   0  0  0  0  0  0  0  0  0  0  0  0
   -5.0094   -1.1420   -2.1544 H   0  0  0  0  0  0  0  0  0  0  0  0
   -4.3049    0.8981   -3.2241 H   0  0  0  0  0  0  0  0  0  0  0  0
   -6.3639    1.9208   -1.6362 H   0  0  0  0  0  0  0  0  0  0  0  0
   -4.7128   -0.7214    0.1112 H   0  0  0  0  0  0  0  0  0  0  0  0
   -5.0844    1.0835   -0.1302 H   0  0  0  0  0  0  0  0  0  0  0  0
   -2.7812   -0.5836   -1.3199 H   0  0  0  0  0  0  0  0  0  0  0  0
   -3.0410    1.2102   -1.5426 H   0  0  0  0  0  0  0  0  0  0  0  0
   -2.6666    1.7819    0.6400 H   0  0  0  0  0  0  0  0  0  0  0  0
   -0.4014    1.6675    0.6661 H   0  0  0  0  0  0  0  0  0  0  0  0
   -0.8424    1.3123   -1.0089 H   0  0  0  0  0  0  0  0  0  0  0  0
   -3.6580   -0.2413    1.7160 H   0  0  0  0  0  0  0  0  0  0  0  0
   -2.2647    0.4606    2.5144 H   0  0  0  0  0  0  0  0  0  0  0  0
   -2.7027   -2.2474    1.3359 H   0  0  0  0  0  0  0  0  0  0  0  0
   -1.5515   -1.6779    2.5593 H   0  0  0  0  0  0  0  0  0  0  0  0
   -1.2112   -2.1461   -0.4280 H   0  0  0  0  0  0  0  0  0  0  0  0
   -0.1143   -2.3419    0.9337 H   0  0  0  0  0  0  0  0  0  0  0  0
    0.3419   -0.5883   -0.8702 H   0  0  0  0  0  0  0  0  0  0  0  0
    0.2238    1.0696    2.7667 H   0  0  0  0  0  0  0  0  0  0  0  0
    1.9769   -1.8820    2.4928 H   0  0  0  0  0  0  0  0  0  0  0  0
    2.2946    1.6945    1.5142 H   0  0  0  0  0  0  0  0  0  0  0  0
    4.1848    1.4851    0.4737 H   0  0  0  0  0  0  0  0  0  0  0  0
    4.1053   -1.5550    0.7650 H   0  0  0  0  0  0  0  0  0  0  0  0
    4.3588   -0.3812    2.1437 H   0  0  0  0  0  0  0  0  0  0  0  0
    6.3132   -1.3754    0.3470 H   0  0  0  0  0  0  0  0  0  0  0  0
    6.4153    0.1290    1.3762 H   0  0  0  0  0  0  0  0  0  0  0  0
    6.9046    0.2381   -1.1712 H   0  0  0  0  0  0  0  0  0  0  0  0
    6.0156    1.5734   -0.4203 H   0  0  0  0  0  0  0  0  0  0  0  0
    5.0361   -0.8311   -2.0682 H   0  0  0  0  0  0  0  0  0  0  0  0
    4.9526    0.9518   -2.4805 H   0  0  0  0  0  0  0  0  0  0  0  0
    2.8740   -0.6373   -1.2932 H   0  0  0  0  0  0  0  0  0  0  0  0
    2.9186    1.1405   -1.5265 H   0  0  0  0  0  0  0  0  0  0  0  0
   -6.8353   -0.5976   -0.5302 H   0  0  0  0  0  0  0  0  0  0  0  0
   -4.9975   -1.1719   -2.1681 H   0  0  0  0  0  0  0  0  0  0  0  0
   -4.2951    0.8823   -3.2244 H   0  0  0  0  0  0  0  0  0  0  0  0
   -6.2846    1.8782   -1.5618 H   0  0  0  0  0  0  0  0  0  0  0  0
   -4.7105   -0.7661    0.0956 H   0  0  0  0  0  0  0  0  0  0  0  0
   -5.0930    1.0378   -0.1318 H   0  0  0  0  0  0  0  0  0  0  0  0
   -2.7756   -0.6062   -1.3254 H   0  0  0  0  0  0  0  0  0  0  0  0
   -3.0445    1.1866   -1.5368 H   0  0  0  0  0  0  0  0  0  0  0  0
   -2.6806    1.7478    0.6493 H   0  0  0  0  0  0  0  0  0  0  0  0
   -0.4141    1.6445    0.6820 H   0  0  0  0  0  0  0  0  0  0  0  0
   -0.8474    1.2961   -0.9964 H   0  0  0  0  0  0  0  0  0  0  0  0
   -3.6675   -0.2861    1.7085 H   0  0  0  0  0  0  0  0  0  0  0  0
   -2.2809    0.4175    2.5188 H   0  0  0  0  0  0  0  0  0  0  0  0
   -2.6987   -2.2843    1.3223 H   0  0  0  0  0  0  0  0  0  0  0  0
   -1.5565   -1.7172    2.5522 H   0  0  0  0  0  0  0  0  0  0  0  0
   -1.2022   -2.1674   -0.4370 H   0  0  0  0  0  0  0  0  0  0  0  0
   -0.1090   -2.3641    0.9304 H   0  0  0  0  0  0  0  0  0  0  0  0
    0.3458   -0.5986   -0.8620 H   0  0  0  0  0  0  0  0  0  0  0  0
    0.3911    1.0664    2.8640 H   0  0  0  0  0  0  0  0  0  0  0  0
    2.2000   -1.7893    2.4689 H   0  0  0  0  0  0  0  0  0  0  0  0
    2.1831    1.7534    1.3543 H   0  0  0  0  0  0  0  0  0  0  0  0
    4.1670    1.4970    0.5158 H   0  0  0  0  0  0  0  0  0  0  0  0
    4.1008   -1.5500    0.7166 H   0  0  0  0  0  0  0  0  0  0  0  0
    4.3580   -0.4128    2.1288 H   0  0  0  0  0  0  0  0  0  0  0  0
    6.3057   -1.3471    0.2931 H   0  0  0  0  0  0  0  0  0  0  0  0
    6.4094    0.1236    1.3653 H   0  0  0  0  0  0  0  0  0  0  0  0
    6.8819    0.3095   -1.1784 H   0  0  0  0  0  0  0  0  0  0  0  0
    5.9918    1.6200   -0.3863 H   0  0  0  0  0  0  0  0  0  0  0  0
    5.0026   -0.7550   -2.0718 H   0  0  0  0  0  0  0  0  0  0  0  0
    4.9202    1.0331   -2.4692 H   0  0  0  0  0  0  0  0  0  0  0  0
    2.8576   -0.5820   -1.3067 H   0  0  0  0  0  0  0  0  0  0  0  0
    2.8885    1.2044   -1.4928 H   0  0  0  0  0  0  0  0  0  0  0  0
  1  2  1  0
  2  3  1  0
  3  4  1  0
  2  5  1  0
  5  6  1  0
  6  7  1  0
  7  8  1  0
  7  9  1  0
  9 10  1  0
 10 11  1  0
  8 12  1  0
 11 12  1  0
 12 13  1  0
 13 14  1  0
 13 15  1  0
 13 16  1  0
 16 17  1  0
 17 18  1  0
 18 19  1  0
 19 20  1  0
 20 21  1  0
 17 22  1  0
 21 22  1  0
 24 23  1  0
 24 25  1  0
 26 25  1  0
 24 27  1  0
 27 28  1  0
 28 29  1  0
 29 30  1  0
 29 31  1  0
 31 32  1  0
 32 33  1  0
 30 34  1  0
 33 34  1  0
 34 35  1  0
 35 36  1  0
 35 37  1  0
 35 38  1  0
 38 39  1  0
 39 40  1  0
 40 41  1  0
 41 42  1  0
 42 43  1  0
 39 44  1  0
 43 44  1  0
  1 45  1  0
  2 46  1  0
  3 47  1  0
  4 48  1  0
  5 49  1  0
  5 50  1  0
  6 51  1  0
  6 52  1  0
  7 53  1  0
  8 54  1  0
  8 55  1  0
  9 56  1  0
  9 57  1  0
 10 58  1  0
 10 59  1  0
 11 60  1  0
 11 61  1  0
 12 62  1  6
 14 63  1  0
 15 64  1  0
 16 65  1  0
 17 66  1  0
 18 67  1  0
 18 68  1  0
 19 69  1  0
 19 70  1  0
 20 71  1  0
 20 72  1  0
 21 73  1  0
 21 74  1  0
 22 75  1  0
 22 76  1  0
 23 77  1  0
 24 78  1  0
 25 79  1  0
 26 80  1  0
 27 81  1  0
 27 82  1  0
 28 83  1  0
 28 84  1  0
 29 85  1  0
 30 86  1  0
 30 87  1  0
 31 88  1  0
 31 89  1  0
 32 90  1  0
 32 91  1  0
 33 92  1  0
 33 93  1  0
 34 94  1  6
 36 95  1  0
 37 96  1  0
 38 97  1  0
 39 98  1  0
 40 99  1  0
 40100  1  0
 41101  1  0
 41102  1  0
 42103  1  0
 42104  1  0
 43105  1  0
 43106  1  0
 44107  1  0
 44108  1  0
M  END
>  <PDBID>  (1) 
5EEN

>  <PDB ID>  (1) 
5EEN

>  <Generic Name>  (1) 
Belinostat

>  <Brand Name>  (1) 
Beleodaq

>  <DrugBank ID>  (1) 
DB05015

>  <ATC Codes>  (1) 
L01XX49

>  <Ligand ID>  (1) 
5OG

>  <Target Name>  (1) 
Histone deacetylase 9

>  <UniProt ID>  (1) 
Q9UKV0

>  <PDB ID.1>  (1) 
5EEN

>  <Seq. Identity>  (1) 
46%

$$$$
