PDB_DB00259_08
     RDKit          3D

 27 27  0  0  0  0  0  0  0  0999 V2000
   -1.9563   -0.0444    0.2097 C   0  0  0  0  0  0  0  0  0  0  0  0
   -3.4098   -0.0548    0.0640 N   0  0  0  0  0  0  0  0  0  0  0  0
   -1.3930    1.2817   -0.2655 C   0  0  0  0  0  0  0  0  0  0  0  0
    0.0750    1.1469   -0.6003 C   0  0  0  0  0  0  0  0  0  0  0  0
    0.6123   -0.0877    0.1384 C   0  0  0  0  0  0  0  0  0  0  0  0
    0.0664   -1.2827   -0.6199 C   0  0  0  0  0  0  0  0  0  0  0  0
   -1.4283   -1.1040   -0.7496 C   0  0  0  0  0  0  0  0  0  0  0  0
    2.3496   -0.0903    0.1512 S   0  0  0  0  0  0  0  0  0  0  0  0
    2.8875   -1.3906    0.9443 N   0  0  0  0  0  0  0  0  0  0  0  0
    2.9669    0.5225   -0.9534 O   0  0  0  0  0  0  0  0  0  0  0  0
    2.4815    1.2009    1.5458 O   0  0  0  0  0  0  0  0  0  0  0  0
   -1.7358   -0.2624    1.2536 H   0  0  0  0  0  0  0  0  0  0  0  0
   -3.8862   -0.0835    1.0148 H   0  0  0  0  0  0  0  0  0  0  0  0
   -3.7448   -0.9191   -0.4192 H   0  0  0  0  0  0  0  0  0  0  0  0
   -2.0017    1.5907   -1.1425 H   0  0  0  0  0  0  0  0  0  0  0  0
   -1.5316    2.0828    0.4956 H   0  0  0  0  0  0  0  0  0  0  0  0
    0.6653    2.0383   -0.3546 H   0  0  0  0  0  0  0  0  0  0  0  0
    0.1457    0.8916   -1.6825 H   0  0  0  0  0  0  0  0  0  0  0  0
    0.2963   -0.0802    1.1922 H   0  0  0  0  0  0  0  0  0  0  0  0
    0.5278   -1.2157   -1.6487 H   0  0  0  0  0  0  0  0  0  0  0  0
    0.3352   -2.2278   -0.1320 H   0  0  0  0  0  0  0  0  0  0  0  0
   -1.9836   -2.0474   -0.4804 H   0  0  0  0  0  0  0  0  0  0  0  0
   -1.7338   -0.7878   -1.7730 H   0  0  0  0  0  0  0  0  0  0  0  0
    3.5198   -1.2048    1.7748 H   0  0  0  0  0  0  0  0  0  0  0  0
    2.1703   -2.0834    1.2693 H   0  0  0  0  0  0  0  0  0  0  0  0
    3.7840    0.2479   -1.4369 H   0  0  0  0  0  0  0  0  0  0  0  0
    1.9216    0.7215    2.2049 H   0  0  0  0  0  0  0  0  0  0  0  0
  1  2  1  0
  1  3  1  0
  3  4  1  0
  4  5  1  0
  5  6  1  0
  1  7  1  0
  6  7  1  0
  5  8  1  0
  8  9  1  0
  8 10  1  0
  8 11  1  0
  1 12  1  0
  2 13  1  0
  2 14  1  0
  3 15  1  0
  3 16  1  0
  4 17  1  0
  4 18  1  0
  5 19  1  0
  6 20  1  0
  6 21  1  0
  7 22  1  0
  7 23  1  0
  9 24  1  0
  9 25  1  0
 10 26  1  0
 11 27  1  0
M  END
>  <PDBID>  (1) 
1AJ0

>  <PDB ID>  (1) 
1AJ0

>  <Generic Name>  (1) 
Sulfanilamide

>  <Brand Name>  (1) 
AVC Vaginal#Avc#Avc Cream - 15%#Streptocid

>  <DrugBank ID>  (1) 
DB00259

>  <ATC Codes>  (1) 
J01EB06#D06BA05

>  <Ligand ID>  (1) 
SAN

>  <Target Name>  (1) 
Dihydropteroate synthase

>  <UniProt ID>  (1) 
P0AC13

>  <PDB ID.1>  (1) 
1AJ0

>  <Seq. Identity>  (1) 
100%

$$$$
