PDB_DB08882_00
     RDKit          3D

170178  0  0  0  0  0  0  0  0999 V2000
   -1.4241    0.3462    0.4035 C   0  0  0  0  0  0  0  0  0  0  0  0
   -2.7431    0.4822   -0.1613 N   0  0  0  0  0  0  0  0  0  0  0  0
   -1.5037   -1.1797    0.6170 C   0  0  0  0  0  0  0  0  0  0  0  0
   -0.3286    0.5744   -0.5335 C   0  0  0  0  0  0  0  0  0  0  0  0
   -3.5760   -0.1533    0.8311 C   0  0  0  0  0  0  0  0  0  0  0  0
   -3.1420    1.7863   -0.5251 C   0  0  0  0  0  0  0  0  0  0  0  0
   -2.7244   -1.2490    1.3449 N   0  0  0  0  0  0  0  0  0  0  0  0
   -0.3161   -1.5395    1.2883 N   0  0  0  0  0  0  0  0  0  0  0  0
    0.9265   -0.0724   -0.2269 N   0  0  0  0  0  0  0  0  0  0  0  0
   -0.7618    0.2709   -1.8291 O   0  0  0  0  0  0  0  0  0  0  0  0
   -4.7050   -0.7070    0.1409 N   0  0  0  0  0  0  0  0  0  0  0  0
   -3.3777    2.7586    0.5816 C   0  0  0  0  0  0  0  0  0  0  0  0
    0.8034   -1.3344    0.3858 C   0  0  0  0  0  0  0  0  0  0  0  0
   -0.3274   -2.9820    1.5961 C   0  0  0  0  0  0  0  0  0  0  0  0
    1.8672    0.8515    0.3316 C   0  0  0  0  0  0  0  0  0  0  0  0
   -4.3481   -1.8139   -0.6674 C   0  0  0  0  0  0  0  0  0  0  0  0
   -5.8150   -0.8672    1.0209 C   0  0  0  0  0  0  0  0  0  0  0  0
   -3.7976    4.0779   -0.0836 C   0  0  0  0  0  0  0  0  0  0  0  0
    0.6226   -2.3185   -0.6217 O   0  0  0  0  0  0  0  0  0  0  0  0
    3.2695    0.4377    0.1487 C   0  0  0  0  0  0  0  0  0  0  0  0
   -5.5216   -2.5732   -1.2435 C   0  0  1  0  0  0  0  0  0  0  0  0
   -7.0134   -1.2979    0.1856 C   0  0  0  0  0  0  0  0  0  0  0  0
   -4.0717    5.1527    0.9273 C   0  0  0  0  0  0  0  0  0  0  0  0
    4.2103    1.4061    0.7291 N   0  0  0  0  0  0  0  0  0  0  0  0
    3.6931   -0.8504    0.5683 N   0  0  0  0  0  0  0  0  0  0  0  0
   -6.6836   -2.6961   -0.3117 C   0  0  0  0  0  0  0  0  0  0  0  0
   -5.9719   -1.9785   -2.4742 N   0  0  0  0  0  0  0  0  0  0  0  0
    5.5492    0.9540    0.5093 C   0  0  0  0  0  0  0  0  0  0  0  0
    4.7802   -1.2521   -0.3255 C   0  0  0  0  0  0  0  0  0  0  0  0
    5.6350   -0.0642   -0.5939 C   0  0  0  0  0  0  0  0  0  0  0  0
    6.3925    2.1565    0.0985 C   0  0  0  0  0  0  0  0  0  0  0  0
    5.5317   -2.4430    0.1753 C   0  0  0  0  0  0  0  0  0  0  0  0
    7.0735   -0.5087   -0.7806 C   0  0  0  0  0  0  0  0  0  0  0  0
    7.8359    1.6504    0.0755 C   0  0  0  0  0  0  0  0  0  0  0  0
    7.9911    0.6581   -1.0436 C   0  0  0  0  0  0  0  0  0  0  0  0
   -1.4241    0.3462    0.4035 C   0  0  0  0  0  0  0  0  0  0  0  0
   -2.7431    0.4822   -0.1613 N   0  0  0  0  0  0  0  0  0  0  0  0
   -1.5037   -1.1797    0.6170 C   0  0  0  0  0  0  0  0  0  0  0  0
   -0.3286    0.5744   -0.5335 C   0  0  0  0  0  0  0  0  0  0  0  0
   -3.5760   -0.1533    0.8311 C   0  0  0  0  0  0  0  0  0  0  0  0
   -3.1420    1.7863   -0.5251 C   0  0  0  0  0  0  0  0  0  0  0  0
   -2.7244   -1.2490    1.3449 N   0  0  0  0  0  0  0  0  0  0  0  0
   -0.3161   -1.5395    1.2883 N   0  0  0  0  0  0  0  0  0  0  0  0
    0.9265   -0.0724   -0.2269 N   0  0  0  0  0  0  0  0  0  0  0  0
   -0.7618    0.2709   -1.8291 O   0  0  0  0  0  0  0  0  0  0  0  0
   -4.7050   -0.7070    0.1409 N   0  0  0  0  0  0  0  0  0  0  0  0
   -3.3777    2.7586    0.5816 C   0  0  0  0  0  0  0  0  0  0  0  0
    0.8034   -1.3344    0.3858 C   0  0  0  0  0  0  0  0  0  0  0  0
   -0.3274   -2.9820    1.5961 C   0  0  0  0  0  0  0  0  0  0  0  0
    1.8672    0.8515    0.3316 C   0  0  0  0  0  0  0  0  0  0  0  0
   -4.3481   -1.8139   -0.6674 C   0  0  0  0  0  0  0  0  0  0  0  0
   -5.8150   -0.8672    1.0209 C   0  0  0  0  0  0  0  0  0  0  0  0
   -3.7976    4.0779   -0.0836 C   0  0  0  0  0  0  0  0  0  0  0  0
    0.6226   -2.3185   -0.6217 O   0  0  0  0  0  0  0  0  0  0  0  0
    3.2695    0.4377    0.1487 C   0  0  0  0  0  0  0  0  0  0  0  0
   -5.5216   -2.5732   -1.2435 C   0  0  1  0  0  0  0  0  0  0  0  0
   -7.0134   -1.2979    0.1856 C   0  0  0  0  0  0  0  0  0  0  0  0
   -4.0717    5.1527    0.9273 C   0  0  0  0  0  0  0  0  0  0  0  0
    4.2103    1.4061    0.7291 N   0  0  0  0  0  0  0  0  0  0  0  0
    3.6931   -0.8504    0.5683 N   0  0  0  0  0  0  0  0  0  0  0  0
   -6.6836   -2.6961   -0.3117 C   0  0  0  0  0  0  0  0  0  0  0  0
   -5.9719   -1.9785   -2.4742 N   0  0  0  0  0  0  0  0  0  0  0  0
    5.5492    0.9540    0.5093 C   0  0  0  0  0  0  0  0  0  0  0  0
    4.7802   -1.2521   -0.3255 C   0  0  0  0  0  0  0  0  0  0  0  0
    5.6350   -0.0642   -0.5939 C   0  0  0  0  0  0  0  0  0  0  0  0
    6.3925    2.1565    0.0985 C   0  0  0  0  0  0  0  0  0  0  0  0
    5.5317   -2.4430    0.1753 C   0  0  0  0  0  0  0  0  0  0  0  0
    7.0735   -0.5087   -0.7806 C   0  0  0  0  0  0  0  0  0  0  0  0
    7.8359    1.6504    0.0755 C   0  0  0  0  0  0  0  0  0  0  0  0
    7.9911    0.6581   -1.0436 C   0  0  0  0  0  0  0  0  0  0  0  0
   -1.3182    0.8025    1.3928 H   0  0  0  0  0  0  0  0  0  0  0  0
   -1.5292   -1.6652   -0.3689 H   0  0  0  0  0  0  0  0  0  0  0  0
   -0.1124    1.6818   -0.5667 H   0  0  0  0  0  0  0  0  0  0  0  0
   -3.8167    0.4657    1.6966 H   0  0  0  0  0  0  0  0  0  0  0  0
   -2.3648    2.2171   -1.1881 H   0  0  0  0  0  0  0  0  0  0  0  0
   -4.0648    1.7167   -1.1355 H   0  0  0  0  0  0  0  0  0  0  0  0
   -2.6331   -1.2351    2.3619 H   0  0  0  0  0  0  0  0  0  0  0  0
   -0.0745    0.6502   -2.4639 H   0  0  0  0  0  0  0  0  0  0  0  0
   -2.4095    2.9877    1.0819 H   0  0  0  0  0  0  0  0  0  0  0  0
   -4.0966    2.4492    1.3389 H   0  0  0  0  0  0  0  0  0  0  0  0
    1.6888   -1.5910    0.9934 H   0  0  0  0  0  0  0  0  0  0  0  0
   -1.3361   -3.4079    1.3722 H   0  0  0  0  0  0  0  0  0  0  0  0
   -0.1206   -3.1758    2.6659 H   0  0  0  0  0  0  0  0  0  0  0  0
    0.3853   -3.5464    0.9905 H   0  0  0  0  0  0  0  0  0  0  0  0
    1.7300    1.8280   -0.2123 H   0  0  0  0  0  0  0  0  0  0  0  0
    1.6226    0.9692    1.4165 H   0  0  0  0  0  0  0  0  0  0  0  0
   -3.7297   -1.4731   -1.5202 H   0  0  0  0  0  0  0  0  0  0  0  0
   -3.7969   -2.5367   -0.0194 H   0  0  0  0  0  0  0  0  0  0  0  0
   -5.6009   -1.6594    1.7457 H   0  0  0  0  0  0  0  0  0  0  0  0
   -6.0080    0.1160    1.5105 H   0  0  0  0  0  0  0  0  0  0  0  0
   -3.0186    4.3453   -0.8190 H   0  0  0  0  0  0  0  0  0  0  0  0
   -4.7400    3.8756   -0.6226 H   0  0  0  0  0  0  0  0  0  0  0  0
    0.6493   -1.9156   -1.5047 H   0  0  0  0  0  0  0  0  0  0  0  0
    3.4650    0.5262   -0.9784 H   0  0  0  0  0  0  0  0  0  0  0  0
   -5.1469   -3.6151   -1.4619 H   0  0  0  0  0  0  0  0  0  0  0  0
   -7.9317   -1.2537    0.7796 H   0  0  0  0  0  0  0  0  0  0  0  0
   -7.1133   -0.6695   -0.7328 H   0  0  0  0  0  0  0  0  0  0  0  0
   -3.4281    5.1440    1.8052 H   0  0  0  0  0  0  0  0  0  0  0  0
   -5.1631    5.1596    1.2232 H   0  0  0  0  0  0  0  0  0  0  0  0
   -3.9212    6.1392    0.4287 H   0  0  0  0  0  0  0  0  0  0  0  0
    4.0539    2.2917    0.1651 H   0  0  0  0  0  0  0  0  0  0  0  0
    4.0621   -0.8495    1.5650 H   0  0  0  0  0  0  0  0  0  0  0  0
   -7.5367   -3.0903   -0.8782 H   0  0  0  0  0  0  0  0  0  0  0  0
   -6.4300   -3.3646    0.5583 H   0  0  0  0  0  0  0  0  0  0  0  0
   -5.8064   -0.9575   -2.5157 H   0  0  0  0  0  0  0  0  0  0  0  0
   -5.5596   -2.4616   -3.3157 H   0  0  0  0  0  0  0  0  0  0  0  0
    6.0050    0.5767    1.4510 H   0  0  0  0  0  0  0  0  0  0  0  0
    4.2792   -1.5424   -1.2864 H   0  0  0  0  0  0  0  0  0  0  0  0
    5.3770    0.4614   -1.5544 H   0  0  0  0  0  0  0  0  0  0  0  0
    6.3073    2.9030    0.8921 H   0  0  0  0  0  0  0  0  0  0  0  0
    6.0895    2.5568   -0.8719 H   0  0  0  0  0  0  0  0  0  0  0  0
    4.7972   -3.2695    0.2965 H   0  0  0  0  0  0  0  0  0  0  0  0
    6.2170   -2.7558   -0.6504 H   0  0  0  0  0  0  0  0  0  0  0  0
    6.0758   -2.2639    1.1071 H   0  0  0  0  0  0  0  0  0  0  0  0
    7.4507   -1.0895    0.0594 H   0  0  0  0  0  0  0  0  0  0  0  0
    7.0925   -1.1441   -1.6834 H   0  0  0  0  0  0  0  0  0  0  0  0
    7.9965    1.1093    1.0195 H   0  0  0  0  0  0  0  0  0  0  0  0
    8.5537    2.4749   -0.0237 H   0  0  0  0  0  0  0  0  0  0  0  0
    7.8457    1.1262   -2.0201 H   0  0  0  0  0  0  0  0  0  0  0  0
    9.0347    0.2765   -0.9951 H   0  0  0  0  0  0  0  0  0  0  0  0
   -1.3182    0.8025    1.3928 H   0  0  0  0  0  0  0  0  0  0  0  0
   -1.5292   -1.6652   -0.3689 H   0  0  0  0  0  0  0  0  0  0  0  0
   -0.1124    1.6818   -0.5667 H   0  0  0  0  0  0  0  0  0  0  0  0
   -3.8167    0.4657    1.6966 H   0  0  0  0  0  0  0  0  0  0  0  0
   -2.3648    2.2171   -1.1881 H   0  0  0  0  0  0  0  0  0  0  0  0
   -4.0648    1.7167   -1.1355 H   0  0  0  0  0  0  0  0  0  0  0  0
   -2.6331   -1.2351    2.3619 H   0  0  0  0  0  0  0  0  0  0  0  0
   -0.0745    0.6502   -2.4639 H   0  0  0  0  0  0  0  0  0  0  0  0
   -2.4095    2.9877    1.0819 H   0  0  0  0  0  0  0  0  0  0  0  0
   -4.0966    2.4492    1.3389 H   0  0  0  0  0  0  0  0  0  0  0  0
    1.6888   -1.5910    0.9934 H   0  0  0  0  0  0  0  0  0  0  0  0
   -1.3361   -3.4079    1.3722 H   0  0  0  0  0  0  0  0  0  0  0  0
   -0.1206   -3.1758    2.6659 H   0  0  0  0  0  0  0  0  0  0  0  0
    0.3853   -3.5464    0.9905 H   0  0  0  0  0  0  0  0  0  0  0  0
    1.7300    1.8280   -0.2123 H   0  0  0  0  0  0  0  0  0  0  0  0
    1.6226    0.9692    1.4165 H   0  0  0  0  0  0  0  0  0  0  0  0
   -3.7297   -1.4731   -1.5202 H   0  0  0  0  0  0  0  0  0  0  0  0
   -3.7969   -2.5367   -0.0194 H   0  0  0  0  0  0  0  0  0  0  0  0
   -5.6009   -1.6594    1.7457 H   0  0  0  0  0  0  0  0  0  0  0  0
   -6.0080    0.1160    1.5105 H   0  0  0  0  0  0  0  0  0  0  0  0
   -3.0186    4.3453   -0.8190 H   0  0  0  0  0  0  0  0  0  0  0  0
   -4.7400    3.8756   -0.6226 H   0  0  0  0  0  0  0  0  0  0  0  0
    0.6493   -1.9156   -1.5047 H   0  0  0  0  0  0  0  0  0  0  0  0
    3.4650    0.5262   -0.9784 H   0  0  0  0  0  0  0  0  0  0  0  0
   -5.1469   -3.6151   -1.4619 H   0  0  0  0  0  0  0  0  0  0  0  0
   -7.9317   -1.2537    0.7796 H   0  0  0  0  0  0  0  0  0  0  0  0
   -7.1133   -0.6695   -0.7328 H   0  0  0  0  0  0  0  0  0  0  0  0
   -3.4281    5.1440    1.8052 H   0  0  0  0  0  0  0  0  0  0  0  0
   -5.1631    5.1596    1.2232 H   0  0  0  0  0  0  0  0  0  0  0  0
   -3.9212    6.1392    0.4287 H   0  0  0  0  0  0  0  0  0  0  0  0
    4.0539    2.2917    0.1651 H   0  0  0  0  0  0  0  0  0  0  0  0
    4.0621   -0.8495    1.5650 H   0  0  0  0  0  0  0  0  0  0  0  0
   -7.5367   -3.0903   -0.8782 H   0  0  0  0  0  0  0  0  0  0  0  0
   -6.4300   -3.3646    0.5583 H   0  0  0  0  0  0  0  0  0  0  0  0
   -5.8064   -0.9575   -2.5157 H   0  0  0  0  0  0  0  0  0  0  0  0
   -5.5596   -2.4616   -3.3157 H   0  0  0  0  0  0  0  0  0  0  0  0
    6.0050    0.5767    1.4510 H   0  0  0  0  0  0  0  0  0  0  0  0
    4.2792   -1.5424   -1.2864 H   0  0  0  0  0  0  0  0  0  0  0  0
    5.3770    0.4614   -1.5544 H   0  0  0  0  0  0  0  0  0  0  0  0
    6.3073    2.9030    0.8921 H   0  0  0  0  0  0  0  0  0  0  0  0
    6.0895    2.5568   -0.8719 H   0  0  0  0  0  0  0  0  0  0  0  0
    4.7972   -3.2695    0.2965 H   0  0  0  0  0  0  0  0  0  0  0  0
    6.2170   -2.7558   -0.6504 H   0  0  0  0  0  0  0  0  0  0  0  0
    6.0758   -2.2639    1.1071 H   0  0  0  0  0  0  0  0  0  0  0  0
    7.4507   -1.0895    0.0594 H   0  0  0  0  0  0  0  0  0  0  0  0
    7.0925   -1.1441   -1.6834 H   0  0  0  0  0  0  0  0  0  0  0  0
    7.9965    1.1093    1.0195 H   0  0  0  0  0  0  0  0  0  0  0  0
    8.5537    2.4749   -0.0237 H   0  0  0  0  0  0  0  0  0  0  0  0
    7.8457    1.1262   -2.0201 H   0  0  0  0  0  0  0  0  0  0  0  0
    9.0347    0.2765   -0.9951 H   0  0  0  0  0  0  0  0  0  0  0  0
  1  2  1  0
  1  3  1  0
  1  4  1  0
  2  5  1  0
  2  6  1  0
  3  7  1  0
  5  7  1  0
  3  8  1  0
  4  9  1  0
  4 10  1  0
  5 11  1  0
  6 12  1  0
  8 13  1  0
  9 13  1  0
  8 14  1  0
  9 15  1  0
 11 16  1  0
 11 17  1  0
 12 18  1  0
 13 19  1  0
 15 20  1  0
 16 21  1  0
 17 22  1  0
 18 23  1  0
 20 24  1  0
 20 25  1  0
 21 26  1  0
 22 26  1  0
 21 27  1  0
 24 28  1  0
 25 29  1  0
 28 30  1  0
 29 30  1  0
 28 31  1  0
 29 32  1  0
 30 33  1  0
 31 34  1  0
 33 35  1  0
 34 35  1  0
 36 37  1  0
 36 38  1  0
 36 39  1  0
 37 40  1  0
 37 41  1  0
 38 42  1  0
 40 42  1  0
 38 43  1  0
 39 44  1  0
 39 45  1  0
 40 46  1  0
 41 47  1  0
 43 48  1  0
 44 48  1  0
 43 49  1  0
 44 50  1  0
 46 51  1  0
 46 52  1  0
 47 53  1  0
 48 54  1  0
 50 55  1  0
 51 56  1  0
 52 57  1  0
 53 58  1  0
 55 59  1  0
 55 60  1  0
 56 61  1  0
 57 61  1  0
 56 62  1  0
 59 63  1  0
 60 64  1  0
 63 65  1  0
 64 65  1  0
 63 66  1  0
 64 67  1  0
 65 68  1  0
 66 69  1  0
 68 70  1  0
 69 70  1  0
  1 71  1  0
  3 72  1  0
  4 73  1  0
  5 74  1  0
  6 75  1  0
  6 76  1  0
  7 77  1  0
 10 78  1  0
 12 79  1  0
 12 80  1  0
 13 81  1  0
 14 82  1  0
 14 83  1  0
 14 84  1  0
 15 85  1  0
 15 86  1  0
 16 87  1  0
 16 88  1  0
 17 89  1  0
 17 90  1  0
 18 91  1  0
 18 92  1  0
 19 93  1  0
 20 94  1  0
 21 95  1  6
 22 96  1  0
 22 97  1  0
 23 98  1  0
 23 99  1  0
 23100  1  0
 24101  1  0
 25102  1  0
 26103  1  0
 26104  1  0
 27105  1  0
 27106  1  0
 28107  1  0
 29108  1  0
 30109  1  0
 31110  1  0
 31111  1  0
 32112  1  0
 32113  1  0
 32114  1  0
 33115  1  0
 33116  1  0
 34117  1  0
 34118  1  0
 35119  1  0
 35120  1  0
 36121  1  0
 38122  1  0
 39123  1  0
 40124  1  0
 41125  1  0
 41126  1  0
 42127  1  0
 45128  1  0
 47129  1  0
 47130  1  0
 48131  1  0
 49132  1  0
 49133  1  0
 49134  1  0
 50135  1  0
 50136  1  0
 51137  1  0
 51138  1  0
 52139  1  0
 52140  1  0
 53141  1  0
 53142  1  0
 54143  1  0
 55144  1  0
 56145  1  6
 57146  1  0
 57147  1  0
 58148  1  0
 58149  1  0
 58150  1  0
 59151  1  0
 60152  1  0
 61153  1  0
 61154  1  0
 62155  1  0
 62156  1  0
 63157  1  0
 64158  1  0
 65159  1  0
 66160  1  0
 66161  1  0
 67162  1  0
 67163  1  0
 67164  1  0
 68165  1  0
 68166  1  0
 69167  1  0
 69168  1  0
 70169  1  0
 70170  1  0
M  END
>  <PDBID>  (1) 
2RGU

>  <PDB ID>  (1) 
2RGU

>  <Generic Name>  (1) 
Linagliptin

>  <Brand Name>  (1) 
Glyxambi#Jentadueto#Jentadueto XR#Tradjenta#Trajenta

>  <DrugBank ID>  (1) 
DB08882

>  <ATC Codes>  (1) 
A10BH05#A10BD19#A10BD11

>  <Ligand ID>  (1) 
356

>  <Target Name>  (1) 
Dipeptidyl peptidase 4

>  <UniProt ID>  (1) 
P27487

>  <PDB ID.1>  (1) 
2RGU

>  <Seq. Identity>  (1) 
100%

$$$$
