PDB_DB00787_06
     RDKit          3D

 70 72  0  0  0  0  0  0  0  0999 V2000
    3.8600   -0.5373    0.9999 C   0  0  0  0  0  0  0  0  0  0  0  0
    4.5162    0.5213    1.6757 O   0  0  0  0  0  0  0  0  0  0  0  0
    3.4907    0.0468   -0.3577 C   0  0  0  0  0  0  0  0  0  0  0  0
    2.6757    1.1145   -0.2030 O   0  0  0  0  0  0  0  0  0  0  0  0
    1.4519    0.9463    0.3936 C   0  0  0  0  0  0  0  0  0  0  0  0
    0.5876    0.1286   -0.3179 N   0  0  0  0  0  0  0  0  0  0  0  0
    0.7939   -1.2059   -0.5959 C   0  0  0  0  0  0  0  0  0  0  0  0
   -0.5322   -1.8151   -0.3830 N   0  0  0  0  0  0  0  0  0  0  0  0
   -1.4670   -0.7570   -0.7765 C   0  0  0  0  0  0  0  0  0  0  0  0
   -2.7785   -0.9992   -0.1749 C   0  0  0  0  0  0  0  0  0  0  0  0
   -2.8329   -2.3198    0.3331 O   0  0  0  0  0  0  0  0  0  0  0  0
   -3.1910   -0.1347    0.8768 N   0  0  0  0  0  0  0  0  0  0  0  0
   -2.7219    1.2245    0.7263 C   0  0  0  0  0  0  0  0  0  0  0  0
   -3.3309    1.9023   -0.3942 N   0  0  0  0  0  0  0  0  0  0  0  0
   -1.3039    1.2954    0.5826 N   0  0  0  0  0  0  0  0  0  0  0  0
   -0.7692    0.5082   -0.4979 C   0  0  0  0  0  0  0  0  0  0  0  0
    3.8247   -0.2765    0.8198 C   0  0  0  0  0  0  0  0  0  0  0  0
    4.4128    0.9474    1.2098 O   0  0  0  0  0  0  0  0  0  0  0  0
    3.4859   -0.0900   -0.6587 C   0  0  0  0  0  0  0  0  0  0  0  0
    2.6280    0.9265   -0.8848 O   0  0  0  0  0  0  0  0  0  0  0  0
    1.3688    0.9118   -0.3860 C   0  0  0  0  0  0  0  0  0  0  0  0
    0.5299   -0.0722   -0.9143 N   0  0  0  0  0  0  0  0  0  0  0  0
    0.8086   -1.4524   -0.7704 C   0  0  0  0  0  0  0  0  0  0  0  0
   -0.4993   -2.1040   -0.4649 N   0  0  0  0  0  0  0  0  0  0  0  0
   -1.1338   -1.0657    0.2667 C   0  0  2  0  0  0  0  0  0  0  0  0
   -2.6066   -1.1748    0.4180 C   0  0  0  0  0  0  0  0  0  0  0  0
   -3.2895   -1.3124   -0.7770 O   0  0  0  0  0  0  0  0  0  0  0  0
   -3.0576    0.0910    1.0196 N   0  0  0  0  0  0  0  0  0  0  0  0
   -2.6907    1.2253    0.1999 C   0  0  0  0  0  0  0  0  0  0  0  0
   -3.2143    2.4058    0.8112 N   0  0  0  0  0  0  0  0  0  0  0  0
   -1.2265    1.2851    0.0373 N   0  0  0  0  0  0  0  0  0  0  0  0
   -0.8756    0.1120   -0.6914 C   0  0  0  0  0  0  0  0  0  0  0  0
    3.0095   -0.8885    1.5811 H   0  0  0  0  0  0  0  0  0  0  0  0
    4.5759   -1.3558    0.8877 H   0  0  0  0  0  0  0  0  0  0  0  0
    5.2662    0.7701    1.0592 H   0  0  0  0  0  0  0  0  0  0  0  0
    4.4833    0.4691   -0.7361 H   0  0  0  0  0  0  0  0  0  0  0  0
    3.2057   -0.7010   -1.0988 H   0  0  0  0  0  0  0  0  0  0  0  0
    1.0664    1.9856    0.5789 H   0  0  0  0  0  0  0  0  0  0  0  0
    1.5987    0.5714    1.4691 H   0  0  0  0  0  0  0  0  0  0  0  0
    1.4631   -1.8047    0.0494 H   0  0  0  0  0  0  0  0  0  0  0  0
    1.0358   -1.4047   -1.6856 H   0  0  0  0  0  0  0  0  0  0  0  0
   -0.6361   -2.6628   -1.0012 H   0  0  0  0  0  0  0  0  0  0  0  0
   -1.5592   -0.8843   -1.8962 H   0  0  0  0  0  0  0  0  0  0  0  0
   -3.5995   -0.9821   -0.9517 H   0  0  0  0  0  0  0  0  0  0  0  0
   -3.1587   -2.9540   -0.3512 H   0  0  0  0  0  0  0  0  0  0  0  0
   -4.2338   -0.0957    0.9241 H   0  0  0  0  0  0  0  0  0  0  0  0
   -2.9934    1.7597    1.6600 H   0  0  0  0  0  0  0  0  0  0  0  0
   -2.7163    1.8665   -1.2610 H   0  0  0  0  0  0  0  0  0  0  0  0
   -3.4046    2.9216   -0.1267 H   0  0  0  0  0  0  0  0  0  0  0  0
   -1.0530    2.2975    0.4242 H   0  0  0  0  0  0  0  0  0  0  0  0
   -0.7987    1.1735   -1.4123 H   0  0  0  0  0  0  0  0  0  0  0  0
    2.9586   -0.5001    1.4391 H   0  0  0  0  0  0  0  0  0  0  0  0
    4.5556   -1.0880    0.9069 H   0  0  0  0  0  0  0  0  0  0  0  0
    4.0969    1.6926    0.6361 H   0  0  0  0  0  0  0  0  0  0  0  0
    4.4876    0.2597   -1.0951 H   0  0  0  0  0  0  0  0  0  0  0  0
    3.2972   -1.0370   -1.1708 H   0  0  0  0  0  0  0  0  0  0  0  0
    0.9484    1.9516   -0.6175 H   0  0  0  0  0  0  0  0  0  0  0  0
    1.3842    0.9074    0.7606 H   0  0  0  0  0  0  0  0  0  0  0  0
    1.4050   -1.6606    0.1308 H   0  0  0  0  0  0  0  0  0  0  0  0
    1.2137   -1.9274   -1.6986 H   0  0  0  0  0  0  0  0  0  0  0  0
   -0.9637   -2.1646   -1.4094 H   0  0  0  0  0  0  0  0  0  0  0  0
   -0.6859   -0.8610    1.2466 H   0  0  0  0  0  0  0  0  0  0  0  0
   -2.8802   -1.9563    1.1654 H   0  0  0  0  0  0  0  0  0  0  0  0
   -3.0341   -2.1007   -1.2932 H   0  0  0  0  0  0  0  0  0  0  0  0
   -4.0638    0.1096    1.1937 H   0  0  0  0  0  0  0  0  0  0  0  0
   -3.1102    1.0651   -0.8181 H   0  0  0  0  0  0  0  0  0  0  0  0
   -2.9608    3.2351    0.2169 H   0  0  0  0  0  0  0  0  0  0  0  0
   -2.7546    2.5371    1.7359 H   0  0  0  0  0  0  0  0  0  0  0  0
   -0.8601    1.1945    1.0298 H   0  0  0  0  0  0  0  0  0  0  0  0
   -1.4985   -0.0142   -1.5935 H   0  0  0  0  0  0  0  0  0  0  0  0
  1  2  1  0
  1  3  1  0
  3  4  1  0
  4  5  1  0
  5  6  1  0
  6  7  1  0
  7  8  1  0
  8  9  1  0
  9 10  1  0
 10 11  1  0
 10 12  1  0
 12 13  1  0
 13 14  1  0
 13 15  1  0
  6 16  1  0
  9 16  1  0
 15 16  1  0
 17 18  1  0
 17 19  1  0
 19 20  1  0
 20 21  1  0
 21 22  1  0
 22 23  1  0
 23 24  1  0
 24 25  1  0
 25 26  1  0
 26 27  1  0
 26 28  1  0
 28 29  1  0
 29 30  1  0
 29 31  1  0
 22 32  1  0
 25 32  1  0
 31 32  1  0
  1 33  1  0
  1 34  1  0
  2 35  1  0
  3 36  1  0
  3 37  1  0
  5 38  1  0
  5 39  1  0
  7 40  1  0
  7 41  1  0
  8 42  1  0
  9 43  1  0
 10 44  1  0
 11 45  1  0
 12 46  1  0
 13 47  1  0
 14 48  1  0
 14 49  1  0
 15 50  1  0
 16 51  1  0
 17 52  1  0
 17 53  1  0
 18 54  1  0
 19 55  1  0
 19 56  1  0
 21 57  1  0
 21 58  1  0
 23 59  1  0
 23 60  1  0
 24 61  1  0
 25 62  1  1
 26 63  1  0
 27 64  1  0
 28 65  1  0
 29 66  1  0
 30 67  1  0
 30 68  1  0
 31 69  1  0
 32 70  1  0
M  END
>  <PDBID>  (1) 
2KI5

>  <PDB ID>  (1) 
2KI5

>  <Generic Name>  (1) 
Aciclovir

>  <Brand Name>  (1) 
Acyclovir#Acyclovir Sodium#Acyclovir Sodium Injection#Acyclovir Sodium for Injection#Acyclovir-200#Acyclovir-400#Acyclovir-800#Alti-acyclovir - 400mg#Alti-acyclovir - 800mg#Alti-acyclovir - Tab 200mg#Apo-acyclovir - Tab 200mg#Apo-acyclovir - Tab 400mg#Apo-acyclovir - Tab 800mg#Mylan-acyclovir#Ntp-acyclovir#Nu-acyclovir - Tab 200mg#Nu-acyclovir - Tab 400mg#Nu-acyclovir - Tab 800mg#Ratio-acyclovir#Sitavig#Teva-acyclovir#Xerese#Zovirax#Zovirax 400#Zovirax 800#Zovirax Cap 200mg#Zovirax Tab 200mg#Zovir

>  <DrugBank ID>  (1) 
DB00787

>  <ATC Codes>  (1) 
S01AD03#D06BB03#J05AB01#D06BB53

>  <Ligand ID>  (1) 
AC2

>  <Target Name>  (1) 
Thymidine kinase

>  <UniProt ID>  (1) 
P03176

>  <PDB ID.1>  (1) 
2KI5

>  <Seq. Identity>  (1) 
100%

$$$$
