PDB_DB05239_07
     RDKit          3D

 65 68  0  0  0  0  0  0  0  0999 V2000
   -0.3339   -1.2203   -1.5999 O   0  0  0  0  0  0  0  0  0  0  0  0
    0.0622   -0.7933   -0.3172 C   0  0  0  0  0  0  0  0  0  0  0  0
   -0.7319   -1.5070    0.7553 C   0  0  0  0  0  0  0  0  0  0  0  0
   -0.4366   -2.9755    0.5804 C   0  0  0  0  0  0  0  0  0  0  0  0
   -1.3455   -3.7275    1.5286 C   0  0  0  0  0  0  0  0  0  0  0  0
   -2.7061   -3.6732    0.8960 C   0  0  2  0  0  0  0  0  0  0  0  0
   -2.6947   -4.6166   -0.1396 F   0  0  0  0  0  0  0  0  0  0  0  0
   -3.0600   -2.3514    0.3080 C   0  0  1  0  0  0  0  0  0  0  0  0
   -4.3768   -2.1192    0.6586 F   0  0  0  0  0  0  0  0  0  0  0  0
   -2.2064   -1.1953    0.7184 C   0  0  2  0  0  0  0  0  0  0  0  0
   -2.3607   -0.0837   -0.2003 N   0  0  0  0  0  0  0  0  0  0  0  0
   -3.6890    0.3675   -0.4213 C   0  0  0  0  0  0  0  0  0  0  0  0
   -4.4029    0.9308    0.7593 C   0  0  0  0  0  0  0  0  0  0  0  0
   -5.8219    1.2639    0.2741 C   0  0  0  0  0  0  0  0  0  0  0  0
   -5.6811    2.5408   -0.5325 C   0  0  1  0  0  0  0  0  0  0  0  0
   -6.0305    4.1598    0.8448 I   0  0  0  0  0  0  0  0  0  0  0  0
   -3.6199    1.4487   -1.4901 C   0  0  0  0  0  0  0  0  0  0  0  0
   -4.1420    1.0354   -2.6956 F   0  0  0  0  0  0  0  0  0  0  0  0
   -4.3040    2.7196   -1.0770 C   0  0  0  0  0  0  0  0  0  0  0  0
    1.4496   -1.2360   -0.1643 N   0  0  0  0  0  0  0  0  0  0  0  0
    2.3075   -0.6119   -1.1682 C   0  0  0  0  0  0  0  0  0  0  0  0
    2.9307    0.2779   -0.1115 C   0  0  0  0  0  0  0  0  0  0  0  0
    2.1751   -0.5490    0.8709 C   0  0  0  0  0  0  0  0  0  0  0  0
    2.5554    1.6037   -0.1926 O   0  0  0  0  0  0  0  0  0  0  0  0
    4.4369    0.0809   -0.1554 C   0  0  2  0  0  0  0  0  0  0  0  0
    5.1576    0.7686    0.9717 C   0  0  0  0  0  0  0  0  0  0  0  0
    6.6029    0.9600    0.4944 C   0  0  0  0  0  0  0  0  0  0  0  0
    6.5776    2.1463   -0.4439 C   0  0  0  0  0  0  0  0  0  0  0  0
    5.3559    1.9846   -1.3252 C   0  0  0  0  0  0  0  0  0  0  0  0
    4.9360    0.6028   -1.3976 N   0  0  0  0  0  0  0  0  0  0  0  0
   -0.7616   -0.4243   -2.0350 H   0  0  0  0  0  0  0  0  0  0  0  0
    0.0705    0.2869   -0.2481 H   0  0  0  0  0  0  0  0  0  0  0  0
   -0.3142   -1.1960    1.7311 H   0  0  0  0  0  0  0  0  0  0  0  0
   -0.6368   -3.3087   -0.4419 H   0  0  0  0  0  0  0  0  0  0  0  0
    0.6006   -3.1705    0.8767 H   0  0  0  0  0  0  0  0  0  0  0  0
   -1.0174   -4.7954    1.5123 H   0  0  0  0  0  0  0  0  0  0  0  0
   -1.3006   -3.3578    2.5541 H   0  0  0  0  0  0  0  0  0  0  0  0
   -3.4368   -4.0610    1.6288 H   0  0  0  0  0  0  0  0  0  0  0  0
   -3.0549   -2.3734   -0.8214 H   0  0  0  0  0  0  0  0  0  0  0  0
   -2.5588   -0.8414    1.7095 H   0  0  0  0  0  0  0  0  0  0  0  0
   -1.8083    0.7407    0.1575 H   0  0  0  0  0  0  0  0  0  0  0  0
   -4.3460   -0.4260   -0.8635 H   0  0  0  0  0  0  0  0  0  0  0  0
   -3.9163    1.9206    1.0061 H   0  0  0  0  0  0  0  0  0  0  0  0
   -4.3827    0.3504    1.6757 H   0  0  0  0  0  0  0  0  0  0  0  0
   -6.5371    1.3442    1.0942 H   0  0  0  0  0  0  0  0  0  0  0  0
   -6.1528    0.4816   -0.4662 H   0  0  0  0  0  0  0  0  0  0  0  0
   -6.4680    2.6427   -1.3080 H   0  0  0  0  0  0  0  0  0  0  0  0
   -2.5525    1.7383   -1.7167 H   0  0  0  0  0  0  0  0  0  0  0  0
   -3.6328    3.3322   -0.4359 H   0  0  0  0  0  0  0  0  0  0  0  0
   -4.4119    3.3285   -2.0242 H   0  0  0  0  0  0  0  0  0  0  0  0
    1.7369   -0.0307   -1.9199 H   0  0  0  0  0  0  0  0  0  0  0  0
    2.9783   -1.3649   -1.6122 H   0  0  0  0  0  0  0  0  0  0  0  0
    1.5515    0.0535    1.5681 H   0  0  0  0  0  0  0  0  0  0  0  0
    2.8491   -1.2354    1.4272 H   0  0  0  0  0  0  0  0  0  0  0  0
    2.2657    1.8814    0.7315 H   0  0  0  0  0  0  0  0  0  0  0  0
    4.7007   -0.9950   -0.1171 H   0  0  0  0  0  0  0  0  0  0  0  0
    5.2096    0.1355    1.8869 H   0  0  0  0  0  0  0  0  0  0  0  0
    4.7646    1.7939    1.1741 H   0  0  0  0  0  0  0  0  0  0  0  0
    7.3092    1.0574    1.3191 H   0  0  0  0  0  0  0  0  0  0  0  0
    6.9094    0.0845   -0.1245 H   0  0  0  0  0  0  0  0  0  0  0  0
    6.4912    3.0472    0.1904 H   0  0  0  0  0  0  0  0  0  0  0  0
    7.5055    2.2467   -1.0436 H   0  0  0  0  0  0  0  0  0  0  0  0
    4.5087    2.5876   -0.9842 H   0  0  0  0  0  0  0  0  0  0  0  0
    5.6074    2.2963   -2.3760 H   0  0  0  0  0  0  0  0  0  0  0  0
    5.6274   -0.0008   -1.8631 H   0  0  0  0  0  0  0  0  0  0  0  0
  1  2  1  0
  2  3  1  0
  3  4  1  0
  4  5  1  0
  5  6  1  0
  6  7  1  0
  6  8  1  0
  8  9  1  0
  3 10  1  0
  8 10  1  0
 10 11  1  0
 11 12  1  0
 12 13  1  0
 13 14  1  0
 14 15  1  0
 15 16  1  0
 12 17  1  0
 17 18  1  0
 15 19  1  0
 17 19  1  0
  2 20  1  0
 20 21  1  0
 21 22  1  0
 20 23  1  0
 22 23  1  0
 22 24  1  0
 22 25  1  0
 25 26  1  0
 26 27  1  0
 27 28  1  0
 28 29  1  0
 25 30  1  0
 29 30  1  0
  1 31  1  0
  2 32  1  0
  3 33  1  0
  4 34  1  0
  4 35  1  0
  5 36  1  0
  5 37  1  0
  6 38  1  1
  8 39  1  6
 10 40  1  1
 11 41  1  0
 12 42  1  0
 13 43  1  0
 13 44  1  0
 14 45  1  0
 14 46  1  0
 15 47  1  6
 17 48  1  0
 19 49  1  0
 19 50  1  0
 21 51  1  0
 21 52  1  0
 23 53  1  0
 23 54  1  0
 24 55  1  0
 25 56  1  6
 26 57  1  0
 26 58  1  0
 27 59  1  0
 27 60  1  0
 28 61  1  0
 28 62  1  0
 29 63  1  0
 29 64  1  0
 30 65  1  0
M  END
>  <PDBID>  (1) 
4LMN

>  <PDB ID>  (1) 
4LMN

>  <Generic Name>  (1) 
Cobimetinib

>  <Brand Name>  (1) 
Cotellic

>  <DrugBank ID>  (1) 
DB05239

>  <ATC Codes>  (1) 
nan

>  <Ligand ID>  (1) 
EUI

>  <Target Name>  (1) 
Dual specificity mitogen-activated protein kinase kinase 1

>  <UniProt ID>  (1) 
Q02750

>  <PDB ID.1>  (1) 
4LMN

>  <Seq. Identity>  (1) 
97%

$$$$
