PDB_DB01127_02
     RDKit          3D

110114  0  0  0  0  0  0  0  0999 V2000
    2.4981   -0.3106    0.3458 C   0  0  0  0  0  0  0  0  0  0  0  0
    3.8310   -0.7684   -0.2077 C   0  0  0  0  0  0  0  0  0  0  0  0
   -1.7237   -0.9054    2.2511 Cl  0  0  0  0  0  0  0  0  0  0  0  0
   -2.4479    3.8090   -0.1930 C   0  0  0  0  0  0  0  0  0  0  0  0
   -2.5461    2.7210   -1.2242 C   0  0  0  0  0  0  0  0  0  0  0  0
    3.9215    1.5770    1.1655 C   0  0  0  0  0  0  0  0  0  0  0  0
    2.5716    1.1724    0.6261 C   0  0  0  0  0  0  0  0  0  0  0  0
    5.0412    1.3713    0.1968 C   0  0  0  0  0  0  0  0  0  0  0  0
    5.5192    2.8856   -0.5593 Cl  0  0  0  0  0  0  0  0  0  0  0  0
   -2.7002   -1.0582    0.7705 C   0  0  0  0  0  0  0  0  0  0  0  0
   -3.7777   -2.1193    1.0355 C   0  0  0  0  0  0  0  0  0  0  0  0
   -3.1939   -3.4478    1.3969 C   0  0  0  0  0  0  0  0  0  0  0  0
   -2.0460   -3.8874    0.5646 C   0  0  0  0  0  0  0  0  0  0  0  0
   -4.5081   -4.6568    1.1611 Cl  0  0  0  0  0  0  0  0  0  0  0  0
   -1.2093    3.5153    0.4632 N   0  0  0  0  0  0  0  0  0  0  0  0
   -1.4870    0.6365   -1.5447 C   0  0  0  0  0  0  0  0  0  0  0  0
   -0.9122   -0.6141   -0.9566 C   0  0  1  0  0  0  0  0  0  0  0  0
    0.1345   -0.2771   -0.1063 O   0  0  0  0  0  0  0  0  0  0  0  0
   -1.8744   -1.5566   -0.3588 C   0  0  0  0  0  0  0  0  0  0  0  0
   -1.9999    1.5526   -0.5124 N   0  0  0  0  0  0  0  0  0  0  0  0
   -0.8607    2.1447    0.1647 C   0  0  0  0  0  0  0  0  0  0  0  0
    1.3650   -0.6711   -0.5651 C   0  0  0  0  0  0  0  0  0  0  0  0
    4.6038    0.3547   -0.8443 C   0  0  0  0  0  0  0  0  0  0  0  0
   -1.1180   -2.7797    0.1266 C   0  0  0  0  0  0  0  0  0  0  0  0
    2.4981   -0.3106    0.3458 C   0  0  0  0  0  0  0  0  0  0  0  0
    3.8310   -0.7684   -0.2077 C   0  0  0  0  0  0  0  0  0  0  0  0
   -1.7237   -0.9054    2.2511 Cl  0  0  0  0  0  0  0  0  0  0  0  0
   -2.4479    3.8090   -0.1930 C   0  0  0  0  0  0  0  0  0  0  0  0
   -2.5461    2.7210   -1.2242 C   0  0  0  0  0  0  0  0  0  0  0  0
    3.9215    1.5770    1.1655 C   0  0  0  0  0  0  0  0  0  0  0  0
    2.5716    1.1724    0.6261 C   0  0  0  0  0  0  0  0  0  0  0  0
    5.0412    1.3713    0.1968 C   0  0  0  0  0  0  0  0  0  0  0  0
    5.5192    2.8856   -0.5593 Cl  0  0  0  0  0  0  0  0  0  0  0  0
   -2.7002   -1.0582    0.7705 C   0  0  0  0  0  0  0  0  0  0  0  0
   -3.7777   -2.1193    1.0355 C   0  0  0  0  0  0  0  0  0  0  0  0
   -3.1939   -3.4478    1.3969 C   0  0  0  0  0  0  0  0  0  0  0  0
   -2.0460   -3.8874    0.5646 C   0  0  0  0  0  0  0  0  0  0  0  0
   -4.5081   -4.6568    1.1611 Cl  0  0  0  0  0  0  0  0  0  0  0  0
   -1.2093    3.5153    0.4632 N   0  0  0  0  0  0  0  0  0  0  0  0
   -1.4870    0.6365   -1.5447 C   0  0  0  0  0  0  0  0  0  0  0  0
   -0.9122   -0.6141   -0.9566 C   0  0  1  0  0  0  0  0  0  0  0  0
    0.1345   -0.2771   -0.1063 O   0  0  0  0  0  0  0  0  0  0  0  0
   -1.8744   -1.5566   -0.3588 C   0  0  0  0  0  0  0  0  0  0  0  0
   -1.9999    1.5526   -0.5124 N   0  0  0  0  0  0  0  0  0  0  0  0
   -0.8607    2.1447    0.1647 C   0  0  0  0  0  0  0  0  0  0  0  0
    1.3650   -0.6711   -0.5651 C   0  0  0  0  0  0  0  0  0  0  0  0
    4.6038    0.3547   -0.8443 C   0  0  0  0  0  0  0  0  0  0  0  0
   -1.1180   -2.7797    0.1266 C   0  0  0  0  0  0  0  0  0  0  0  0
    2.3680   -0.8206    1.3277 H   0  0  0  0  0  0  0  0  0  0  0  0
    3.6860   -1.5492   -0.9892 H   0  0  0  0  0  0  0  0  0  0  0  0
    4.4817   -1.2085    0.5915 H   0  0  0  0  0  0  0  0  0  0  0  0
   -2.4331    4.8124   -0.7039 H   0  0  0  0  0  0  0  0  0  0  0  0
   -3.3183    3.7785    0.4964 H   0  0  0  0  0  0  0  0  0  0  0  0
   -3.5855    2.5445   -1.5455 H   0  0  0  0  0  0  0  0  0  0  0  0
   -1.8984    2.9693   -2.0897 H   0  0  0  0  0  0  0  0  0  0  0  0
    4.1232    1.0806    2.1314 H   0  0  0  0  0  0  0  0  0  0  0  0
    3.8579    2.6765    1.3723 H   0  0  0  0  0  0  0  0  0  0  0  0
    2.4134    1.6980   -0.3333 H   0  0  0  0  0  0  0  0  0  0  0  0
    1.8117    1.4453    1.3623 H   0  0  0  0  0  0  0  0  0  0  0  0
    5.9309    0.9743    0.7484 H   0  0  0  0  0  0  0  0  0  0  0  0
   -3.2989   -0.1504    0.5547 H   0  0  0  0  0  0  0  0  0  0  0  0
   -4.4859   -2.1790    0.2020 H   0  0  0  0  0  0  0  0  0  0  0  0
   -4.3365   -1.7456    1.9220 H   0  0  0  0  0  0  0  0  0  0  0  0
   -2.9633   -3.4918    2.4976 H   0  0  0  0  0  0  0  0  0  0  0  0
   -1.4165   -4.5757    1.2011 H   0  0  0  0  0  0  0  0  0  0  0  0
   -2.3340   -4.5161   -0.3140 H   0  0  0  0  0  0  0  0  0  0  0  0
   -0.4860    4.1955    0.0915 H   0  0  0  0  0  0  0  0  0  0  0  0
   -0.7020    1.2150   -2.0762 H   0  0  0  0  0  0  0  0  0  0  0  0
   -2.2992    0.4822   -2.2496 H   0  0  0  0  0  0  0  0  0  0  0  0
   -0.4258   -1.1486   -1.8280 H   0  0  0  0  0  0  0  0  0  0  0  0
   -2.6000   -1.9709   -1.1224 H   0  0  0  0  0  0  0  0  0  0  0  0
   -0.0153    2.1592   -0.5545 H   0  0  0  0  0  0  0  0  0  0  0  0
   -0.6495    1.6404    1.1045 H   0  0  0  0  0  0  0  0  0  0  0  0
    1.6076   -0.2699   -1.5705 H   0  0  0  0  0  0  0  0  0  0  0  0
    1.3659   -1.7756   -0.6672 H   0  0  0  0  0  0  0  0  0  0  0  0
    5.5052   -0.0820   -1.3046 H   0  0  0  0  0  0  0  0  0  0  0  0
    3.9496    0.8554   -1.5921 H   0  0  0  0  0  0  0  0  0  0  0  0
   -0.3817   -2.5256    0.8913 H   0  0  0  0  0  0  0  0  0  0  0  0
   -0.5518   -3.2051   -0.7501 H   0  0  0  0  0  0  0  0  0  0  0  0
    2.3680   -0.8206    1.3277 H   0  0  0  0  0  0  0  0  0  0  0  0
    3.6860   -1.5492   -0.9892 H   0  0  0  0  0  0  0  0  0  0  0  0
    4.4817   -1.2085    0.5915 H   0  0  0  0  0  0  0  0  0  0  0  0
   -2.4331    4.8124   -0.7039 H   0  0  0  0  0  0  0  0  0  0  0  0
   -3.3183    3.7785    0.4964 H   0  0  0  0  0  0  0  0  0  0  0  0
   -3.5855    2.5445   -1.5455 H   0  0  0  0  0  0  0  0  0  0  0  0
   -1.8984    2.9693   -2.0897 H   0  0  0  0  0  0  0  0  0  0  0  0
    4.1232    1.0806    2.1314 H   0  0  0  0  0  0  0  0  0  0  0  0
    3.8579    2.6765    1.3723 H   0  0  0  0  0  0  0  0  0  0  0  0
    2.4134    1.6980   -0.3333 H   0  0  0  0  0  0  0  0  0  0  0  0
    1.8117    1.4453    1.3623 H   0  0  0  0  0  0  0  0  0  0  0  0
    5.9309    0.9743    0.7484 H   0  0  0  0  0  0  0  0  0  0  0  0
   -3.2989   -0.1504    0.5547 H   0  0  0  0  0  0  0  0  0  0  0  0
   -4.4859   -2.1790    0.2020 H   0  0  0  0  0  0  0  0  0  0  0  0
   -4.3365   -1.7456    1.9220 H   0  0  0  0  0  0  0  0  0  0  0  0
   -2.9633   -3.4918    2.4976 H   0  0  0  0  0  0  0  0  0  0  0  0
   -1.4165   -4.5757    1.2011 H   0  0  0  0  0  0  0  0  0  0  0  0
   -2.3340   -4.5161   -0.3140 H   0  0  0  0  0  0  0  0  0  0  0  0
   -0.4860    4.1955    0.0915 H   0  0  0  0  0  0  0  0  0  0  0  0
   -0.7020    1.2150   -2.0762 H   0  0  0  0  0  0  0  0  0  0  0  0
   -2.2992    0.4822   -2.2496 H   0  0  0  0  0  0  0  0  0  0  0  0
   -0.4258   -1.1486   -1.8280 H   0  0  0  0  0  0  0  0  0  0  0  0
   -2.6000   -1.9709   -1.1224 H   0  0  0  0  0  0  0  0  0  0  0  0
   -0.0153    2.1592   -0.5545 H   0  0  0  0  0  0  0  0  0  0  0  0
   -0.6495    1.6404    1.1045 H   0  0  0  0  0  0  0  0  0  0  0  0
    1.6076   -0.2699   -1.5705 H   0  0  0  0  0  0  0  0  0  0  0  0
    1.3659   -1.7756   -0.6672 H   0  0  0  0  0  0  0  0  0  0  0  0
    5.5052   -0.0820   -1.3046 H   0  0  0  0  0  0  0  0  0  0  0  0
    3.9496    0.8554   -1.5921 H   0  0  0  0  0  0  0  0  0  0  0  0
   -0.3817   -2.5256    0.8913 H   0  0  0  0  0  0  0  0  0  0  0  0
   -0.5518   -3.2051   -0.7501 H   0  0  0  0  0  0  0  0  0  0  0  0
  1  2  1  0
  4  5  1  0
  1  7  1  0
  6  7  1  0
  6  8  1  0
  8  9  1  0
  3 10  1  0
 10 11  1  0
 11 12  1  0
 12 13  1  0
 12 14  1  0
  4 15  1  0
 16 17  1  0
 17 18  1  0
 10 19  1  0
 17 19  1  0
  5 20  1  0
 16 20  1  0
 20 21  1  0
 21 15  1  0
  1 22  1  0
 18 22  1  0
  2 23  1  0
  8 23  1  0
 13 24  1  0
 19 24  1  0
 25 26  1  0
 28 29  1  0
 25 31  1  0
 30 31  1  0
 30 32  1  0
 32 33  1  0
 27 34  1  0
 34 35  1  0
 35 36  1  0
 36 37  1  0
 36 38  1  0
 28 39  1  0
 40 41  1  0
 41 42  1  0
 34 43  1  0
 41 43  1  0
 29 44  1  0
 40 44  1  0
 44 45  1  0
 45 39  1  0
 25 46  1  0
 42 46  1  0
 26 47  1  0
 32 47  1  0
 37 48  1  0
 43 48  1  0
  1 49  1  0
  2 50  1  0
  2 51  1  0
  4 52  1  0
  4 53  1  0
  5 54  1  0
  5 55  1  0
  6 56  1  0
  6 57  1  0
  7 58  1  0
  7 59  1  0
  8 60  1  0
 10 61  1  0
 11 62  1  0
 11 63  1  0
 12 64  1  0
 13 65  1  0
 13 66  1  0
 15 67  1  0
 16 68  1  0
 16 69  1  0
 17 70  1  6
 19 71  1  0
 21 72  1  0
 21 73  1  0
 22 74  1  0
 22 75  1  0
 23 76  1  0
 23 77  1  0
 24 78  1  0
 24 79  1  0
 25 80  1  0
 26 81  1  0
 26 82  1  0
 28 83  1  0
 28 84  1  0
 29 85  1  0
 29 86  1  0
 30 87  1  0
 30 88  1  0
 31 89  1  0
 31 90  1  0
 32 91  1  0
 34 92  1  0
 35 93  1  0
 35 94  1  0
 36 95  1  0
 37 96  1  0
 37 97  1  0
 39 98  1  0
 40 99  1  0
 40100  1  0
 41101  1  6
 43102  1  0
 45103  1  0
 45104  1  0
 46105  1  0
 46106  1  0
 47107  1  0
 47108  1  0
 48109  1  0
 48110  1  0
M  END
>  <PDBID>  (1) 
3JUS

>  <PDB ID>  (1) 
3JUS

>  <Generic Name>  (1) 
Econazole

>  <Brand Name>  (1) 
Econazole Nitrate#Econazole Nitrate Cream#Econazole Nitrate Topical Foam, 1%#Ecostatin Cream 1%#Ecostatin Vaginal Ovule 150mg#Ecoza#Ecostatin#Gyno-Pevaryl#Ifenec#Palavale#Pevaryl#Spectazole

>  <DrugBank ID>  (1) 
DB01127

>  <ATC Codes>  (1) 
G01AF05#D01AC03

>  <Ligand ID>  (1) 
ECL,ECN

>  <Target Name>  (1) 
Lanosterol 14-alpha demethylase

>  <UniProt ID>  (1) 
P10613

>  <PDB ID.1>  (1) 
3JUS

>  <Seq. Identity>  (1) 
40%

$$$$
