PDB_DB08901_04
     RDKit          3D

184192  0  0  0  0  0  0  0  0999 V2000
   -8.8982    0.0549   -1.7516 N   0  0  0  0  0  0  0  0  0  0  0  0
    6.6011    1.1553   -0.5372 N   0  0  0  0  0  0  0  0  0  0  0  0
   -4.2898    0.0758   -0.8473 C   0  0  0  0  0  0  0  0  0  0  0  0
   -3.2101   -0.6405   -0.1030 C   0  0  0  0  0  0  0  0  0  0  0  0
   -3.5919   -1.0252    1.2902 C   0  0  0  0  0  0  0  0  0  0  0  0
   -2.4562   -1.7452    1.9445 C   0  0  0  0  0  0  0  0  0  0  0  0
   -1.1906   -1.7750    1.1197 C   0  0  0  0  0  0  0  0  0  0  0  0
   -1.9948    0.2657   -0.0784 C   0  0  0  0  0  0  0  0  0  0  0  0
    2.1133   -0.5681    1.2116 C   0  0  0  0  0  0  0  0  0  0  0  0
    3.8962    0.6652   -0.0757 C   0  0  0  0  0  0  0  0  0  0  0  0
    4.3456   -1.5656    0.7568 C   0  0  0  0  0  0  0  0  0  0  0  0
    6.1446   -0.2088   -0.3752 C   0  0  0  0  0  0  0  0  0  0  0  0
    7.1937    1.6897    0.6536 C   0  0  0  0  0  0  0  0  0  0  0  0
    8.6363    2.0743    0.5185 C   0  0  0  0  0  0  0  0  0  0  0  0
    7.4048    1.3326   -1.7160 C   0  0  0  0  0  0  0  0  0  0  0  0
   -9.0872    2.2029   -0.5626 C   0  0  0  0  0  0  0  0  0  0  0  0
   -9.1577    1.3707    0.7104 C   0  0  0  0  0  0  0  0  0  0  0  0
   -7.7752    0.9122    1.0899 C   0  0  0  0  0  0  0  0  0  0  0  0
   -6.7519    1.3622    0.2023 N   0  0  0  0  0  0  0  0  0  0  0  0
   -6.9780    1.2009   -1.1331 N   0  0  0  0  0  0  0  0  0  0  0  0
   -8.3228    1.3717   -1.5709 C   0  0  0  0  0  0  0  0  0  0  0  0
   -7.7914   -0.8453   -2.0033 C   0  0  0  0  0  0  0  0  0  0  0  0
   -6.5693   -0.0257   -1.7257 C   0  0  0  0  0  0  0  0  0  0  0  0
   -5.5157   -0.7874   -0.9585 C   0  0  0  0  0  0  0  0  0  0  0  0
   -0.8190   -0.3930    0.6190 C   0  0  0  0  0  0  0  0  0  0  0  0
   -4.0828    0.1467    2.1191 C   0  0  0  0  0  0  0  0  0  0  0  0
    0.2854   -0.5535   -0.3830 C   0  0  0  0  0  0  0  0  0  0  0  0
   -0.2168   -1.3551   -1.4231 O   0  0  0  0  0  0  0  0  0  0  0  0
    1.4399   -1.2280    0.1443 N   0  0  0  0  0  0  0  0  0  0  0  0
    2.7123    0.7693    0.8553 C   0  0  0  0  0  0  0  0  0  0  0  0
    4.9631   -0.2063    0.5645 C   0  0  0  0  0  0  0  0  0  0  0  0
    3.2124   -1.4634    1.7209 C   0  0  0  0  0  0  0  0  0  0  0  0
    5.3075   -2.5971    1.3033 C   0  0  0  0  0  0  0  0  0  0  0  0
    5.7572   -2.1406    2.5180 F   0  0  0  0  0  0  0  0  0  0  0  0
    6.2768   -2.8572    0.3879 F   0  0  0  0  0  0  0  0  0  0  0  0
    4.5475   -3.7445    1.5742 F   0  0  0  0  0  0  0  0  0  0  0  0
    8.8211    0.8598   -1.5370 C   0  0  0  0  0  0  0  0  0  0  0  0
    9.8123   -0.0428    0.4295 C   0  0  0  0  0  0  0  0  0  0  0  0
    9.3618    1.1249   -0.2494 N   0  0  0  0  0  0  0  0  0  0  0  0
   -7.3182   -2.7586    0.3142 N   0  0  0  0  0  0  0  0  0  0  0  0
    6.8138   -0.4644   -0.0267 N   0  0  0  0  0  0  0  0  0  0  0  0
   -4.5033    0.2725    0.8335 C   0  0  0  0  0  0  0  0  0  0  0  0
   -3.3187    1.1764    0.8427 C   0  0  0  0  0  0  0  0  0  0  0  0
   -2.9595    1.6645    2.2312 C   0  0  0  0  0  0  0  0  0  0  0  0
   -1.9921    2.8258    2.0762 C   0  0  0  0  0  0  0  0  0  0  0  0
   -0.7484    2.3965    1.3374 C   0  0  0  0  0  0  0  0  0  0  0  0
   -2.1045    0.6473    0.1311 C   0  0  0  0  0  0  0  0  0  0  0  0
    1.8595   -0.0939   -1.0547 C   0  0  0  0  0  0  0  0  0  0  0  0
    3.9092   -1.4447   -0.4659 C   0  0  0  0  0  0  0  0  0  0  0  0
    4.0941    0.9616   -0.5258 C   0  0  0  0  0  0  0  0  0  0  0  0
    5.7487   -0.3377    0.8692 C   0  0  0  0  0  0  0  0  0  0  0  0
    7.0077   -1.6389   -0.7644 C   0  0  0  0  0  0  0  0  0  0  0  0
    8.4612   -2.0280   -0.9612 C   0  0  0  0  0  0  0  0  0  0  0  0
    7.7127    0.6139   -0.2000 C   0  0  0  0  0  0  0  0  0  0  0  0
   -9.0448   -1.9073   -1.0986 C   0  0  0  0  0  0  0  0  0  0  0  0
   -9.6336   -0.6651   -1.7285 C   0  0  0  0  0  0  0  0  0  0  0  0
   -8.4871    0.2777   -2.0180 C   0  0  0  0  0  0  0  0  0  0  0  0
   -7.7283    0.5831   -0.8289 N   0  0  0  0  0  0  0  0  0  0  0  0
   -7.2584   -0.4949   -0.1399 N   0  0  0  0  0  0  0  0  0  0  0  0
   -8.1386   -1.5905    0.0555 C   0  0  0  0  0  0  0  0  0  0  0  0
   -5.9356   -2.2896    0.2913 C   0  0  0  0  0  0  0  0  0  0  0  0
   -6.0455   -1.0874   -0.6215 C   0  0  0  0  0  0  0  0  0  0  0  0
   -4.8466   -0.1936   -0.5460 C   0  0  0  0  0  0  0  0  0  0  0  0
   -1.1481    1.8345    0.0088 C   0  0  0  0  0  0  0  0  0  0  0  0
   -2.3881    0.5857    3.0929 C   0  0  0  0  0  0  0  0  0  0  0  0
    0.0312    1.4794   -0.8727 C   0  0  1  0  0  0  0  0  0  0  0  0
    0.7313    2.6696   -1.0650 O   0  0  0  0  0  0  0  0  0  0  0  0
    0.9222    0.5604   -0.1998 N   0  0  0  0  0  0  0  0  0  0  0  0
    2.3723   -1.3768   -0.4579 C   0  0  0  0  0  0  0  0  0  0  0  0
    4.3633   -0.2475    0.3285 C   0  0  0  0  0  0  0  0  0  0  0  0
    2.9974    0.7400   -1.5320 C   0  0  0  0  0  0  0  0  0  0  0  0
    3.8766    2.1613    0.3295 C   0  0  0  0  0  0  0  0  0  0  0  0
    3.6194    3.3036   -0.4192 F   0  0  0  0  0  0  0  0  0  0  0  0
    5.0594    2.3975    1.0457 F   0  0  0  0  0  0  0  0  0  0  0  0
    2.8897    1.9635    1.2759 F   0  0  0  0  0  0  0  0  0  0  0  0
    9.1607    0.1647   -0.2805 C   0  0  0  0  0  0  0  0  0  0  0  0
    9.1213   -1.6206    1.3083 C   0  0  0  0  0  0  0  0  0  0  0  0
    9.2716   -1.2661   -0.0673 N   0  0  0  0  0  0  0  0  0  0  0  0
   -9.5771    0.0585   -2.5427 H   0  0  0  0  0  0  0  0  0  0  0  0
   -4.4827    1.0720   -0.4031 H   0  0  0  0  0  0  0  0  0  0  0  0
   -3.9063    0.2242   -1.8938 H   0  0  0  0  0  0  0  0  0  0  0  0
   -2.9437   -1.5733   -0.6419 H   0  0  0  0  0  0  0  0  0  0  0  0
   -4.4459   -1.7445    1.1956 H   0  0  0  0  0  0  0  0  0  0  0  0
   -2.2481   -1.3222    2.9716 H   0  0  0  0  0  0  0  0  0  0  0  0
   -2.7544   -2.7932    2.1440 H   0  0  0  0  0  0  0  0  0  0  0  0
   -0.3642   -2.0938    1.7952 H   0  0  0  0  0  0  0  0  0  0  0  0
   -1.2642   -2.5151    0.3175 H   0  0  0  0  0  0  0  0  0  0  0  0
   -1.7558    0.5014   -1.1240 H   0  0  0  0  0  0  0  0  0  0  0  0
   -2.2530    1.1757    0.4792 H   0  0  0  0  0  0  0  0  0  0  0  0
    1.3919   -0.3666    2.0333 H   0  0  0  0  0  0  0  0  0  0  0  0
    3.6554    0.2946   -1.0725 H   0  0  0  0  0  0  0  0  0  0  0  0
    4.3380    1.6894   -0.1278 H   0  0  0  0  0  0  0  0  0  0  0  0
    3.9733   -1.9492   -0.2188 H   0  0  0  0  0  0  0  0  0  0  0  0
    5.8676   -0.6571   -1.3303 H   0  0  0  0  0  0  0  0  0  0  0  0
    7.0146   -0.7499    0.0942 H   0  0  0  0  0  0  0  0  0  0  0  0
    6.6321    2.6326    0.9131 H   0  0  0  0  0  0  0  0  0  0  0  0
    7.0756    1.0192    1.5287 H   0  0  0  0  0  0  0  0  0  0  0  0
    9.0795    2.1375    1.5369 H   0  0  0  0  0  0  0  0  0  0  0  0
    8.6902    3.0639   -0.0002 H   0  0  0  0  0  0  0  0  0  0  0  0
    7.3450    2.3972   -2.0176 H   0  0  0  0  0  0  0  0  0  0  0  0
    6.9520    0.7380   -2.5322 H   0  0  0  0  0  0  0  0  0  0  0  0
   -8.5563    3.1477   -0.4233 H   0  0  0  0  0  0  0  0  0  0  0  0
  -10.0939    2.3664   -0.9933 H   0  0  0  0  0  0  0  0  0  0  0  0
   -9.6772    1.9177    1.5254 H   0  0  0  0  0  0  0  0  0  0  0  0
   -9.7604    0.4709    0.4677 H   0  0  0  0  0  0  0  0  0  0  0  0
   -7.5584    1.3956    2.0886 H   0  0  0  0  0  0  0  0  0  0  0  0
   -7.7380   -0.1787    1.2934 H   0  0  0  0  0  0  0  0  0  0  0  0
   -6.3898    2.3073    0.4707 H   0  0  0  0  0  0  0  0  0  0  0  0
   -8.3163    1.8885   -2.5562 H   0  0  0  0  0  0  0  0  0  0  0  0
   -7.7861   -1.7203   -1.3320 H   0  0  0  0  0  0  0  0  0  0  0  0
   -7.7781   -1.2314   -3.0468 H   0  0  0  0  0  0  0  0  0  0  0  0
   -6.0973    0.2266   -2.7165 H   0  0  0  0  0  0  0  0  0  0  0  0
   -5.9332   -1.1201    0.0045 H   0  0  0  0  0  0  0  0  0  0  0  0
   -5.2249   -1.6593   -1.6094 H   0  0  0  0  0  0  0  0  0  0  0  0
   -0.4488    0.2176    1.4581 H   0  0  0  0  0  0  0  0  0  0  0  0
   -3.5670    0.1773    3.1143 H   0  0  0  0  0  0  0  0  0  0  0  0
   -3.9749    1.0964    1.5615 H   0  0  0  0  0  0  0  0  0  0  0  0
   -5.1597    0.0411    2.3625 H   0  0  0  0  0  0  0  0  0  0  0  0
    0.5375    0.4377   -0.8083 H   0  0  0  0  0  0  0  0  0  0  0  0
    0.5582   -1.7148   -1.9479 H   0  0  0  0  0  0  0  0  0  0  0  0
    2.0477   -1.4801   -0.6581 H   0  0  0  0  0  0  0  0  0  0  0  0
    1.9825    1.5200    0.5352 H   0  0  0  0  0  0  0  0  0  0  0  0
    3.1340    1.1715    1.8257 H   0  0  0  0  0  0  0  0  0  0  0  0
    5.2300    0.1995    1.5390 H   0  0  0  0  0  0  0  0  0  0  0  0
    3.5488   -1.0970    2.7069 H   0  0  0  0  0  0  0  0  0  0  0  0
    2.7685   -2.4922    1.8279 H   0  0  0  0  0  0  0  0  0  0  0  0
    8.8834   -0.2465   -1.7161 H   0  0  0  0  0  0  0  0  0  0  0  0
    9.4452    1.3446   -2.3088 H   0  0  0  0  0  0  0  0  0  0  0  0
    9.2916   -0.1589    1.3944 H   0  0  0  0  0  0  0  0  0  0  0  0
    9.5606   -0.9395   -0.2043 H   0  0  0  0  0  0  0  0  0  0  0  0
   10.9183    0.0065    0.5767 H   0  0  0  0  0  0  0  0  0  0  0  0
   -7.4200   -3.4828   -0.4533 H   0  0  0  0  0  0  0  0  0  0  0  0
   -5.3659    0.7137    1.3691 H   0  0  0  0  0  0  0  0  0  0  0  0
   -4.2355   -0.6403    1.4440 H   0  0  0  0  0  0  0  0  0  0  0  0
   -3.6246    2.0988    0.2685 H   0  0  0  0  0  0  0  0  0  0  0  0
   -3.8760    2.0496    2.6913 H   0  0  0  0  0  0  0  0  0  0  0  0
   -1.7491    3.2236    3.0929 H   0  0  0  0  0  0  0  0  0  0  0  0
   -2.4951    3.5918    1.4633 H   0  0  0  0  0  0  0  0  0  0  0  0
   -0.0922    1.7250    1.9184 H   0  0  0  0  0  0  0  0  0  0  0  0
   -0.1824    3.3447    1.1096 H   0  0  0  0  0  0  0  0  0  0  0  0
   -2.3668    0.3908   -0.9134 H   0  0  0  0  0  0  0  0  0  0  0  0
   -1.6196   -0.1839    0.6545 H   0  0  0  0  0  0  0  0  0  0  0  0
    1.2861   -0.4004   -1.9813 H   0  0  0  0  0  0  0  0  0  0  0  0
    4.2735   -1.4213   -1.5051 H   0  0  0  0  0  0  0  0  0  0  0  0
    4.1639   -2.4148   -0.0242 H   0  0  0  0  0  0  0  0  0  0  0  0
    5.0346    1.1407   -1.1220 H   0  0  0  0  0  0  0  0  0  0  0  0
    5.8983    0.4271    1.6677 H   0  0  0  0  0  0  0  0  0  0  0  0
    5.7420   -1.3109    1.4889 H   0  0  0  0  0  0  0  0  0  0  0  0
    6.6093   -1.5149   -1.8102 H   0  0  0  0  0  0  0  0  0  0  0  0
    6.4995   -2.5257   -0.3108 H   0  0  0  0  0  0  0  0  0  0  0  0
    8.5664   -3.0951   -0.6813 H   0  0  0  0  0  0  0  0  0  0  0  0
    8.7974   -1.9381   -2.0167 H   0  0  0  0  0  0  0  0  0  0  0  0
    7.4306    1.2088   -1.0853 H   0  0  0  0  0  0  0  0  0  0  0  0
    7.6477    1.3140    0.6713 H   0  0  0  0  0  0  0  0  0  0  0  0
   -9.9219   -2.4743   -0.6789 H   0  0  0  0  0  0  0  0  0  0  0  0
   -8.5774   -2.5653   -1.8369 H   0  0  0  0  0  0  0  0  0  0  0  0
  -10.0865   -0.9575   -2.6978 H   0  0  0  0  0  0  0  0  0  0  0  0
  -10.3941   -0.2056   -1.0965 H   0  0  0  0  0  0  0  0  0  0  0  0
   -7.8590   -0.0893   -2.8397 H   0  0  0  0  0  0  0  0  0  0  0  0
   -8.9418    1.2318   -2.3704 H   0  0  0  0  0  0  0  0  0  0  0  0
   -7.0595    1.3421   -0.9381 H   0  0  0  0  0  0  0  0  0  0  0  0
   -8.7585   -1.4191    0.9709 H   0  0  0  0  0  0  0  0  0  0  0  0
   -5.7409   -1.9706    1.3550 H   0  0  0  0  0  0  0  0  0  0  0  0
   -5.2156   -3.0390   -0.0338 H   0  0  0  0  0  0  0  0  0  0  0  0
   -6.1663   -1.5111   -1.6574 H   0  0  0  0  0  0  0  0  0  0  0  0
   -3.9830   -0.7701   -0.9829 H   0  0  0  0  0  0  0  0  0  0  0  0
   -4.9862    0.6670   -1.2138 H   0  0  0  0  0  0  0  0  0  0  0  0
   -1.7213    2.6236   -0.5345 H   0  0  0  0  0  0  0  0  0  0  0  0
   -2.7349   -0.4089    2.7578 H   0  0  0  0  0  0  0  0  0  0  0  0
   -1.2739    0.5353    3.0646 H   0  0  0  0  0  0  0  0  0  0  0  0
   -2.7114    0.7688    4.1580 H   0  0  0  0  0  0  0  0  0  0  0  0
   -0.3295    1.0402   -1.8045 H   0  0  0  0  0  0  0  0  0  0  0  0
    0.2206    3.1845   -1.7402 H   0  0  0  0  0  0  0  0  0  0  0  0
    0.3913   -0.1534    0.3309 H   0  0  0  0  0  0  0  0  0  0  0  0
    2.0296   -2.2810   -0.9993 H   0  0  0  0  0  0  0  0  0  0  0  0
    2.0588   -1.4741    0.5974 H   0  0  0  0  0  0  0  0  0  0  0  0
    3.6770   -0.1739    1.2208 H   0  0  0  0  0  0  0  0  0  0  0  0
    3.4508    0.2028   -2.4155 H   0  0  0  0  0  0  0  0  0  0  0  0
    2.6717    1.7128   -1.9450 H   0  0  0  0  0  0  0  0  0  0  0  0
    9.5071    0.3702   -1.3124 H   0  0  0  0  0  0  0  0  0  0  0  0
    9.8051    0.7435    0.4047 H   0  0  0  0  0  0  0  0  0  0  0  0
    8.6819   -2.6084    1.4849 H   0  0  0  0  0  0  0  0  0  0  0  0
    8.5129   -0.8006    1.7895 H   0  0  0  0  0  0  0  0  0  0  0  0
   10.1087   -1.5942    1.8383 H   0  0  0  0  0  0  0  0  0  0  0  0
  3  4  1  0
  4  5  1  0
  5  6  1  0
  6  7  1  0
  4  8  1  0
  2 12  1  0
  2 13  1  0
 13 14  1  0
  2 15  1  0
 16 17  1  0
 17 18  1  0
 18 19  1  0
 19 20  1  0
  1 21  1  0
 16 21  1  0
 20 21  1  0
  1 22  1  0
 20 23  1  0
 22 23  1  0
  3 24  1  0
 23 24  1  0
  7 25  1  0
  8 25  1  0
  5 26  1  0
 25 27  1  0
 27 28  1  0
  9 29  1  0
 27 29  1  0
  9 30  1  0
 10 30  1  0
 10 31  1  0
 11 31  1  0
 12 31  1  0
  9 32  1  0
 11 32  1  0
 11 33  1  0
 33 34  1  0
 33 35  1  0
 33 36  1  0
 15 37  1  0
 14 39  1  0
 37 39  1  0
 38 39  1  0
 42 43  1  0
 43 44  1  0
 44 45  1  0
 45 46  1  0
 43 47  1  0
 41 51  1  0
 41 52  1  0
 52 53  1  0
 41 54  1  0
 55 56  1  0
 56 57  1  0
 57 58  1  0
 58 59  1  0
 40 60  1  0
 55 60  1  0
 59 60  1  0
 40 61  1  0
 59 62  1  0
 61 62  1  0
 42 63  1  0
 62 63  1  0
 46 64  1  0
 47 64  1  0
 44 65  1  0
 64 66  1  0
 66 67  1  0
 48 68  1  0
 66 68  1  0
 48 69  1  0
 49 69  1  0
 49 70  1  0
 50 70  1  0
 51 70  1  0
 48 71  1  0
 50 71  1  0
 50 72  1  0
 72 73  1  0
 72 74  1  0
 72 75  1  0
 54 76  1  0
 53 78  1  0
 76 78  1  0
 77 78  1  0
  1 79  1  0
  3 80  1  0
  3 81  1  0
  4 82  1  0
  5 83  1  0
  6 84  1  0
  6 85  1  0
  7 86  1  0
  7 87  1  0
  8 88  1  0
  8 89  1  0
  9 90  1  0
 10 91  1  0
 10 92  1  0
 11 93  1  0
 12 94  1  0
 12 95  1  0
 13 96  1  0
 13 97  1  0
 14 98  1  0
 14 99  1  0
 15100  1  0
 15101  1  0
 16102  1  0
 16103  1  0
 17104  1  0
 17105  1  0
 18106  1  0
 18107  1  0
 19108  1  0
 21109  1  0
 22110  1  0
 22111  1  0
 23112  1  0
 24113  1  0
 24114  1  0
 25115  1  0
 26116  1  0
 26117  1  0
 26118  1  0
 27119  1  0
 28120  1  0
 29121  1  0
 30122  1  0
 30123  1  0
 31124  1  0
 32125  1  0
 32126  1  0
 37127  1  0
 37128  1  0
 38129  1  0
 38130  1  0
 38131  1  0
 40132  1  0
 42133  1  0
 42134  1  0
 43135  1  0
 44136  1  0
 45137  1  0
 45138  1  0
 46139  1  0
 46140  1  0
 47141  1  0
 47142  1  0
 48143  1  0
 49144  1  0
 49145  1  0
 50146  1  0
 51147  1  0
 51148  1  0
 52149  1  0
 52150  1  0
 53151  1  0
 53152  1  0
 54153  1  0
 54154  1  0
 55155  1  0
 55156  1  0
 56157  1  0
 56158  1  0
 57159  1  0
 57160  1  0
 58161  1  0
 60162  1  0
 61163  1  0
 61164  1  0
 62165  1  0
 63166  1  0
 63167  1  0
 64168  1  0
 65169  1  0
 65170  1  0
 65171  1  0
 66172  1  6
 67173  1  0
 68174  1  0
 69175  1  0
 69176  1  0
 70177  1  0
 71178  1  0
 71179  1  0
 76180  1  0
 76181  1  0
 77182  1  0
 77183  1  0
 77184  1  0
M  END
>  <PDBID>  (1) 
3IK3

>  <PDB ID>  (1) 
3IK3

>  <Generic Name>  (1) 
Ponatinib

>  <Brand Name>  (1) 
Iclusig

>  <DrugBank ID>  (1) 
DB08901

>  <ATC Codes>  (1) 
L01XE24

>  <Ligand ID>  (1) 
0LI

>  <Target Name>  (1) 
Tyrosine-protein kinase ABL1

>  <UniProt ID>  (1) 
P00519

>  <PDB ID.1>  (1) 
3IK3

>  <Seq. Identity>  (1) 
95%

$$$$
