PDB_DB00990_03
     RDKit          3D

 56 59  0  0  0  0  0  0  0  0999 V2000
    2.3817   -0.9859    2.7373 C   0  0  0  0  0  0  0  0  0  0  0  0
    2.1349    1.3616   -1.4490 C   0  0  0  0  0  0  0  0  0  0  0  0
    5.2585    0.3254   -0.9908 O   0  0  0  0  0  0  0  0  0  0  0  0
    3.2329    0.6162   -2.1607 C   0  0  0  0  0  0  0  0  0  0  0  0
   -4.5810    1.9498    0.0448 O   0  0  0  0  0  0  0  0  0  0  0  0
    4.0280   -0.2954   -1.3219 C   0  0  0  0  0  0  0  0  0  0  0  0
    3.3756   -0.8751   -0.1262 C   0  0  0  0  0  0  0  0  0  0  0  0
    2.2241   -0.1219    0.4216 C   0  0  0  0  0  0  0  0  0  0  0  0
    1.5172   -0.8940    1.4985 C   0  0  0  0  0  0  0  0  0  0  0  0
    0.2382   -0.2132    1.9380 C   0  0  0  0  0  0  0  0  0  0  0  0
   -0.6481   -0.0975    0.6962 C   0  0  2  0  0  0  0  0  0  0  0  0
    0.0263    0.9025   -0.2020 C   0  0  1  0  0  0  0  0  0  0  0  0
    1.3152    0.2899   -0.7061 C   0  0  1  0  0  0  0  0  0  0  0  0
   -0.7849    1.5110   -1.2525 C   0  0  0  0  0  0  0  0  0  0  0  0
   -2.2557    1.4772   -1.1317 C   0  0  0  0  0  0  0  0  0  0  0  0
   -2.7926    0.3695   -0.2773 C   0  0  1  0  0  0  0  0  0  0  0  0
   -2.0049    0.4081    1.0148 C   0  0  1  0  0  0  0  0  0  0  0  0
   -2.8555   -0.4306    1.8961 C   0  0  0  0  0  0  0  0  0  0  0  0
   -4.2150    0.2189    1.6812 C   0  0  0  0  0  0  0  0  0  0  0  0
   -4.1889    0.6335    0.2238 C   0  0  0  0  0  0  0  0  0  0  0  0
   -2.6979   -0.9172   -1.0241 C   0  0  0  0  0  0  0  0  0  0  0  0
    1.0569   -0.7918   -1.7036 C   0  0  0  0  0  0  0  0  0  0  0  0
    2.2762   -1.9958    3.2248 H   0  0  0  0  0  0  0  0  0  0  0  0
    3.4321   -0.7695    2.5745 H   0  0  0  0  0  0  0  0  0  0  0  0
    2.0390   -0.2697    3.5364 H   0  0  0  0  0  0  0  0  0  0  0  0
    2.6069    2.0334   -0.7003 H   0  0  0  0  0  0  0  0  0  0  0  0
    1.5359    1.8806   -2.2020 H   0  0  0  0  0  0  0  0  0  0  0  0
    5.1712    0.6645   -0.0622 H   0  0  0  0  0  0  0  0  0  0  0  0
    2.8182    0.0811   -3.0648 H   0  0  0  0  0  0  0  0  0  0  0  0
    3.9026    1.4002   -2.6027 H   0  0  0  0  0  0  0  0  0  0  0  0
   -5.5076    1.9481   -0.3387 H   0  0  0  0  0  0  0  0  0  0  0  0
    4.3466   -1.1662   -1.9727 H   0  0  0  0  0  0  0  0  0  0  0  0
    3.0980   -1.9627   -0.2665 H   0  0  0  0  0  0  0  0  0  0  0  0
    4.1639   -0.9268    0.6849 H   0  0  0  0  0  0  0  0  0  0  0  0
    2.6044    0.8114    0.8908 H   0  0  0  0  0  0  0  0  0  0  0  0
    1.2599   -1.9263    1.1895 H   0  0  0  0  0  0  0  0  0  0  0  0
    0.4374    0.7836    2.3872 H   0  0  0  0  0  0  0  0  0  0  0  0
   -0.2718   -0.8702    2.6648 H   0  0  0  0  0  0  0  0  0  0  0  0
   -0.7197   -1.1059    0.2939 H   0  0  0  0  0  0  0  0  0  0  0  0
    0.3687    1.7266    0.4980 H   0  0  0  0  0  0  0  0  0  0  0  0
   -0.5163    1.0457   -2.2419 H   0  0  0  0  0  0  0  0  0  0  0  0
   -0.4852    2.5938   -1.3944 H   0  0  0  0  0  0  0  0  0  0  0  0
   -2.6686    2.4354   -0.7176 H   0  0  0  0  0  0  0  0  0  0  0  0
   -2.7471    1.3766   -2.1407 H   0  0  0  0  0  0  0  0  0  0  0  0
   -2.0256    1.4452    1.4030 H   0  0  0  0  0  0  0  0  0  0  0  0
   -2.5330   -0.3744    2.9519 H   0  0  0  0  0  0  0  0  0  0  0  0
   -2.9538   -1.4808    1.5668 H   0  0  0  0  0  0  0  0  0  0  0  0
   -4.2039    1.1485    2.2986 H   0  0  0  0  0  0  0  0  0  0  0  0
   -5.0458   -0.4470    1.9269 H   0  0  0  0  0  0  0  0  0  0  0  0
   -4.8670   -0.0608   -0.3129 H   0  0  0  0  0  0  0  0  0  0  0  0
   -2.4742   -1.8061   -0.4397 H   0  0  0  0  0  0  0  0  0  0  0  0
   -3.7289   -1.0972   -1.4578 H   0  0  0  0  0  0  0  0  0  0  0  0
   -2.0579   -0.8060   -1.9263 H   0  0  0  0  0  0  0  0  0  0  0  0
    0.8585   -0.3678   -2.7193 H   0  0  0  0  0  0  0  0  0  0  0  0
    0.2006   -1.4453   -1.4846 H   0  0  0  0  0  0  0  0  0  0  0  0
    1.9214   -1.4702   -1.8533 H   0  0  0  0  0  0  0  0  0  0  0  0
  2  4  1  0
  3  6  1  0
  4  6  1  0
  6  7  1  0
  7  8  1  0
  1  9  1  0
  8  9  1  0
  9 10  1  0
 10 11  1  0
 11 12  1  0
  2 13  1  0
  8 13  1  0
 12 13  1  0
 12 14  1  0
 14 15  1  0
 15 16  1  0
 11 17  1  0
 16 17  1  0
 17 18  1  0
 18 19  1  0
  5 20  1  0
 16 20  1  0
 19 20  1  0
 16 21  1  6
 13 22  1  6
  1 23  1  0
  1 24  1  0
  1 25  1  0
  2 26  1  0
  2 27  1  0
  3 28  1  0
  4 29  1  0
  4 30  1  0
  5 31  1  0
  6 32  1  0
  7 33  1  0
  7 34  1  0
  8 35  1  0
  9 36  1  0
 10 37  1  0
 10 38  1  0
 11 39  1  6
 12 40  1  1
 14 41  1  0
 14 42  1  0
 15 43  1  0
 15 44  1  0
 17 45  1  1
 18 46  1  0
 18 47  1  0
 19 48  1  0
 19 49  1  0
 20 50  1  0
 21 51  1  0
 21 52  1  0
 21 53  1  0
 22 54  1  0
 22 55  1  0
 22 56  1  0
M  END
>  <PDBID>  (1) 
3S7S

>  <PDB ID>  (1) 
3S7S

>  <Generic Name>  (1) 
Exemestane

>  <Brand Name>  (1) 
Act Exemestane#Apo-exemestane#Aromasin#Exemestane#Gd-exemestane#Med-exemestane#Mylan-exemestane#Teva-exemestane#Exemestance

>  <DrugBank ID>  (1) 
DB00990

>  <ATC Codes>  (1) 
L02BG06

>  <Ligand ID>  (1) 
EXM

>  <Target Name>  (1) 
Aromatase

>  <UniProt ID>  (1) 
P11511

>  <PDB ID.1>  (1) 
3S7S

>  <Seq. Identity>  (1) 
98%

$$$$
