PDB_DB00624_06
     RDKit          3D

 53 56  0  0  0  0  0  0  0  0999 V2000
    2.4920    1.8709   -0.2957 C   0  0  0  0  0  0  0  0  0  0  0  0
    3.3056    1.4000    0.8639 C   0  0  0  0  0  0  0  0  0  0  0  0
    3.8464    0.0210    0.6607 C   0  0  0  0  0  0  0  0  0  0  0  0
    3.2981   -0.8437    1.6193 O   0  0  0  0  0  0  0  0  0  0  0  0
    3.6804   -0.4866   -0.7392 C   0  0  0  0  0  0  0  0  0  0  0  0
    2.2829   -0.4168   -1.2550 C   0  0  0  0  0  0  0  0  0  0  0  0
    1.4972   -1.6631   -0.8377 C   0  0  0  0  0  0  0  0  0  0  0  0
    0.0836   -1.5399   -1.2975 C   0  0  0  0  0  0  0  0  0  0  0  0
   -0.6014   -0.3075   -0.7620 C   0  0  2  0  0  0  0  0  0  0  0  0
    0.4375    0.4783    0.0532 C   0  0  1  0  0  0  0  0  0  0  0  0
    1.5547    0.8491   -0.8523 C   0  0  1  0  0  0  0  0  0  0  0  0
   -0.2187    1.6752    0.7097 C   0  0  0  0  0  0  0  0  0  0  0  0
   -1.2976    1.1806    1.6587 C   0  0  0  0  0  0  0  0  0  0  0  0
   -2.3325    0.4871    0.8456 C   0  0  1  0  0  0  0  0  0  0  0  0
   -1.6560   -0.7194    0.1883 C   0  0  1  0  0  0  0  0  0  0  0  0
   -2.8159   -1.4488   -0.3685 C   0  0  0  0  0  0  0  0  0  0  0  0
   -3.8168   -1.3987    0.7943 C   0  0  0  0  0  0  0  0  0  0  0  0
   -3.3891   -0.2203    1.6538 C   0  0  2  0  0  0  0  0  0  0  0  0
   -4.5039    0.6065    1.7909 O   0  0  0  0  0  0  0  0  0  0  0  0
   -3.0193    1.3658   -0.1509 C   0  0  0  0  0  0  0  0  0  0  0  0
    0.9337    1.4585   -2.1175 C   0  0  0  0  0  0  0  0  0  0  0  0
    1.9400    2.7809   -0.0495 H   0  0  0  0  0  0  0  0  0  0  0  0
    3.2103    2.1389   -1.1178 H   0  0  0  0  0  0  0  0  0  0  0  0
    2.7600    1.4570    1.8435 H   0  0  0  0  0  0  0  0  0  0  0  0
    4.1537    2.1367    0.9859 H   0  0  0  0  0  0  0  0  0  0  0  0
    4.9481    0.0299    0.8727 H   0  0  0  0  0  0  0  0  0  0  0  0
    3.3527   -0.3269    2.4852 H   0  0  0  0  0  0  0  0  0  0  0  0
    4.4010    0.0791   -1.3796 H   0  0  0  0  0  0  0  0  0  0  0  0
    4.0103   -1.5534   -0.7422 H   0  0  0  0  0  0  0  0  0  0  0  0
    2.3453   -0.4895   -2.3793 H   0  0  0  0  0  0  0  0  0  0  0  0
    1.9579   -2.5095   -1.4220 H   0  0  0  0  0  0  0  0  0  0  0  0
    1.6294   -1.9117    0.2133 H   0  0  0  0  0  0  0  0  0  0  0  0
    0.0727   -1.5700   -2.4170 H   0  0  0  0  0  0  0  0  0  0  0  0
   -0.4599   -2.4736   -0.9841 H   0  0  0  0  0  0  0  0  0  0  0  0
   -0.9485    0.2762   -1.6214 H   0  0  0  0  0  0  0  0  0  0  0  0
    0.7259   -0.2093    0.8819 H   0  0  0  0  0  0  0  0  0  0  0  0
   -0.6643    2.3723   -0.0137 H   0  0  0  0  0  0  0  0  0  0  0  0
    0.5380    2.1899    1.3102 H   0  0  0  0  0  0  0  0  0  0  0  0
   -0.8437    0.4711    2.3578 H   0  0  0  0  0  0  0  0  0  0  0  0
   -1.7682    2.0635    2.1581 H   0  0  0  0  0  0  0  0  0  0  0  0
   -1.2142   -1.3032    1.0049 H   0  0  0  0  0  0  0  0  0  0  0  0
   -2.5807   -2.5099   -0.6011 H   0  0  0  0  0  0  0  0  0  0  0  0
   -3.2154   -0.9117   -1.2515 H   0  0  0  0  0  0  0  0  0  0  0  0
   -4.8497   -1.3185    0.4465 H   0  0  0  0  0  0  0  0  0  0  0  0
   -3.6630   -2.3210    1.4254 H   0  0  0  0  0  0  0  0  0  0  0  0
   -3.0213   -0.5395    2.6501 H   0  0  0  0  0  0  0  0  0  0  0  0
   -5.3503    0.1000    1.6475 H   0  0  0  0  0  0  0  0  0  0  0  0
   -4.1324    1.1729   -0.1797 H   0  0  0  0  0  0  0  0  0  0  0  0
   -2.9474    2.4206    0.2429 H   0  0  0  0  0  0  0  0  0  0  0  0
   -2.6719    1.2714   -1.1779 H   0  0  0  0  0  0  0  0  0  0  0  0
    0.7955    0.6745   -2.8887 H   0  0  0  0  0  0  0  0  0  0  0  0
    1.6866    2.1725   -2.5626 H   0  0  0  0  0  0  0  0  0  0  0  0
    0.0419    2.0464   -1.8995 H   0  0  0  0  0  0  0  0  0  0  0  0
  1  2  1  0
  2  3  1  0
  3  4  1  0
  3  5  1  0
  5  6  1  0
  6  7  1  0
  7  8  1  0
  8  9  1  0
  9 10  1  0
  1 11  1  0
  6 11  1  0
 10 11  1  0
 10 12  1  0
 12 13  1  0
 13 14  1  0
  9 15  1  0
 14 15  1  0
 15 16  1  0
 16 17  1  0
 14 18  1  0
 17 18  1  0
 18 19  1  0
 14 20  1  6
 11 21  1  6
  1 22  1  0
  1 23  1  0
  2 24  1  0
  2 25  1  0
  3 26  1  0
  4 27  1  0
  5 28  1  0
  5 29  1  0
  6 30  1  0
  7 31  1  0
  7 32  1  0
  8 33  1  0
  8 34  1  0
  9 35  1  6
 10 36  1  1
 12 37  1  0
 12 38  1  0
 13 39  1  0
 13 40  1  0
 15 41  1  1
 16 42  1  0
 16 43  1  0
 17 44  1  0
 17 45  1  0
 18 46  1  1
 19 47  1  0
 20 48  1  0
 20 49  1  0
 20 50  1  0
 21 51  1  0
 21 52  1  0
 21 53  1  0
M  END
>  <PDBID>  (1) 
2AM9

>  <PDB ID>  (1) 
2AM9

>  <Generic Name>  (1) 
Testosterone

>  <Brand Name>  (1) 
Andriol#Androderm#Androgel#Aveed#Axiron#Delatestryl#Depo-testosterone#Depo-testosterone Inj 100mg/ml#Fortesta#Malogen Aqueous 100 Sus 100mg/ml#Malogex La200 Liq 200mg/ml#Natesto#Neo Pause Injection#PMS-testosterone#PMS-testosterone Enanthate Inj 200mg/ml USP#Scheinpharm Testone-cyp Inject.- Im 100mg/ml#Striant#Taro-testosterone#Testim#Testim 1%#Testopel#Testosterone#Testosterone Cypionate#Testosterone Cypionate Injection USP#Testosterone Cypionate Injection, USP#Testosterone Enanthate#Testosterone Enanthate Inj 200mg/ml#Vogelxo#Andronate 100#Andronate 200#Andropatch#Andropository 200#Andryl 200#Bio-T-Gel#Fortigel#Intrinsa#Livensa#Nebido#Sustanon#Testamone 100#Testaqua IM#Testoderm#Testoderm TTS#Testogel#Testolin#Testopatch#Testopel Pellets#Testrin-P.A#Testro AQ#Tostrelle#Tostrex#Virormone

>  <DrugBank ID>  (1) 
DB00624

>  <ATC Codes>  (1) 
G03EA02#G03BA03

>  <Ligand ID>  (1) 
TES

>  <Target Name>  (1) 
Androgen receptor

>  <UniProt ID>  (1) 
P10275

>  <PDB ID.1>  (1) 
2AM9

>  <Seq. Identity>  (1) 
100%

$$$$
