PDB_DB08916_05
     RDKit          3D

158164  0  0  0  0  0  0  0  0999 V2000
    3.8078    1.4087   -1.5714 C   0  0  0  0  0  0  0  0  0  0  0  0
    3.7972    0.0504   -1.0759 N   0  0  0  0  0  0  0  0  0  0  0  0
    2.4455    1.8045   -1.8883 N   0  0  0  0  0  0  0  0  0  0  0  0
    3.0701    0.0405    0.2053 C   0  0  0  0  0  0  0  0  0  0  0  0
    1.6401    1.7534   -0.7169 C   0  0  0  0  0  0  0  0  0  0  0  0
    1.6308    0.3306   -0.1430 C   0  0  0  0  0  0  0  0  0  0  0  0
   -0.5644    0.8856    0.9484 C   0  0  0  0  0  0  0  0  0  0  0  0
    0.8265    0.2952    1.1517 C   0  0  0  0  0  0  0  0  0  0  0  0
   -0.4230    2.2527    0.4310 C   0  0  0  0  0  0  0  0  0  0  0  0
    0.2126    2.1130   -0.9897 C   0  0  0  0  0  0  0  0  0  0  0  0
    3.2417   -1.1970    0.9029 N   0  0  0  0  0  0  0  0  0  0  0  0
    5.0307   -4.2812   -0.2887 C   0  0  0  0  0  0  0  0  0  0  0  0
    6.1929   -4.1615    0.6370 C   0  0  0  0  0  0  0  0  0  0  0  0
    3.8608   -3.4052    0.1162 C   0  0  0  0  0  0  0  0  0  0  0  0
    6.6412   -2.7188    0.8296 C   0  0  0  0  0  0  0  0  0  0  0  0
    4.2901   -1.9924    0.2984 C   0  0  0  0  0  0  0  0  0  0  0  0
    5.4886   -1.8463    1.2174 C   0  0  0  0  0  0  0  0  0  0  0  0
    7.2734   -4.8318    0.0760 F   0  0  0  0  0  0  0  0  0  0  0  0
    5.5665   -3.8961   -1.9284 Cl  0  0  0  0  0  0  0  0  0  0  0  0
   -1.5520    3.0398    0.3270 O   0  0  0  0  0  0  0  0  0  0  0  0
   -1.2019    4.3222    0.7923 C   0  0  2  0  0  0  0  0  0  0  0  0
   -2.1207    4.8586    1.8283 C   0  0  0  0  0  0  0  0  0  0  0  0
   -2.9907    5.7368    1.1606 O   0  0  0  0  0  0  0  0  0  0  0  0
   -2.1527    6.4220    0.2878 C   0  0  0  0  0  0  0  0  0  0  0  0
   -1.4001    5.2978   -0.3732 C   0  0  0  0  0  0  0  0  0  0  0  0
   -1.3594   -0.0158    0.1778 N   0  0  0  0  0  0  0  0  0  0  0  0
   -2.6873   -0.2962    0.7446 C   0  0  0  0  0  0  0  0  0  0  0  0
   -3.6853   -0.1959   -0.3910 C   0  0  0  0  0  0  0  0  0  0  0  0
   -2.6635   -1.5400    1.3173 O   0  0  0  0  0  0  0  0  0  0  0  0
   -5.0894   -0.4144   -0.0623 C   0  0  0  0  0  0  0  0  0  0  0  0
   -5.6279   -1.6937    0.4137 C   0  0  0  0  0  0  0  0  0  0  0  0
   -5.4852   -2.8323   -0.4812 N   0  0  0  0  0  0  0  0  0  0  0  0
   -6.2621   -2.6088   -1.7066 C   0  0  0  0  0  0  0  0  0  0  0  0
   -6.2602   -3.8992    0.2076 C   0  0  0  0  0  0  0  0  0  0  0  0
    3.8078    1.4087   -1.5714 C   0  0  0  0  0  0  0  0  0  0  0  0
    3.7972    0.0504   -1.0759 N   0  0  0  0  0  0  0  0  0  0  0  0
    2.4455    1.8045   -1.8883 N   0  0  0  0  0  0  0  0  0  0  0  0
    3.0701    0.0405    0.2053 C   0  0  0  0  0  0  0  0  0  0  0  0
    1.6401    1.7534   -0.7169 C   0  0  0  0  0  0  0  0  0  0  0  0
    1.6308    0.3306   -0.1430 C   0  0  0  0  0  0  0  0  0  0  0  0
   -0.5644    0.8856    0.9484 C   0  0  0  0  0  0  0  0  0  0  0  0
    0.8265    0.2952    1.1517 C   0  0  0  0  0  0  0  0  0  0  0  0
   -0.4230    2.2527    0.4310 C   0  0  0  0  0  0  0  0  0  0  0  0
    0.2126    2.1130   -0.9897 C   0  0  0  0  0  0  0  0  0  0  0  0
    3.2417   -1.1970    0.9029 N   0  0  0  0  0  0  0  0  0  0  0  0
    5.0307   -4.2812   -0.2887 C   0  0  0  0  0  0  0  0  0  0  0  0
    6.1929   -4.1615    0.6370 C   0  0  0  0  0  0  0  0  0  0  0  0
    3.8608   -3.4052    0.1162 C   0  0  0  0  0  0  0  0  0  0  0  0
    6.6412   -2.7188    0.8296 C   0  0  0  0  0  0  0  0  0  0  0  0
    4.2901   -1.9924    0.2984 C   0  0  0  0  0  0  0  0  0  0  0  0
    5.4886   -1.8463    1.2174 C   0  0  0  0  0  0  0  0  0  0  0  0
    7.2734   -4.8318    0.0760 F   0  0  0  0  0  0  0  0  0  0  0  0
    5.5665   -3.8961   -1.9284 Cl  0  0  0  0  0  0  0  0  0  0  0  0
   -1.5520    3.0398    0.3270 O   0  0  0  0  0  0  0  0  0  0  0  0
   -1.2019    4.3222    0.7923 C   0  0  2  0  0  0  0  0  0  0  0  0
   -2.1207    4.8586    1.8283 C   0  0  0  0  0  0  0  0  0  0  0  0
   -2.9907    5.7368    1.1606 O   0  0  0  0  0  0  0  0  0  0  0  0
   -2.1527    6.4220    0.2878 C   0  0  0  0  0  0  0  0  0  0  0  0
   -1.4001    5.2978   -0.3732 C   0  0  0  0  0  0  0  0  0  0  0  0
   -1.3594   -0.0158    0.1778 N   0  0  0  0  0  0  0  0  0  0  0  0
   -2.6873   -0.2962    0.7446 C   0  0  0  0  0  0  0  0  0  0  0  0
   -3.6853   -0.1959   -0.3910 C   0  0  0  0  0  0  0  0  0  0  0  0
   -2.6635   -1.5400    1.3173 O   0  0  0  0  0  0  0  0  0  0  0  0
   -5.0894   -0.4144   -0.0623 C   0  0  0  0  0  0  0  0  0  0  0  0
   -5.6279   -1.6937    0.4137 C   0  0  0  0  0  0  0  0  0  0  0  0
   -5.4852   -2.8323   -0.4812 N   0  0  0  0  0  0  0  0  0  0  0  0
   -6.2621   -2.6088   -1.7066 C   0  0  0  0  0  0  0  0  0  0  0  0
   -6.2602   -3.8992    0.2076 C   0  0  0  0  0  0  0  0  0  0  0  0
    4.4158    1.4101   -2.5128 H   0  0  0  0  0  0  0  0  0  0  0  0
    4.2977    2.0734   -0.8510 H   0  0  0  0  0  0  0  0  0  0  0  0
    3.1872   -0.5153   -1.7416 H   0  0  0  0  0  0  0  0  0  0  0  0
    2.5090    2.8205   -2.1690 H   0  0  0  0  0  0  0  0  0  0  0  0
    3.4193    0.9012    0.8451 H   0  0  0  0  0  0  0  0  0  0  0  0
    2.0456    2.3892    0.1151 H   0  0  0  0  0  0  0  0  0  0  0  0
    1.1975   -0.3858   -0.8446 H   0  0  0  0  0  0  0  0  0  0  0  0
   -1.0137    0.9091    1.9864 H   0  0  0  0  0  0  0  0  0  0  0  0
    1.3316    0.8038    1.9626 H   0  0  0  0  0  0  0  0  0  0  0  0
    0.6715   -0.7531    1.4117 H   0  0  0  0  0  0  0  0  0  0  0  0
    0.4005    2.8095    0.9809 H   0  0  0  0  0  0  0  0  0  0  0  0
    0.1323    3.0753   -1.5108 H   0  0  0  0  0  0  0  0  0  0  0  0
   -0.2825    1.3000   -1.5117 H   0  0  0  0  0  0  0  0  0  0  0  0
    2.3486   -1.7426    0.7685 H   0  0  0  0  0  0  0  0  0  0  0  0
    4.6740   -5.3451   -0.2142 H   0  0  0  0  0  0  0  0  0  0  0  0
    5.9344   -4.5899    1.6178 H   0  0  0  0  0  0  0  0  0  0  0  0
    3.4015   -3.8736    1.0265 H   0  0  0  0  0  0  0  0  0  0  0  0
    3.1230   -3.4569   -0.7101 H   0  0  0  0  0  0  0  0  0  0  0  0
    7.3495   -2.7208    1.7002 H   0  0  0  0  0  0  0  0  0  0  0  0
    7.1796   -2.3271   -0.0315 H   0  0  0  0  0  0  0  0  0  0  0  0
    4.6148   -1.6256   -0.6959 H   0  0  0  0  0  0  0  0  0  0  0  0
    5.7985   -0.7844    1.1868 H   0  0  0  0  0  0  0  0  0  0  0  0
    5.1856   -2.0780    2.2640 H   0  0  0  0  0  0  0  0  0  0  0  0
   -0.1509    4.3913    1.1119 H   0  0  0  0  0  0  0  0  0  0  0  0
   -1.5327    5.4295    2.5835 H   0  0  0  0  0  0  0  0  0  0  0  0
   -2.7062    4.0795    2.3139 H   0  0  0  0  0  0  0  0  0  0  0  0
   -1.4115    7.0739    0.8111 H   0  0  0  0  0  0  0  0  0  0  0  0
   -2.7339    7.0126   -0.4587 H   0  0  0  0  0  0  0  0  0  0  0  0
   -2.0294    4.8141   -1.1560 H   0  0  0  0  0  0  0  0  0  0  0  0
   -0.4399    5.6477   -0.7483 H   0  0  0  0  0  0  0  0  0  0  0  0
   -0.8488   -0.8880    0.0056 H   0  0  0  0  0  0  0  0  0  0  0  0
   -2.8551    0.4749    1.4958 H   0  0  0  0  0  0  0  0  0  0  0  0
   -3.5340    0.7656   -0.9240 H   0  0  0  0  0  0  0  0  0  0  0  0
   -3.3400   -0.9857   -1.1683 H   0  0  0  0  0  0  0  0  0  0  0  0
   -2.2079   -1.4800    2.2145 H   0  0  0  0  0  0  0  0  0  0  0  0
   -5.7401    0.0250   -0.8949 H   0  0  0  0  0  0  0  0  0  0  0  0
   -5.3254    0.3366    0.7894 H   0  0  0  0  0  0  0  0  0  0  0  0
   -5.0955   -1.9773    1.3593 H   0  0  0  0  0  0  0  0  0  0  0  0
   -6.7055   -1.5510    0.6482 H   0  0  0  0  0  0  0  0  0  0  0  0
   -7.3123   -2.9140   -1.5910 H   0  0  0  0  0  0  0  0  0  0  0  0
   -6.1928   -1.5557   -2.0547 H   0  0  0  0  0  0  0  0  0  0  0  0
   -5.8115   -3.2381   -2.5104 H   0  0  0  0  0  0  0  0  0  0  0  0
   -6.8427   -3.4963    1.0520 H   0  0  0  0  0  0  0  0  0  0  0  0
   -7.0270   -4.3411   -0.4923 H   0  0  0  0  0  0  0  0  0  0  0  0
   -5.5690   -4.7024    0.5083 H   0  0  0  0  0  0  0  0  0  0  0  0
    4.4158    1.4101   -2.5128 H   0  0  0  0  0  0  0  0  0  0  0  0
    4.2977    2.0734   -0.8510 H   0  0  0  0  0  0  0  0  0  0  0  0
    3.1872   -0.5153   -1.7416 H   0  0  0  0  0  0  0  0  0  0  0  0
    2.5090    2.8205   -2.1690 H   0  0  0  0  0  0  0  0  0  0  0  0
    3.4193    0.9012    0.8451 H   0  0  0  0  0  0  0  0  0  0  0  0
    2.0456    2.3892    0.1151 H   0  0  0  0  0  0  0  0  0  0  0  0
    1.1975   -0.3858   -0.8446 H   0  0  0  0  0  0  0  0  0  0  0  0
   -1.0137    0.9091    1.9864 H   0  0  0  0  0  0  0  0  0  0  0  0
    1.3316    0.8038    1.9626 H   0  0  0  0  0  0  0  0  0  0  0  0
    0.6715   -0.7531    1.4117 H   0  0  0  0  0  0  0  0  0  0  0  0
    0.4005    2.8095    0.9809 H   0  0  0  0  0  0  0  0  0  0  0  0
    0.1323    3.0753   -1.5108 H   0  0  0  0  0  0  0  0  0  0  0  0
   -0.2825    1.3000   -1.5117 H   0  0  0  0  0  0  0  0  0  0  0  0
    2.3486   -1.7426    0.7685 H   0  0  0  0  0  0  0  0  0  0  0  0
    4.6740   -5.3451   -0.2142 H   0  0  0  0  0  0  0  0  0  0  0  0
    5.9344   -4.5899    1.6178 H   0  0  0  0  0  0  0  0  0  0  0  0
    3.4015   -3.8736    1.0265 H   0  0  0  0  0  0  0  0  0  0  0  0
    3.1230   -3.4569   -0.7101 H   0  0  0  0  0  0  0  0  0  0  0  0
    7.3495   -2.7208    1.7002 H   0  0  0  0  0  0  0  0  0  0  0  0
    7.1796   -2.3271   -0.0315 H   0  0  0  0  0  0  0  0  0  0  0  0
    4.6148   -1.6256   -0.6959 H   0  0  0  0  0  0  0  0  0  0  0  0
    5.7985   -0.7844    1.1868 H   0  0  0  0  0  0  0  0  0  0  0  0
    5.1856   -2.0780    2.2640 H   0  0  0  0  0  0  0  0  0  0  0  0
   -0.1509    4.3913    1.1119 H   0  0  0  0  0  0  0  0  0  0  0  0
   -1.5327    5.4295    2.5835 H   0  0  0  0  0  0  0  0  0  0  0  0
   -2.7062    4.0795    2.3139 H   0  0  0  0  0  0  0  0  0  0  0  0
   -1.4115    7.0739    0.8111 H   0  0  0  0  0  0  0  0  0  0  0  0
   -2.7339    7.0126   -0.4587 H   0  0  0  0  0  0  0  0  0  0  0  0
   -2.0294    4.8141   -1.1560 H   0  0  0  0  0  0  0  0  0  0  0  0
   -0.4399    5.6477   -0.7483 H   0  0  0  0  0  0  0  0  0  0  0  0
   -0.8488   -0.8880    0.0056 H   0  0  0  0  0  0  0  0  0  0  0  0
   -2.8551    0.4749    1.4958 H   0  0  0  0  0  0  0  0  0  0  0  0
   -3.5340    0.7656   -0.9240 H   0  0  0  0  0  0  0  0  0  0  0  0
   -3.3400   -0.9857   -1.1683 H   0  0  0  0  0  0  0  0  0  0  0  0
   -2.2079   -1.4800    2.2145 H   0  0  0  0  0  0  0  0  0  0  0  0
   -5.7401    0.0250   -0.8949 H   0  0  0  0  0  0  0  0  0  0  0  0
   -5.3254    0.3366    0.7894 H   0  0  0  0  0  0  0  0  0  0  0  0
   -5.0955   -1.9773    1.3593 H   0  0  0  0  0  0  0  0  0  0  0  0
   -6.7055   -1.5510    0.6482 H   0  0  0  0  0  0  0  0  0  0  0  0
   -7.3123   -2.9140   -1.5910 H   0  0  0  0  0  0  0  0  0  0  0  0
   -6.1928   -1.5557   -2.0547 H   0  0  0  0  0  0  0  0  0  0  0  0
   -5.8115   -3.2381   -2.5104 H   0  0  0  0  0  0  0  0  0  0  0  0
   -6.8427   -3.4963    1.0520 H   0  0  0  0  0  0  0  0  0  0  0  0
   -7.0270   -4.3411   -0.4923 H   0  0  0  0  0  0  0  0  0  0  0  0
   -5.5690   -4.7024    0.5083 H   0  0  0  0  0  0  0  0  0  0  0  0
  1  2  1  0
  1  3  1  0
  2  4  1  0
  3  5  1  0
  4  6  1  0
  5  6  1  0
  6  8  1  0
  7  8  1  0
  7  9  1  0
  5 10  1  0
  9 10  1  0
  4 11  1  0
 12 13  1  0
 12 14  1  0
 13 15  1  0
 11 16  1  0
 14 16  1  0
 15 17  1  0
 16 17  1  0
 13 18  1  0
 12 19  1  0
  9 20  1  0
 20 21  1  0
 21 22  1  0
 22 23  1  0
 23 24  1  0
 21 25  1  0
 24 25  1  0
  7 26  1  0
 26 27  1  0
 27 28  1  0
 27 29  1  0
 28 30  1  0
 30 31  1  0
 31 32  1  0
 32 33  1  0
 32 34  1  0
 35 36  1  0
 35 37  1  0
 36 38  1  0
 37 39  1  0
 38 40  1  0
 39 40  1  0
 40 42  1  0
 41 42  1  0
 41 43  1  0
 39 44  1  0
 43 44  1  0
 38 45  1  0
 46 47  1  0
 46 48  1  0
 47 49  1  0
 45 50  1  0
 48 50  1  0
 49 51  1  0
 50 51  1  0
 47 52  1  0
 46 53  1  0
 43 54  1  0
 54 55  1  0
 55 56  1  0
 56 57  1  0
 57 58  1  0
 55 59  1  0
 58 59  1  0
 41 60  1  0
 60 61  1  0
 61 62  1  0
 61 63  1  0
 62 64  1  0
 64 65  1  0
 65 66  1  0
 66 67  1  0
 66 68  1  0
  1 69  1  0
  1 70  1  0
  2 71  1  0
  3 72  1  0
  4 73  1  0
  5 74  1  0
  6 75  1  0
  7 76  1  0
  8 77  1  0
  8 78  1  0
  9 79  1  0
 10 80  1  0
 10 81  1  0
 11 82  1  0
 12 83  1  0
 13 84  1  0
 14 85  1  0
 14 86  1  0
 15 87  1  0
 15 88  1  0
 16 89  1  0
 17 90  1  0
 17 91  1  0
 21 92  1  1
 22 93  1  0
 22 94  1  0
 24 95  1  0
 24 96  1  0
 25 97  1  0
 25 98  1  0
 26 99  1  0
 27100  1  0
 28101  1  0
 28102  1  0
 29103  1  0
 30104  1  0
 30105  1  0
 31106  1  0
 31107  1  0
 33108  1  0
 33109  1  0
 33110  1  0
 34111  1  0
 34112  1  0
 34113  1  0
 35114  1  0
 35115  1  0
 36116  1  0
 37117  1  0
 38118  1  0
 39119  1  0
 40120  1  0
 41121  1  0
 42122  1  0
 42123  1  0
 43124  1  0
 44125  1  0
 44126  1  0
 45127  1  0
 46128  1  0
 47129  1  0
 48130  1  0
 48131  1  0
 49132  1  0
 49133  1  0
 50134  1  0
 51135  1  0
 51136  1  0
 55137  1  1
 56138  1  0
 56139  1  0
 58140  1  0
 58141  1  0
 59142  1  0
 59143  1  0
 60144  1  0
 61145  1  0
 62146  1  0
 62147  1  0
 63148  1  0
 64149  1  0
 64150  1  0
 65151  1  0
 65152  1  0
 67153  1  0
 67154  1  0
 67155  1  0
 68156  1  0
 68157  1  0
 68158  1  0
M  END
>  <PDBID>  (1) 
4G5J

>  <PDB ID>  (1) 
4G5J

>  <Generic Name>  (1) 
Afatinib

>  <Brand Name>  (1) 
Gilotrif#Giotrif

>  <DrugBank ID>  (1) 
DB08916

>  <ATC Codes>  (1) 
L01XE13

>  <Ligand ID>  (1) 
0WM

>  <Target Name>  (1) 
Receptor tyrosine-protein kinase erbB-2

>  <UniProt ID>  (1) 
P04626

>  <PDB ID.1>  (1) 
4G5J

>  <Seq. Identity>  (1) 
78%

$$$$
