PDB_DB01015_05
     RDKit          3D

 40 41  0  0  0  0  0  0  0  0999 V2000
    0.1324   -0.8315   -1.7676 O   0  0  0  0  0  0  0  0  0  0  0  0
    0.0842   -0.3835   -0.3083 S   0  0  0  0  0  0  0  0  0  0  0  0
   -0.0176   -2.0309    0.5903 O   0  0  0  0  0  0  0  0  0  0  0  0
   -1.4684    0.1735    0.2160 C   0  0  0  0  0  0  0  0  0  0  0  0
   -2.4822   -0.9414    0.0501 C   0  0  0  0  0  0  0  0  0  0  0  0
   -3.7087   -0.5257    0.8581 C   0  0  0  0  0  0  0  0  0  0  0  0
   -1.9371    1.3343   -0.6163 C   0  0  0  0  0  0  0  0  0  0  0  0
   -3.4106    1.2243   -0.9192 C   0  0  0  0  0  0  0  0  0  0  0  0
   -4.2140    0.7584    0.2750 C   0  0  0  0  0  0  0  0  0  0  0  0
   -5.5832    0.5659   -0.1973 N   0  0  0  0  0  0  0  0  0  0  0  0
    1.2381    0.3059    0.3524 N   0  0  0  0  0  0  0  0  0  0  0  0
    2.4853   -0.4040    0.5321 C   0  0  0  0  0  0  0  0  0  0  0  0
    3.0778   -0.8429   -0.6841 N   0  0  0  0  0  0  0  0  0  0  0  0
    4.3798   -0.6255   -0.6661 O   0  0  0  0  0  0  0  0  0  0  0  0
    4.7881   -0.2854    0.5931 C   0  0  0  0  0  0  0  0  0  0  0  0
    3.5696    0.4954    1.1081 C   0  0  0  0  0  0  0  0  0  0  0  0
    6.0370    0.5492    0.6350 C   0  0  0  0  0  0  0  0  0  0  0  0
    0.3983   -1.7444   -1.9888 H   0  0  0  0  0  0  0  0  0  0  0  0
   -0.1495   -1.6421    1.5099 H   0  0  0  0  0  0  0  0  0  0  0  0
   -1.4701    0.4909    1.2779 H   0  0  0  0  0  0  0  0  0  0  0  0
   -2.7538   -1.1107   -1.0032 H   0  0  0  0  0  0  0  0  0  0  0  0
   -2.0405   -1.8841    0.4277 H   0  0  0  0  0  0  0  0  0  0  0  0
   -3.3318   -0.3796    1.9062 H   0  0  0  0  0  0  0  0  0  0  0  0
   -4.4570   -1.3464    0.8482 H   0  0  0  0  0  0  0  0  0  0  0  0
   -1.3869    1.4546   -1.5538 H   0  0  0  0  0  0  0  0  0  0  0  0
   -1.8023    2.3019   -0.0490 H   0  0  0  0  0  0  0  0  0  0  0  0
   -3.7896    2.2613   -1.1514 H   0  0  0  0  0  0  0  0  0  0  0  0
   -3.6308    0.6061   -1.8073 H   0  0  0  0  0  0  0  0  0  0  0  0
   -4.1879    1.5335    1.0603 H   0  0  0  0  0  0  0  0  0  0  0  0
   -6.1467    0.0961    0.5382 H   0  0  0  0  0  0  0  0  0  0  0  0
   -5.5304   -0.0410   -1.0491 H   0  0  0  0  0  0  0  0  0  0  0  0
    1.1198    0.9379    1.1774 H   0  0  0  0  0  0  0  0  0  0  0  0
    2.3585   -1.2863    1.2032 H   0  0  0  0  0  0  0  0  0  0  0  0
    2.8710   -1.8332   -0.9057 H   0  0  0  0  0  0  0  0  0  0  0  0
    4.8527   -1.2017    1.2214 H   0  0  0  0  0  0  0  0  0  0  0  0
    3.5440    0.5362    2.2008 H   0  0  0  0  0  0  0  0  0  0  0  0
    3.5136    1.4596    0.5991 H   0  0  0  0  0  0  0  0  0  0  0  0
    5.7535    1.6114    0.7828 H   0  0  0  0  0  0  0  0  0  0  0  0
    6.6037    0.2548    1.5551 H   0  0  0  0  0  0  0  0  0  0  0  0
    6.6920    0.3889   -0.2442 H   0  0  0  0  0  0  0  0  0  0  0  0
  2  1  1  0
  2  3  1  0
  2  4  1  0
  4  5  1  0
  5  6  1  0
  4  7  1  0
  7  8  1  0
  6  9  1  0
  8  9  1  0
  9 10  1  0
  2 11  1  0
 11 12  1  0
 12 13  1  0
 13 14  1  0
 14 15  1  0
 12 16  1  0
 15 16  1  0
 15 17  1  0
  1 18  1  0
  3 19  1  0
  4 20  1  0
  5 21  1  0
  5 22  1  0
  6 23  1  0
  6 24  1  0
  7 25  1  0
  7 26  1  0
  8 27  1  0
  8 28  1  0
  9 29  1  0
 10 30  1  0
 10 31  1  0
 11 32  1  0
 12 33  1  0
 13 34  1  0
 15 35  1  0
 16 36  1  0
 16 37  1  0
 17 38  1  0
 17 39  1  0
 17 40  1  0
M  END
>  <PDBID>  (1) 
3TZF

>  <PDB ID>  (1) 
3TZF

>  <Generic Name>  (1) 
Sulfamethoxazole

>  <Brand Name>  (1) 
Apo Sulfamethoxazole Tab 500mg#Apo Sulfatrim DS Tab#Apo Sulfatrim Pediatric#Apo Sulfatrim Tab#Apo-sulfatrim Oral Suspension#Bactrim#Bactrim DS#Bactrim DS Roche Tab#Bactrim Roche Inj#Bactrim Roche Suspension Paediatric#Bactrim Roche Tab#Nu-cotrimox Sus 40/8mg/ml#Nu-cotrimox Tab 400/80mg#Nu-cotrimox-DS Tab 800/160mg#Protrin Df Tab#Protrin Tab#Riva-sep DS#Roubac Tab 160/800#Roubac Tab 80/400#Septra#Septra DS Tablets#Septra Injection#Septra Pediatric Suspension#Sulfamethoxazole Tab 500mg#Sulfamethoxazole and Trimethoprim#Sulfamethoxazole and Trimethoprim (double Strength)#Sulfamethoxazole and Trimethoprim DS#Sulfamethoxazole and Trimethoprim Double Strength#Sulfamethoxazole and Trimethoprim Tablets#Sulfatrim#Teva-trimel#Teva-trimel DS#Trisulfa DS Tab#Trisulfa S Suspension#Trisulfa Tab#Gantanol#Sinomin#Urobak

>  <DrugBank ID>  (1) 
DB01015

>  <ATC Codes>  (1) 
J01EE01#J01EC01

>  <Ligand ID>  (1) 
08D

>  <Target Name>  (1) 
Dihydropteroate synthase

>  <UniProt ID>  (1) 
P0AC13

>  <PDB ID.1>  (1) 
3TZF

>  <Seq. Identity>  (1) 
75%

$$$$
