PDB_DB00877_00
     RDKit          3D

162165  0  0  0  0  0  0  0  0999 V2000
    2.7659   -1.4968   -0.4984 C   0  0  0  0  0  0  0  0  0  0  0  0
    3.1342   -0.8834    0.6705 O   0  0  0  0  0  0  0  0  0  0  0  0
    1.7085   -0.8545   -1.1403 O   0  0  0  0  0  0  0  0  0  0  0  0
    2.2270   -2.8841   -0.1114 C   0  0  2  0  0  0  0  0  0  0  0  0
    3.4289   -3.7991    0.1077 C   0  0  0  0  0  0  0  0  0  0  0  0
    4.1690   -4.0889   -1.1763 C   0  0  0  0  0  0  0  0  0  0  0  0
    3.2331   -4.3577   -2.3239 C   0  0  0  0  0  0  0  0  0  0  0  0
    1.8630   -4.6277   -1.6896 C   0  0  0  0  0  0  0  0  0  0  0  0
    1.3691   -3.4214   -1.1058 N   0  0  0  0  0  0  0  0  0  0  0  0
   -0.0304   -3.3932   -0.8498 C   0  0  2  0  0  0  0  0  0  0  0  0
   -0.5736   -2.1098   -0.8166 O   0  0  0  0  0  0  0  0  0  0  0  0
   -0.4967   -4.1298    0.3607 C   0  0  0  0  0  0  0  0  0  0  0  0
    0.4340   -5.0552    0.8523 O   0  0  0  0  0  0  0  0  0  0  0  0
   -1.7642   -4.8955    0.0526 C   0  0  1  0  0  0  0  0  0  0  0  0
   -2.8328   -4.1410    0.5292 O   0  0  0  0  0  0  0  0  0  0  0  0
   -1.9615   -5.0556   -1.3135 O   0  0  0  0  0  0  0  0  0  0  0  0
   -1.7248   -6.2740    0.6709 C   0  0  1  0  0  0  0  0  0  0  0  0
   -3.0843   -6.9083    0.7487 C   0  0  0  0  0  0  0  0  0  0  0  0
   -4.1712   -5.9432    1.1250 C   0  0  0  0  0  0  0  0  0  0  0  0
   -4.0579   -4.7421    0.2011 C   0  0  1  0  0  0  0  0  0  0  0  0
   -5.1234   -3.7228    0.4234 C   0  0  0  0  0  0  0  0  0  0  0  0
   -6.2571   -3.7884   -0.5651 C   0  0  2  0  0  0  0  0  0  0  0  0
   -6.0770   -4.7469   -1.5410 O   0  0  0  0  0  0  0  0  0  0  0  0
   -6.5661   -2.4230   -1.1451 C   0  0  0  0  0  0  0  0  0  0  0  0
   -7.3593   -1.5499   -0.2490 C   0  0  0  0  0  0  0  0  0  0  0  0
   -6.6082   -0.8165    0.7930 C   0  0  0  0  0  0  0  0  0  0  0  0
   -7.3780    0.4515    1.1339 C   0  0  0  0  0  0  0  0  0  0  0  0
   -6.9320    1.5455    0.2151 C   0  0  0  0  0  0  0  0  0  0  0  0
   -6.5629    2.7720    1.0409 C   0  0  0  0  0  0  0  0  0  0  0  0
   -5.4301    3.4791    0.2895 C   0  0  2  0  0  0  0  0  0  0  0  0
   -4.7976    4.4451    1.2431 C   0  0  0  0  0  0  0  0  0  0  0  0
   -4.1168    5.5866    0.5276 C   0  0  2  0  0  0  0  0  0  0  0  0
   -2.8397    5.9048    1.3151 C   0  0  0  0  0  0  0  0  0  0  0  0
   -3.1918    6.9836    2.1597 O   0  0  0  0  0  0  0  0  0  0  0  0
   -1.7476    6.2792    0.3535 C   0  0  2  0  0  0  0  0  0  0  0  0
   -2.0396    5.9348   -0.9556 O   0  0  0  0  0  0  0  0  0  0  0  0
   -0.3707    5.8743    0.7912 C   0  0  2  0  0  0  0  0  0  0  0  0
    0.5395    6.4690   -0.0793 O   0  0  0  0  0  0  0  0  0  0  0  0
   -0.1723    4.3782    0.8889 C   0  0  0  0  0  0  0  0  0  0  0  0
    1.2023    4.0477    1.3188 C   0  0  0  0  0  0  0  0  0  0  0  0
    1.9167    2.9578    0.5901 C   0  0  2  0  0  0  0  0  0  0  0  0
    3.2065    2.6742    1.3595 C   0  0  0  0  0  0  0  0  0  0  0  0
    3.1501    3.2858    2.6363 O   0  0  0  0  0  0  0  0  0  0  0  0
    3.4104    1.2097    1.6132 C   0  0  0  0  0  0  0  0  0  0  0  0
    3.7450    0.3777    0.4476 C   0  0  1  0  0  0  0  0  0  0  0  0
    5.2161    0.0311    0.2716 C   0  0  1  0  0  0  0  0  0  0  0  0
    6.0729    1.2025    0.0195 C   0  0  0  0  0  0  0  0  0  0  0  0
    7.5182    1.0367   -0.1980 C   0  0  1  0  0  0  0  0  0  0  0  0
    8.3771    0.4532    0.8374 C   0  0  0  0  0  0  0  0  0  0  0  0
    9.8474    0.7280    0.4773 C   0  0  1  0  0  0  0  0  0  0  0  0
   10.6429   -0.3463    0.8968 O   0  0  0  0  0  0  0  0  0  0  0  0
   10.0693    1.0878   -0.9472 C   0  0  2  0  0  0  0  0  0  0  0  0
   10.1827    2.4902   -1.1251 O   0  0  0  0  0  0  0  0  0  0  0  0
    9.1645    0.4726   -1.9502 C   0  0  0  0  0  0  0  0  0  0  0  0
    7.7822    0.2015   -1.4763 C   0  0  0  0  0  0  0  0  0  0  0  0
   -0.8663   -7.1340   -0.2362 C   0  0  0  0  0  0  0  0  0  0  0  0
   -7.3682   -2.5799   -2.4468 C   0  0  0  0  0  0  0  0  0  0  0  0
   -6.0006    4.1149   -0.9383 C   0  0  0  0  0  0  0  0  0  0  0  0
   -5.0695    6.7720    0.5445 C   0  0  0  0  0  0  0  0  0  0  0  0
   -0.6552    3.7175   -0.3485 C   0  0  0  0  0  0  0  0  0  0  0  0
    2.2143    3.3184   -0.8529 C   0  0  0  0  0  0  0  0  0  0  0  0
    5.6592   -0.8733    1.3980 C   0  0  0  0  0  0  0  0  0  0  0  0
   -6.9984   -5.7560   -1.5495 C   0  0  0  0  0  0  0  0  0  0  0  0
   -2.2036    7.0081   -1.8002 C   0  0  0  0  0  0  0  0  0  0  0  0
   11.5487    0.0290    1.8819 C   0  0  0  0  0  0  0  0  0  0  0  0
   -2.2075   -5.9627   -1.5638 H   0  0  0  0  0  0  0  0  0  0  0  0
    1.3256    6.7740    0.4430 H   0  0  0  0  0  0  0  0  0  0  0  0
   10.2201    2.9527   -0.2540 H   0  0  0  0  0  0  0  0  0  0  0  0
    3.5796   -1.5993   -1.2466 H   0  0  0  0  0  0  0  0  0  0  0  0
    1.3780   -0.0734   -0.6117 H   0  0  0  0  0  0  0  0  0  0  0  0
    1.7133   -2.8111    0.8704 H   0  0  0  0  0  0  0  0  0  0  0  0
    3.1336   -4.7558    0.5774 H   0  0  0  0  0  0  0  0  0  0  0  0
    4.1623   -3.3423    0.7965 H   0  0  0  0  0  0  0  0  0  0  0  0
    4.7690   -5.0120   -1.0058 H   0  0  0  0  0  0  0  0  0  0  0  0
    4.8969   -3.2700   -1.3922 H   0  0  0  0  0  0  0  0  0  0  0  0
    3.1946   -3.4364   -2.9328 H   0  0  0  0  0  0  0  0  0  0  0  0
    3.4941   -5.2662   -2.9026 H   0  0  0  0  0  0  0  0  0  0  0  0
    1.1514   -4.9744   -2.4733 H   0  0  0  0  0  0  0  0  0  0  0  0
    2.0173   -5.4573   -0.9775 H   0  0  0  0  0  0  0  0  0  0  0  0
   -0.5167   -3.8856   -1.7461 H   0  0  0  0  0  0  0  0  0  0  0  0
   -0.7936   -1.8206   -1.7316 H   0  0  0  0  0  0  0  0  0  0  0  0
   -0.6746   -3.4272    1.2294 H   0  0  0  0  0  0  0  0  0  0  0  0
    0.5415   -5.0299    1.8197 H   0  0  0  0  0  0  0  0  0  0  0  0
   -1.2461   -6.2861    1.6702 H   0  0  0  0  0  0  0  0  0  0  0  0
   -3.0537   -7.7318    1.4967 H   0  0  0  0  0  0  0  0  0  0  0  0
   -3.3453   -7.3431   -0.2406 H   0  0  0  0  0  0  0  0  0  0  0  0
   -5.1387   -6.4554    1.0315 H   0  0  0  0  0  0  0  0  0  0  0  0
   -4.0042   -5.5775    2.1600 H   0  0  0  0  0  0  0  0  0  0  0  0
   -3.9575   -5.0534   -0.8597 H   0  0  0  0  0  0  0  0  0  0  0  0
   -5.4740   -3.8706    1.4858 H   0  0  0  0  0  0  0  0  0  0  0  0
   -4.6859   -2.7178    0.3471 H   0  0  0  0  0  0  0  0  0  0  0  0
   -7.1605   -4.0859    0.0099 H   0  0  0  0  0  0  0  0  0  0  0  0
   -5.5942   -1.9596   -1.4414 H   0  0  0  0  0  0  0  0  0  0  0  0
   -7.8825   -0.7844   -0.8940 H   0  0  0  0  0  0  0  0  0  0  0  0
   -8.1784   -2.1338    0.2232 H   0  0  0  0  0  0  0  0  0  0  0  0
   -6.5934   -1.4205    1.7245 H   0  0  0  0  0  0  0  0  0  0  0  0
   -5.6063   -0.4867    0.4638 H   0  0  0  0  0  0  0  0  0  0  0  0
   -8.4669    0.2160    0.9882 H   0  0  0  0  0  0  0  0  0  0  0  0
   -7.2439    0.7410    2.1976 H   0  0  0  0  0  0  0  0  0  0  0  0
   -7.7294    1.8661   -0.4859 H   0  0  0  0  0  0  0  0  0  0  0  0
   -6.0454    1.2322   -0.3627 H   0  0  0  0  0  0  0  0  0  0  0  0
   -7.4024    3.4926    1.0862 H   0  0  0  0  0  0  0  0  0  0  0  0
   -6.1717    2.4675    2.0130 H   0  0  0  0  0  0  0  0  0  0  0  0
   -4.6654    2.7496   -0.0138 H   0  0  0  0  0  0  0  0  0  0  0  0
   -5.5611    4.8646    1.9477 H   0  0  0  0  0  0  0  0  0  0  0  0
   -4.0675    3.8952    1.8778 H   0  0  0  0  0  0  0  0  0  0  0  0
   -3.8030    5.3150   -0.4909 H   0  0  0  0  0  0  0  0  0  0  0  0
   -2.5887    5.0766    1.9987 H   0  0  0  0  0  0  0  0  0  0  0  0
   -2.5105    7.6944    2.0233 H   0  0  0  0  0  0  0  0  0  0  0  0
   -1.7259    7.4110    0.3560 H   0  0  0  0  0  0  0  0  0  0  0  0
   -0.2297    6.2773    1.8239 H   0  0  0  0  0  0  0  0  0  0  0  0
   -0.8601    4.0428    1.7232 H   0  0  0  0  0  0  0  0  0  0  0  0
    1.8420    4.9665    1.2254 H   0  0  0  0  0  0  0  0  0  0  0  0
    1.2680    3.7939    2.4188 H   0  0  0  0  0  0  0  0  0  0  0  0
    1.3518    1.9888    0.6144 H   0  0  0  0  0  0  0  0  0  0  0  0
    3.9962    3.1840    0.8199 H   0  0  0  0  0  0  0  0  0  0  0  0
    3.3636    4.2532    2.5465 H   0  0  0  0  0  0  0  0  0  0  0  0
    4.1051    1.0372    2.4620 H   0  0  0  0  0  0  0  0  0  0  0  0
    2.4105    0.8612    2.0128 H   0  0  0  0  0  0  0  0  0  0  0  0
    3.3537    0.8138   -0.4699 H   0  0  0  0  0  0  0  0  0  0  0  0
    5.2516   -0.6110   -0.6585 H   0  0  0  0  0  0  0  0  0  0  0  0
    5.9761    1.8628    0.9429 H   0  0  0  0  0  0  0  0  0  0  0  0
    5.6943    1.7915   -0.8748 H   0  0  0  0  0  0  0  0  0  0  0  0
    7.9901    2.0295   -0.4843 H   0  0  0  0  0  0  0  0  0  0  0  0
    8.2637    0.8848    1.8532 H   0  0  0  0  0  0  0  0  0  0  0  0
    8.2820   -0.6605    0.8331 H   0  0  0  0  0  0  0  0  0  0  0  0
   10.1835    1.6025    1.0739 H   0  0  0  0  0  0  0  0  0  0  0  0
   11.1159    0.7260   -1.1953 H   0  0  0  0  0  0  0  0  0  0  0  0
    9.6396   -0.4292   -2.4369 H   0  0  0  0  0  0  0  0  0  0  0  0
    9.0741    1.2090   -2.8045 H   0  0  0  0  0  0  0  0  0  0  0  0
    7.7093   -0.8709   -1.1945 H   0  0  0  0  0  0  0  0  0  0  0  0
    6.9852    0.4150   -2.2177 H   0  0  0  0  0  0  0  0  0  0  0  0
   -0.2362   -7.8394    0.3445 H   0  0  0  0  0  0  0  0  0  0  0  0
   -1.5200   -7.7843   -0.8898 H   0  0  0  0  0  0  0  0  0  0  0  0
   -0.2233   -6.5159   -0.9009 H   0  0  0  0  0  0  0  0  0  0  0  0
   -7.5839   -1.5856   -2.8892 H   0  0  0  0  0  0  0  0  0  0  0  0
   -8.3575   -3.0480   -2.2428 H   0  0  0  0  0  0  0  0  0  0  0  0
   -6.7775   -3.1297   -3.2120 H   0  0  0  0  0  0  0  0  0  0  0  0
   -6.6008    5.0040   -0.6730 H   0  0  0  0  0  0  0  0  0  0  0  0
   -5.1902    4.3478   -1.6698 H   0  0  0  0  0  0  0  0  0  0  0  0
   -6.6422    3.3565   -1.4499 H   0  0  0  0  0  0  0  0  0  0  0  0
   -5.3617    7.0681   -0.4648 H   0  0  0  0  0  0  0  0  0  0  0  0
   -4.6394    7.6423    1.0734 H   0  0  0  0  0  0  0  0  0  0  0  0
   -6.0161    6.5287    1.0950 H   0  0  0  0  0  0  0  0  0  0  0  0
   -0.3700    2.6524   -0.4399 H   0  0  0  0  0  0  0  0  0  0  0  0
   -1.7838    3.7023   -0.3451 H   0  0  0  0  0  0  0  0  0  0  0  0
   -0.3770    4.3255   -1.2325 H   0  0  0  0  0  0  0  0  0  0  0  0
    1.7321    2.6486   -1.5844 H   0  0  0  0  0  0  0  0  0  0  0  0
    3.3177    3.1597   -0.9923 H   0  0  0  0  0  0  0  0  0  0  0  0
    2.0434    4.3853   -1.0501 H   0  0  0  0  0  0  0  0  0  0  0  0
    4.7632   -1.3181    1.9127 H   0  0  0  0  0  0  0  0  0  0  0  0
    6.2193   -1.7689    1.0496 H   0  0  0  0  0  0  0  0  0  0  0  0
    6.3065   -0.3490    2.1246 H   0  0  0  0  0  0  0  0  0  0  0  0
   -6.7135   -6.4446   -2.3921 H   0  0  0  0  0  0  0  0  0  0  0  0
   -6.9682   -6.4036   -0.6477 H   0  0  0  0  0  0  0  0  0  0  0  0
   -8.0503   -5.4126   -1.6561 H   0  0  0  0  0  0  0  0  0  0  0  0
   -3.0483    7.6202   -1.4070 H   0  0  0  0  0  0  0  0  0  0  0  0
   -1.2860    7.6482   -1.8565 H   0  0  0  0  0  0  0  0  0  0  0  0
   -2.4979    6.6313   -2.7889 H   0  0  0  0  0  0  0  0  0  0  0  0
   10.9195    0.4094    2.7405 H   0  0  0  0  0  0  0  0  0  0  0  0
   12.1349   -0.8011    2.2717 H   0  0  0  0  0  0  0  0  0  0  0  0
   12.1896    0.8630    1.5922 H   0  0  0  0  0  0  0  0  0  0  0  0
  1  2  1  0
  1  3  1  0
  1  4  1  0
  4  5  1  0
  5  6  1  0
  6  7  1  0
  7  8  1  0
  4  9  1  0
  8  9  1  0
  9 10  1  0
 10 11  1  0
 10 12  1  0
 12 13  1  0
 12 14  1  0
 14 15  1  0
 14 16  1  6
 14 17  1  0
 17 18  1  0
 18 19  1  0
 15 20  1  0
 19 20  1  0
 20 21  1  0
 21 22  1  0
 22 23  1  0
 22 24  1  0
 24 25  1  0
 25 26  1  0
 26 27  1  0
 27 28  1  0
 28 29  1  0
 29 30  1  0
 30 31  1  0
 31 32  1  0
 32 33  1  0
 33 34  1  0
 33 35  1  0
 35 36  1  0
 35 37  1  0
 37 38  1  0
 37 39  1  0
 39 40  1  0
 40 41  1  0
 41 42  1  0
 42 43  1  0
 42 44  1  0
  2 45  1  0
 44 45  1  0
 45 46  1  0
 46 47  1  0
 47 48  1  0
 48 49  1  0
 49 50  1  0
 50 51  1  0
 50 52  1  0
 52 53  1  0
 52 54  1  0
 48 55  1  0
 54 55  1  0
 17 56  1  0
 24 57  1  0
 30 58  1  0
 32 59  1  0
 39 60  1  0
 41 61  1  0
 46 62  1  0
 23 63  1  0
 36 64  1  0
 51 65  1  0
 16 66  1  0
 38 67  1  0
 53 68  1  0
  1 69  1  0
  3 70  1  0
  4 71  1  1
  5 72  1  0
  5 73  1  0
  6 74  1  0
  6 75  1  0
  7 76  1  0
  7 77  1  0
  8 78  1  0
  8 79  1  0
 10 80  1  6
 11 81  1  0
 12 82  1  0
 13 83  1  0
 17 84  1  1
 18 85  1  0
 18 86  1  0
 19 87  1  0
 19 88  1  0
 20 89  1  6
 21 90  1  0
 21 91  1  0
 22 92  1  1
 24 93  1  0
 25 94  1  0
 25 95  1  0
 26 96  1  0
 26 97  1  0
 27 98  1  0
 27 99  1  0
 28100  1  0
 28101  1  0
 29102  1  0
 29103  1  0
 30104  1  6
 31105  1  0
 31106  1  0
 32107  1  6
 33108  1  0
 34109  1  0
 35110  1  6
 37111  1  1
 39112  1  0
 40113  1  0
 40114  1  0
 41115  1  6
 42116  1  0
 43117  1  0
 44118  1  0
 44119  1  0
 45120  1  6
 46121  1  6
 47122  1  0
 47123  1  0
 48124  1  6
 49125  1  0
 49126  1  0
 50127  1  1
 52128  1  6
 54129  1  0
 54130  1  0
 55131  1  0
 55132  1  0
 56133  1  0
 56134  1  0
 56135  1  0
 57136  1  0
 57137  1  0
 57138  1  0
 58139  1  0
 58140  1  0
 58141  1  0
 59142  1  0
 59143  1  0
 59144  1  0
 60145  1  0
 60146  1  0
 60147  1  0
 61148  1  0
 61149  1  0
 61150  1  0
 62151  1  0
 62152  1  0
 62153  1  0
 63154  1  0
 63155  1  0
 63156  1  0
 64157  1  0
 64158  1  0
 64159  1  0
 65160  1  0
 65161  1  0
 65162  1  0
M  END
>  <PDBID>  (1) 
1FKB

>  <PDB ID>  (1) 
1FKB

>  <Generic Name>  (1) 
Sirolimus

>  <Brand Name>  (1) 
Gd-sirolimus#Rapamune#Rapamune Oral Solution#Sirolimus

>  <DrugBank ID>  (1) 
DB00877

>  <ATC Codes>  (1) 
S01XA23#L04AA10

>  <Ligand ID>  (1) 
RAP

>  <Target Name>  (1) 
Peptidyl-prolyl cis-trans isomerase FKBP1A

>  <UniProt ID>  (1) 
P62942

>  <PDB ID.1>  (1) 
1FKB

>  <Seq. Identity>  (1) 
100%

$$$$
