PDB_DB11363_08
     RDKit          3D

 90 95  0  0  0  0  0  0  0  0999 V2000
   -5.1615    0.3170    1.8253 C   0  0  0  0  0  0  0  0  0  0  0  0
   -7.0345    0.9053    0.4040 C   0  0  0  0  0  0  0  0  0  0  0  0
   -6.5365   -0.1003    1.3864 C   0  0  0  0  0  0  0  0  0  0  0  0
   -2.9611    0.3574    0.8181 C   0  0  0  0  0  0  0  0  0  0  0  0
   -3.2194   -0.8884    0.0546 C   0  0  0  0  0  0  0  0  0  0  0  0
    1.3713    0.2000   -0.0094 C   0  0  0  0  0  0  0  0  0  0  0  0
   -0.0670    1.5206   -1.4045 C   0  0  0  0  0  0  0  0  0  0  0  0
   -1.2398    0.7246   -0.9575 C   0  0  0  0  0  0  0  0  0  0  0  0
   -1.9919   -1.5862   -0.4445 C   0  0  0  0  0  0  0  0  0  0  0  0
   -1.6791   -2.7285    0.5222 C   0  0  0  0  0  0  0  0  0  0  0  0
   -2.4340   -2.3058   -1.7370 C   0  0  0  0  0  0  0  0  0  0  0  0
    2.3070    2.2235   -3.1460 C   0  0  0  0  0  0  0  0  0  0  0  0
    5.1641   -0.3190    0.5148 C   0  0  0  0  0  0  0  0  0  0  0  0
    4.4554   -0.2344    1.8574 C   0  0  0  0  0  0  0  0  0  0  0  0
   -9.3323    0.4974    1.1787 N   0  0  0  0  0  0  0  0  0  0  0  0
   -8.4784    0.5089    0.0446 C   0  0  0  0  0  0  0  0  0  0  0  0
   -6.2278    0.8152   -0.8436 C   0  0  0  0  0  0  0  0  0  0  0  0
   -4.7414    0.7352   -0.6134 C   0  0  0  0  0  0  0  0  0  0  0  0
   -4.3436    1.0101    0.8025 C   0  0  0  0  0  0  0  0  0  0  0  0
   -4.1384   -0.5068   -1.0015 N   0  0  0  0  0  0  0  0  0  0  0  0
   -0.8243   -0.7079   -0.7046 C   0  0  0  0  0  0  0  0  0  0  0  0
   -2.0446    1.3385    0.1349 C   0  0  0  0  0  0  0  0  0  0  0  0
   -1.2843    1.9434    1.1377 O   0  0  0  0  0  0  0  0  0  0  0  0
    0.3004   -0.7993    0.2951 C   0  0  0  0  0  0  0  0  0  0  0  0
    1.2461    0.7257   -1.4477 C   0  0  0  0  0  0  0  0  0  0  0  0
    2.3539    1.6850   -1.7086 C   0  0  0  0  0  0  0  0  0  0  0  0
    2.7123   -0.2483    0.2493 N   0  0  0  0  0  0  0  0  0  0  0  0
    3.1836   -1.3481   -0.5336 C   0  0  0  0  0  0  0  0  0  0  0  0
    4.6518   -1.5497   -0.1867 C   0  0  0  0  0  0  0  0  0  0  0  0
    2.9561   -0.4347    1.6631 C   0  0  0  0  0  0  0  0  0  0  0  0
    6.5773   -0.3728    0.7870 N   0  0  0  0  0  0  0  0  0  0  0  0
    7.3104   -1.3569    0.0683 C   0  0  0  0  0  0  0  0  0  0  0  0
    8.7786   -1.1861    0.4435 C   0  0  0  0  0  0  0  0  0  0  0  0
    9.2318    0.1142    0.1749 O   0  0  0  0  0  0  0  0  0  0  0  0
    8.5803    0.9822    1.0417 C   0  0  0  0  0  0  0  0  0  0  0  0
    7.1067    0.9572    0.7526 C   0  0  0  0  0  0  0  0  0  0  0  0
   -5.2827    0.9989    2.6983 H   0  0  0  0  0  0  0  0  0  0  0  0
   -4.6784   -0.5942    2.2577 H   0  0  0  0  0  0  0  0  0  0  0  0
   -7.0529    1.9122    0.8757 H   0  0  0  0  0  0  0  0  0  0  0  0
   -6.4775   -1.1152    0.9600 H   0  0  0  0  0  0  0  0  0  0  0  0
   -7.2066   -0.0499    2.2835 H   0  0  0  0  0  0  0  0  0  0  0  0
   -2.6399    0.1159    1.8435 H   0  0  0  0  0  0  0  0  0  0  0  0
   -3.8051   -1.5830    0.7056 H   0  0  0  0  0  0  0  0  0  0  0  0
    1.2293    1.0847    0.6328 H   0  0  0  0  0  0  0  0  0  0  0  0
    0.1550    2.3847   -0.7126 H   0  0  0  0  0  0  0  0  0  0  0  0
   -0.1987    1.9839   -2.3925 H   0  0  0  0  0  0  0  0  0  0  0  0
   -1.9355    0.6547   -1.8487 H   0  0  0  0  0  0  0  0  0  0  0  0
   -1.3712   -2.3799    1.5111 H   0  0  0  0  0  0  0  0  0  0  0  0
   -2.6615   -3.2440    0.6760 H   0  0  0  0  0  0  0  0  0  0  0  0
   -1.0141   -3.4793    0.0640 H   0  0  0  0  0  0  0  0  0  0  0  0
   -1.5768   -2.8867   -2.0905 H   0  0  0  0  0  0  0  0  0  0  0  0
   -3.3029   -2.9199   -1.4823 H   0  0  0  0  0  0  0  0  0  0  0  0
   -2.7410   -1.5038   -2.4413 H   0  0  0  0  0  0  0  0  0  0  0  0
    1.3383    1.9263   -3.5676 H   0  0  0  0  0  0  0  0  0  0  0  0
    2.5002    3.2908   -3.2103 H   0  0  0  0  0  0  0  0  0  0  0  0
    3.0606    1.6701   -3.7725 H   0  0  0  0  0  0  0  0  0  0  0  0
    4.9344    0.5942   -0.0577 H   0  0  0  0  0  0  0  0  0  0  0  0
    4.8452   -1.0493    2.4878 H   0  0  0  0  0  0  0  0  0  0  0  0
    4.6501    0.7702    2.2997 H   0  0  0  0  0  0  0  0  0  0  0  0
   -9.4974   -0.3590    1.6866 H   0  0  0  0  0  0  0  0  0  0  0  0
   -9.4790    1.3945    1.6314 H   0  0  0  0  0  0  0  0  0  0  0  0
   -8.4626   -0.4891   -0.4684 H   0  0  0  0  0  0  0  0  0  0  0  0
   -8.8690    1.2331   -0.7214 H   0  0  0  0  0  0  0  0  0  0  0  0
   -6.5823   -0.0568   -1.4555 H   0  0  0  0  0  0  0  0  0  0  0  0
   -6.4975    1.7229   -1.4608 H   0  0  0  0  0  0  0  0  0  0  0  0
   -4.2785    1.5345   -1.2450 H   0  0  0  0  0  0  0  0  0  0  0  0
   -4.1780    2.0806    1.0122 H   0  0  0  0  0  0  0  0  0  0  0  0
   -4.8338   -1.2167   -1.2418 H   0  0  0  0  0  0  0  0  0  0  0  0
   -0.3747   -1.0626   -1.6785 H   0  0  0  0  0  0  0  0  0  0  0  0
   -2.6031    2.2062   -0.3316 H   0  0  0  0  0  0  0  0  0  0  0  0
   -1.7618    2.6486    1.6077 H   0  0  0  0  0  0  0  0  0  0  0  0
   -0.0354   -0.7073    1.3463 H   0  0  0  0  0  0  0  0  0  0  0  0
    0.7174   -1.8246    0.1890 H   0  0  0  0  0  0  0  0  0  0  0  0
    1.2623   -0.0645   -2.1816 H   0  0  0  0  0  0  0  0  0  0  0  0
    2.3054    2.5760   -1.0044 H   0  0  0  0  0  0  0  0  0  0  0  0
    3.3321    1.1992   -1.6140 H   0  0  0  0  0  0  0  0  0  0  0  0
    2.6139   -2.2901   -0.2964 H   0  0  0  0  0  0  0  0  0  0  0  0
    3.1488   -1.1311   -1.6045 H   0  0  0  0  0  0  0  0  0  0  0  0
    5.2496   -1.8444   -1.0695 H   0  0  0  0  0  0  0  0  0  0  0  0
    4.6522   -2.3743    0.5872 H   0  0  0  0  0  0  0  0  0  0  0  0
    2.3936    0.3013    2.2401 H   0  0  0  0  0  0  0  0  0  0  0  0
    2.6580   -1.4626    1.9585 H   0  0  0  0  0  0  0  0  0  0  0  0
    7.2607   -1.1740   -1.0336 H   0  0  0  0  0  0  0  0  0  0  0  0
    7.0029   -2.3586    0.3529 H   0  0  0  0  0  0  0  0  0  0  0  0
    9.3827   -1.8800   -0.1611 H   0  0  0  0  0  0  0  0  0  0  0  0
    8.9404   -1.3837    1.5197 H   0  0  0  0  0  0  0  0  0  0  0  0
    8.7643    0.7454    2.1051 H   0  0  0  0  0  0  0  0  0  0  0  0
    8.9463    2.0110    0.8717 H   0  0  0  0  0  0  0  0  0  0  0  0
    6.9285    1.4691   -0.2193 H   0  0  0  0  0  0  0  0  0  0  0  0
    6.5786    1.5429    1.5411 H   0  0  0  0  0  0  0  0  0  0  0  0
  1  3  1  0
  2  3  1  0
  4  5  1  0
  7  8  1  0
  5  9  1  0
  9 10  1  0
  9 11  1  0
 13 14  1  0
  2 16  1  0
 15 16  1  0
  2 17  1  0
 17 18  1  0
  1 19  1  0
  4 19  1  0
 18 19  1  0
  5 20  1  0
 18 20  1  0
  8 21  1  0
  9 21  1  0
  4 22  1  0
  8 22  1  0
 22 23  1  0
  6 24  1  0
 21 24  1  0
  6 25  1  0
  7 25  1  0
 12 26  1  0
 25 26  1  0
  6 27  1  0
 27 28  1  0
 13 29  1  0
 28 29  1  0
 14 30  1  0
 27 30  1  0
 13 31  1  0
 31 32  1  0
 32 33  1  0
 33 34  1  0
 34 35  1  0
 31 36  1  0
 35 36  1  0
  1 37  1  0
  1 38  1  0
  2 39  1  0
  3 40  1  0
  3 41  1  0
  4 42  1  0
  5 43  1  0
  6 44  1  0
  7 45  1  0
  7 46  1  0
  8 47  1  0
 10 48  1  0
 10 49  1  0
 10 50  1  0
 11 51  1  0
 11 52  1  0
 11 53  1  0
 12 54  1  0
 12 55  1  0
 12 56  1  0
 13 57  1  0
 14 58  1  0
 14 59  1  0
 15 60  1  0
 15 61  1  0
 16 62  1  0
 16 63  1  0
 17 64  1  0
 17 65  1  0
 18 66  1  0
 19 67  1  0
 20 68  1  0
 21 69  1  0
 22 70  1  0
 23 71  1  0
 24 72  1  0
 24 73  1  0
 25 74  1  0
 26 75  1  0
 26 76  1  0
 28 77  1  0
 28 78  1  0
 29 79  1  0
 29 80  1  0
 30 81  1  0
 30 82  1  0
 32 83  1  0
 32 84  1  0
 33 85  1  0
 33 86  1  0
 35 87  1  0
 35 88  1  0
 36 89  1  0
 36 90  1  0
M  END
>  <PDBID>  (1) 
3AOX

>  <PDB ID>  (1) 
3AOX

>  <Generic Name>  (1) 
Alectinib

>  <Brand Name>  (1) 
Alecensa#Alecensaro

>  <DrugBank ID>  (1) 
DB11363

>  <ATC Codes>  (1) 
nan

>  <Ligand ID>  (1) 
EMH

>  <Target Name>  (1) 
ALK tyrosine kinase receptor

>  <UniProt ID>  (1) 
Q9UM73

>  <PDB ID.1>  (1) 
3AOX

>  <Seq. Identity>  (1) 
100%

$$$$
