PDB_DB00814_07
     RDKit          3D

104109  0  0  0  0  0  0  0  0999 V2000
    6.3870    1.1225   -0.0048 C   0  0  0  0  0  0  0  0  0  0  0  0
    5.9525   -0.1959    0.5727 C   0  0  0  0  0  0  0  0  0  0  0  0
    4.4604    0.1560    1.6089 S   0  0  0  0  0  0  0  0  0  0  0  0
    5.1532   -0.9680   -0.5073 C   0  0  0  0  0  0  0  0  0  0  0  0
    4.1842    0.0446   -0.9130 N   0  0  0  0  0  0  0  0  0  0  0  0
    3.2904    0.2624    0.2362 C   0  0  0  0  0  0  0  0  0  0  0  0
    2.2719   -0.7801    0.2389 N   0  0  0  0  0  0  0  0  0  0  0  0
    1.2140   -0.3368   -0.6233 C   0  0  1  0  0  0  0  0  0  0  0  0
    1.1888   -0.9931   -1.8297 O   0  0  0  0  0  0  0  0  0  0  0  0
   -0.1372   -0.1936    0.0477 C   0  0  1  0  0  0  0  0  0  0  0  0
   -0.9372    0.8411   -0.7063 C   0  0  2  0  0  0  0  0  0  0  0  0
   -0.2616    2.0427   -0.6566 O   0  0  0  0  0  0  0  0  0  0  0  0
   -2.3171    0.9931   -0.0475 C   0  0  1  0  0  0  0  0  0  0  0  0
   -2.9468    2.2916   -0.3933 C   0  0  0  0  0  0  0  0  0  0  0  0
   -4.3913    2.2998    0.0989 C   0  0  0  0  0  0  0  0  0  0  0  0
   -5.1239    1.1919   -0.6592 C   0  0  0  0  0  0  0  0  0  0  0  0
   -4.5719   -0.1181   -0.2186 C   0  0  0  0  0  0  0  0  0  0  0  0
   -3.1045   -0.1875   -0.5395 C   0  0  2  0  0  0  0  0  0  0  0  0
   -2.3723   -1.5863    0.3188 S   0  0  0  0  0  0  0  0  0  0  0  0
   -3.0567   -1.8078    1.8796 O   0  0  0  0  0  0  0  0  0  0  0  0
   -2.8958   -3.1051   -0.7414 O   0  0  0  0  0  0  0  0  0  0  0  0
   -0.7489   -1.4379    0.1784 N   0  0  0  0  0  0  0  0  0  0  0  0
   -0.0391   -2.3924    0.9484 C   0  0  0  0  0  0  0  0  0  0  0  0
    6.4228    1.3107    0.2102 C   0  0  0  0  0  0  0  0  0  0  0  0
    4.9494    1.5541    0.3175 C   0  0  0  0  0  0  0  0  0  0  0  0
    4.1297    0.2356   -0.6752 S   0  0  0  0  0  0  0  0  0  0  0  0
    4.4138    1.1617    1.7025 C   0  0  0  0  0  0  0  0  0  0  0  0
    3.0452    0.7699    1.5263 N   0  0  0  0  0  0  0  0  0  0  0  0
    3.0469   -0.3737    0.6378 C   0  0  1  0  0  0  0  0  0  0  0  0
    1.7971   -0.8463    0.2394 N   0  0  0  0  0  0  0  0  0  0  0  0
    0.9351    0.0965   -0.4383 C   0  0  1  0  0  0  0  0  0  0  0  0
    1.5049    0.2516   -1.7261 O   0  0  0  0  0  0  0  0  0  0  0  0
   -0.4509   -0.5201   -0.7103 C   0  0  2  0  0  0  0  0  0  0  0  0
   -1.3785    0.4928   -1.2175 C   0  0  2  0  0  0  0  0  0  0  0  0
   -0.8398    1.6993   -1.5931 O   0  0  0  0  0  0  0  0  0  0  0  0
   -2.1556    0.7046    0.0644 C   0  0  1  0  0  0  0  0  0  0  0  0
   -3.3573    1.5388   -0.0986 C   0  0  0  0  0  0  0  0  0  0  0  0
   -4.6088    0.8183   -0.5226 C   0  0  0  0  0  0  0  0  0  0  0  0
   -4.9693   -0.2296    0.5077 C   0  0  0  0  0  0  0  0  0  0  0  0
   -3.7456   -0.7575    1.1338 C   0  0  0  0  0  0  0  0  0  0  0  0
   -2.6079   -0.7743    0.2059 C   0  0  2  0  0  0  0  0  0  0  0  0
   -1.1119   -1.5762    0.4061 S   0  0  0  0  0  0  0  0  0  0  0  0
   -0.8783   -1.1914    2.1125 O   0  0  0  0  0  0  0  0  0  0  0  0
   -0.0691   -3.1343    0.7653 O   0  0  0  0  0  0  0  0  0  0  0  0
   -0.2183   -1.6635   -1.3049 N   0  0  0  0  0  0  0  0  0  0  0  0
   -0.9134   -1.9749   -2.4106 C   0  0  0  0  0  0  0  0  0  0  0  0
    6.0999    1.1485   -1.0827 H   0  0  0  0  0  0  0  0  0  0  0  0
    7.4481    1.3352    0.0977 H   0  0  0  0  0  0  0  0  0  0  0  0
    5.8365    1.9825    0.4596 H   0  0  0  0  0  0  0  0  0  0  0  0
    6.6894   -0.7845    1.0741 H   0  0  0  0  0  0  0  0  0  0  0  0
    5.7538   -1.2235   -1.3697 H   0  0  0  0  0  0  0  0  0  0  0  0
    4.6855   -1.8177    0.0092 H   0  0  0  0  0  0  0  0  0  0  0  0
    3.6233   -0.3701   -1.6951 H   0  0  0  0  0  0  0  0  0  0  0  0
    2.8787    1.2765    0.1681 H   0  0  0  0  0  0  0  0  0  0  0  0
    1.9487   -0.8624    1.2292 H   0  0  0  0  0  0  0  0  0  0  0  0
    1.4964    0.7632   -0.9871 H   0  0  0  0  0  0  0  0  0  0  0  0
    0.2924   -0.8502   -2.2331 H   0  0  0  0  0  0  0  0  0  0  0  0
    0.0773    0.2850    1.0493 H   0  0  0  0  0  0  0  0  0  0  0  0
   -1.1250    0.5485   -1.7561 H   0  0  0  0  0  0  0  0  0  0  0  0
   -0.0058    2.2184    0.2856 H   0  0  0  0  0  0  0  0  0  0  0  0
   -2.1281    0.8869    1.0437 H   0  0  0  0  0  0  0  0  0  0  0  0
   -2.9891    2.4617   -1.4687 H   0  0  0  0  0  0  0  0  0  0  0  0
   -2.4317    3.1062    0.1605 H   0  0  0  0  0  0  0  0  0  0  0  0
   -4.4510    2.1669    1.1881 H   0  0  0  0  0  0  0  0  0  0  0  0
   -4.8600    3.2522   -0.2097 H   0  0  0  0  0  0  0  0  0  0  0  0
   -6.1968    1.2028   -0.4270 H   0  0  0  0  0  0  0  0  0  0  0  0
   -4.9407    1.3770   -1.7417 H   0  0  0  0  0  0  0  0  0  0  0  0
   -4.7747   -0.2580    0.8550 H   0  0  0  0  0  0  0  0  0  0  0  0
   -5.0552   -0.9247   -0.8257 H   0  0  0  0  0  0  0  0  0  0  0  0
   -2.9857   -0.3017   -1.6312 H   0  0  0  0  0  0  0  0  0  0  0  0
   -2.5971   -2.5285    2.3438 H   0  0  0  0  0  0  0  0  0  0  0  0
   -3.8555   -3.0412   -0.5759 H   0  0  0  0  0  0  0  0  0  0  0  0
    0.8583   -2.7349    0.3868 H   0  0  0  0  0  0  0  0  0  0  0  0
    0.1577   -2.1034    1.9987 H   0  0  0  0  0  0  0  0  0  0  0  0
   -0.6474   -3.3540    1.0678 H   0  0  0  0  0  0  0  0  0  0  0  0
    6.7275    0.9953   -0.8254 H   0  0  0  0  0  0  0  0  0  0  0  0
    6.7176    0.4678    0.8828 H   0  0  0  0  0  0  0  0  0  0  0  0
    7.0448    2.1779    0.4811 H   0  0  0  0  0  0  0  0  0  0  0  0
    4.6229    2.5437    0.0112 H   0  0  0  0  0  0  0  0  0  0  0  0
    5.0736    0.3340    2.0501 H   0  0  0  0  0  0  0  0  0  0  0  0
    4.4608    2.0021    2.3988 H   0  0  0  0  0  0  0  0  0  0  0  0
    2.5523    1.5602    1.0685 H   0  0  0  0  0  0  0  0  0  0  0  0
    3.5979   -1.1861    1.1549 H   0  0  0  0  0  0  0  0  0  0  0  0
    1.9921   -1.5870   -0.5087 H   0  0  0  0  0  0  0  0  0  0  0  0
    0.8480    1.0472    0.0810 H   0  0  0  0  0  0  0  0  0  0  0  0
    1.6207    1.2076   -1.9460 H   0  0  0  0  0  0  0  0  0  0  0  0
   -2.1093    0.1387   -1.9734 H   0  0  0  0  0  0  0  0  0  0  0  0
   -1.0894    1.9194   -2.5241 H   0  0  0  0  0  0  0  0  0  0  0  0
   -1.5218    0.9421    0.9256 H   0  0  0  0  0  0  0  0  0  0  0  0
   -3.1517    2.2865   -0.9142 H   0  0  0  0  0  0  0  0  0  0  0  0
   -3.5945    2.1144    0.8142 H   0  0  0  0  0  0  0  0  0  0  0  0
   -4.5418    0.4376   -1.5423 H   0  0  0  0  0  0  0  0  0  0  0  0
   -5.4301    1.5800   -0.5175 H   0  0  0  0  0  0  0  0  0  0  0  0
   -5.6120    0.2112    1.2995 H   0  0  0  0  0  0  0  0  0  0  0  0
   -5.5903   -1.0280    0.0313 H   0  0  0  0  0  0  0  0  0  0  0  0
   -3.9536   -1.8238    1.4490 H   0  0  0  0  0  0  0  0  0  0  0  0
   -3.5501   -0.2268    2.0926 H   0  0  0  0  0  0  0  0  0  0  0  0
   -3.1177   -0.8242   -0.8111 H   0  0  0  0  0  0  0  0  0  0  0  0
   -2.0670   -3.2088    0.2327 H   0  0  0  0  0  0  0  0  0  0  0  0
   -0.2887   -0.5314    2.3275 H   0  0  0  0  0  0  0  0  0  0  0  0
    0.7811   -2.9275    1.0201 H   0  0  0  0  0  0  0  0  0  0  0  0
   -0.8082   -1.1850   -3.2005 H   0  0  0  0  0  0  0  0  0  0  0  0
   -2.0252   -2.1147   -2.3242 H   0  0  0  0  0  0  0  0  0  0  0  0
   -0.5285   -2.9142   -2.9069 H   0  0  0  0  0  0  0  0  0  0  0  0
  1  2  1  0
  2  3  1  0
  2  4  1  0
  4  5  1  0
  3  6  1  0
  5  6  1  0
  6  7  1  0
  7  8  1  0
  8  9  1  0
  8 10  1  0
 10 11  1  0
 11 12  1  0
 11 13  1  0
 13 14  1  0
 14 15  1  0
 15 16  1  0
 16 17  1  0
 13 18  1  0
 17 18  1  0
 18 19  1  0
 19 20  1  0
 19 21  1  0
 10 22  1  0
 19 22  1  0
 22 23  1  0
 24 25  1  0
 25 26  1  0
 25 27  1  0
 27 28  1  0
 26 29  1  0
 28 29  1  0
 29 30  1  0
 30 31  1  0
 31 32  1  0
 31 33  1  0
 33 34  1  0
 34 35  1  0
 34 36  1  0
 36 37  1  0
 37 38  1  0
 38 39  1  0
 39 40  1  0
 36 41  1  0
 40 41  1  0
 41 42  1  0
 42 33  1  0
 42 43  1  0
 42 44  1  0
 33 45  1  6
 42 45  1  0
 45 46  1  0
  1 47  1  0
  1 48  1  0
  1 49  1  0
  2 50  1  0
  4 51  1  0
  4 52  1  0
  5 53  1  0
  6 54  1  0
  7 55  1  0
  8 56  1  6
  9 57  1  0
 10 58  1  1
 11 59  1  6
 12 60  1  0
 13 61  1  1
 14 62  1  0
 14 63  1  0
 15 64  1  0
 15 65  1  0
 16 66  1  0
 16 67  1  0
 17 68  1  0
 17 69  1  0
 18 70  1  6
 20 71  1  0
 21 72  1  0
 23 73  1  0
 23 74  1  0
 23 75  1  0
 24 76  1  0
 24 77  1  0
 24 78  1  0
 25 79  1  0
 27 80  1  0
 27 81  1  0
 28 82  1  0
 29 83  1  1
 30 84  1  0
 31 85  1  1
 32 86  1  0
 34 87  1  6
 35 88  1  0
 36 89  1  1
 37 90  1  0
 37 91  1  0
 38 92  1  0
 38 93  1  0
 39 94  1  0
 39 95  1  0
 40 96  1  0
 40 97  1  0
 41 98  1  6
 42 99  1  0
 43100  1  0
 44101  1  0
 46102  1  0
 46103  1  0
 46104  1  0
M  END
>  <PDBID>  (1) 
4O1Z

>  <PDB ID>  (1) 
4O1Z

>  <Generic Name>  (1) 
Meloxicam

>  <Brand Name>  (1) 
Act Meloxicam#Apo-meloxicam#Auro-meloxicam#Ava-meloxicam#Comfort Pac With Meloxicam#Dom-meloxicam#Meloxicam#Mobic#Mobicox#Mylan-meloxicam#Nu-meloxicam#PHL-meloxicam#PMS-meloxicam#Ratio-meloxicam#Teva-meloxicam#Trepoxicam-7.5#Vivlodex#Achefree#Acticam#Aflamid#Afloxx#Aglan#Ainecox#Aldoron#Alentum#Algiflex#Aliviodol#Anaxicam#Anposel#Antrend#Aponip#Areloger#Aremil#Armex#Arrox#Arsitec#Artex#Arthrobic#Arthrox#Articam#Artipro#Artriclox#Artrifilm#Artriflam#Artrilom#Artrilox#Artrox#Aspicam#Atiflam#Atrozan#Auroxicam#Axius

>  <DrugBank ID>  (1) 
DB00814

>  <ATC Codes>  (1) 
M01AC56#M01AC06

>  <Ligand ID>  (1) 
MXM

>  <Target Name>  (1) 
Prostaglandin G/H synthase 2

>  <UniProt ID>  (1) 
P35354

>  <PDB ID.1>  (1) 
4O1Z

>  <Seq. Identity>  (1) 
61%

$$$$
