PDB_DB08901_02
     RDKit          3D

184192  0  0  0  0  0  0  0  0999 V2000
   -8.0201    2.3598   -0.3715 N   0  0  0  0  0  0  0  0  0  0  0  0
    7.4058   -0.1631    0.4475 N   0  0  0  0  0  0  0  0  0  0  0  0
   -4.2203    0.1134    1.1024 C   0  0  0  0  0  0  0  0  0  0  0  0
   -3.1102   -0.0243    0.1674 C   0  0  0  0  0  0  0  0  0  0  0  0
   -2.8386    0.7285   -1.0285 C   0  0  0  0  0  0  0  0  0  0  0  0
   -1.8577   -0.1082   -1.9070 C   0  0  0  0  0  0  0  0  0  0  0  0
   -1.0495   -1.0591   -1.1044 C   0  0  0  0  0  0  0  0  0  0  0  0
   -1.7695    0.0285    1.0007 C   0  0  0  0  0  0  0  0  0  0  0  0
    2.4797   -1.3580    0.1890 C   0  0  0  0  0  0  0  0  0  0  0  0
    4.0125    0.1387   -0.9693 C   0  0  0  0  0  0  0  0  0  0  0  0
    4.7185   -1.0937    1.1164 C   0  0  0  0  0  0  0  0  0  0  0  0
    6.2330    0.3280   -0.1260 C   0  0  0  0  0  0  0  0  0  0  0  0
    8.1715   -1.0450   -0.3808 C   0  0  0  0  0  0  0  0  0  0  0  0
    9.0836   -0.2912   -1.3344 C   0  0  0  0  0  0  0  0  0  0  0  0
    8.1386    0.8233    1.1551 C   0  0  0  0  0  0  0  0  0  0  0  0
   -9.9157    0.9599   -1.1192 C   0  0  0  0  0  0  0  0  0  0  0  0
  -10.3914   -0.1023   -0.1369 C   0  0  0  0  0  0  0  0  0  0  0  0
   -9.8814    0.2985    1.2120 C   0  0  0  0  0  0  0  0  0  0  0  0
   -8.4401    0.4605    1.2642 N   0  0  0  0  0  0  0  0  0  0  0  0
   -7.9033    0.1455    0.0363 N   0  0  0  0  0  0  0  0  0  0  0  0
   -8.4472    1.0981   -0.9367 C   0  0  0  0  0  0  0  0  0  0  0  0
   -6.7521    2.0764    0.3234 C   0  0  0  0  0  0  0  0  0  0  0  0
   -6.4715    0.6529   -0.0311 C   0  0  0  0  0  0  0  0  0  0  0  0
   -5.6336   -0.1005    0.8775 C   0  0  0  0  0  0  0  0  0  0  0  0
   -0.6270   -0.4643    0.1992 C   0  0  0  0  0  0  0  0  0  0  0  0
   -3.8670    1.1949   -1.9752 C   0  0  0  0  0  0  0  0  0  0  0  0
    0.1407   -1.5688    0.9492 C   0  0  0  0  0  0  0  0  0  0  0  0
   -0.8061   -2.6173    1.0761 O   0  0  0  0  0  0  0  0  0  0  0  0
    1.2922   -2.0408    0.3562 N   0  0  0  0  0  0  0  0  0  0  0  0
    2.5843   -0.1167   -0.6070 C   0  0  0  0  0  0  0  0  0  0  0  0
    5.0634   -0.6738   -0.2589 C   0  0  0  0  0  0  0  0  0  0  0  0
    3.2479   -1.0808    1.4757 C   0  0  0  0  0  0  0  0  0  0  0  0
    5.1937   -2.4958    1.4338 C   0  0  0  0  0  0  0  0  0  0  0  0
    4.6833   -3.4568    0.5968 F   0  0  0  0  0  0  0  0  0  0  0  0
    4.6246   -2.8529    2.7010 F   0  0  0  0  0  0  0  0  0  0  0  0
    6.5266   -2.6277    1.6354 F   0  0  0  0  0  0  0  0  0  0  0  0
    9.5593    0.9807    0.6502 C   0  0  0  0  0  0  0  0  0  0  0  0
    9.0352    2.1086   -1.3988 C   0  0  0  0  0  0  0  0  0  0  0  0
    9.6140    0.9221   -0.7974 N   0  0  0  0  0  0  0  0  0  0  0  0
    7.7914    2.7564   -0.2581 N   0  0  0  0  0  0  0  0  0  0  0  0
   -6.8951    0.2885   -0.2673 N   0  0  0  0  0  0  0  0  0  0  0  0
    3.9385    0.7125   -1.2687 C   0  0  0  0  0  0  0  0  0  0  0  0
    3.3439    0.4307    0.0467 C   0  0  0  0  0  0  0  0  0  0  0  0
    3.2964   -0.9843    0.4888 C   0  0  0  0  0  0  0  0  0  0  0  0
    2.7558   -1.7930   -0.6683 C   0  0  0  0  0  0  0  0  0  0  0  0
    1.3281   -1.3868   -0.8538 C   0  0  0  0  0  0  0  0  0  0  0  0
    1.9048    0.9180    0.0346 C   0  0  0  0  0  0  0  0  0  0  0  0
   -1.9095   -1.0393    0.1164 C   0  0  0  0  0  0  0  0  0  0  0  0
   -3.7418   -0.5044    1.6218 C   0  0  0  0  0  0  0  0  0  0  0  0
   -4.2951   -1.3991   -0.5607 C   0  0  0  0  0  0  0  0  0  0  0  0
   -5.6977    0.4049    0.5219 C   0  0  0  0  0  0  0  0  0  0  0  0
   -7.8821   -0.4304    0.4816 C   0  0  0  0  0  0  0  0  0  0  0  0
   -9.2908   -0.1865    0.0454 C   0  0  0  0  0  0  0  0  0  0  0  0
   -7.3141    1.5921   -0.6927 C   0  0  0  0  0  0  0  0  0  0  0  0
    9.1509    1.1023    0.9404 C   0  0  0  0  0  0  0  0  0  0  0  0
    8.6242   -0.1652    1.5150 C   0  0  0  0  0  0  0  0  0  0  0  0
    8.3096   -1.2254    0.5061 C   0  0  0  0  0  0  0  0  0  0  0  0
    7.9806   -0.7546   -0.7855 N   0  0  0  0  0  0  0  0  0  0  0  0
    7.6790    0.5457   -0.9653 N   0  0  0  0  0  0  0  0  0  0  0  0
    8.5364    1.5131   -0.3607 C   0  0  0  0  0  0  0  0  0  0  0  0
    6.4853    2.4846   -0.8735 C   0  0  0  0  0  0  0  0  0  0  0  0
    6.3563    0.9944   -0.6108 C   0  0  0  0  0  0  0  0  0  0  0  0
    5.3584    0.3406   -1.5048 C   0  0  0  0  0  0  0  0  0  0  0  0
    0.8979   -0.1506   -0.1713 C   0  0  0  0  0  0  0  0  0  0  0  0
    4.5111   -1.5581    1.1096 C   0  0  0  0  0  0  0  0  0  0  0  0
   -0.2871    0.4138   -0.9509 C   0  0  1  0  0  0  0  0  0  0  0  0
    0.1081    0.7044   -2.2758 O   0  0  0  0  0  0  0  0  0  0  0  0
   -1.3266   -0.5902   -1.1025 N   0  0  0  0  0  0  0  0  0  0  0  0
   -2.6095    0.1023    0.8309 C   0  0  0  0  0  0  0  0  0  0  0  0
   -4.9276   -0.8794    0.6926 C   0  0  0  0  0  0  0  0  0  0  0  0
   -2.9776   -2.0666   -0.1853 C   0  0  0  0  0  0  0  0  0  0  0  0
   -5.1179   -2.4664   -1.2326 C   0  0  0  0  0  0  0  0  0  0  0  0
   -4.4359   -2.9285   -2.3877 F   0  0  0  0  0  0  0  0  0  0  0  0
   -6.2676   -1.8954   -1.7652 F   0  0  0  0  0  0  0  0  0  0  0  0
   -5.3495   -3.5610   -0.4569 F   0  0  0  0  0  0  0  0  0  0  0  0
   -8.6810    1.5775   -1.3401 C   0  0  0  0  0  0  0  0  0  0  0  0
   -9.7573    2.0821    0.7500 C   0  0  0  0  0  0  0  0  0  0  0  0
   -9.6180    1.1441   -0.3259 N   0  0  0  0  0  0  0  0  0  0  0  0
   -8.7596    2.6538    0.3136 H   0  0  0  0  0  0  0  0  0  0  0  0
   -4.0888    1.1455    1.6841 H   0  0  0  0  0  0  0  0  0  0  0  0
   -3.8927   -0.5515    2.0242 H   0  0  0  0  0  0  0  0  0  0  0  0
   -3.0761   -1.1768   -0.0978 H   0  0  0  0  0  0  0  0  0  0  0  0
   -2.2445    1.6611   -0.7097 H   0  0  0  0  0  0  0  0  0  0  0  0
   -1.2365    0.6408   -2.4542 H   0  0  0  0  0  0  0  0  0  0  0  0
   -2.5068   -0.6500   -2.6440 H   0  0  0  0  0  0  0  0  0  0  0  0
   -0.1060   -1.2643   -1.7102 H   0  0  0  0  0  0  0  0  0  0  0  0
   -1.5678   -2.0434   -0.9829 H   0  0  0  0  0  0  0  0  0  0  0  0
   -1.9174   -0.4591    1.9619 H   0  0  0  0  0  0  0  0  0  0  0  0
   -1.6421    1.1170    1.1740 H   0  0  0  0  0  0  0  0  0  0  0  0
    3.1879   -2.0965   -0.3615 H   0  0  0  0  0  0  0  0  0  0  0  0
    4.2430    1.2236   -0.9710 H   0  0  0  0  0  0  0  0  0  0  0  0
    4.1070   -0.1614   -2.0565 H   0  0  0  0  0  0  0  0  0  0  0  0
    5.2135   -0.4287    1.8691 H   0  0  0  0  0  0  0  0  0  0  0  0
    5.8361    1.2655    0.3666 H   0  0  0  0  0  0  0  0  0  0  0  0
    6.4490    0.6215   -1.1899 H   0  0  0  0  0  0  0  0  0  0  0  0
    7.4558   -1.6019   -1.0456 H   0  0  0  0  0  0  0  0  0  0  0  0
    8.7106   -1.8068    0.1800 H   0  0  0  0  0  0  0  0  0  0  0  0
    8.5886   -0.0637   -2.3019 H   0  0  0  0  0  0  0  0  0  0  0  0
    9.9570   -0.9587   -1.5694 H   0  0  0  0  0  0  0  0  0  0  0  0
    7.5999    1.7943    1.2432 H   0  0  0  0  0  0  0  0  0  0  0  0
    8.2500    0.4520    2.2172 H   0  0  0  0  0  0  0  0  0  0  0  0
  -10.4979    1.8744   -0.9256 H   0  0  0  0  0  0  0  0  0  0  0  0
  -10.1167    0.5591   -2.1409 H   0  0  0  0  0  0  0  0  0  0  0  0
  -10.1043   -1.1160   -0.4202 H   0  0  0  0  0  0  0  0  0  0  0  0
  -11.5020   -0.0245   -0.1232 H   0  0  0  0  0  0  0  0  0  0  0  0
  -10.3608    1.2536    1.5004 H   0  0  0  0  0  0  0  0  0  0  0  0
  -10.2605   -0.4520    1.9389 H   0  0  0  0  0  0  0  0  0  0  0  0
   -8.1247   -0.1649    2.0382 H   0  0  0  0  0  0  0  0  0  0  0  0
   -7.8896    0.9826   -1.9062 H   0  0  0  0  0  0  0  0  0  0  0  0
   -5.9819    2.7939    0.0204 H   0  0  0  0  0  0  0  0  0  0  0  0
   -6.9134    2.1302    1.4228 H   0  0  0  0  0  0  0  0  0  0  0  0
   -6.2797    0.4922   -1.1044 H   0  0  0  0  0  0  0  0  0  0  0  0
   -5.7327   -1.2145    0.5329 H   0  0  0  0  0  0  0  0  0  0  0  0
   -6.1255   -0.2193    1.9159 H   0  0  0  0  0  0  0  0  0  0  0  0
    0.1095    0.3404   -0.0056 H   0  0  0  0  0  0  0  0  0  0  0  0
   -3.3297    1.6458   -2.8658 H   0  0  0  0  0  0  0  0  0  0  0  0
   -4.5154    1.9870   -1.6228 H   0  0  0  0  0  0  0  0  0  0  0  0
   -4.3874    0.3108   -2.4110 H   0  0  0  0  0  0  0  0  0  0  0  0
    0.2644   -1.2272    2.0209 H   0  0  0  0  0  0  0  0  0  0  0  0
   -0.5461   -3.1599    1.8755 H   0  0  0  0  0  0  0  0  0  0  0  0
    1.3531   -3.0692    0.1816 H   0  0  0  0  0  0  0  0  0  0  0  0
    2.3258    0.7400    0.0987 H   0  0  0  0  0  0  0  0  0  0  0  0
    1.9097   -0.0123   -1.4659 H   0  0  0  0  0  0  0  0  0  0  0  0
    5.4426   -1.5121   -0.8546 H   0  0  0  0  0  0  0  0  0  0  0  0
    2.9663   -1.8621    2.1979 H   0  0  0  0  0  0  0  0  0  0  0  0
    2.9881   -0.0544    1.7944 H   0  0  0  0  0  0  0  0  0  0  0  0
    9.9054    1.9883    0.9548 H   0  0  0  0  0  0  0  0  0  0  0  0
   10.2554    0.2462    1.0957 H   0  0  0  0  0  0  0  0  0  0  0  0
    8.2361    2.5314   -0.7464 H   0  0  0  0  0  0  0  0  0  0  0  0
    9.8338    2.8771   -1.4032 H   0  0  0  0  0  0  0  0  0  0  0  0
    8.7119    1.9459   -2.4293 H   0  0  0  0  0  0  0  0  0  0  0  0
    8.2852    3.5489   -0.7427 H   0  0  0  0  0  0  0  0  0  0  0  0
    3.8648    1.8277   -1.4351 H   0  0  0  0  0  0  0  0  0  0  0  0
    3.3507    0.2929   -2.1283 H   0  0  0  0  0  0  0  0  0  0  0  0
    3.9339    1.0083    0.8085 H   0  0  0  0  0  0  0  0  0  0  0  0
    2.4853   -1.0502    1.2805 H   0  0  0  0  0  0  0  0  0  0  0  0
    2.8629   -2.8654   -0.3933 H   0  0  0  0  0  0  0  0  0  0  0  0
    3.3517   -1.6768   -1.6047 H   0  0  0  0  0  0  0  0  0  0  0  0
    0.7006   -2.2543   -0.5370 H   0  0  0  0  0  0  0  0  0  0  0  0
    1.1617   -1.3296   -1.9696 H   0  0  0  0  0  0  0  0  0  0  0  0
    1.7571    1.4340    1.0242 H   0  0  0  0  0  0  0  0  0  0  0  0
    1.8355    1.7200   -0.7229 H   0  0  0  0  0  0  0  0  0  0  0  0
   -1.1882   -1.4825    0.8134 H   0  0  0  0  0  0  0  0  0  0  0  0
   -4.0669    0.2797    2.3477 H   0  0  0  0  0  0  0  0  0  0  0  0
   -3.3710   -1.3854    2.1504 H   0  0  0  0  0  0  0  0  0  0  0  0
   -4.0327   -0.5807   -1.2740 H   0  0  0  0  0  0  0  0  0  0  0  0
   -4.9917    1.1910    0.1173 H   0  0  0  0  0  0  0  0  0  0  0  0
   -5.9185    0.7633    1.5702 H   0  0  0  0  0  0  0  0  0  0  0  0
   -7.8320   -0.1559    1.5773 H   0  0  0  0  0  0  0  0  0  0  0  0
   -7.6734   -1.5055    0.4270 H   0  0  0  0  0  0  0  0  0  0  0  0
   -9.9785   -0.5050    0.8827 H   0  0  0  0  0  0  0  0  0  0  0  0
   -9.5496   -0.8678   -0.8056 H   0  0  0  0  0  0  0  0  0  0  0  0
   -6.6089    2.0431   -1.4008 H   0  0  0  0  0  0  0  0  0  0  0  0
   -7.3842    2.2562    0.1918 H   0  0  0  0  0  0  0  0  0  0  0  0
    8.9397    1.9229    1.6845 H   0  0  0  0  0  0  0  0  0  0  0  0
   10.2721    1.0469    0.8939 H   0  0  0  0  0  0  0  0  0  0  0  0
    9.4319   -0.6006    2.1787 H   0  0  0  0  0  0  0  0  0  0  0  0
    7.7895    0.0397    2.2290 H   0  0  0  0  0  0  0  0  0  0  0  0
    9.1757   -1.9442    0.3762 H   0  0  0  0  0  0  0  0  0  0  0  0
    7.4859   -1.9092    0.8662 H   0  0  0  0  0  0  0  0  0  0  0  0
    7.4357   -1.3903   -1.3505 H   0  0  0  0  0  0  0  0  0  0  0  0
    9.3835    1.7072   -1.0803 H   0  0  0  0  0  0  0  0  0  0  0  0
    5.6784    3.0775   -0.4482 H   0  0  0  0  0  0  0  0  0  0  0  0
    6.6319    2.6083   -1.9699 H   0  0  0  0  0  0  0  0  0  0  0  0
    6.1434    0.8895    0.4703 H   0  0  0  0  0  0  0  0  0  0  0  0
    5.5486   -0.7404   -1.5350 H   0  0  0  0  0  0  0  0  0  0  0  0
    5.5997    0.6894   -2.5532 H   0  0  0  0  0  0  0  0  0  0  0  0
    0.4852   -0.4049    0.8257 H   0  0  0  0  0  0  0  0  0  0  0  0
    5.1564   -2.1194    0.3871 H   0  0  0  0  0  0  0  0  0  0  0  0
    5.0709   -0.8259    1.7251 H   0  0  0  0  0  0  0  0  0  0  0  0
    4.2301   -2.3581    1.8637 H   0  0  0  0  0  0  0  0  0  0  0  0
   -0.6640    1.3466   -0.5051 H   0  0  0  0  0  0  0  0  0  0  0  0
   -0.6250    0.5897   -2.9174 H   0  0  0  0  0  0  0  0  0  0  0  0
   -0.9269   -1.3795   -1.6423 H   0  0  0  0  0  0  0  0  0  0  0  0
   -2.9629    0.8680    0.1024 H   0  0  0  0  0  0  0  0  0  0  0  0
   -1.9416    0.6201    1.5327 H   0  0  0  0  0  0  0  0  0  0  0  0
   -5.4903   -1.6562    1.1909 H   0  0  0  0  0  0  0  0  0  0  0  0
   -2.6783   -2.6994   -1.0636 H   0  0  0  0  0  0  0  0  0  0  0  0
   -3.1386   -2.7382    0.6551 H   0  0  0  0  0  0  0  0  0  0  0  0
   -8.8818    2.5822   -1.7257 H   0  0  0  0  0  0  0  0  0  0  0  0
   -8.6384    0.7901   -2.1248 H   0  0  0  0  0  0  0  0  0  0  0  0
  -10.7587    1.9808    1.2436 H   0  0  0  0  0  0  0  0  0  0  0  0
   -9.7612    3.1380    0.3509 H   0  0  0  0  0  0  0  0  0  0  0  0
   -8.9598    2.0201    1.5236 H   0  0  0  0  0  0  0  0  0  0  0  0
  3  4  1  0
  4  5  1  0
  5  6  1  0
  6  7  1  0
  4  8  1  0
  2 12  1  0
  2 13  1  0
 13 14  1  0
  2 15  1  0
 16 17  1  0
 17 18  1  0
 18 19  1  0
 19 20  1  0
  1 21  1  0
 16 21  1  0
 20 21  1  0
  1 22  1  0
 20 23  1  0
 22 23  1  0
  3 24  1  0
 23 24  1  0
  7 25  1  0
  8 25  1  0
  5 26  1  0
 25 27  1  0
 27 28  1  0
  9 29  1  0
 27 29  1  0
  9 30  1  0
 10 30  1  0
 10 31  1  0
 11 31  1  0
 12 31  1  0
  9 32  1  0
 11 32  1  0
 11 33  1  0
 33 34  1  0
 33 35  1  0
 33 36  1  0
 15 37  1  0
 14 39  1  0
 37 39  1  0
 38 39  1  0
 42 43  1  0
 43 44  1  0
 44 45  1  0
 45 46  1  0
 43 47  1  0
 41 51  1  0
 41 52  1  0
 52 53  1  0
 41 54  1  0
 55 56  1  0
 56 57  1  0
 57 58  1  0
 58 59  1  0
 40 60  1  0
 55 60  1  0
 59 60  1  0
 40 61  1  0
 59 62  1  0
 61 62  1  0
 42 63  1  0
 62 63  1  0
 46 64  1  0
 47 64  1  0
 44 65  1  0
 64 66  1  0
 66 67  1  0
 48 68  1  0
 66 68  1  0
 48 69  1  0
 49 69  1  0
 49 70  1  0
 50 70  1  0
 51 70  1  0
 48 71  1  0
 50 71  1  0
 50 72  1  0
 72 73  1  0
 72 74  1  0
 72 75  1  0
 54 76  1  0
 53 78  1  0
 76 78  1  0
 77 78  1  0
  1 79  1  0
  3 80  1  0
  3 81  1  0
  4 82  1  0
  5 83  1  0
  6 84  1  0
  6 85  1  0
  7 86  1  0
  7 87  1  0
  8 88  1  0
  8 89  1  0
  9 90  1  0
 10 91  1  0
 10 92  1  0
 11 93  1  0
 12 94  1  0
 12 95  1  0
 13 96  1  0
 13 97  1  0
 14 98  1  0
 14 99  1  0
 15100  1  0
 15101  1  0
 16102  1  0
 16103  1  0
 17104  1  0
 17105  1  0
 18106  1  0
 18107  1  0
 19108  1  0
 21109  1  0
 22110  1  0
 22111  1  0
 23112  1  0
 24113  1  0
 24114  1  0
 25115  1  0
 26116  1  0
 26117  1  0
 26118  1  0
 27119  1  0
 28120  1  0
 29121  1  0
 30122  1  0
 30123  1  0
 31124  1  0
 32125  1  0
 32126  1  0
 37127  1  0
 37128  1  0
 38129  1  0
 38130  1  0
 38131  1  0
 40132  1  0
 42133  1  0
 42134  1  0
 43135  1  0
 44136  1  0
 45137  1  0
 45138  1  0
 46139  1  0
 46140  1  0
 47141  1  0
 47142  1  0
 48143  1  0
 49144  1  0
 49145  1  0
 50146  1  0
 51147  1  0
 51148  1  0
 52149  1  0
 52150  1  0
 53151  1  0
 53152  1  0
 54153  1  0
 54154  1  0
 55155  1  0
 55156  1  0
 56157  1  0
 56158  1  0
 57159  1  0
 57160  1  0
 58161  1  0
 60162  1  0
 61163  1  0
 61164  1  0
 62165  1  0
 63166  1  0
 63167  1  0
 64168  1  0
 65169  1  0
 65170  1  0
 65171  1  0
 66172  1  1
 67173  1  0
 68174  1  0
 69175  1  0
 69176  1  0
 70177  1  0
 71178  1  0
 71179  1  0
 76180  1  0
 76181  1  0
 77182  1  0
 77183  1  0
 77184  1  0
M  END
>  <PDBID>  (1) 
3IK3

>  <PDB ID>  (1) 
3IK3

>  <Generic Name>  (1) 
Ponatinib

>  <Brand Name>  (1) 
Iclusig

>  <DrugBank ID>  (1) 
DB08901

>  <ATC Codes>  (1) 
L01XE24

>  <Ligand ID>  (1) 
0LI

>  <Target Name>  (1) 
Tyrosine-protein kinase ABL1

>  <UniProt ID>  (1) 
P00519

>  <PDB ID.1>  (1) 
3IK3

>  <Seq. Identity>  (1) 
95%

$$$$
