PDB_DB00715_01
     RDKit          3D

 56 59  0  0  0  0  0  0  0  0999 V2000
   -5.7425    2.6414    0.5820 F   0  0  0  0  0  0  0  0  0  0  0  0
   -4.7081    0.5192    0.7448 C   0  0  0  0  0  0  0  0  0  0  0  0
   -3.5112    2.4137   -0.2178 C   0  0  0  0  0  0  0  0  0  0  0  0
    2.2847    1.6675   -0.0009 C   0  0  0  0  0  0  0  0  0  0  0  0
   -3.4081   -0.1487    1.1864 C   0  0  0  0  0  0  0  0  0  0  0  0
   -2.8061    1.2137   -0.8109 C   0  0  0  0  0  0  0  0  0  0  0  0
    3.4261    2.3370    0.7543 C   0  0  0  0  0  0  0  0  0  0  0  0
    3.5600   -0.4314   -0.0196 C   0  0  0  0  0  0  0  0  0  0  0  0
   -2.5538   -3.1657   -0.7734 C   0  0  0  0  0  0  0  0  0  0  0  0
   -2.4891   -1.7264   -1.2349 C   0  0  0  0  0  0  0  0  0  0  0  0
   -0.2438   -2.8797   -0.2278 C   0  0  0  0  0  0  0  0  0  0  0  0
    6.5601    0.7195    0.4894 C   0  0  0  0  0  0  0  0  0  0  0  0
    0.4098   -0.9498    1.1009 C   0  0  0  0  0  0  0  0  0  0  0  0
   -1.2660   -3.7796   -0.6645 N   0  0  0  0  0  0  0  0  0  0  0  0
    1.1926   -0.4862    0.0471 O   0  0  0  0  0  0  0  0  0  0  0  0
    5.6309    1.4637    1.2153 O   0  0  0  0  0  0  0  0  0  0  0  0
    5.8402   -0.0706   -0.3723 O   0  0  0  0  0  0  0  0  0  0  0  0
   -4.5173    2.0216    0.8264 C   0  0  0  0  0  0  0  0  0  0  0  0
    2.3008    0.2054    0.4606 C   0  0  0  0  0  0  0  0  0  0  0  0
   -2.3097    0.2711    0.2709 C   0  0  0  0  0  0  0  0  0  0  0  0
    4.7073    1.7912    0.2251 C   0  0  0  0  0  0  0  0  0  0  0  0
    4.5838    0.5211   -0.5412 C   0  0  0  0  0  0  0  0  0  0  0  0
   -0.8052   -1.7092    0.5853 C   0  0  1  0  0  0  0  0  0  0  0  0
   -1.5987   -0.8725   -0.3938 C   0  0  1  0  0  0  0  0  0  0  0  0
   -5.5456    0.2176    1.4232 H   0  0  0  0  0  0  0  0  0  0  0  0
   -4.9762    0.2793   -0.2873 H   0  0  0  0  0  0  0  0  0  0  0  0
   -4.0433    2.9188   -1.0505 H   0  0  0  0  0  0  0  0  0  0  0  0
   -2.7528    3.1209    0.1566 H   0  0  0  0  0  0  0  0  0  0  0  0
    1.3546    2.1715    0.3205 H   0  0  0  0  0  0  0  0  0  0  0  0
    2.4625    1.7253   -1.0941 H   0  0  0  0  0  0  0  0  0  0  0  0
   -3.5296   -1.2310    1.2997 H   0  0  0  0  0  0  0  0  0  0  0  0
   -3.2266    0.2465    2.2296 H   0  0  0  0  0  0  0  0  0  0  0  0
   -1.8959    1.6004   -1.3305 H   0  0  0  0  0  0  0  0  0  0  0  0
   -3.4145    0.6908   -1.5670 H   0  0  0  0  0  0  0  0  0  0  0  0
    3.3316    2.0489    1.8332 H   0  0  0  0  0  0  0  0  0  0  0  0
    3.3650    3.4332    0.6833 H   0  0  0  0  0  0  0  0  0  0  0  0
    4.0065   -1.1044    0.7665 H   0  0  0  0  0  0  0  0  0  0  0  0
    3.3105   -1.1365   -0.8650 H   0  0  0  0  0  0  0  0  0  0  0  0
   -3.1064   -3.7192   -1.5886 H   0  0  0  0  0  0  0  0  0  0  0  0
   -3.1779   -3.2988    0.1332 H   0  0  0  0  0  0  0  0  0  0  0  0
   -2.1535   -1.7715   -2.3127 H   0  0  0  0  0  0  0  0  0  0  0  0
   -3.5370   -1.3634   -1.2827 H   0  0  0  0  0  0  0  0  0  0  0  0
    0.4981   -3.4526    0.3555 H   0  0  0  0  0  0  0  0  0  0  0  0
    0.2579   -2.4218   -1.1072 H   0  0  0  0  0  0  0  0  0  0  0  0
    7.1398    0.0583    1.1907 H   0  0  0  0  0  0  0  0  0  0  0  0
    7.2404    1.3646   -0.1040 H   0  0  0  0  0  0  0  0  0  0  0  0
    0.9924   -1.6002    1.7772 H   0  0  0  0  0  0  0  0  0  0  0  0
    0.0981   -0.0597    1.6852 H   0  0  0  0  0  0  0  0  0  0  0  0
   -1.3498   -4.5527    0.0588 H   0  0  0  0  0  0  0  0  0  0  0  0
   -4.1282    2.3404    1.8243 H   0  0  0  0  0  0  0  0  0  0  0  0
    2.3712    0.2697    1.5857 H   0  0  0  0  0  0  0  0  0  0  0  0
   -1.5465    0.8415    0.8490 H   0  0  0  0  0  0  0  0  0  0  0  0
    5.1670    2.5766   -0.4327 H   0  0  0  0  0  0  0  0  0  0  0  0
    4.4811    0.7313   -1.6312 H   0  0  0  0  0  0  0  0  0  0  0  0
   -1.3915   -2.0773    1.4275 H   0  0  0  0  0  0  0  0  0  0  0  0
   -0.8383   -0.4128   -1.0848 H   0  0  0  0  0  0  0  0  0  0  0  0
  2  5  1  0
  3  6  1  0
  4  7  1  0
  9 10  1  0
  9 14  1  0
 11 14  1  0
 13 15  1  0
 12 16  1  0
 12 17  1  0
  1 18  1  0
  2 18  1  0
  3 18  1  0
  4 19  1  0
  8 19  1  0
 15 19  1  0
  5 20  1  0
  6 20  1  0
  7 21  1  0
 16 21  1  0
  8 22  1  0
 17 22  1  0
 21 22  1  0
 11 23  1  0
 13 23  1  0
 10 24  1  0
 20 24  1  0
 23 24  1  0
  2 25  1  0
  2 26  1  0
  3 27  1  0
  3 28  1  0
  4 29  1  0
  4 30  1  0
  5 31  1  0
  5 32  1  0
  6 33  1  0
  6 34  1  0
  7 35  1  0
  7 36  1  0
  8 37  1  0
  8 38  1  0
  9 39  1  0
  9 40  1  0
 10 41  1  0
 10 42  1  0
 11 43  1  0
 11 44  1  0
 12 45  1  0
 12 46  1  0
 13 47  1  0
 13 48  1  0
 14 49  1  0
 18 50  1  0
 19 51  1  0
 20 52  1  0
 21 53  1  0
 22 54  1  0
 23 55  1  1
 24 56  1  6
M  END
>  <PDBID>  (1) 
5I6X

>  <PDB ID>  (1) 
5I6X

>  <Generic Name>  (1) 
Paroxetine

>  <Brand Name>  (1) 
Act Paroxetine#Apo-paroxetine#Auro-paroxetine#Bio-paroxetine#Brisdelle#Dom-paroxetine#Ipg-paroxetine#Jamp-paroxetine#Mar-paroxetine#Mint-paroxetine#Mylan-paroxetine#Ntp-paroxetine#Nu-paroxetine#PMS-paroxetine#Paroxetine#Paroxetine Hydrochloride#Paroxetine Hydrochloride Anhydrous#Paroxetine-10#Paroxetine-20#Paroxetine-30#Paxil#Paxil CR#Paxil Tab 10mg#Paxil Tab 20mg#Paxil Tab 30mg#Paxilcr CR#Pexeva#Priva-paroxetine#Q-paroxetine#Ratio-paroxetine#Riva-paroxetine#Sandoz Paroxetine#Sandoz Paroxetine Tablets#Teva-paroxetine#Aropax#PAXILCR#Sereupin#Seroxat#Seroxat CR

>  <DrugBank ID>  (1) 
DB00715

>  <ATC Codes>  (1) 
N06AB05

>  <Ligand ID>  (1) 
8PR

>  <Target Name>  (1) 
Sodium-dependent serotonin transporter

>  <UniProt ID>  (1) 
P31645

>  <PDB ID.1>  (1) 
5I6X

>  <Seq. Identity>  (1) 
99%

$$$$
