PDB_DB00701_07
     RDKit          3D

 86 88  0  0  0  0  0  0  0  0999 V2000
    3.9620   -3.0972   -1.8262 C   0  0  0  0  0  0  0  0  0  0  0  0
    6.1018   -3.1050   -0.8295 C   0  0  0  0  0  0  0  0  0  0  0  0
    4.2241   -0.7788    0.7138 C   0  0  2  0  0  0  0  0  0  0  0  0
    4.8240   -2.2401   -0.9708 C   0  0  2  0  0  0  0  0  0  0  0  0
    1.8750   -0.1927    1.2841 C   0  0  2  0  0  0  0  0  0  0  0  0
    1.0839   -1.4466    1.0272 C   0  0  1  0  0  0  0  0  0  0  0  0
    1.6623    0.8477    0.1727 C   0  0  0  0  0  0  0  0  0  0  0  0
    2.4762    2.0858    0.4886 C   0  0  0  0  0  0  0  0  0  0  0  0
    2.0266    2.6422    1.8098 C   0  0  0  0  0  0  0  0  0  0  0  0
    2.1313    3.0958   -0.5965 C   0  0  0  0  0  0  0  0  0  0  0  0
    2.6047    4.0524    1.9644 C   0  0  0  0  0  0  0  0  0  0  0  0
    1.2412    4.1919   -0.0744 C   0  0  0  0  0  0  0  0  0  0  0  0
    2.0367    4.9768    0.9375 C   0  0  0  0  0  0  0  0  0  0  0  0
   -0.3582   -1.3266    1.2828 C   0  0  0  0  0  0  0  0  0  0  0  0
   -1.3250   -1.4796   -0.8766 C   0  0  0  0  0  0  0  0  0  0  0  0
   -1.6664   -0.8003   -2.1583 C   0  0  0  0  0  0  0  0  0  0  0  0
   -3.8337    0.2289    0.6302 C   0  0  0  0  0  0  0  0  0  0  0  0
   -4.8466    0.5333    1.8183 C   0  0  0  0  0  0  0  0  0  0  0  0
   -5.8276    1.5681    1.3331 C   0  0  0  0  0  0  0  0  0  0  0  0
   -6.8271    0.8596    0.4129 C   0  0  0  0  0  0  0  0  0  0  0  0
   -6.1765   -0.3544   -0.1524 C   0  0  0  0  0  0  0  0  0  0  0  0
   -4.7195   -0.1329   -0.4892 C   0  0  0  0  0  0  0  0  0  0  0  0
   -0.6037    0.2034   -2.5860 C   0  0  0  0  0  0  0  0  0  0  0  0
   -1.6422   -1.8946   -3.2382 C   0  0  0  0  0  0  0  0  0  0  0  0
    5.9228   -4.1258   -1.9024 C   0  0  0  0  0  0  0  0  0  0  0  0
    3.2343   -0.3079    1.5258 N   0  0  0  0  0  0  0  0  0  0  0  0
   -1.1745   -0.6606    0.2749 N   0  0  0  0  0  0  0  0  0  0  0  0
   -7.3371    1.7855   -0.5768 N   0  0  0  0  0  0  0  0  0  0  0  0
    4.2513   -2.0957    0.2964 O   0  0  0  0  0  0  0  0  0  0  0  0
    5.4833   -0.7162    1.4909 O   0  0  0  0  0  0  0  0  0  0  0  0
    1.5274   -2.0875   -0.0750 O   0  0  0  0  0  0  0  0  0  0  0  0
   -3.0711   -2.1963    1.4365 O   0  0  0  0  0  0  0  0  0  0  0  0
   -2.2104   -0.0982    2.7161 O   0  0  0  0  0  0  0  0  0  0  0  0
    4.8619   -3.7259   -2.6845 O   0  0  0  0  0  0  0  0  0  0  0  0
   -2.7922   -0.9412    1.2653 S   0  0  0  0  0  0  0  0  0  0  0  0
    3.2624   -2.4702   -2.4260 H   0  0  0  0  0  0  0  0  0  0  0  0
    3.3817   -3.8398   -1.2242 H   0  0  0  0  0  0  0  0  0  0  0  0
    6.9626   -2.4489   -0.9636 H   0  0  0  0  0  0  0  0  0  0  0  0
    6.0737   -3.5927    0.1748 H   0  0  0  0  0  0  0  0  0  0  0  0
    4.5673   -0.1421   -0.1635 H   0  0  0  0  0  0  0  0  0  0  0  0
    5.1002   -1.2869   -1.4438 H   0  0  0  0  0  0  0  0  0  0  0  0
    1.4222    0.3406    2.2020 H   0  0  0  0  0  0  0  0  0  0  0  0
    1.4483   -2.1388    1.8974 H   0  0  0  0  0  0  0  0  0  0  0  0
    0.6017    1.1645    0.1053 H   0  0  0  0  0  0  0  0  0  0  0  0
    1.9593    0.4502   -0.8056 H   0  0  0  0  0  0  0  0  0  0  0  0
    3.5506    1.9025    0.4345 H   0  0  0  0  0  0  0  0  0  0  0  0
    0.9262    2.6304    1.8813 H   0  0  0  0  0  0  0  0  0  0  0  0
    2.4810    1.9952    2.5956 H   0  0  0  0  0  0  0  0  0  0  0  0
    3.0293    3.5717   -1.0200 H   0  0  0  0  0  0  0  0  0  0  0  0
    1.6019    2.6228   -1.4601 H   0  0  0  0  0  0  0  0  0  0  0  0
    3.7184    3.9288    1.8989 H   0  0  0  0  0  0  0  0  0  0  0  0
    2.3452    4.3872    2.9960 H   0  0  0  0  0  0  0  0  0  0  0  0
    0.2930    3.8266    0.3645 H   0  0  0  0  0  0  0  0  0  0  0  0
    1.0090    4.8850   -0.9144 H   0  0  0  0  0  0  0  0  0  0  0  0
    1.4317    5.7612    1.4452 H   0  0  0  0  0  0  0  0  0  0  0  0
    2.8926    5.4737    0.4043 H   0  0  0  0  0  0  0  0  0  0  0  0
   -0.8338   -2.3437    1.4266 H   0  0  0  0  0  0  0  0  0  0  0  0
   -0.4844   -0.8350    2.2863 H   0  0  0  0  0  0  0  0  0  0  0  0
   -2.1887   -2.2301   -0.7269 H   0  0  0  0  0  0  0  0  0  0  0  0
   -0.4827   -2.1719   -1.0983 H   0  0  0  0  0  0  0  0  0  0  0  0
   -2.6053   -0.2977   -2.2600 H   0  0  0  0  0  0  0  0  0  0  0  0
   -3.3768    1.2518    0.5462 H   0  0  0  0  0  0  0  0  0  0  0  0
   -4.2837    0.8025    2.7084 H   0  0  0  0  0  0  0  0  0  0  0  0
   -5.3866   -0.4112    1.9773 H   0  0  0  0  0  0  0  0  0  0  0  0
   -5.3530    2.4129    0.7919 H   0  0  0  0  0  0  0  0  0  0  0  0
   -6.3471    1.9723    2.2028 H   0  0  0  0  0  0  0  0  0  0  0  0
   -7.6511    0.5061    1.0944 H   0  0  0  0  0  0  0  0  0  0  0  0
   -6.6658   -0.5638   -1.1488 H   0  0  0  0  0  0  0  0  0  0  0  0
   -6.3056   -1.2835    0.4173 H   0  0  0  0  0  0  0  0  0  0  0  0
   -4.6234    0.6356   -1.2916 H   0  0  0  0  0  0  0  0  0  0  0  0
   -4.3305   -1.0865   -0.9401 H   0  0  0  0  0  0  0  0  0  0  0  0
   -0.7269    1.1417   -2.0157 H   0  0  0  0  0  0  0  0  0  0  0  0
    0.4063   -0.1922   -2.4842 H   0  0  0  0  0  0  0  0  0  0  0  0
   -0.8396    0.4477   -3.6513 H   0  0  0  0  0  0  0  0  0  0  0  0
   -2.4696   -2.6038   -2.9684 H   0  0  0  0  0  0  0  0  0  0  0  0
   -1.7579   -1.4698   -4.2412 H   0  0  0  0  0  0  0  0  0  0  0  0
   -0.7091   -2.4894   -3.1649 H   0  0  0  0  0  0  0  0  0  0  0  0
    6.8396   -4.1991   -2.5356 H   0  0  0  0  0  0  0  0  0  0  0  0
    5.7601   -5.1636   -1.4951 H   0  0  0  0  0  0  0  0  0  0  0  0
    3.4999   -0.1865    2.5251 H   0  0  0  0  0  0  0  0  0  0  0  0
   -8.2712    2.1751   -0.2714 H   0  0  0  0  0  0  0  0  0  0  0  0
   -7.5595    1.2308   -1.4558 H   0  0  0  0  0  0  0  0  0  0  0  0
    5.3934    0.1488    1.9558 H   0  0  0  0  0  0  0  0  0  0  0  0
    1.7758   -1.5355   -0.8317 H   0  0  0  0  0  0  0  0  0  0  0  0
   -3.3286   -3.1300    1.4105 H   0  0  0  0  0  0  0  0  0  0  0  0
   -2.2711   -0.8208    3.4154 H   0  0  0  0  0  0  0  0  0  0  0  0
  1  4  1  0
  2  4  1  0
  5  6  1  0
  5  7  1  0
  7  8  1  0
  8  9  1  0
  8 10  1  0
  9 11  1  0
 10 12  1  0
 11 13  1  0
 12 13  1  0
  6 14  1  0
 15 16  1  0
 17 18  1  0
 18 19  1  0
 19 20  1  0
 20 21  1  0
 17 22  1  0
 21 22  1  0
 16 23  1  0
 16 24  1  0
  2 25  1  0
  3 26  1  0
  5 26  1  0
 14 27  1  0
 15 27  1  0
 20 28  1  0
  3 29  1  0
  4 29  1  0
  3 30  1  0
  6 31  1  0
  1 34  1  0
 25 34  1  0
 17 35  1  0
 27 35  1  0
 35 32  1  0
 33 35  1  0
  1 36  1  0
  1 37  1  0
  2 38  1  0
  2 39  1  0
  3 40  1  6
  4 41  1  6
  5 42  1  1
  6 43  1  1
  7 44  1  0
  7 45  1  0
  8 46  1  0
  9 47  1  0
  9 48  1  0
 10 49  1  0
 10 50  1  0
 11 51  1  0
 11 52  1  0
 12 53  1  0
 12 54  1  0
 13 55  1  0
 13 56  1  0
 14 57  1  0
 14 58  1  0
 15 59  1  0
 15 60  1  0
 16 61  1  0
 17 62  1  0
 18 63  1  0
 18 64  1  0
 19 65  1  0
 19 66  1  0
 20 67  1  0
 21 68  1  0
 21 69  1  0
 22 70  1  0
 22 71  1  0
 23 72  1  0
 23 73  1  0
 23 74  1  0
 24 75  1  0
 24 76  1  0
 24 77  1  0
 25 78  1  0
 25 79  1  0
 26 80  1  0
 28 81  1  0
 28 82  1  0
 30 83  1  0
 31 84  1  0
 32 85  1  0
 33 86  1  0
M  END
>  <PDBID>  (1) 
1HPV

>  <PDB ID>  (1) 
1HPV

>  <Generic Name>  (1) 
Amprenavir

>  <Brand Name>  (1) 
Agenerase#Agemerase#Prozei

>  <DrugBank ID>  (1) 
DB00701

>  <ATC Codes>  (1) 
J05AE05

>  <Ligand ID>  (1) 
478

>  <Target Name>  (1) 
Pol polyprotein

>  <UniProt ID>  (1) 
Q72874

>  <PDB ID.1>  (1) 
1HPV

>  <Seq. Identity>  (1) 
99%

$$$$
