PDB_DB04839_01
     RDKit          3D

 68 72  0  0  0  0  0  0  0  0999 V2000
    4.6270    0.9444   -0.2738 C   0  0  0  0  0  0  0  0  0  0  0  0
   -0.9464    0.7940    0.3894 C   0  0  1  0  0  0  0  0  0  0  0  0
    3.1603    0.9210   -0.6381 C   0  0  2  0  0  0  0  0  0  0  0  0
    2.4743    2.1856   -0.3358 C   0  0  0  0  0  0  0  0  0  0  0  0
    0.4857   -1.5987   -0.2679 C   0  0  0  0  0  0  0  0  0  0  0  0
    1.0682    2.1458    0.0878 C   0  0  0  0  0  0  0  0  0  0  0  0
    0.5280    0.8117    0.5113 C   0  0  2  0  0  0  0  0  0  0  0  0
    1.0955   -0.2570   -0.3686 C   0  0  1  0  0  0  0  0  0  0  0  0
    2.5850   -0.3097   -0.0296 C   0  0  2  0  0  0  0  0  0  0  0  0
   -1.0140   -1.4822   -0.4880 C   0  0  0  0  0  0  0  0  0  0  0  0
   -1.5525   -0.6084    0.5722 C   0  0  1  0  0  0  0  0  0  0  0  0
    5.3819   -0.2554   -0.6611 C   0  0  0  0  0  0  0  0  0  0  0  0
    2.7715   -0.2823    1.4940 C   0  0  0  0  0  0  0  0  0  0  0  0
    3.2276   -1.5583   -0.5148 C   0  0  1  0  0  0  0  0  0  0  0  0
    3.6846   -1.7617   -1.8972 C   0  0  0  0  0  0  0  0  0  0  0  0
    4.6557   -1.5393   -0.7223 C   0  0  1  0  0  0  0  0  0  0  0  0
    6.4574   -0.4075    0.2329 O   0  0  0  0  0  0  0  0  0  0  0  0
    2.6462    3.3147   -1.7340 Cl  0  0  0  0  0  0  0  0  0  0  0  0
   -1.3607   -1.1210    1.9380 C   0  0  0  0  0  0  0  0  0  0  0  0
   -1.7178    1.5420    1.4367 C   0  0  0  0  0  0  0  0  0  0  0  0
   -3.1230    0.9150    1.3357 C   0  0  0  0  0  0  0  0  0  0  0  0
   -3.0088   -0.1555    0.3027 C   0  0  2  0  0  0  0  0  0  0  0  0
   -3.9534   -1.2839    0.3559 C   0  0  0  0  0  0  0  0  0  0  0  0
   -4.2006   -1.9502    1.6622 C   0  0  0  0  0  0  0  0  0  0  0  0
   -5.2244   -0.8365   -0.0829 O   0  0  0  0  0  0  0  0  0  0  0  0
   -2.9055    0.3592   -0.9912 O   0  0  0  0  0  0  0  0  0  0  0  0
   -3.9561    0.9727   -1.5507 C   0  0  0  0  0  0  0  0  0  0  0  0
   -3.5116    2.4252   -1.8413 C   0  0  0  0  0  0  0  0  0  0  0  0
   -4.2794    0.4726   -2.8332 O   0  0  0  0  0  0  0  0  0  0  0  0
    4.7087    1.1618    0.8203 H   0  0  0  0  0  0  0  0  0  0  0  0
    5.0616    1.8420   -0.7779 H   0  0  0  0  0  0  0  0  0  0  0  0
   -1.2374    1.1386   -0.6083 H   0  0  0  0  0  0  0  0  0  0  0  0
    3.1344    0.7723   -1.7584 H   0  0  0  0  0  0  0  0  0  0  0  0
    3.0669    2.7021    0.4799 H   0  0  0  0  0  0  0  0  0  0  0  0
    0.8687   -2.2162   -1.1077 H   0  0  0  0  0  0  0  0  0  0  0  0
    0.7269   -2.1515    0.6577 H   0  0  0  0  0  0  0  0  0  0  0  0
    0.4153    2.5260   -0.7319 H   0  0  0  0  0  0  0  0  0  0  0  0
    0.8632    2.8550    0.9447 H   0  0  0  0  0  0  0  0  0  0  0  0
    0.8094    0.6221    1.5677 H   0  0  0  0  0  0  0  0  0  0  0  0
    1.0007    0.0938   -1.4265 H   0  0  0  0  0  0  0  0  0  0  0  0
   -1.1381   -0.9767   -1.4785 H   0  0  0  0  0  0  0  0  0  0  0  0
   -1.5163   -2.4656   -0.5075 H   0  0  0  0  0  0  0  0  0  0  0  0
    5.8737   -0.0898   -1.6647 H   0  0  0  0  0  0  0  0  0  0  0  0
    2.0459   -0.9450    1.9878 H   0  0  0  0  0  0  0  0  0  0  0  0
    2.8219    0.7325    1.8834 H   0  0  0  0  0  0  0  0  0  0  0  0
    3.7821   -0.7450    1.6962 H   0  0  0  0  0  0  0  0  0  0  0  0
    2.8062   -2.4857   -0.0215 H   0  0  0  0  0  0  0  0  0  0  0  0
    3.7226   -0.9628   -2.6545 H   0  0  0  0  0  0  0  0  0  0  0  0
    3.6441   -2.7755   -2.3431 H   0  0  0  0  0  0  0  0  0  0  0  0
    5.2514   -2.4621   -0.4726 H   0  0  0  0  0  0  0  0  0  0  0  0
    6.0895   -0.9434    0.9921 H   0  0  0  0  0  0  0  0  0  0  0  0
   -0.4014   -0.7574    2.3927 H   0  0  0  0  0  0  0  0  0  0  0  0
   -2.1136   -0.9354    2.6869 H   0  0  0  0  0  0  0  0  0  0  0  0
   -1.1829   -2.2351    1.8698 H   0  0  0  0  0  0  0  0  0  0  0  0
   -1.3071    1.4434    2.4490 H   0  0  0  0  0  0  0  0  0  0  0  0
   -1.7672    2.6331    1.2174 H   0  0  0  0  0  0  0  0  0  0  0  0
   -3.8686    1.6976    1.0805 H   0  0  0  0  0  0  0  0  0  0  0  0
   -3.4482    0.5126    2.3052 H   0  0  0  0  0  0  0  0  0  0  0  0
   -3.6962   -2.0660   -0.4323 H   0  0  0  0  0  0  0  0  0  0  0  0
   -4.4370   -1.2145    2.4319 H   0  0  0  0  0  0  0  0  0  0  0  0
   -5.1963   -2.5109    1.5253 H   0  0  0  0  0  0  0  0  0  0  0  0
   -3.4689   -2.7147    1.9670 H   0  0  0  0  0  0  0  0  0  0  0  0
   -5.7334   -1.5454   -0.5088 H   0  0  0  0  0  0  0  0  0  0  0  0
   -4.8780    1.1149   -0.9608 H   0  0  0  0  0  0  0  0  0  0  0  0
   -4.3741    3.0615   -2.0366 H   0  0  0  0  0  0  0  0  0  0  0  0
   -2.7603    2.4204   -2.6435 H   0  0  0  0  0  0  0  0  0  0  0  0
   -3.0358    2.7715   -0.8990 H   0  0  0  0  0  0  0  0  0  0  0  0
   -5.2275    0.7013   -3.0100 H   0  0  0  0  0  0  0  0  0  0  0  0
  1  3  1  0
  3  4  1  0
  4  6  1  0
  2  7  1  0
  6  7  1  0
  5  8  1  0
  7  8  1  0
  3  9  1  0
  8  9  1  0
  5 10  1  0
  2 11  1  0
 10 11  1  0
  1 12  1  0
  9 13  1  1
  9 14  1  0
 14 15  1  0
 12 16  1  0
 14 16  1  0
 15 16  1  0
 12 17  1  0
  4 18  1  0
 11 19  1  1
  2 20  1  0
 20 21  1  0
 11 22  1  0
 21 22  1  0
 22 23  1  0
 23 24  1  0
 23 25  1  0
 22 26  1  6
 26 27  1  0
 27 28  1  0
 27 29  1  0
  1 30  1  0
  1 31  1  0
  2 32  1  6
  3 33  1  6
  4 34  1  0
  5 35  1  0
  5 36  1  0
  6 37  1  0
  6 38  1  0
  7 39  1  1
  8 40  1  6
 10 41  1  0
 10 42  1  0
 12 43  1  0
 13 44  1  0
 13 45  1  0
 13 46  1  0
 14 47  1  1
 15 48  1  0
 15 49  1  0
 16 50  1  1
 17 51  1  0
 19 52  1  0
 19 53  1  0
 19 54  1  0
 20 55  1  0
 20 56  1  0
 21 57  1  0
 21 58  1  0
 23 59  1  0
 24 60  1  0
 24 61  1  0
 24 62  1  0
 25 63  1  0
 27 64  1  0
 28 65  1  0
 28 66  1  0
 28 67  1  0
 29 68  1  0
M  END
>  <PDBID>  (1) 
2OZ7

>  <PDB ID>  (1) 
2OZ7

>  <Generic Name>  (1) 
Cyproterone acetate

>  <Brand Name>  (1) 
Alti-cpa#Androcur#Androcur Depot#ClÃ©o -35#Cyestra-35#Cyproterone#Diane-35#Med-cyproterone#Mylan-cyproterone#Novo-cyproterone#Novo-cyproterone/ethinyl Estradiol#Ran-cyproterone/ethinyl Estradiol#Riva-cyproterone#Riva-cyproterone 50 mg#Cyprostat

>  <DrugBank ID>  (1) 
DB04839

>  <ATC Codes>  (1) 
G03HB01#G03HA01

>  <Ligand ID>  (1) 
CA4

>  <Target Name>  (1) 
Androgen receptor

>  <UniProt ID>  (1) 
P10275

>  <PDB ID.1>  (1) 
2OZ7

>  <Seq. Identity>  (1) 
100%

$$$$
