PDB_DB08877_02
     RDKit          3D

114120  0  0  0  0  0  0  0  0999 V2000
    3.6022   -1.2101    1.2411 C   0  0  0  0  0  0  0  0  0  0  0  0
    3.9171   -2.4086    0.3637 C   0  0  0  0  0  0  0  0  0  0  0  0
    4.4331   -1.8264   -0.9374 C   0  0  0  0  0  0  0  0  0  0  0  0
    3.7787   -0.4663   -1.0625 C   0  0  0  0  0  0  0  0  0  0  0  0
    3.4307   -0.0234    0.3424 C   0  0  0  0  0  0  0  0  0  0  0  0
    2.0993    0.6477    0.4153 C   0  0  1  0  0  0  0  0  0  0  0  0
    2.1167    1.8320   -0.5525 C   0  0  0  0  0  0  0  0  0  0  0  0
    3.1675    2.8437   -0.2359 C   0  0  0  0  0  0  0  0  0  0  0  0
    3.0898    3.9455   -1.2121 N   0  0  0  0  0  0  0  0  0  0  0  0
    0.9990   -0.1914   -0.0220 N   0  0  0  0  0  0  0  0  0  0  0  0
   -0.2395    0.5499    0.1218 C   0  0  0  0  0  0  0  0  0  0  0  0
    0.8636   -1.3824    0.6367 N   0  0  0  0  0  0  0  0  0  0  0  0
   -0.3089   -1.3822    1.4492 C   0  0  0  0  0  0  0  0  0  0  0  0
   -1.1999   -0.3582    0.8349 C   0  0  0  0  0  0  0  0  0  0  0  0
   -2.2306   -0.9185   -0.1016 C   0  0  0  0  0  0  0  0  0  0  0  0
   -3.1489   -1.8204    0.5590 N   0  0  0  0  0  0  0  0  0  0  0  0
   -3.6571   -1.2109    1.7427 C   0  0  0  0  0  0  0  0  0  0  0  0
   -4.2492    0.0671    1.6024 N   0  0  0  0  0  0  0  0  0  0  0  0
   -3.7569    0.9226    0.5841 C   0  0  0  0  0  0  0  0  0  0  0  0
   -3.1206    0.2298   -0.5779 C   0  0  0  0  0  0  0  0  0  0  0  0
   -4.3522   -0.3597   -1.2789 C   0  0  0  0  0  0  0  0  0  0  0  0
   -5.5403    0.3324   -0.6466 C   0  0  0  0  0  0  0  0  0  0  0  0
   -4.9281    1.5380   -0.0663 N   0  0  0  0  0  0  0  0  0  0  0  0
    3.3923   -1.0799    1.3468 C   0  0  0  0  0  0  0  0  0  0  0  0
    3.7650   -2.3227    0.6054 C   0  0  0  0  0  0  0  0  0  0  0  0
    4.0225   -1.9581   -0.8168 C   0  0  0  0  0  0  0  0  0  0  0  0
    3.9015   -0.4475   -0.9204 C   0  0  0  0  0  0  0  0  0  0  0  0
    3.4130    0.0797    0.3788 C   0  0  0  0  0  0  0  0  0  0  0  0
    2.1138    0.8302    0.3148 C   0  0  1  0  0  0  0  0  0  0  0  0
    2.2321    2.0027   -0.6600 C   0  0  0  0  0  0  0  0  0  0  0  0
    3.3065    2.9798   -0.2690 C   0  0  0  0  0  0  0  0  0  0  0  0
    3.2793    4.0355   -1.2954 N   0  0  0  0  0  0  0  0  0  0  0  0
    1.0049    0.0614   -0.1434 N   0  0  0  0  0  0  0  0  0  0  0  0
   -0.2184    0.6595    0.3998 C   0  0  0  0  0  0  0  0  0  0  0  0
    0.9855   -1.2685    0.1207 N   0  0  0  0  0  0  0  0  0  0  0  0
   -0.1730   -1.6471    0.8579 C   0  0  0  0  0  0  0  0  0  0  0  0
   -1.1084   -0.4754    0.7590 C   0  0  0  0  0  0  0  0  0  0  0  0
   -2.1628   -0.7946   -0.2553 C   0  0  1  0  0  0  0  0  0  0  0  0
   -2.9168   -1.9578    0.1816 N   0  0  0  0  0  0  0  0  0  0  0  0
   -3.5538   -1.8078    1.4440 C   0  0  0  0  0  0  0  0  0  0  0  0
   -4.3200   -0.6125    1.5988 N   0  0  0  0  0  0  0  0  0  0  0  0
   -3.7658    0.5680    1.0125 C   0  0  0  0  0  0  0  0  0  0  0  0
   -3.1271    0.3657   -0.3339 C   0  0  0  0  0  0  0  0  0  0  0  0
   -4.3178    0.0796   -1.2223 C   0  0  0  0  0  0  0  0  0  0  0  0
   -5.4879    0.5576   -0.4127 C   0  0  0  0  0  0  0  0  0  0  0  0
   -4.9208    1.4077    0.6417 N   0  0  0  0  0  0  0  0  0  0  0  0
    4.5230   -1.1050    1.8997 H   0  0  0  0  0  0  0  0  0  0  0  0
    2.7875   -1.3805    1.9541 H   0  0  0  0  0  0  0  0  0  0  0  0
    4.7155   -3.0490    0.7922 H   0  0  0  0  0  0  0  0  0  0  0  0
    3.0425   -3.0734    0.2232 H   0  0  0  0  0  0  0  0  0  0  0  0
    5.5371   -1.7243   -0.8959 H   0  0  0  0  0  0  0  0  0  0  0  0
    4.2028   -2.4752   -1.8075 H   0  0  0  0  0  0  0  0  0  0  0  0
    2.8436   -0.5115   -1.6518 H   0  0  0  0  0  0  0  0  0  0  0  0
    4.4614    0.2309   -1.5870 H   0  0  0  0  0  0  0  0  0  0  0  0
    4.2311    0.7011    0.6380 H   0  0  0  0  0  0  0  0  0  0  0  0
    1.8568    1.0090    1.4376 H   0  0  0  0  0  0  0  0  0  0  0  0
    1.1404    2.3643   -0.5656 H   0  0  0  0  0  0  0  0  0  0  0  0
    2.2487    1.4193   -1.5729 H   0  0  0  0  0  0  0  0  0  0  0  0
    3.0552    3.2672    0.7678 H   0  0  0  0  0  0  0  0  0  0  0  0
    4.1769    2.3863   -0.4177 H   0  0  0  0  0  0  0  0  0  0  0  0
    3.9197    4.5406   -1.0402 H   0  0  0  0  0  0  0  0  0  0  0  0
    2.2009    4.4667   -0.9887 H   0  0  0  0  0  0  0  0  0  0  0  0
   -0.0847    1.4562    0.7701 H   0  0  0  0  0  0  0  0  0  0  0  0
   -0.6251    0.8310   -0.8674 H   0  0  0  0  0  0  0  0  0  0  0  0
    0.8346   -2.1685   -0.0257 H   0  0  0  0  0  0  0  0  0  0  0  0
   -0.0948   -1.1641    2.5270 H   0  0  0  0  0  0  0  0  0  0  0  0
   -0.7466   -2.4066    1.4344 H   0  0  0  0  0  0  0  0  0  0  0  0
   -1.7171    0.2011    1.6683 H   0  0  0  0  0  0  0  0  0  0  0  0
   -1.7598   -1.4188   -0.9394 H   0  0  0  0  0  0  0  0  0  0  0  0
   -2.7656   -2.7409    0.7738 H   0  0  0  0  0  0  0  0  0  0  0  0
   -2.8959   -1.1913    2.5763 H   0  0  0  0  0  0  0  0  0  0  0  0
   -4.4545   -1.9051    2.1447 H   0  0  0  0  0  0  0  0  0  0  0  0
   -4.1564    0.5754    2.5310 H   0  0  0  0  0  0  0  0  0  0  0  0
   -3.0688    1.7224    0.9383 H   0  0  0  0  0  0  0  0  0  0  0  0
   -2.6043    0.9414   -1.2128 H   0  0  0  0  0  0  0  0  0  0  0  0
   -4.4001   -1.4501   -1.0700 H   0  0  0  0  0  0  0  0  0  0  0  0
   -4.2984   -0.1570   -2.3711 H   0  0  0  0  0  0  0  0  0  0  0  0
   -6.3327    0.5784   -1.3583 H   0  0  0  0  0  0  0  0  0  0  0  0
   -5.8936   -0.2804    0.2213 H   0  0  0  0  0  0  0  0  0  0  0  0
   -4.6448    2.1603   -0.8438 H   0  0  0  0  0  0  0  0  0  0  0  0
    4.1909   -0.9475    2.1439 H   0  0  0  0  0  0  0  0  0  0  0  0
    2.4581   -1.1530    1.9358 H   0  0  0  0  0  0  0  0  0  0  0  0
    4.6717   -2.8274    1.0583 H   0  0  0  0  0  0  0  0  0  0  0  0
    2.9725   -3.1211    0.7115 H   0  0  0  0  0  0  0  0  0  0  0  0
    5.0264   -2.3296   -1.1109 H   0  0  0  0  0  0  0  0  0  0  0  0
    3.3027   -2.4607   -1.5240 H   0  0  0  0  0  0  0  0  0  0  0  0
    3.3163   -0.1550   -1.8156 H   0  0  0  0  0  0  0  0  0  0  0  0
    4.9474   -0.0827   -1.1532 H   0  0  0  0  0  0  0  0  0  0  0  0
    4.1809    0.7962    0.7674 H   0  0  0  0  0  0  0  0  0  0  0  0
    1.8574    1.2698    1.2981 H   0  0  0  0  0  0  0  0  0  0  0  0
    1.2276    2.5097   -0.6274 H   0  0  0  0  0  0  0  0  0  0  0  0
    2.3908    1.5856   -1.6622 H   0  0  0  0  0  0  0  0  0  0  0  0
    3.1364    3.3868    0.7348 H   0  0  0  0  0  0  0  0  0  0  0  0
    4.3041    2.4560   -0.3571 H   0  0  0  0  0  0  0  0  0  0  0  0
    4.0308    4.7110   -1.0234 H   0  0  0  0  0  0  0  0  0  0  0  0
    2.3703    4.5377   -1.1928 H   0  0  0  0  0  0  0  0  0  0  0  0
    0.0186    1.2307    1.3441 H   0  0  0  0  0  0  0  0  0  0  0  0
   -0.6654    1.3557   -0.3147 H   0  0  0  0  0  0  0  0  0  0  0  0
    1.0352   -1.8544   -0.7590 H   0  0  0  0  0  0  0  0  0  0  0  0
   -0.6557   -2.5528    0.4081 H   0  0  0  0  0  0  0  0  0  0  0  0
    0.0403   -1.9282    1.9085 H   0  0  0  0  0  0  0  0  0  0  0  0
   -1.5575   -0.3547    1.7807 H   0  0  0  0  0  0  0  0  0  0  0  0
   -1.6861   -1.0393   -1.2080 H   0  0  0  0  0  0  0  0  0  0  0  0
   -3.4024   -2.4666   -0.5502 H   0  0  0  0  0  0  0  0  0  0  0  0
   -2.8151   -1.9338    2.2902 H   0  0  0  0  0  0  0  0  0  0  0  0
   -4.2563   -2.6721    1.5596 H   0  0  0  0  0  0  0  0  0  0  0  0
   -4.3991   -0.4301    2.6423 H   0  0  0  0  0  0  0  0  0  0  0  0
   -3.1609    1.1878    1.6955 H   0  0  0  0  0  0  0  0  0  0  0  0
   -2.6270    1.2878   -0.6250 H   0  0  0  0  0  0  0  0  0  0  0  0
   -4.4608   -0.9845   -1.4349 H   0  0  0  0  0  0  0  0  0  0  0  0
   -4.2578    0.6276   -2.2021 H   0  0  0  0  0  0  0  0  0  0  0  0
   -6.2434    1.0904   -1.0079 H   0  0  0  0  0  0  0  0  0  0  0  0
   -6.0267   -0.2716    0.0987 H   0  0  0  0  0  0  0  0  0  0  0  0
   -4.6081    2.2769    0.1395 H   0  0  0  0  0  0  0  0  0  0  0  0
  1  2  1  0
  2  3  1  0
  3  4  1  0
  1  5  1  0
  4  5  1  0
  5  6  1  0
  6  7  1  0
  7  8  1  0
  8  9  1  0
  6 10  1  0
 10 11  1  0
 10 12  1  0
 12 13  1  0
 11 14  1  0
 13 14  1  0
 14 15  1  0
 15 16  1  0
 16 17  1  0
 17 18  1  0
 18 19  1  0
 15 20  1  0
 19 20  1  0
 20 21  1  0
 21 22  1  0
 19 23  1  0
 22 23  1  0
 24 25  1  0
 25 26  1  0
 26 27  1  0
 24 28  1  0
 27 28  1  0
 28 29  1  0
 29 30  1  0
 30 31  1  0
 31 32  1  0
 29 33  1  0
 33 34  1  0
 33 35  1  0
 35 36  1  0
 34 37  1  0
 36 37  1  0
 37 38  1  0
 38 39  1  0
 39 40  1  0
 40 41  1  0
 41 42  1  0
 38 43  1  0
 42 43  1  0
 43 44  1  0
 44 45  1  0
 42 46  1  0
 45 46  1  0
  1 47  1  0
  1 48  1  0
  2 49  1  0
  2 50  1  0
  3 51  1  0
  3 52  1  0
  4 53  1  0
  4 54  1  0
  5 55  1  0
  6 56  1  1
  7 57  1  0
  7 58  1  0
  8 59  1  0
  8 60  1  0
  9 61  1  0
  9 62  1  0
 11 63  1  0
 11 64  1  0
 12 65  1  0
 13 66  1  0
 13 67  1  0
 14 68  1  0
 15 69  1  0
 16 70  1  0
 17 71  1  0
 17 72  1  0
 18 73  1  0
 19 74  1  0
 20 75  1  0
 21 76  1  0
 21 77  1  0
 22 78  1  0
 22 79  1  0
 23 80  1  0
 24 81  1  0
 24 82  1  0
 25 83  1  0
 25 84  1  0
 26 85  1  0
 26 86  1  0
 27 87  1  0
 27 88  1  0
 28 89  1  0
 29 90  1  1
 30 91  1  0
 30 92  1  0
 31 93  1  0
 31 94  1  0
 32 95  1  0
 32 96  1  0
 34 97  1  0
 34 98  1  0
 35 99  1  0
 36100  1  0
 36101  1  0
 37102  1  0
 38103  1  6
 39104  1  0
 40105  1  0
 40106  1  0
 41107  1  0
 42108  1  0
 43109  1  0
 44110  1  0
 44111  1  0
 45112  1  0
 45113  1  0
 46114  1  0
M  END
>  <PDBID>  (1) 
4U5J

>  <PDB ID>  (1) 
4U5J

>  <Generic Name>  (1) 
Ruxolitinib

>  <Brand Name>  (1) 
Jakafi#Jakavi

>  <DrugBank ID>  (1) 
DB08877

>  <ATC Codes>  (1) 
L01XE18

>  <Ligand ID>  (1) 
RXT

>  <Target Name>  (1) 
Tyrosine-protein kinase JAK2

>  <UniProt ID>  (1) 
O60674

>  <PDB ID.1>  (1) 
4U5J

>  <Seq. Identity>  (1) 
30%

$$$$
