PDB_DB01117_08
     RDKit          3D

 63 66  0  0  0  0  0  0  0  0999 V2000
   -1.6867    0.9182   -1.3844 O   0  0  0  0  0  0  0  0  0  0  0  0
   -4.5342   -1.8156    0.7496 O   0  0  0  0  0  0  0  0  0  0  0  0
   -1.9498    0.8537   -0.0333 C   0  0  0  0  0  0  0  0  0  0  0  0
   -1.5009   -0.4169    0.5992 C   0  0  0  0  0  0  0  0  0  0  0  0
   -2.2142   -1.6431    0.2013 C   0  0  0  0  0  0  0  0  0  0  0  0
   -3.6074   -1.4938   -0.2670 C   0  0  0  0  0  0  0  0  0  0  0  0
   -5.4994   -0.1120   -0.9224 C   0  0  0  0  0  0  0  0  0  0  0  0
   -6.0336    0.8783    0.0918 C   0  0  0  0  0  0  0  0  0  0  0  0
   -5.4844    2.2462   -0.3254 C   0  0  0  0  0  0  0  0  0  0  0  0
   -3.9928    2.2672   -0.2289 C   0  0  0  0  0  0  0  0  0  0  0  0
   -3.4783    0.9047    0.1117 C   0  0  0  0  0  0  0  0  0  0  0  0
   -3.9850   -0.1699   -0.8144 C   0  0  0  0  0  0  0  0  0  0  0  0
   -2.2336   -2.5198    1.3137 O   0  0  0  0  0  0  0  0  0  0  0  0
    0.7723    0.5549    1.0357 C   0  0  0  0  0  0  0  0  0  0  0  0
    2.2254    0.4099    0.6456 C   0  0  0  0  0  0  0  0  0  0  0  0
    2.5839   -0.9659    0.1803 C   0  0  0  0  0  0  0  0  0  0  0  0
    1.7886   -1.3222   -1.0530 C   0  0  0  0  0  0  0  0  0  0  0  0
    0.4088   -0.6499   -1.0290 C   0  0  0  0  0  0  0  0  0  0  0  0
   -0.0096   -0.5782    0.4048 C   0  0  0  0  0  0  0  0  0  0  0  0
    6.1980    2.3935   -0.7027 Cl  0  0  0  0  0  0  0  0  0  0  0  0
    4.0759   -1.0258   -0.0463 C   0  0  0  0  0  0  0  0  0  0  0  0
    4.8688   -0.7468    1.1806 C   0  0  0  0  0  0  0  0  0  0  0  0
    5.6704    0.5121    1.1682 C   0  0  0  0  0  0  0  0  0  0  0  0
    6.4771    0.7353   -0.0655 C   0  0  0  0  0  0  0  0  0  0  0  0
    6.0693   -0.2170   -1.1680 C   0  0  0  0  0  0  0  0  0  0  0  0
    4.5324   -0.1819   -1.2121 C   0  0  0  0  0  0  0  0  0  0  0  0
   -1.5076    1.8493   -1.6533 H   0  0  0  0  0  0  0  0  0  0  0  0
   -4.1867   -1.4587    1.6093 H   0  0  0  0  0  0  0  0  0  0  0  0
   -1.5808    1.7219    0.5431 H   0  0  0  0  0  0  0  0  0  0  0  0
   -1.6314   -0.2762    1.7140 H   0  0  0  0  0  0  0  0  0  0  0  0
   -1.5960   -2.2037   -0.5598 H   0  0  0  0  0  0  0  0  0  0  0  0
   -3.7935   -2.2615   -1.0659 H   0  0  0  0  0  0  0  0  0  0  0  0
   -5.7387    0.3235   -1.9357 H   0  0  0  0  0  0  0  0  0  0  0  0
   -5.9432   -1.1066   -0.8362 H   0  0  0  0  0  0  0  0  0  0  0  0
   -5.7625    0.6313    1.1176 H   0  0  0  0  0  0  0  0  0  0  0  0
   -7.1275    0.9324    0.0256 H   0  0  0  0  0  0  0  0  0  0  0  0
   -5.8047    2.3737   -1.3911 H   0  0  0  0  0  0  0  0  0  0  0  0
   -5.9792    2.9861    0.3396 H   0  0  0  0  0  0  0  0  0  0  0  0
   -3.7332    2.9370    0.6387 H   0  0  0  0  0  0  0  0  0  0  0  0
   -3.4959    2.6040   -1.1596 H   0  0  0  0  0  0  0  0  0  0  0  0
   -3.6985    0.5874    1.1449 H   0  0  0  0  0  0  0  0  0  0  0  0
   -3.4983   -0.0399   -1.8009 H   0  0  0  0  0  0  0  0  0  0  0  0
   -2.1460   -2.0102    2.1633 H   0  0  0  0  0  0  0  0  0  0  0  0
    0.6528    0.5674    2.1429 H   0  0  0  0  0  0  0  0  0  0  0  0
    0.4419    1.5524    0.6885 H   0  0  0  0  0  0  0  0  0  0  0  0
    2.4664    1.1110   -0.1876 H   0  0  0  0  0  0  0  0  0  0  0  0
    2.8154    0.6611    1.5471 H   0  0  0  0  0  0  0  0  0  0  0  0
    2.2973   -1.7255    0.9562 H   0  0  0  0  0  0  0  0  0  0  0  0
    1.6392   -2.4417   -1.0837 H   0  0  0  0  0  0  0  0  0  0  0  0
    2.3001   -1.0802   -2.0000 H   0  0  0  0  0  0  0  0  0  0  0  0
   -0.2541   -1.1888   -1.7006 H   0  0  0  0  0  0  0  0  0  0  0  0
    0.5791    0.3566   -1.4759 H   0  0  0  0  0  0  0  0  0  0  0  0
    0.2731   -1.5089    0.9388 H   0  0  0  0  0  0  0  0  0  0  0  0
    4.2856   -2.0914   -0.3539 H   0  0  0  0  0  0  0  0  0  0  0  0
    4.2185   -0.7049    2.0999 H   0  0  0  0  0  0  0  0  0  0  0  0
    5.5890   -1.5884    1.4089 H   0  0  0  0  0  0  0  0  0  0  0  0
    6.4123    0.4197    2.0171 H   0  0  0  0  0  0  0  0  0  0  0  0
    5.0772    1.4176    1.4416 H   0  0  0  0  0  0  0  0  0  0  0  0
    7.5858    0.6799    0.1096 H   0  0  0  0  0  0  0  0  0  0  0  0
    6.4481    0.1118   -2.1491 H   0  0  0  0  0  0  0  0  0  0  0  0
    6.4236   -1.2243   -0.8803 H   0  0  0  0  0  0  0  0  0  0  0  0
    4.2647    0.8816   -1.1187 H   0  0  0  0  0  0  0  0  0  0  0  0
    4.2469   -0.6102   -2.2014 H   0  0  0  0  0  0  0  0  0  0  0  0
  1  3  1  0
  3  4  1  0
  4  5  1  0
  2  6  1  0
  5  6  1  0
  7  8  1  0
  8  9  1  0
  9 10  1  0
  3 11  1  0
 10 11  1  0
  6 12  1  0
  7 12  1  0
 11 12  1  0
  5 13  1  0
 14 15  1  0
 15 16  1  0
 16 17  1  0
 17 18  1  0
  4 19  1  0
 14 19  1  0
 18 19  1  0
 16 21  1  0
 21 22  1  0
 22 23  1  0
 20 24  1  0
 23 24  1  0
 24 25  1  0
 21 26  1  0
 25 26  1  0
  1 27  1  0
  2 28  1  0
  3 29  1  0
  4 30  1  0
  5 31  1  0
  6 32  1  0
  7 33  1  0
  7 34  1  0
  8 35  1  0
  8 36  1  0
  9 37  1  0
  9 38  1  0
 10 39  1  0
 10 40  1  0
 11 41  1  0
 12 42  1  0
 13 43  1  0
 14 44  1  0
 14 45  1  0
 15 46  1  0
 15 47  1  0
 16 48  1  0
 17 49  1  0
 17 50  1  0
 18 51  1  0
 18 52  1  0
 19 53  1  0
 21 54  1  0
 22 55  1  0
 22 56  1  0
 23 57  1  0
 23 58  1  0
 24 59  1  0
 25 60  1  0
 25 61  1  0
 26 62  1  0
 26 63  1  0
M  END
>  <PDBID>  (1) 
4PD4

>  <PDB ID>  (1) 
4PD4

>  <Generic Name>  (1) 
Atovaquone

>  <Brand Name>  (1) 
Atovaquone#Atovaquone Proguanil#Atovaquone and Proguanil HCl#Atovaquone and Proguanil Hydrochloride#Atovaquone and Proguanil Hydrochloride Pediatric#Malarone#Malarone Pediatric#Mepron#Mepron Tab 250mg#Mylan-atovaquone/proguanil#Teva-atovaquone Proguanil

>  <DrugBank ID>  (1) 
DB01117

>  <ATC Codes>  (1) 
P01AX06

>  <Ligand ID>  (1) 
AOQ

>  <Target Name>  (1) 
Cytochrome b

>  <UniProt ID>  (1) 
Q02768

>  <PDB ID.1>  (1) 
4PD4

>  <Seq. Identity>  (1) 
42%

$$$$
