PDB_DB00224_00
     RDKit          3D

114118  0  0  0  0  0  0  0  0999 V2000
    4.0963    1.0762    0.0301 N   0  0  0  0  0  0  0  0  0  0  0  0
    3.5960    0.9770    1.3902 C   0  0  0  0  0  0  0  0  0  0  0  0
    3.1531   -0.4249    1.6499 C   0  0  1  0  0  0  0  0  0  0  0  0
    2.8851   -0.7286    3.0838 C   0  0  0  0  0  0  0  0  0  0  0  0
    2.4609   -2.1054    3.1514 O   0  0  0  0  0  0  0  0  0  0  0  0
    3.9498   -0.4808    3.9349 N   0  0  0  0  0  0  0  0  0  0  0  0
    5.1551   -1.1526    3.9597 C   0  0  0  0  0  0  0  0  0  0  0  0
    5.0441   -2.6454    4.2629 C   0  0  0  0  0  0  0  0  0  0  0  0
    6.1434   -0.9246    2.8850 C   0  0  0  0  0  0  0  0  0  0  0  0
    5.8821   -0.6149    5.2518 C   0  0  0  0  0  0  0  0  0  0  0  0
    1.9187   -0.6479    0.8439 N   0  0  0  0  0  0  0  0  0  0  0  0
    2.3509   -0.5597   -0.5387 C   0  0  0  0  0  0  0  0  0  0  0  0
    3.7930   -0.1082   -0.7073 C   0  0  0  0  0  0  0  0  0  0  0  0
    0.9377    0.3265    1.1211 C   0  0  0  0  0  0  0  0  0  0  0  0
   -0.4565   -0.1256    0.7996 C   0  0  1  0  0  0  0  0  0  0  0  0
   -1.3682    0.8984    1.1707 O   0  0  0  0  0  0  0  0  0  0  0  0
   -0.6247   -0.5293   -0.5970 C   0  0  0  0  0  0  0  0  0  0  0  0
   -2.0085   -1.0215   -1.0064 C   0  0  1  0  0  0  0  0  0  0  0  0
   -2.3845   -2.2016   -0.2013 C   0  0  0  0  0  0  0  0  0  0  0  0
   -3.7286   -2.8006   -0.5142 C   0  0  0  0  0  0  0  0  0  0  0  0
   -4.0051   -4.0006    0.3876 C   0  0  0  0  0  0  0  0  0  0  0  0
   -5.1227   -4.7865   -0.2601 C   0  0  0  0  0  0  0  0  0  0  0  0
   -4.5000   -5.5502   -1.4210 C   0  0  0  0  0  0  0  0  0  0  0  0
   -3.6403   -4.6222   -2.2594 C   0  0  0  0  0  0  0  0  0  0  0  0
   -3.9414   -3.1710   -1.9437 C   0  0  0  0  0  0  0  0  0  0  0  0
   -3.0232    0.0289   -1.2238 C   0  0  2  0  0  0  0  0  0  0  0  0
   -2.5283    0.8731   -2.2517 O   0  0  0  0  0  0  0  0  0  0  0  0
   -3.5363    0.7367   -0.1196 N   0  0  0  0  0  0  0  0  0  0  0  0
   -4.3224    1.8685   -0.5611 C   0  0  2  0  0  0  0  0  0  0  0  0
   -4.6324    2.7914    0.6016 C   0  0  2  0  0  0  0  0  0  0  0  0
   -4.0555    2.3077    1.7926 O   0  0  0  0  0  0  0  0  0  0  0  0
   -6.1078    2.8683    0.7775 C   0  0  0  0  0  0  0  0  0  0  0  0
   -6.6576    1.7500   -0.0379 C   0  0  0  0  0  0  0  0  0  0  0  0
   -7.9738    2.0619   -0.7060 C   0  0  0  0  0  0  0  0  0  0  0  0
   -7.9024    3.3230   -1.5380 C   0  0  0  0  0  0  0  0  0  0  0  0
   -6.5723    3.4608   -2.2369 C   0  0  0  0  0  0  0  0  0  0  0  0
   -5.9722    2.0918   -2.4297 C   0  0  0  0  0  0  0  0  0  0  0  0
   -5.6427    1.4257   -1.1118 C   0  0  0  0  0  0  0  0  0  0  0  0
    5.5231    1.2784    0.0326 C   0  0  0  0  0  0  0  0  0  0  0  0
    5.9591    1.4962   -1.4224 C   0  0  0  0  0  0  0  0  0  0  0  0
    5.2571    2.6964   -1.9602 C   0  0  0  0  0  0  0  0  0  0  0  0
    6.1647    3.4798   -2.7776 N   0  0  0  0  0  0  0  0  0  0  0  0
    6.9244    2.6737   -3.6910 C   0  0  0  0  0  0  0  0  0  0  0  0
    7.8159    1.6820   -2.9674 C   0  0  0  0  0  0  0  0  0  0  0  0
    7.4672    1.7260   -1.4723 C   0  0  0  0  0  0  0  0  0  0  0  0
    4.3734    1.3239    2.0944 H   0  0  0  0  0  0  0  0  0  0  0  0
    2.7230    1.6516    1.5459 H   0  0  0  0  0  0  0  0  0  0  0  0
    3.8660   -1.1425    1.2341 H   0  0  0  0  0  0  0  0  0  0  0  0
    1.9573   -0.2147    3.4911 H   0  0  0  0  0  0  0  0  0  0  0  0
    2.1707   -2.4126    2.2738 H   0  0  0  0  0  0  0  0  0  0  0  0
    3.8662    0.3441    4.5714 H   0  0  0  0  0  0  0  0  0  0  0  0
    4.3809   -2.7454    5.1506 H   0  0  0  0  0  0  0  0  0  0  0  0
    4.7207   -3.2165    3.3959 H   0  0  0  0  0  0  0  0  0  0  0  0
    6.0576   -2.9613    4.6025 H   0  0  0  0  0  0  0  0  0  0  0  0
    7.1888   -1.2516    3.2456 H   0  0  0  0  0  0  0  0  0  0  0  0
    5.9989   -1.5861    2.0082 H   0  0  0  0  0  0  0  0  0  0  0  0
    6.3157    0.1384    2.6353 H   0  0  0  0  0  0  0  0  0  0  0  0
    6.0539    0.4554    4.9966 H   0  0  0  0  0  0  0  0  0  0  0  0
    5.0999   -0.6490    6.0205 H   0  0  0  0  0  0  0  0  0  0  0  0
    6.7804   -1.1954    5.4503 H   0  0  0  0  0  0  0  0  0  0  0  0
    1.7659    0.1778   -1.1159 H   0  0  0  0  0  0  0  0  0  0  0  0
    2.3194   -1.5585   -1.0250 H   0  0  0  0  0  0  0  0  0  0  0  0
    3.8536    0.1817   -1.8069 H   0  0  0  0  0  0  0  0  0  0  0  0
    4.4839   -0.9390   -0.6103 H   0  0  0  0  0  0  0  0  0  0  0  0
    1.0899    1.2353    0.4297 H   0  0  0  0  0  0  0  0  0  0  0  0
    0.9938    0.8115    2.1250 H   0  0  0  0  0  0  0  0  0  0  0  0
   -0.7341   -0.9915    1.4743 H   0  0  0  0  0  0  0  0  0  0  0  0
   -1.1320    1.0986    2.1116 H   0  0  0  0  0  0  0  0  0  0  0  0
    0.0542   -1.3678   -0.8456 H   0  0  0  0  0  0  0  0  0  0  0  0
   -0.4421    0.3282   -1.3028 H   0  0  0  0  0  0  0  0  0  0  0  0
   -1.7945   -1.4348   -2.0629 H   0  0  0  0  0  0  0  0  0  0  0  0
   -2.3513   -2.0435    0.8969 H   0  0  0  0  0  0  0  0  0  0  0  0
   -1.6470   -3.0432   -0.3674 H   0  0  0  0  0  0  0  0  0  0  0  0
   -4.5131   -2.0598   -0.2526 H   0  0  0  0  0  0  0  0  0  0  0  0
   -4.3434   -3.6248    1.3634 H   0  0  0  0  0  0  0  0  0  0  0  0
   -3.0816   -4.6231    0.4646 H   0  0  0  0  0  0  0  0  0  0  0  0
   -5.6075   -5.4991    0.4311 H   0  0  0  0  0  0  0  0  0  0  0  0
   -5.8478   -4.0515   -0.6965 H   0  0  0  0  0  0  0  0  0  0  0  0
   -5.2737   -6.0721   -2.0027 H   0  0  0  0  0  0  0  0  0  0  0  0
   -3.8367   -6.3185   -0.9747 H   0  0  0  0  0  0  0  0  0  0  0  0
   -2.5681   -4.8032   -2.1671 H   0  0  0  0  0  0  0  0  0  0  0  0
   -3.9285   -4.7715   -3.3234 H   0  0  0  0  0  0  0  0  0  0  0  0
   -3.3056   -2.5710   -2.6076 H   0  0  0  0  0  0  0  0  0  0  0  0
   -4.9910   -2.9956   -2.2833 H   0  0  0  0  0  0  0  0  0  0  0  0
   -3.9318   -0.4443   -1.7372 H   0  0  0  0  0  0  0  0  0  0  0  0
   -1.9888    1.5976   -1.8873 H   0  0  0  0  0  0  0  0  0  0  0  0
   -4.1609    0.1586    0.4736 H   0  0  0  0  0  0  0  0  0  0  0  0
   -3.7520    2.4524   -1.3318 H   0  0  0  0  0  0  0  0  0  0  0  0
   -4.1675    3.8036    0.4409 H   0  0  0  0  0  0  0  0  0  0  0  0
   -4.5025    1.4755    2.0524 H   0  0  0  0  0  0  0  0  0  0  0  0
   -6.3788    2.7231    1.8657 H   0  0  0  0  0  0  0  0  0  0  0  0
   -6.5347    3.8588    0.5148 H   0  0  0  0  0  0  0  0  0  0  0  0
   -6.8312    0.8697    0.6132 H   0  0  0  0  0  0  0  0  0  0  0  0
   -8.1986    1.2117   -1.3963 H   0  0  0  0  0  0  0  0  0  0  0  0
   -8.7537    2.1342    0.0606 H   0  0  0  0  0  0  0  0  0  0  0  0
   -8.0526    4.1998   -0.8898 H   0  0  0  0  0  0  0  0  0  0  0  0
   -8.7350    3.2828   -2.2644 H   0  0  0  0  0  0  0  0  0  0  0  0
   -5.8910    4.1730   -1.7741 H   0  0  0  0  0  0  0  0  0  0  0  0
   -6.7847    3.8559   -3.2716 H   0  0  0  0  0  0  0  0  0  0  0  0
   -5.0370    2.1146   -3.0149 H   0  0  0  0  0  0  0  0  0  0  0  0
   -6.7018    1.4597   -2.9574 H   0  0  0  0  0  0  0  0  0  0  0  0
   -5.7091    0.3331   -1.2783 H   0  0  0  0  0  0  0  0  0  0  0  0
    6.0147    0.2889    0.2927 H   0  0  0  0  0  0  0  0  0  0  0  0
    5.8724    2.0670    0.6962 H   0  0  0  0  0  0  0  0  0  0  0  0
    5.7938    0.5627   -1.9782 H   0  0  0  0  0  0  0  0  0  0  0  0
    4.8862    3.3031   -1.1000 H   0  0  0  0  0  0  0  0  0  0  0  0
    4.3905    2.3564   -2.5806 H   0  0  0  0  0  0  0  0  0  0  0  0
    6.7302    4.1047   -2.1905 H   0  0  0  0  0  0  0  0  0  0  0  0
    6.2492    2.1809   -4.4084 H   0  0  0  0  0  0  0  0  0  0  0  0
    7.5830    3.3563   -4.2641 H   0  0  0  0  0  0  0  0  0  0  0  0
    8.8647    1.9471   -3.0818 H   0  0  0  0  0  0  0  0  0  0  0  0
    7.5915    0.6700   -3.3498 H   0  0  0  0  0  0  0  0  0  0  0  0
    7.6676    2.7122   -1.0328 H   0  0  0  0  0  0  0  0  0  0  0  0
    7.9811    0.8916   -0.9590 H   0  0  0  0  0  0  0  0  0  0  0  0
  1  2  1  0
  2  3  1  0
  3  4  1  0
  4  5  1  0
  4  6  1  0
  7  6  1  0
  7  8  1  0
  7  9  1  0
  7 10  1  0
  3 11  1  0
 11 12  1  0
  1 13  1  0
 12 13  1  0
 11 14  1  0
 14 15  1  0
 15 16  1  0
 15 17  1  0
 17 18  1  0
 18 19  1  0
 19 20  1  0
 20 21  1  0
 21 22  1  0
 22 23  1  0
 23 24  1  0
 20 25  1  0
 24 25  1  0
 18 26  1  0
 26 27  1  0
 26 28  1  0
 28 29  1  0
 29 30  1  0
 30 31  1  0
 30 32  1  0
 32 33  1  0
 33 34  1  0
 34 35  1  0
 35 36  1  0
 36 37  1  0
 29 38  1  0
 33 38  1  0
 37 38  1  0
  1 39  1  0
 39 40  1  0
 40 41  1  0
 41 42  1  0
 42 43  1  0
 43 44  1  0
 40 45  1  0
 44 45  1  0
  2 46  1  0
  2 47  1  0
  3 48  1  6
  4 49  1  0
  5 50  1  0
  6 51  1  0
  8 52  1  0
  8 53  1  0
  8 54  1  0
  9 55  1  0
  9 56  1  0
  9 57  1  0
 10 58  1  0
 10 59  1  0
 10 60  1  0
 12 61  1  0
 12 62  1  0
 13 63  1  0
 13 64  1  0
 14 65  1  0
 14 66  1  0
 15 67  1  1
 16 68  1  0
 17 69  1  0
 17 70  1  0
 18 71  1  6
 19 72  1  0
 19 73  1  0
 20 74  1  0
 21 75  1  0
 21 76  1  0
 22 77  1  0
 22 78  1  0
 23 79  1  0
 23 80  1  0
 24 81  1  0
 24 82  1  0
 25 83  1  0
 25 84  1  0
 26 85  1  6
 27 86  1  0
 28 87  1  0
 29 88  1  6
 30 89  1  6
 31 90  1  0
 32 91  1  0
 32 92  1  0
 33 93  1  0
 34 94  1  0
 34 95  1  0
 35 96  1  0
 35 97  1  0
 36 98  1  0
 36 99  1  0
 37100  1  0
 37101  1  0
 38102  1  0
 39103  1  0
 39104  1  0
 40105  1  0
 41106  1  0
 41107  1  0
 42108  1  0
 43109  1  0
 43110  1  0
 44111  1  0
 44112  1  0
 45113  1  0
 45114  1  0
M  END
>  <PDBID>  (1) 
1HSG

>  <PDB ID>  (1) 
1HSG

>  <Generic Name>  (1) 
Indinavir

>  <Brand Name>  (1) 
Crixivan

>  <DrugBank ID>  (1) 
DB00224

>  <ATC Codes>  (1) 
J05AE02

>  <Ligand ID>  (1) 
MK1

>  <Target Name>  (1) 
Pol polyprotein

>  <UniProt ID>  (1) 
Q72874

>  <PDB ID.1>  (1) 
1HSG

>  <Seq. Identity>  (1) 
99%

$$$$
