PDB_DB00806_02
     RDKit          3D

 96 98  0  0  0  0  0  0  0  0999 V2000
    5.8513    0.3038   -1.3704 C   0  0  0  0  0  0  0  0  0  0  0  0
    4.3460    0.2346   -1.0245 C   0  0  0  0  0  0  0  0  0  0  0  0
    3.9103    1.5138   -0.7073 O   0  0  0  0  0  0  0  0  0  0  0  0
    4.1418   -0.7198    0.1169 C   0  0  0  0  0  0  0  0  0  0  0  0
    2.7299   -0.9030    0.5392 C   0  0  0  0  0  0  0  0  0  0  0  0
    2.0191    0.2912    1.0452 C   0  0  0  0  0  0  0  0  0  0  0  0
    0.6022   -0.0302    1.4825 C   0  0  0  0  0  0  0  0  0  0  0  0
   -0.2580   -0.5648    0.5300 N   0  0  0  0  0  0  0  0  0  0  0  0
   -0.7107    0.2780   -0.5071 C   0  0  0  0  0  0  0  0  0  0  0  0
    0.2755    1.1017   -0.9724 O   0  0  0  0  0  0  0  0  0  0  0  0
   -1.9718    1.0467   -0.1321 C   0  0  0  0  0  0  0  0  0  0  0  0
   -2.7206    1.3757   -1.3481 N   0  0  0  0  0  0  0  0  0  0  0  0
   -3.8832    2.1521   -0.8964 C   0  0  0  0  0  0  0  0  0  0  0  0
   -3.2662    0.0737   -1.7469 C   0  0  0  0  0  0  0  0  0  0  0  0
   -3.4363   -0.6755   -0.5287 N   0  0  0  0  0  0  0  0  0  0  0  0
   -2.9433    0.1469    0.5589 C   0  0  0  0  0  0  0  0  0  0  0  0
   -2.3047   -0.6088    1.6122 N   0  0  0  0  0  0  0  0  0  0  0  0
   -3.2488   -1.3592    2.3961 C   0  0  0  0  0  0  0  0  0  0  0  0
   -1.3007   -1.4421    0.9806 C   0  0  0  0  0  0  0  0  0  0  0  0
   -0.8821   -2.3827    1.9115 O   0  0  0  0  0  0  0  0  0  0  0  0
    5.8513    0.3038   -1.3704 C   0  0  0  0  0  0  0  0  0  0  0  0
    4.3460    0.2346   -1.0245 C   0  0  0  0  0  0  0  0  0  0  0  0
    3.9103    1.5138   -0.7073 O   0  0  0  0  0  0  0  0  0  0  0  0
    4.1418   -0.7198    0.1169 C   0  0  0  0  0  0  0  0  0  0  0  0
    2.7299   -0.9030    0.5392 C   0  0  0  0  0  0  0  0  0  0  0  0
    2.0191    0.2912    1.0452 C   0  0  0  0  0  0  0  0  0  0  0  0
    0.6022   -0.0302    1.4825 C   0  0  0  0  0  0  0  0  0  0  0  0
   -0.2580   -0.5648    0.5300 N   0  0  0  0  0  0  0  0  0  0  0  0
   -0.7107    0.2780   -0.5071 C   0  0  0  0  0  0  0  0  0  0  0  0
    0.2755    1.1017   -0.9724 O   0  0  0  0  0  0  0  0  0  0  0  0
   -1.9718    1.0467   -0.1321 C   0  0  0  0  0  0  0  0  0  0  0  0
   -2.7206    1.3757   -1.3481 N   0  0  0  0  0  0  0  0  0  0  0  0
   -3.8832    2.1521   -0.8964 C   0  0  0  0  0  0  0  0  0  0  0  0
   -3.2662    0.0737   -1.7469 C   0  0  0  0  0  0  0  0  0  0  0  0
   -3.4363   -0.6755   -0.5287 N   0  0  0  0  0  0  0  0  0  0  0  0
   -2.9433    0.1469    0.5589 C   0  0  0  0  0  0  0  0  0  0  0  0
   -2.3047   -0.6088    1.6122 N   0  0  0  0  0  0  0  0  0  0  0  0
   -3.2488   -1.3592    2.3961 C   0  0  0  0  0  0  0  0  0  0  0  0
   -1.3007   -1.4421    0.9806 C   0  0  0  0  0  0  0  0  0  0  0  0
   -0.8821   -2.3827    1.9115 O   0  0  0  0  0  0  0  0  0  0  0  0
    6.1362   -0.7702   -1.5426 H   0  0  0  0  0  0  0  0  0  0  0  0
    5.9291    0.9256   -2.2850 H   0  0  0  0  0  0  0  0  0  0  0  0
    6.3949    0.7215   -0.5075 H   0  0  0  0  0  0  0  0  0  0  0  0
    3.8118   -0.1118   -1.9469 H   0  0  0  0  0  0  0  0  0  0  0  0
    4.2601    2.1365   -1.3933 H   0  0  0  0  0  0  0  0  0  0  0  0
    4.6195   -1.7249   -0.1385 H   0  0  0  0  0  0  0  0  0  0  0  0
    4.7908   -0.3917    0.9920 H   0  0  0  0  0  0  0  0  0  0  0  0
    2.1683   -1.3065   -0.3716 H   0  0  0  0  0  0  0  0  0  0  0  0
    2.7027   -1.7681    1.2465 H   0  0  0  0  0  0  0  0  0  0  0  0
    2.5409    0.6265    1.9968 H   0  0  0  0  0  0  0  0  0  0  0  0
    2.0591    1.1271    0.3582 H   0  0  0  0  0  0  0  0  0  0  0  0
    0.6392   -0.6980    2.3937 H   0  0  0  0  0  0  0  0  0  0  0  0
    0.2133    0.9431    1.9131 H   0  0  0  0  0  0  0  0  0  0  0  0
   -0.9918   -0.3866   -1.3670 H   0  0  0  0  0  0  0  0  0  0  0  0
   -0.0301    1.7710   -1.6351 H   0  0  0  0  0  0  0  0  0  0  0  0
   -1.7502    1.9796    0.4174 H   0  0  0  0  0  0  0  0  0  0  0  0
   -4.7206    1.4881   -0.6068 H   0  0  0  0  0  0  0  0  0  0  0  0
   -3.6289    2.8120   -0.0489 H   0  0  0  0  0  0  0  0  0  0  0  0
   -4.2637    2.7580   -1.7624 H   0  0  0  0  0  0  0  0  0  0  0  0
   -4.2482    0.2983   -2.2630 H   0  0  0  0  0  0  0  0  0  0  0  0
   -2.6601   -0.4321   -2.5001 H   0  0  0  0  0  0  0  0  0  0  0  0
   -4.4655   -0.8580   -0.4153 H   0  0  0  0  0  0  0  0  0  0  0  0
   -3.7636    0.7409    1.0263 H   0  0  0  0  0  0  0  0  0  0  0  0
   -4.2829   -0.9720    2.2982 H   0  0  0  0  0  0  0  0  0  0  0  0
   -3.2469   -2.4058    2.0496 H   0  0  0  0  0  0  0  0  0  0  0  0
   -2.9846   -1.2975    3.4797 H   0  0  0  0  0  0  0  0  0  0  0  0
   -1.7865   -1.9158    0.1050 H   0  0  0  0  0  0  0  0  0  0  0  0
   -0.3920   -3.1215    1.4578 H   0  0  0  0  0  0  0  0  0  0  0  0
    6.1362   -0.7702   -1.5426 H   0  0  0  0  0  0  0  0  0  0  0  0
    5.9291    0.9256   -2.2850 H   0  0  0  0  0  0  0  0  0  0  0  0
    6.3949    0.7215   -0.5075 H   0  0  0  0  0  0  0  0  0  0  0  0
    3.8118   -0.1118   -1.9469 H   0  0  0  0  0  0  0  0  0  0  0  0
    4.2601    2.1365   -1.3933 H   0  0  0  0  0  0  0  0  0  0  0  0
    4.6195   -1.7249   -0.1385 H   0  0  0  0  0  0  0  0  0  0  0  0
    4.7908   -0.3917    0.9920 H   0  0  0  0  0  0  0  0  0  0  0  0
    2.1683   -1.3065   -0.3716 H   0  0  0  0  0  0  0  0  0  0  0  0
    2.7027   -1.7681    1.2465 H   0  0  0  0  0  0  0  0  0  0  0  0
    2.5409    0.6265    1.9968 H   0  0  0  0  0  0  0  0  0  0  0  0
    2.0591    1.1271    0.3582 H   0  0  0  0  0  0  0  0  0  0  0  0
    0.6392   -0.6980    2.3937 H   0  0  0  0  0  0  0  0  0  0  0  0
    0.2133    0.9431    1.9131 H   0  0  0  0  0  0  0  0  0  0  0  0
   -0.9918   -0.3866   -1.3670 H   0  0  0  0  0  0  0  0  0  0  0  0
   -0.0301    1.7710   -1.6351 H   0  0  0  0  0  0  0  0  0  0  0  0
   -1.7502    1.9796    0.4174 H   0  0  0  0  0  0  0  0  0  0  0  0
   -4.7206    1.4881   -0.6068 H   0  0  0  0  0  0  0  0  0  0  0  0
   -3.6289    2.8120   -0.0489 H   0  0  0  0  0  0  0  0  0  0  0  0
   -4.2637    2.7580   -1.7624 H   0  0  0  0  0  0  0  0  0  0  0  0
   -4.2482    0.2983   -2.2630 H   0  0  0  0  0  0  0  0  0  0  0  0
   -2.6601   -0.4321   -2.5001 H   0  0  0  0  0  0  0  0  0  0  0  0
   -4.4655   -0.8580   -0.4153 H   0  0  0  0  0  0  0  0  0  0  0  0
   -3.7636    0.7409    1.0263 H   0  0  0  0  0  0  0  0  0  0  0  0
   -4.2829   -0.9720    2.2982 H   0  0  0  0  0  0  0  0  0  0  0  0
   -3.2469   -2.4058    2.0496 H   0  0  0  0  0  0  0  0  0  0  0  0
   -2.9846   -1.2975    3.4797 H   0  0  0  0  0  0  0  0  0  0  0  0
   -1.7865   -1.9158    0.1050 H   0  0  0  0  0  0  0  0  0  0  0  0
   -0.3920   -3.1215    1.4578 H   0  0  0  0  0  0  0  0  0  0  0  0
  1  2  1  0
  2  3  1  0
  2  4  1  0
  4  5  1  0
  5  6  1  0
  6  7  1  0
  7  8  1  0
  8  9  1  0
  9 10  1  0
  9 11  1  0
 11 12  1  0
 12 13  1  0
 12 14  1  0
 14 15  1  0
 11 16  1  0
 15 16  1  0
 16 17  1  0
 17 18  1  0
  8 19  1  0
 17 19  1  0
 19 20  1  0
 21 22  1  0
 22 23  1  0
 22 24  1  0
 24 25  1  0
 25 26  1  0
 26 27  1  0
 27 28  1  0
 28 29  1  0
 29 30  1  0
 29 31  1  0
 31 32  1  0
 32 33  1  0
 32 34  1  0
 34 35  1  0
 31 36  1  0
 35 36  1  0
 36 37  1  0
 37 38  1  0
 28 39  1  0
 37 39  1  0
 39 40  1  0
  1 41  1  0
  1 42  1  0
  1 43  1  0
  2 44  1  0
  3 45  1  0
  4 46  1  0
  4 47  1  0
  5 48  1  0
  5 49  1  0
  6 50  1  0
  6 51  1  0
  7 52  1  0
  7 53  1  0
  9 54  1  0
 10 55  1  0
 11 56  1  0
 13 57  1  0
 13 58  1  0
 13 59  1  0
 14 60  1  0
 14 61  1  0
 15 62  1  0
 16 63  1  0
 18 64  1  0
 18 65  1  0
 18 66  1  0
 19 67  1  0
 20 68  1  0
 21 69  1  0
 21 70  1  0
 21 71  1  0
 22 72  1  0
 23 73  1  0
 24 74  1  0
 24 75  1  0
 25 76  1  0
 25 77  1  0
 26 78  1  0
 26 79  1  0
 27 80  1  0
 27 81  1  0
 29 82  1  0
 30 83  1  0
 31 84  1  0
 33 85  1  0
 33 86  1  0
 33 87  1  0
 34 88  1  0
 34 89  1  0
 35 90  1  0
 36 91  1  0
 38 92  1  0
 38 93  1  0
 38 94  1  0
 39 95  1  0
 40 96  1  0
M  END
>  <PDBID>  (1) 
3TVX

>  <PDB ID>  (1) 
3TVX

>  <Generic Name>  (1) 
Pentoxifylline

>  <Brand Name>  (1) 
Gapeam Budibac#Nu-pentoxifylline-SR 400 mg#Pentoxifylline#Pentoxifylline SR#Ratio-pentoxifylline#Trental#Trental Srt 400mg#Trental Tab 400mg#Agapurin#Agapurin SR#An Ruo Ning#Angiopent#Ao Le Ni#Ao Nuo Hong#Aotong#Azupentat#Behrifil#Bo Shu Te#Claudicat#Durapental#Elorgan#Endopentoksas#Pentilin#Pentilin Retard#Pentoflux#Pentofyllin#Pentoksifilin#Pentolab#Pentomer#Pentoxil#Rentylin#Torental#Trentilin Retard

>  <DrugBank ID>  (1) 
DB00806

>  <ATC Codes>  (1) 
C04AD03

>  <Ligand ID>  (1) 
PNX

>  <Target Name>  (1) 
cAMP-specific 3',5'-cyclic phosphodiesterase 4B

>  <UniProt ID>  (1) 
Q07343

>  <PDB ID.1>  (1) 
3TVX

>  <Seq. Identity>  (1) 
84%

$$$$
