PDB_DB09053_03
     RDKit          3D

 81 85  0  0  0  0  0  0  0  0999 V2000
   -1.9350   -3.5914   -2.6198 N   0  0  0  0  0  0  0  0  0  0  0  0
   -2.9723   -4.1709   -1.8116 C   0  0  0  0  0  0  0  0  0  0  0  0
   -3.3291   -3.2989   -0.6881 N   0  0  0  0  0  0  0  0  0  0  0  0
   -2.4114   -2.2096   -0.7372 C   0  0  0  0  0  0  0  0  0  0  0  0
   -0.9926   -2.8097   -0.6051 C   0  0  0  0  0  0  0  0  0  0  0  0
   -0.6862   -3.4096   -1.8924 C   0  0  1  0  0  0  0  0  0  0  0  0
   -4.1001    3.2268    4.1447 C   0  0  0  0  0  0  0  0  0  0  0  0
   -0.1693   -4.7963   -1.7907 N   0  0  0  0  0  0  0  0  0  0  0  0
   -4.3503    0.5011    4.1454 O   0  0  0  0  0  0  0  0  0  0  0  0
   -5.4198    2.5442    3.8151 C   0  0  0  0  0  0  0  0  0  0  0  0
    7.1795    3.2900   -0.8394 C   0  0  0  0  0  0  0  0  0  0  0  0
    5.9651    3.3972   -1.7045 C   0  0  0  0  0  0  0  0  0  0  0  0
    6.8113    2.4360    0.3690 C   0  0  0  0  0  0  0  0  0  0  0  0
    5.5969    2.0145   -2.2610 C   0  0  0  0  0  0  0  0  0  0  0  0
    6.3136    1.0906   -0.0461 C   0  0  0  0  0  0  0  0  0  0  0  0
    2.4884   -0.5751   -2.1629 C   0  0  0  0  0  0  0  0  0  0  0  0
    3.3961   -1.3465    0.0486 C   0  0  0  0  0  0  0  0  0  0  0  0
    1.0588   -0.4352   -1.6188 C   0  0  0  0  0  0  0  0  0  0  0  0
    2.1606   -2.1810   -0.2002 C   0  0  0  0  0  0  0  0  0  0  0  0
   -4.8231    1.3768   -0.3663 C   0  0  0  0  0  0  0  0  0  0  0  0
   -3.5588    0.5454   -0.6211 C   0  0  0  0  0  0  0  0  0  0  0  0
   -4.7281    2.1117    0.9454 C   0  0  0  0  0  0  0  0  0  0  0  0
   -3.2857    0.3472    1.7852 C   0  0  0  0  0  0  0  0  0  0  0  0
   -1.2196   -0.6496    0.1963 N   0  0  0  0  0  0  0  0  0  0  0  0
    4.7350   -0.0822   -1.3905 O   0  0  0  0  0  0  0  0  0  0  0  0
   -5.0926    1.1940    3.1610 C   0  0  0  0  0  0  0  0  0  0  0  0
    5.2306    1.1726   -1.0698 C   0  0  0  0  0  0  0  0  0  0  0  0
    3.4322   -0.2744   -1.0168 C   0  0  0  0  0  0  0  0  0  0  0  0
    1.0094   -1.1936   -0.3439 C   0  0  0  0  0  0  0  0  0  0  0  0
   -0.2774   -1.7903    0.0771 C   0  0  0  0  0  0  0  0  0  0  0  0
   -3.4988   -0.4479    0.5107 C   0  0  2  0  0  0  0  0  0  0  0  0
   -2.4010   -1.3623    0.4154 N   0  0  0  0  0  0  0  0  0  0  0  0
   -4.2383    1.3598    2.0342 N   0  0  0  0  0  0  0  0  0  0  0  0
   -2.2017   -2.8162   -3.2234 H   0  0  0  0  0  0  0  0  0  0  0  0
   -3.8393   -4.3626   -2.4708 H   0  0  0  0  0  0  0  0  0  0  0  0
   -2.6175   -5.1593   -1.4498 H   0  0  0  0  0  0  0  0  0  0  0  0
   -4.3211   -3.0365   -0.8213 H   0  0  0  0  0  0  0  0  0  0  0  0
   -2.4955   -1.5802   -1.6380 H   0  0  0  0  0  0  0  0  0  0  0  0
   -1.1227   -3.7104    0.0978 H   0  0  0  0  0  0  0  0  0  0  0  0
   -0.0111   -2.9133   -2.5912 H   0  0  0  0  0  0  0  0  0  0  0  0
   -3.2535    2.7152    3.6223 H   0  0  0  0  0  0  0  0  0  0  0  0
   -3.8750    3.2082    5.2257 H   0  0  0  0  0  0  0  0  0  0  0  0
   -4.1968    4.2857    3.7715 H   0  0  0  0  0  0  0  0  0  0  0  0
    0.4446   -5.0285   -2.5869 H   0  0  0  0  0  0  0  0  0  0  0  0
    0.1902   -4.9977   -0.8536 H   0  0  0  0  0  0  0  0  0  0  0  0
   -3.8859    1.1422    4.7585 H   0  0  0  0  0  0  0  0  0  0  0  0
   -6.0271    3.1341    3.1088 H   0  0  0  0  0  0  0  0  0  0  0  0
   -5.9233    2.3482    4.7782 H   0  0  0  0  0  0  0  0  0  0  0  0
    7.4811    4.2922   -0.4980 H   0  0  0  0  0  0  0  0  0  0  0  0
    8.0108    2.8634   -1.4139 H   0  0  0  0  0  0  0  0  0  0  0  0
    5.1035    3.7206   -1.0503 H   0  0  0  0  0  0  0  0  0  0  0  0
    6.0600    4.1464   -2.4954 H   0  0  0  0  0  0  0  0  0  0  0  0
    7.7444    2.3061    0.9550 H   0  0  0  0  0  0  0  0  0  0  0  0
    6.0477    2.9970    0.9329 H   0  0  0  0  0  0  0  0  0  0  0  0
    4.6627    2.1963   -2.8531 H   0  0  0  0  0  0  0  0  0  0  0  0
    6.4172    1.6224   -2.8582 H   0  0  0  0  0  0  0  0  0  0  0  0
    5.8748    0.6085    0.8645 H   0  0  0  0  0  0  0  0  0  0  0  0
    7.1851    0.4894   -0.3639 H   0  0  0  0  0  0  0  0  0  0  0  0
    2.6185    0.2335   -2.9119 H   0  0  0  0  0  0  0  0  0  0  0  0
    2.6710   -1.5136   -2.6725 H   0  0  0  0  0  0  0  0  0  0  0  0
    3.2943   -0.9212    1.0672 H   0  0  0  0  0  0  0  0  0  0  0  0
    4.2598   -2.0383   -0.0276 H   0  0  0  0  0  0  0  0  0  0  0  0
    0.2856   -0.6107   -2.3544 H   0  0  0  0  0  0  0  0  0  0  0  0
    0.9864    0.6924   -1.4464 H   0  0  0  0  0  0  0  0  0  0  0  0
    2.3441   -2.7611   -1.1048 H   0  0  0  0  0  0  0  0  0  0  0  0
    1.9014   -2.8089    0.6813 H   0  0  0  0  0  0  0  0  0  0  0  0
   -4.8676    2.1361   -1.1730 H   0  0  0  0  0  0  0  0  0  0  0  0
   -5.7367    0.7845   -0.4047 H   0  0  0  0  0  0  0  0  0  0  0  0
   -3.7165    0.0681   -1.6101 H   0  0  0  0  0  0  0  0  0  0  0  0
   -2.7150    1.2341   -0.6704 H   0  0  0  0  0  0  0  0  0  0  0  0
   -5.7619    2.4722    1.1809 H   0  0  0  0  0  0  0  0  0  0  0  0
   -4.0920    3.0374    0.8300 H   0  0  0  0  0  0  0  0  0  0  0  0
   -3.3675   -0.4116    2.6172 H   0  0  0  0  0  0  0  0  0  0  0  0
   -2.2289    0.7054    1.8055 H   0  0  0  0  0  0  0  0  0  0  0  0
   -1.3021   -0.2297   -0.7748 H   0  0  0  0  0  0  0  0  0  0  0  0
   -6.0036    0.6062    2.9897 H   0  0  0  0  0  0  0  0  0  0  0  0
    4.3737    1.7113   -0.5635 H   0  0  0  0  0  0  0  0  0  0  0  0
    3.0512    0.6558   -0.5233 H   0  0  0  0  0  0  0  0  0  0  0  0
    1.2441   -0.4400    0.4644 H   0  0  0  0  0  0  0  0  0  0  0  0
   -0.1333   -2.0628    1.1653 H   0  0  0  0  0  0  0  0  0  0  0  0
   -4.4444   -0.9938    0.5344 H   0  0  0  0  0  0  0  0  0  0  0  0
  1  2  1  0
  2  3  1  0
  3  4  1  0
  4  5  1  0
  1  6  1  0
  5  6  1  0
  6  8  1  0
  7 10  1  0
 11 12  1  0
 11 13  1  0
 12 14  1  0
 13 15  1  0
 16 18  1  0
 17 19  1  0
 20 21  1  0
 20 22  1  0
  9 26  1  0
 10 26  1  0
 14 27  1  0
 15 27  1  0
 25 27  1  0
 16 28  1  0
 17 28  1  0
 25 28  1  0
 18 29  1  0
 19 29  1  0
  5 30  1  0
 24 30  1  0
 29 30  1  0
 21 31  1  0
 23 31  1  0
  4 32  1  0
 24 32  1  0
 31 32  1  0
 22 33  1  0
 23 33  1  0
 26 33  1  0
  1 34  1  0
  2 35  1  0
  2 36  1  0
  3 37  1  0
  4 38  1  0
  5 39  1  0
  6 40  1  6
  7 41  1  0
  7 42  1  0
  7 43  1  0
  8 44  1  0
  8 45  1  0
  9 46  1  0
 10 47  1  0
 10 48  1  0
 11 49  1  0
 11 50  1  0
 12 51  1  0
 12 52  1  0
 13 53  1  0
 13 54  1  0
 14 55  1  0
 14 56  1  0
 15 57  1  0
 15 58  1  0
 16 59  1  0
 16 60  1  0
 17 61  1  0
 17 62  1  0
 18 63  1  0
 18 64  1  0
 19 65  1  0
 19 66  1  0
 20 67  1  0
 20 68  1  0
 21 69  1  0
 21 70  1  0
 22 71  1  0
 22 72  1  0
 23 73  1  0
 23 74  1  0
 24 75  1  0
 26 76  1  0
 27 77  1  0
 28 78  1  0
 29 79  1  0
 30 80  1  0
 31 81  1  1
M  END
>  <PDBID>  (1) 
5P9I

>  <PDB ID>  (1) 
5P9I

>  <Generic Name>  (1) 
Ibrutinib

>  <Brand Name>  (1) 
Imbruvica

>  <DrugBank ID>  (1) 
DB09053

>  <ATC Codes>  (1) 
L01XE27

>  <Ligand ID>  (1) 
100000000

>  <Target Name>  (1) 
Tyrosine-protein kinase BTK

>  <UniProt ID>  (1) 
Q06187

>  <PDB ID.1>  (1) 
5P9I

>  <Seq. Identity>  (1) 
100%

$$$$
