PDB_DB00277_07
     RDKit          3D

 29 30  0  0  0  0  0  0  0  0999 V2000
    2.7709   -0.8643   -0.0849 C   0  0  0  0  0  0  0  0  0  0  0  0
    1.5173   -0.2761   -0.4119 N   0  0  0  0  0  0  0  0  0  0  0  0
    1.2426    0.8622    0.3756 C   0  0  0  0  0  0  0  0  0  0  0  0
    1.5118    0.6725    1.7465 O   0  0  0  0  0  0  0  0  0  0  0  0
   -0.0404    1.4474    0.2616 N   0  0  0  0  0  0  0  0  0  0  0  0
   -0.0165    2.6249   -0.5906 C   0  0  0  0  0  0  0  0  0  0  0  0
   -1.0917    0.6107   -0.1679 C   0  0  0  0  0  0  0  0  0  0  0  0
   -0.7499   -0.8653    0.0877 C   0  0  0  0  0  0  0  0  0  0  0  0
    0.4623   -1.1749   -0.6756 C   0  0  0  0  0  0  0  0  0  0  0  0
    0.8740   -2.4891   -0.3531 O   0  0  0  0  0  0  0  0  0  0  0  0
   -1.9740   -1.4376   -0.3702 N   0  0  0  0  0  0  0  0  0  0  0  0
   -2.9711   -0.5871    0.2794 C   0  0  0  0  0  0  0  0  0  0  0  0
   -2.3073    0.6675    0.5767 N   0  0  0  0  0  0  0  0  0  0  0  0
    2.9071   -1.8308   -0.6533 H   0  0  0  0  0  0  0  0  0  0  0  0
    3.6075   -0.1875   -0.4180 H   0  0  0  0  0  0  0  0  0  0  0  0
    2.9353   -1.0983    0.9624 H   0  0  0  0  0  0  0  0  0  0  0  0
    2.0008    1.6507    0.0783 H   0  0  0  0  0  0  0  0  0  0  0  0
    1.4245   -0.2416    2.0341 H   0  0  0  0  0  0  0  0  0  0  0  0
    0.0436    2.3385   -1.6771 H   0  0  0  0  0  0  0  0  0  0  0  0
    0.8263    3.3026   -0.3415 H   0  0  0  0  0  0  0  0  0  0  0  0
   -0.9727    3.1689   -0.4663 H   0  0  0  0  0  0  0  0  0  0  0  0
   -1.3571    0.6961   -1.2486 H   0  0  0  0  0  0  0  0  0  0  0  0
   -0.6585   -1.0654    1.1709 H   0  0  0  0  0  0  0  0  0  0  0  0
    0.2414   -1.1796   -1.7643 H   0  0  0  0  0  0  0  0  0  0  0  0
    1.0301   -2.5914    0.6179 H   0  0  0  0  0  0  0  0  0  0  0  0
   -2.0702   -1.2444   -1.3991 H   0  0  0  0  0  0  0  0  0  0  0  0
   -3.2720   -1.1238    1.2196 H   0  0  0  0  0  0  0  0  0  0  0  0
   -3.8393   -0.4461   -0.3826 H   0  0  0  0  0  0  0  0  0  0  0  0
   -2.0748    0.6612    1.5942 H   0  0  0  0  0  0  0  0  0  0  0  0
  1  2  1  0
  2  3  1  0
  3  4  1  0
  3  5  1  0
  5  6  1  0
  5  7  1  0
  7  8  1  0
  2  9  1  0
  8  9  1  0
  9 10  1  0
  8 11  1  0
 11 12  1  0
  7 13  1  0
 12 13  1  0
  1 14  1  0
  1 15  1  0
  1 16  1  0
  3 17  1  0
  4 18  1  0
  6 19  1  0
  6 20  1  0
  6 21  1  0
  7 22  1  0
  8 23  1  0
  9 24  1  0
 10 25  1  0
 11 26  1  0
 12 27  1  0
 12 28  1  0
 13 29  1  0
M  END
>  <PDBID>  (1) 
5MZJ

>  <PDB ID>  (1) 
5MZJ

>  <Generic Name>  (1) 
Theophylline

>  <Brand Name>  (1) 
Apo-theo ER#Apo-theo-LA Srt 100mg#Apo-theo-LA Srt 200mg#Apo-theo-LA Srt 300mg#Elixir De Theophylline#Elixophyllin#I D M Expectorant Tab#Idm Tab#PMS-theophylline Elixir#Pulmophylline Elx#Quibron T SR Tab 300mg#Ratio-theo-bronc#Senophylline#Slo-bid 100#Slo-bid 200#Slo-bid 300#Slo-bid 50#Tedral Tab#Teva-theophylline SR#Theo ER#Theo-24#Theo-SR 300 Srt 300mg#Theo-dur 100 mg#Theo-dur 200 mg#Theo-dur 300 mg#Theo-dur 450 mg#Theolair#Theolair SR Tab 200mg#Theolair SR Tab 250mg#Theolair SR Tab 300mg#Theolair SR Tab 500mg#Theolair Tab 125mg#Theolair Tab 250mg#Theophylline#Theophylline (anhydrous)#Theophylline 80mg/15ml#Theophylline Anhydrous#Theophylline Elixir#Theophylline Elx#Theophylline Extended Release#Theophylline In Dextrose#Theophylline Rougier Elixir#Theophylline Srt 300mg#Theophylline Sustained Release Tab 100mg#Theophylline Sustained Release Tab 200mg#Theophylline(anhydrous)#Uniphyl#Quibron-T#Respbid#Slo-Bid#Theo 24#Theo-Dur#Theodur G

>  <DrugBank ID>  (1) 
DB00277

>  <ATC Codes>  (1) 
R03DA54#R03DA74#R03DB04#R03DA04

>  <Ligand ID>  (1) 
TEP

>  <Target Name>  (1) 
Adenosine receptor A1

>  <UniProt ID>  (1) 
P30542

>  <PDB ID.1>  (1) 
5MZJ

>  <Seq. Identity>  (1) 
46%

$$$$
