PDB_DB00456_01
     RDKit          3D

 56 58  0  0  0  0  0  0  0  0999 V2000
   -0.1699   -1.6782    0.9067 S   0  0  0  0  0  0  0  0  0  0  0  0
   -1.9226   -1.3535    1.3202 C   0  0  0  0  0  0  0  0  0  0  0  0
   -2.6954   -0.9660    0.0709 C   0  0  0  0  0  0  0  0  0  0  0  0
   -4.1148   -0.7663    0.5119 C   0  0  0  0  0  0  0  0  0  0  0  0
   -5.0100   -0.4264   -0.4471 O   0  0  0  0  0  0  0  0  0  0  0  0
   -6.3021   -0.2383   -0.0358 C   0  0  0  0  0  0  0  0  0  0  0  0
   -6.7610    1.0720   -0.1760 O   0  0  0  0  0  0  0  0  0  0  0  0
   -7.2735   -1.2510   -0.5941 C   0  0  0  0  0  0  0  0  0  0  0  0
   -2.0726    0.1399   -0.6911 C   0  0  0  0  0  0  0  0  0  0  0  0
   -2.8169    1.4830   -0.5497 C   0  0  0  0  0  0  0  0  0  0  0  0
   -2.6167    2.0773    0.6684 O   0  0  0  0  0  0  0  0  0  0  0  0
   -2.1353    2.3230   -1.4797 O   0  0  0  0  0  0  0  0  0  0  0  0
   -0.7344    0.4002   -0.5513 N   0  0  0  0  0  0  0  0  0  0  0  0
    0.2568   -0.5893   -0.4866 C   0  0  1  0  0  0  0  0  0  0  0  0
    1.2066    0.5505   -0.0646 C   0  0  1  0  0  0  0  0  0  0  0  0
   -0.0928    1.3173    0.2391 C   0  0  0  0  0  0  0  0  0  0  0  0
   -0.2482    1.4041    1.5843 O   0  0  0  0  0  0  0  0  0  0  0  0
    1.9694    0.1385    1.0589 N   0  0  0  0  0  0  0  0  0  0  0  0
    2.8157   -0.9592    0.7232 C   0  0  2  0  0  0  0  0  0  0  0  0
    3.5398   -1.3531    1.8735 O   0  0  0  0  0  0  0  0  0  0  0  0
    3.8532   -0.6053   -0.3246 C   0  0  0  0  0  0  0  0  0  0  0  0
    4.7298    0.5165    0.1992 C   0  0  0  0  0  0  0  0  0  0  0  0
    5.7841    0.9178   -0.7847 C   0  0  0  0  0  0  0  0  0  0  0  0
    6.7999   -0.1831   -0.8496 C   0  0  0  0  0  0  0  0  0  0  0  0
    7.3000   -0.4794    0.5274 C   0  0  0  0  0  0  0  0  0  0  0  0
    5.7934   -0.1719    1.5336 S   0  0  0  0  0  0  0  0  0  0  0  0
   -2.0307   -0.6222    2.1451 H   0  0  0  0  0  0  0  0  0  0  0  0
   -2.3056   -2.3114    1.7260 H   0  0  0  0  0  0  0  0  0  0  0  0
   -2.7134   -1.9148   -0.5512 H   0  0  0  0  0  0  0  0  0  0  0  0
   -4.1903    0.0135    1.3266 H   0  0  0  0  0  0  0  0  0  0  0  0
   -4.4757   -1.7037    1.0258 H   0  0  0  0  0  0  0  0  0  0  0  0
   -6.3032   -0.4194    1.0825 H   0  0  0  0  0  0  0  0  0  0  0  0
   -7.5110    1.1142   -0.8494 H   0  0  0  0  0  0  0  0  0  0  0  0
   -7.7102   -0.7950   -1.5190 H   0  0  0  0  0  0  0  0  0  0  0  0
   -8.0942   -1.4092    0.1059 H   0  0  0  0  0  0  0  0  0  0  0  0
   -6.7870   -2.1838   -0.9175 H   0  0  0  0  0  0  0  0  0  0  0  0
   -2.2369   -0.0917   -1.7923 H   0  0  0  0  0  0  0  0  0  0  0  0
   -3.8355    1.4517   -0.9273 H   0  0  0  0  0  0  0  0  0  0  0  0
   -2.3351    3.0216    0.6445 H   0  0  0  0  0  0  0  0  0  0  0  0
   -2.4464    3.2584   -1.3996 H   0  0  0  0  0  0  0  0  0  0  0  0
    0.5410   -1.0874   -1.4212 H   0  0  0  0  0  0  0  0  0  0  0  0
    1.7584    0.9342   -0.9405 H   0  0  0  0  0  0  0  0  0  0  0  0
    0.0090    2.3256   -0.2260 H   0  0  0  0  0  0  0  0  0  0  0  0
   -0.1685    2.3132    1.9652 H   0  0  0  0  0  0  0  0  0  0  0  0
    2.4463    0.8540    1.6069 H   0  0  0  0  0  0  0  0  0  0  0  0
    2.2904   -1.8495    0.3503 H   0  0  0  0  0  0  0  0  0  0  0  0
    3.6373   -2.3404    1.8787 H   0  0  0  0  0  0  0  0  0  0  0  0
    4.5152   -1.4933   -0.4327 H   0  0  0  0  0  0  0  0  0  0  0  0
    3.4296   -0.3919   -1.3128 H   0  0  0  0  0  0  0  0  0  0  0  0
    4.1773    1.3612    0.6037 H   0  0  0  0  0  0  0  0  0  0  0  0
    6.2368    1.8643   -0.4598 H   0  0  0  0  0  0  0  0  0  0  0  0
    5.3254    1.0185   -1.7727 H   0  0  0  0  0  0  0  0  0  0  0  0
    7.6761    0.2345   -1.4278 H   0  0  0  0  0  0  0  0  0  0  0  0
    6.3736   -1.0584   -1.3689 H   0  0  0  0  0  0  0  0  0  0  0  0
    7.5129   -1.5700    0.5770 H   0  0  0  0  0  0  0  0  0  0  0  0
    8.1318    0.1581    0.8314 H   0  0  0  0  0  0  0  0  0  0  0  0
  1  2  1  0
  2  3  1  0
  3  4  1  0
  4  5  1  0
  5  6  1  0
  6  7  1  0
  6  8  1  0
  3  9  1  0
  9 10  1  0
 10 11  1  0
 10 12  1  0
  9 13  1  0
  1 14  1  0
 13 14  1  0
 14 15  1  0
 13 16  1  0
 15 16  1  0
 16 17  1  0
 15 18  1  0
 18 19  1  0
 19 20  1  0
 19 21  1  0
 21 22  1  0
 22 23  1  0
 23 24  1  0
 24 25  1  0
 22 26  1  0
 25 26  1  0
  2 27  1  0
  2 28  1  0
  3 29  1  0
  4 30  1  0
  4 31  1  0
  6 32  1  0
  7 33  1  0
  8 34  1  0
  8 35  1  0
  8 36  1  0
  9 37  1  0
 10 38  1  0
 11 39  1  0
 12 40  1  0
 14 41  1  6
 15 42  1  6
 16 43  1  0
 17 44  1  0
 18 45  1  0
 19 46  1  6
 20 47  1  0
 21 48  1  0
 21 49  1  0
 22 50  1  0
 23 51  1  0
 23 52  1  0
 24 53  1  0
 24 54  1  0
 25 55  1  0
 25 56  1  0
M  END
>  <PDBID>  (1) 
1KVL

>  <PDB ID>  (1) 
1KVL

>  <Generic Name>  (1) 
Cefalotin

>  <Brand Name>  (1) 
Ceporacin#Keflin Add-vantage Inj 1gm/vial#Keflin Neutral Inj 1gm#Keflin Neutral Inj 2gm/vial#Coaxin#Keflin

>  <DrugBank ID>  (1) 
DB00456

>  <ATC Codes>  (1) 
J01DB03

>  <Ligand ID>  (1) 
CLS

>  <Target Name>  (1) 
Beta-lactamase

>  <UniProt ID>  (1) 
P00811

>  <PDB ID.1>  (1) 
1KVL

>  <Seq. Identity>  (1) 
100%

$$$$
