PDB_DB05239_08
     RDKit          3D

 65 68  0  0  0  0  0  0  0  0999 V2000
   -0.5995   -2.0794    0.5713 O   0  0  0  0  0  0  0  0  0  0  0  0
    0.0106   -1.0382   -0.1760 C   0  0  0  0  0  0  0  0  0  0  0  0
   -0.7291   -0.9256   -1.4570 C   0  0  0  0  0  0  0  0  0  0  0  0
   -0.2607    0.1059   -2.4222 C   0  0  0  0  0  0  0  0  0  0  0  0
   -0.7901    1.4740   -2.0304 C   0  0  0  0  0  0  0  0  0  0  0  0
   -2.2529    1.4595   -2.4358 C   0  0  2  0  0  0  0  0  0  0  0  0
   -2.8934    2.6109   -2.0799 F   0  0  0  0  0  0  0  0  0  0  0  0
   -2.9266    0.1797   -2.0914 C   0  0  1  0  0  0  0  0  0  0  0  0
   -3.2851   -0.5020   -3.3116 F   0  0  0  0  0  0  0  0  0  0  0  0
   -2.2196   -0.7544   -1.1941 C   0  0  2  0  0  0  0  0  0  0  0  0
   -2.5214   -0.8279    0.1832 N   0  0  0  0  0  0  0  0  0  0  0  0
   -3.8025   -0.5589    0.6814 C   0  0  0  0  0  0  0  0  0  0  0  0
   -4.1965    0.8878    0.7070 C   0  0  0  0  0  0  0  0  0  0  0  0
   -5.6955    0.9238    0.5418 C   0  0  0  0  0  0  0  0  0  0  0  0
   -6.3127   -0.0747    1.4826 C   0  0  1  0  0  0  0  0  0  0  0  0
   -7.3503   -1.5969    0.3823 I   0  0  0  0  0  0  0  0  0  0  0  0
   -4.0651   -1.0794    2.1021 C   0  0  0  0  0  0  0  0  0  0  0  0
   -3.9076   -2.4419    2.1518 F   0  0  0  0  0  0  0  0  0  0  0  0
   -5.4345   -0.6199    2.5413 C   0  0  0  0  0  0  0  0  0  0  0  0
    1.3963   -1.4174   -0.2595 N   0  0  0  0  0  0  0  0  0  0  0  0
    2.3059   -0.5192   -0.9061 C   0  0  0  0  0  0  0  0  0  0  0  0
    3.3110   -0.8507    0.2335 C   0  0  0  0  0  0  0  0  0  0  0  0
    2.0644   -1.1339    0.9962 C   0  0  0  0  0  0  0  0  0  0  0  0
    4.0460   -1.9635   -0.0835 O   0  0  0  0  0  0  0  0  0  0  0  0
    4.0819    0.3980    0.5932 C   0  0  2  0  0  0  0  0  0  0  0  0
    4.9183    0.7836   -0.5987 C   0  0  0  0  0  0  0  0  0  0  0  0
    6.0710    1.6816   -0.1885 C   0  0  0  0  0  0  0  0  0  0  0  0
    6.9332    1.0563    0.8588 C   0  0  0  0  0  0  0  0  0  0  0  0
    6.2724   -0.2058    1.3554 C   0  0  0  0  0  0  0  0  0  0  0  0
    4.9084    0.1207    1.7337 N   0  0  0  0  0  0  0  0  0  0  0  0
   -0.3844   -1.9898    1.5390 H   0  0  0  0  0  0  0  0  0  0  0  0
    0.0217   -0.0741    0.4094 H   0  0  0  0  0  0  0  0  0  0  0  0
   -0.5235   -1.9183   -1.9915 H   0  0  0  0  0  0  0  0  0  0  0  0
    0.7799    0.0847   -2.7197 H   0  0  0  0  0  0  0  0  0  0  0  0
   -0.8117   -0.1413   -3.3954 H   0  0  0  0  0  0  0  0  0  0  0  0
   -0.6543    1.6719   -0.9526 H   0  0  0  0  0  0  0  0  0  0  0  0
   -0.1942    2.2204   -2.5850 H   0  0  0  0  0  0  0  0  0  0  0  0
   -2.2094    1.5047   -3.5755 H   0  0  0  0  0  0  0  0  0  0  0  0
   -3.9314    0.3973   -1.6897 H   0  0  0  0  0  0  0  0  0  0  0  0
   -2.6178   -1.8076   -1.5733 H   0  0  0  0  0  0  0  0  0  0  0  0
   -1.8531   -0.2282    0.7728 H   0  0  0  0  0  0  0  0  0  0  0  0
   -4.6050   -1.1526    0.0862 H   0  0  0  0  0  0  0  0  0  0  0  0
   -4.0376    1.2492    1.8065 H   0  0  0  0  0  0  0  0  0  0  0  0
   -3.6208    1.5929    0.1530 H   0  0  0  0  0  0  0  0  0  0  0  0
   -6.0155    1.9799    0.7523 H   0  0  0  0  0  0  0  0  0  0  0  0
   -5.9779    0.7293   -0.5097 H   0  0  0  0  0  0  0  0  0  0  0  0
   -7.1344    0.4925    2.0195 H   0  0  0  0  0  0  0  0  0  0  0  0
   -3.3298   -0.6312    2.8018 H   0  0  0  0  0  0  0  0  0  0  0  0
   -5.9395   -1.5423    2.9427 H   0  0  0  0  0  0  0  0  0  0  0  0
   -5.4010    0.0687    3.4177 H   0  0  0  0  0  0  0  0  0  0  0  0
    1.9804    0.5528   -0.8155 H   0  0  0  0  0  0  0  0  0  0  0  0
    2.7839   -0.8188   -1.8365 H   0  0  0  0  0  0  0  0  0  0  0  0
    2.2084   -2.0100    1.6649 H   0  0  0  0  0  0  0  0  0  0  0  0
    1.6305   -0.2426    1.4942 H   0  0  0  0  0  0  0  0  0  0  0  0
    4.3386   -2.0212   -1.0158 H   0  0  0  0  0  0  0  0  0  0  0  0
    3.3676    1.2300    0.7729 H   0  0  0  0  0  0  0  0  0  0  0  0
    5.3307   -0.0947   -1.1331 H   0  0  0  0  0  0  0  0  0  0  0  0
    4.3287    1.3533   -1.3568 H   0  0  0  0  0  0  0  0  0  0  0  0
    6.6673    1.8645   -1.0991 H   0  0  0  0  0  0  0  0  0  0  0  0
    5.6627    2.6854    0.1190 H   0  0  0  0  0  0  0  0  0  0  0  0
    7.0604    1.7146    1.7607 H   0  0  0  0  0  0  0  0  0  0  0  0
    7.9481    0.7705    0.4580 H   0  0  0  0  0  0  0  0  0  0  0  0
    6.7711   -0.6037    2.2628 H   0  0  0  0  0  0  0  0  0  0  0  0
    6.3037   -1.0184    0.6010 H   0  0  0  0  0  0  0  0  0  0  0  0
    4.9810    1.0401    2.2580 H   0  0  0  0  0  0  0  0  0  0  0  0
  1  2  1  0
  2  3  1  0
  3  4  1  0
  4  5  1  0
  5  6  1  0
  6  7  1  0
  6  8  1  0
  8  9  1  0
  3 10  1  0
  8 10  1  0
 10 11  1  0
 11 12  1  0
 12 13  1  0
 13 14  1  0
 14 15  1  0
 15 16  1  0
 12 17  1  0
 17 18  1  0
 15 19  1  0
 17 19  1  0
  2 20  1  0
 20 21  1  0
 21 22  1  0
 20 23  1  0
 22 23  1  0
 22 24  1  0
 22 25  1  0
 25 26  1  0
 26 27  1  0
 27 28  1  0
 28 29  1  0
 25 30  1  0
 29 30  1  0
  1 31  1  0
  2 32  1  0
  3 33  1  0
  4 34  1  0
  4 35  1  0
  5 36  1  0
  5 37  1  0
  6 38  1  6
  8 39  1  1
 10 40  1  6
 11 41  1  0
 12 42  1  0
 13 43  1  0
 13 44  1  0
 14 45  1  0
 14 46  1  0
 15 47  1  1
 17 48  1  0
 19 49  1  0
 19 50  1  0
 21 51  1  0
 21 52  1  0
 23 53  1  0
 23 54  1  0
 24 55  1  0
 25 56  1  1
 26 57  1  0
 26 58  1  0
 27 59  1  0
 27 60  1  0
 28 61  1  0
 28 62  1  0
 29 63  1  0
 29 64  1  0
 30 65  1  0
M  END
>  <PDBID>  (1) 
4LMN

>  <PDB ID>  (1) 
4LMN

>  <Generic Name>  (1) 
Cobimetinib

>  <Brand Name>  (1) 
Cotellic

>  <DrugBank ID>  (1) 
DB05239

>  <ATC Codes>  (1) 
nan

>  <Ligand ID>  (1) 
EUI

>  <Target Name>  (1) 
Dual specificity mitogen-activated protein kinase kinase 1

>  <UniProt ID>  (1) 
Q02750

>  <PDB ID.1>  (1) 
4LMN

>  <Seq. Identity>  (1) 
97%

$$$$
