PDB_DB09063_08
     RDKit          3D

 94 97  0  0  0  0  0  0  0  0999 V2000
    3.1300   -4.4960   -0.1552 C   0  0  0  0  0  0  0  0  0  0  0  0
    2.2176   -3.3342    0.1490 C   0  0  0  0  0  0  0  0  0  0  0  0
    1.4433   -3.6788    1.4049 C   0  0  0  0  0  0  0  0  0  0  0  0
    3.0123   -2.2296    0.4764 O   0  0  0  0  0  0  0  0  0  0  0  0
    2.8408   -1.1771   -0.3801 C   0  0  0  0  0  0  0  0  0  0  0  0
    4.1267   -0.7843   -1.0771 C   0  0  0  0  0  0  0  0  0  0  0  0
    5.1581   -0.4397   -0.0673 C   0  0  1  0  0  0  0  0  0  0  0  0
    5.9925    0.7240   -0.4760 C   0  0  0  0  0  0  0  0  0  0  0  0
    5.2720    2.0042   -0.7330 C   0  0  0  0  0  0  0  0  0  0  0  0
    6.3553    3.0982   -0.6648 C   0  0  0  0  0  0  0  0  0  0  0  0
    7.2816    2.8490   -1.7153 N   0  0  0  0  0  0  0  0  0  0  0  0
    7.9011    1.5506   -1.6940 C   0  0  0  0  0  0  0  0  0  0  0  0
    6.8334    0.4385   -1.7168 C   0  0  0  0  0  0  0  0  0  0  0  0
    4.6591   -0.3442    1.3469 C   0  0  0  0  0  0  0  0  0  0  0  0
    5.6477    0.5064    2.1591 C   0  0  0  0  0  0  0  0  0  0  0  0
    3.3286    0.2802    1.4976 C   0  0  0  0  0  0  0  0  0  0  0  0
    2.3835    0.0807    0.3202 C   0  0  0  0  0  0  0  0  0  0  0  0
    1.0604    0.1148    0.7782 N   0  0  0  0  0  0  0  0  0  0  0  0
   -0.0281   -0.0008   -0.1267 C   0  0  0  0  0  0  0  0  0  0  0  0
    0.2456    0.4269   -1.4871 N   0  0  0  0  0  0  0  0  0  0  0  0
   -0.6583    1.4431   -1.9688 C   0  0  0  0  0  0  0  0  0  0  0  0
   -2.1369    1.0317   -1.7921 C   0  0  1  0  0  0  0  0  0  0  0  0
   -2.5607   -0.1963   -2.9907 Cl  0  0  0  0  0  0  0  0  0  0  0  0
   -2.3129    0.5627   -0.3629 C   0  0  0  0  0  0  0  0  0  0  0  0
   -3.4278    1.2468    0.2395 N   0  0  0  0  0  0  0  0  0  0  0  0
   -4.4200    0.4850    0.8792 C   0  0  2  0  0  0  0  0  0  0  0  0
   -3.8890   -0.3782    2.0131 C   0  0  0  0  0  0  0  0  0  0  0  0
   -4.8581   -1.5193    2.2169 C   0  0  0  0  0  0  0  0  0  0  0  0
   -4.8553   -2.3828    0.9947 C   0  0  0  0  0  0  0  0  0  0  0  0
   -5.1477   -1.6229   -0.2581 C   0  0  0  0  0  0  0  0  0  0  0  0
   -5.4949   -0.1805    0.1082 C   0  0  2  0  0  0  0  0  0  0  0  0
   -6.1876    0.6955   -1.1961 S   0  0  0  0  0  0  0  0  0  0  0  0
   -7.3512   -0.5447   -1.7659 O   0  0  0  0  0  0  0  0  0  0  0  0
   -5.4225    1.2485   -2.1729 O   0  0  0  0  0  0  0  0  0  0  0  0
   -7.4262    1.7838   -0.4902 C   0  0  0  0  0  0  0  0  0  0  0  0
   -8.4451    0.9962    0.2640 C   0  0  0  0  0  0  0  0  0  0  0  0
   -6.8235    2.7988    0.4211 C   0  0  0  0  0  0  0  0  0  0  0  0
   -1.0909    0.8971    0.3285 N   0  0  0  0  0  0  0  0  0  0  0  0
    3.6836   -4.7072    0.7786 H   0  0  0  0  0  0  0  0  0  0  0  0
    2.5530   -5.4061   -0.4131 H   0  0  0  0  0  0  0  0  0  0  0  0
    3.8826   -4.2541   -0.9129 H   0  0  0  0  0  0  0  0  0  0  0  0
    1.5821   -3.1689   -0.7327 H   0  0  0  0  0  0  0  0  0  0  0  0
    0.3313   -3.5524    1.2629 H   0  0  0  0  0  0  0  0  0  0  0  0
    1.5741   -4.7254    1.7336 H   0  0  0  0  0  0  0  0  0  0  0  0
    1.7461   -3.0509    2.2853 H   0  0  0  0  0  0  0  0  0  0  0  0
    2.1238   -1.4955   -1.1615 H   0  0  0  0  0  0  0  0  0  0  0  0
    3.8436    0.0723   -1.7348 H   0  0  0  0  0  0  0  0  0  0  0  0
    4.4084   -1.6315   -1.7450 H   0  0  0  0  0  0  0  0  0  0  0  0
    5.8755   -1.3221   -0.0675 H   0  0  0  0  0  0  0  0  0  0  0  0
    6.7864    0.9150    0.3237 H   0  0  0  0  0  0  0  0  0  0  0  0
    4.9179    2.0679   -1.8052 H   0  0  0  0  0  0  0  0  0  0  0  0
    4.4416    2.2428   -0.0740 H   0  0  0  0  0  0  0  0  0  0  0  0
    5.9313    4.0934   -0.7984 H   0  0  0  0  0  0  0  0  0  0  0  0
    6.8254    2.9524    0.3283 H   0  0  0  0  0  0  0  0  0  0  0  0
    7.0162    3.2069   -2.6359 H   0  0  0  0  0  0  0  0  0  0  0  0
    8.4814    1.4478   -2.6280 H   0  0  0  0  0  0  0  0  0  0  0  0
    8.5897    1.4395   -0.8492 H   0  0  0  0  0  0  0  0  0  0  0  0
    7.3593   -0.5174   -1.6562 H   0  0  0  0  0  0  0  0  0  0  0  0
    6.2377    0.6059   -2.6171 H   0  0  0  0  0  0  0  0  0  0  0  0
    4.6908   -1.3509    1.8320 H   0  0  0  0  0  0  0  0  0  0  0  0
    5.2473    0.4765    3.2165 H   0  0  0  0  0  0  0  0  0  0  0  0
    5.6252    1.5615    1.8858 H   0  0  0  0  0  0  0  0  0  0  0  0
    6.6285    0.0351    2.1825 H   0  0  0  0  0  0  0  0  0  0  0  0
    2.8106   -0.2560    2.3514 H   0  0  0  0  0  0  0  0  0  0  0  0
    3.3079    1.3375    1.8110 H   0  0  0  0  0  0  0  0  0  0  0  0
    2.5487    0.9103   -0.3939 H   0  0  0  0  0  0  0  0  0  0  0  0
    0.9096    0.8964    1.4406 H   0  0  0  0  0  0  0  0  0  0  0  0
   -0.4356   -1.0221   -0.0838 H   0  0  0  0  0  0  0  0  0  0  0  0
    0.0396   -0.4221   -2.1059 H   0  0  0  0  0  0  0  0  0  0  0  0
   -0.5228    1.4568   -3.0834 H   0  0  0  0  0  0  0  0  0  0  0  0
   -0.4714    2.4289   -1.5391 H   0  0  0  0  0  0  0  0  0  0  0  0
   -2.7023    1.9553   -2.0300 H   0  0  0  0  0  0  0  0  0  0  0  0
   -2.4657   -0.5495   -0.4481 H   0  0  0  0  0  0  0  0  0  0  0  0
   -3.0432    2.0270    0.7808 H   0  0  0  0  0  0  0  0  0  0  0  0
   -5.0056    1.2967    1.4899 H   0  0  0  0  0  0  0  0  0  0  0  0
   -2.9041   -0.8335    1.7919 H   0  0  0  0  0  0  0  0  0  0  0  0
   -3.8865    0.1867    2.9627 H   0  0  0  0  0  0  0  0  0  0  0  0
   -4.3774   -2.1452    3.0369 H   0  0  0  0  0  0  0  0  0  0  0  0
   -5.8466   -1.1894    2.5661 H   0  0  0  0  0  0  0  0  0  0  0  0
   -3.8743   -2.8845    0.9245 H   0  0  0  0  0  0  0  0  0  0  0  0
   -5.5915   -3.2057    1.1733 H   0  0  0  0  0  0  0  0  0  0  0  0
   -4.4370   -1.7231   -1.0672 H   0  0  0  0  0  0  0  0  0  0  0  0
   -6.1280   -2.0236   -0.6650 H   0  0  0  0  0  0  0  0  0  0  0  0
   -6.3827   -0.3546    0.8347 H   0  0  0  0  0  0  0  0  0  0  0  0
   -7.4225   -0.3176   -2.7026 H   0  0  0  0  0  0  0  0  0  0  0  0
   -5.4487    1.5270   -3.1157 H   0  0  0  0  0  0  0  0  0  0  0  0
   -7.8672    2.3142   -1.3585 H   0  0  0  0  0  0  0  0  0  0  0  0
   -8.5119   -0.0219   -0.1822 H   0  0  0  0  0  0  0  0  0  0  0  0
   -9.4313    1.5198    0.1113 H   0  0  0  0  0  0  0  0  0  0  0  0
   -8.2252    0.9441    1.3486 H   0  0  0  0  0  0  0  0  0  0  0  0
   -5.7968    3.0149    0.1186 H   0  0  0  0  0  0  0  0  0  0  0  0
   -7.4176    3.7530    0.2923 H   0  0  0  0  0  0  0  0  0  0  0  0
   -6.9662    2.5608    1.5020 H   0  0  0  0  0  0  0  0  0  0  0  0
   -1.1905    0.9316    1.3602 H   0  0  0  0  0  0  0  0  0  0  0  0
  1  2  1  0
  2  3  1  0
  2  4  1  0
  4  5  1  0
  5  6  1  0
  6  7  1  0
  7  8  1  0
  8  9  1  0
  9 10  1  0
 10 11  1  0
 11 12  1  0
  8 13  1  0
 12 13  1  0
  7 14  1  0
 14 15  1  0
 14 16  1  0
  5 17  1  0
 16 17  1  0
 17 18  1  0
 18 19  1  0
 19 20  1  0
 20 21  1  0
 21 22  1  0
 22 23  1  0
 22 24  1  0
 24 25  1  0
 25 26  1  0
 26 27  1  0
 27 28  1  0
 28 29  1  0
 29 30  1  0
 26 31  1  0
 30 31  1  0
 31 32  1  0
 32 33  1  0
 32 34  1  0
 32 35  1  0
 35 36  1  0
 35 37  1  0
 19 38  1  0
 24 38  1  0
  1 39  1  0
  1 40  1  0
  1 41  1  0
  2 42  1  0
  3 43  1  0
  3 44  1  0
  3 45  1  0
  5 46  1  0
  6 47  1  0
  6 48  1  0
  7 49  1  1
  8 50  1  0
  9 51  1  0
  9 52  1  0
 10 53  1  0
 10 54  1  0
 11 55  1  0
 12 56  1  0
 12 57  1  0
 13 58  1  0
 13 59  1  0
 14 60  1  0
 15 61  1  0
 15 62  1  0
 15 63  1  0
 16 64  1  0
 16 65  1  0
 17 66  1  0
 18 67  1  0
 19 68  1  0
 20 69  1  0
 21 70  1  0
 21 71  1  0
 22 72  1  6
 24 73  1  0
 25 74  1  0
 26 75  1  1
 27 76  1  0
 27 77  1  0
 28 78  1  0
 28 79  1  0
 29 80  1  0
 29 81  1  0
 30 82  1  0
 30 83  1  0
 31 84  1  1
 33 85  1  0
 34 86  1  0
 35 87  1  0
 36 88  1  0
 36 89  1  0
 36 90  1  0
 37 91  1  0
 37 92  1  0
 37 93  1  0
 38 94  1  0
M  END
>  <PDBID>  (1) 
4MKC

>  <PDB ID>  (1) 
4MKC

>  <Generic Name>  (1) 
Ceritinib

>  <Brand Name>  (1) 
Zykadia

>  <DrugBank ID>  (1) 
DB09063

>  <ATC Codes>  (1) 
L01XE28

>  <Ligand ID>  (1) 
4MK

>  <Target Name>  (1) 
ALK tyrosine kinase receptor

>  <UniProt ID>  (1) 
Q9UM73

>  <PDB ID.1>  (1) 
4MKC

>  <Seq. Identity>  (1) 
99%

$$$$
