PDB_DB01597_09
     RDKit          3D

 82 82  0  0  0  0  0  0  0  0999 V2000
   -2.5391   -0.3983   -1.6125 C   0  0  0  0  0  0  0  0  0  0  0  0
   -1.7883    0.0689   -0.4647 C   0  0  1  0  0  0  0  0  0  0  0  0
   -3.1960   -0.4975   -0.2844 C   0  0  0  0  0  0  0  0  0  0  0  0
   -3.4754   -1.9132    0.1166 C   0  0  0  0  0  0  0  0  0  0  0  0
   -4.3174    0.4479    0.0970 C   0  0  0  0  0  0  0  0  0  0  0  0
   -0.7633   -0.6978    0.3426 C   0  0  0  0  0  0  0  0  0  0  0  0
   -0.2222    0.1496    1.3058 N   0  0  0  0  0  0  0  0  0  0  0  0
    0.6906    1.1455    1.1825 C   0  0  0  0  0  0  0  0  0  0  0  0
    2.1203    0.6698    1.0811 C   0  0  0  0  0  0  0  0  0  0  0  0
   -1.4235   -1.7147    1.0415 O   0  0  0  0  0  0  0  0  0  0  0  0
    0.5063    2.2216    0.1105 C   0  0  0  0  0  0  0  0  0  0  0  0
    0.5284    1.5819   -1.1181 O   0  0  0  0  0  0  0  0  0  0  0  0
    1.7120    2.9873    0.1084 O   0  0  0  0  0  0  0  0  0  0  0  0
    2.5154   -0.2246   -0.0109 C   0  0  0  0  0  0  0  0  0  0  0  0
    4.0499   -0.4760    0.0858 C   0  0  0  0  0  0  0  0  0  0  0  0
    4.4307   -1.3850   -1.0404 C   0  0  0  0  0  0  0  0  0  0  0  0
   -2.5391   -0.3983   -1.6125 C   0  0  0  0  0  0  0  0  0  0  0  0
   -1.7883    0.0689   -0.4647 C   0  0  1  0  0  0  0  0  0  0  0  0
   -3.1960   -0.4975   -0.2844 C   0  0  0  0  0  0  0  0  0  0  0  0
   -3.4754   -1.9132    0.1166 C   0  0  0  0  0  0  0  0  0  0  0  0
   -4.3174    0.4479    0.0970 C   0  0  0  0  0  0  0  0  0  0  0  0
   -0.7633   -0.6978    0.3426 C   0  0  0  0  0  0  0  0  0  0  0  0
   -0.2222    0.1496    1.3058 N   0  0  0  0  0  0  0  0  0  0  0  0
    0.6906    1.1455    1.1825 C   0  0  0  0  0  0  0  0  0  0  0  0
    2.1203    0.6698    1.0811 C   0  0  0  0  0  0  0  0  0  0  0  0
   -1.4235   -1.7147    1.0415 O   0  0  0  0  0  0  0  0  0  0  0  0
    0.5063    2.2216    0.1105 C   0  0  0  0  0  0  0  0  0  0  0  0
    0.5284    1.5819   -1.1181 O   0  0  0  0  0  0  0  0  0  0  0  0
    1.7120    2.9873    0.1084 O   0  0  0  0  0  0  0  0  0  0  0  0
    2.5154   -0.2246   -0.0109 C   0  0  0  0  0  0  0  0  0  0  0  0
    4.0499   -0.4760    0.0858 C   0  0  0  0  0  0  0  0  0  0  0  0
    4.4307   -1.3850   -1.0404 C   0  0  0  0  0  0  0  0  0  0  0  0
   -2.9933    0.3717   -2.2894 H   0  0  0  0  0  0  0  0  0  0  0  0
   -2.2543   -1.3104   -2.1958 H   0  0  0  0  0  0  0  0  0  0  0  0
   -1.8433    1.1932   -0.2427 H   0  0  0  0  0  0  0  0  0  0  0  0
   -4.5122   -2.1432   -0.3449 H   0  0  0  0  0  0  0  0  0  0  0  0
   -2.8281   -2.6387   -0.4092 H   0  0  0  0  0  0  0  0  0  0  0  0
   -3.6290   -2.0766    1.1860 H   0  0  0  0  0  0  0  0  0  0  0  0
   -4.0220    1.5096    0.1238 H   0  0  0  0  0  0  0  0  0  0  0  0
   -5.2330    0.2914   -0.5073 H   0  0  0  0  0  0  0  0  0  0  0  0
   -4.6265    0.1520    1.1480 H   0  0  0  0  0  0  0  0  0  0  0  0
   -0.0800   -1.2505   -0.3370 H   0  0  0  0  0  0  0  0  0  0  0  0
   -0.9994    0.3597    2.0175 H   0  0  0  0  0  0  0  0  0  0  0  0
    0.6915    1.7660    2.1479 H   0  0  0  0  0  0  0  0  0  0  0  0
    2.2929    0.0829    2.0516 H   0  0  0  0  0  0  0  0  0  0  0  0
    2.8171    1.5499    1.1859 H   0  0  0  0  0  0  0  0  0  0  0  0
   -0.8195   -2.1770    1.6785 H   0  0  0  0  0  0  0  0  0  0  0  0
   -0.2694    2.9268    0.2974 H   0  0  0  0  0  0  0  0  0  0  0  0
    0.9090    2.1199   -1.8593 H   0  0  0  0  0  0  0  0  0  0  0  0
    1.6659    3.6492   -0.6371 H   0  0  0  0  0  0  0  0  0  0  0  0
    2.0447   -1.2278    0.1164 H   0  0  0  0  0  0  0  0  0  0  0  0
    2.3271    0.1170   -1.0297 H   0  0  0  0  0  0  0  0  0  0  0  0
    4.3101   -0.9141    1.0526 H   0  0  0  0  0  0  0  0  0  0  0  0
    4.4970    0.5275   -0.1025 H   0  0  0  0  0  0  0  0  0  0  0  0
    5.2494   -2.0591   -0.6575 H   0  0  0  0  0  0  0  0  0  0  0  0
    4.8636   -0.7892   -1.8937 H   0  0  0  0  0  0  0  0  0  0  0  0
    3.6136   -1.9954   -1.4400 H   0  0  0  0  0  0  0  0  0  0  0  0
   -2.9933    0.3717   -2.2894 H   0  0  0  0  0  0  0  0  0  0  0  0
   -2.2543   -1.3104   -2.1958 H   0  0  0  0  0  0  0  0  0  0  0  0
   -1.8433    1.1932   -0.2427 H   0  0  0  0  0  0  0  0  0  0  0  0
   -4.5122   -2.1432   -0.3449 H   0  0  0  0  0  0  0  0  0  0  0  0
   -2.8281   -2.6387   -0.4092 H   0  0  0  0  0  0  0  0  0  0  0  0
   -3.6290   -2.0766    1.1860 H   0  0  0  0  0  0  0  0  0  0  0  0
   -4.0220    1.5096    0.1238 H   0  0  0  0  0  0  0  0  0  0  0  0
   -5.2330    0.2914   -0.5073 H   0  0  0  0  0  0  0  0  0  0  0  0
   -4.6265    0.1520    1.1480 H   0  0  0  0  0  0  0  0  0  0  0  0
   -0.0800   -1.2505   -0.3370 H   0  0  0  0  0  0  0  0  0  0  0  0
   -0.9994    0.3597    2.0175 H   0  0  0  0  0  0  0  0  0  0  0  0
    0.6915    1.7660    2.1479 H   0  0  0  0  0  0  0  0  0  0  0  0
    2.2929    0.0829    2.0516 H   0  0  0  0  0  0  0  0  0  0  0  0
    2.8171    1.5499    1.1859 H   0  0  0  0  0  0  0  0  0  0  0  0
   -0.8195   -2.1770    1.6785 H   0  0  0  0  0  0  0  0  0  0  0  0
   -0.2694    2.9268    0.2974 H   0  0  0  0  0  0  0  0  0  0  0  0
    0.9090    2.1199   -1.8593 H   0  0  0  0  0  0  0  0  0  0  0  0
    1.6659    3.6492   -0.6371 H   0  0  0  0  0  0  0  0  0  0  0  0
    2.0447   -1.2278    0.1164 H   0  0  0  0  0  0  0  0  0  0  0  0
    2.3271    0.1170   -1.0297 H   0  0  0  0  0  0  0  0  0  0  0  0
    4.3101   -0.9141    1.0526 H   0  0  0  0  0  0  0  0  0  0  0  0
    4.4970    0.5275   -0.1025 H   0  0  0  0  0  0  0  0  0  0  0  0
    5.2494   -2.0591   -0.6575 H   0  0  0  0  0  0  0  0  0  0  0  0
    4.8636   -0.7892   -1.8937 H   0  0  0  0  0  0  0  0  0  0  0  0
    3.6136   -1.9954   -1.4400 H   0  0  0  0  0  0  0  0  0  0  0  0
  1  2  1  0
  1  3  1  0
  2  3  1  0
  3  4  1  0
  3  5  1  0
  2  6  1  0
  6  7  1  0
  7  8  1  0
  8  9  1  0
  6 10  1  0
  8 11  1  0
 11 12  1  0
 11 13  1  0
  9 14  1  0
 14 15  1  0
 15 16  1  0
 17 18  1  0
 17 19  1  0
 18 19  1  0
 19 20  1  0
 19 21  1  0
 18 22  1  0
 22 23  1  0
 23 24  1  0
 24 25  1  0
 22 26  1  0
 24 27  1  0
 27 28  1  0
 27 29  1  0
 25 30  1  0
 30 31  1  0
 31 32  1  0
  1 33  1  0
  1 34  1  0
  2 35  1  6
  4 36  1  0
  4 37  1  0
  4 38  1  0
  5 39  1  0
  5 40  1  0
  5 41  1  0
  6 42  1  0
  7 43  1  0
  8 44  1  0
  9 45  1  0
  9 46  1  0
 10 47  1  0
 11 48  1  0
 12 49  1  0
 13 50  1  0
 14 51  1  0
 14 52  1  0
 15 53  1  0
 15 54  1  0
 16 55  1  0
 16 56  1  0
 16 57  1  0
 17 58  1  0
 17 59  1  0
 18 60  1  6
 20 61  1  0
 20 62  1  0
 20 63  1  0
 21 64  1  0
 21 65  1  0
 21 66  1  0
 22 67  1  0
 23 68  1  0
 24 69  1  0
 25 70  1  0
 25 71  1  0
 26 72  1  0
 27 73  1  0
 28 74  1  0
 29 75  1  0
 30 76  1  0
 30 77  1  0
 31 78  1  0
 31 79  1  0
 32 80  1  0
 32 81  1  0
 32 82  1  0
M  END
>  <PDBID>  (1) 
1ITU

>  <PDB ID>  (1) 
1ITU

>  <Generic Name>  (1) 
Cilastatin

>  <Brand Name>  (1) 
Imipenem and Cilastatin#Imipenem and Cilastatin for Injection#Imipenem and Cilastatin for Injection USP#Imipenem and Cilastatin for Injection, USP#Primaxin 250#Primaxin 500#Primaxin IV#Primaxin IV 250/250 Add-vantage Vial#Primaxin IV 500#Ran-imipenem-cilastatin

>  <DrugBank ID>  (1) 
DB01597

>  <ATC Codes>  (1) 
nan

>  <Ligand ID>  (1) 
CIL

>  <Target Name>  (1) 
Dipeptidase 1

>  <UniProt ID>  (1) 
P16444

>  <PDB ID.1>  (1) 
1ITU

>  <Seq. Identity>  (1) 
100%

$$$$
