PDB_DB06228_05
     RDKit          3D

 63 66  0  0  0  0  0  0  0  0999 V2000
   -5.6943   -0.8151    1.0043 C   0  0  0  0  0  0  0  0  0  0  0  0
   -5.4146    0.5042    0.5443 N   0  0  0  0  0  0  0  0  0  0  0  0
   -6.5260   -1.5376   -0.0164 C   0  0  0  0  0  0  0  0  0  0  0  0
   -6.3600    1.0095   -0.4018 C   0  0  0  0  0  0  0  0  0  0  0  0
   -7.7630   -0.9336   -0.0934 O   0  0  0  0  0  0  0  0  0  0  0  0
   -7.7288    0.4391   -0.1324 C   0  0  0  0  0  0  0  0  0  0  0  0
   -1.1892    0.2709    0.0713 C   0  0  0  0  0  0  0  0  0  0  0  0
   -1.8173    1.1695    1.1139 C   0  0  0  0  0  0  0  0  0  0  0  0
   -2.0581    0.2013   -1.1322 C   0  0  0  0  0  0  0  0  0  0  0  0
   -3.1907    0.6653    1.5014 C   0  0  0  0  0  0  0  0  0  0  0  0
   -3.5037   -0.0472   -0.8490 C   0  0  0  0  0  0  0  0  0  0  0  0
   -4.0539    0.7849    0.2616 C   0  0  0  0  0  0  0  0  0  0  0  0
   -6.4577    2.3958   -0.2202 O   0  0  0  0  0  0  0  0  0  0  0  0
    0.1023    0.8445   -0.2427 N   0  0  0  0  0  0  0  0  0  0  0  0
    0.7938    0.1990   -1.3299 C   0  0  0  0  0  0  0  0  0  0  0  0
    1.0380    0.5353    0.8536 C   0  0  0  0  0  0  0  0  0  0  0  0
    1.3410   -0.9671   -0.8644 O   0  0  0  0  0  0  0  0  0  0  0  0
    1.8279   -0.6602    0.3769 C   0  0  1  0  0  0  0  0  0  0  0  0
    1.7954    1.1034   -1.7509 O   0  0  0  0  0  0  0  0  0  0  0  0
    3.3301   -0.3504    0.3773 C   0  0  0  0  0  0  0  0  0  0  0  0
    4.0078   -1.5048   -0.1033 N   0  0  0  0  0  0  0  0  0  0  0  0
    5.4024   -1.5729   -0.0934 C   0  0  0  0  0  0  0  0  0  0  0  0
    5.8317    1.0897   -0.3557 S   0  0  0  0  0  0  0  0  0  0  0  0
    7.2221    1.2566    0.8350 C   0  0  0  0  0  0  0  0  0  0  0  0
    6.1567   -0.6002   -0.9090 C   0  0  0  0  0  0  0  0  0  0  0  0
    7.8824   -0.0774    0.7278 C   0  0  0  0  0  0  0  0  0  0  0  0
    7.6540   -0.6617   -0.6192 C   0  0  0  0  0  0  0  0  0  0  0  0
    5.8846   -2.8841   -0.3292 O   0  0  0  0  0  0  0  0  0  0  0  0
    6.4548    1.3345    2.4587 Cl  0  0  0  0  0  0  0  0  0  0  0  0
   -6.3495   -0.7069    1.9187 H   0  0  0  0  0  0  0  0  0  0  0  0
   -4.8179   -1.3870    1.3390 H   0  0  0  0  0  0  0  0  0  0  0  0
   -6.7113   -2.6054    0.2732 H   0  0  0  0  0  0  0  0  0  0  0  0
   -6.0820   -1.5597   -1.0139 H   0  0  0  0  0  0  0  0  0  0  0  0
   -6.0884    0.8478   -1.4491 H   0  0  0  0  0  0  0  0  0  0  0  0
   -8.1608    0.8223    0.8123 H   0  0  0  0  0  0  0  0  0  0  0  0
   -8.4121    0.7637   -0.9482 H   0  0  0  0  0  0  0  0  0  0  0  0
   -1.0312   -0.7424    0.5118 H   0  0  0  0  0  0  0  0  0  0  0  0
   -1.2361    1.2372    2.0459 H   0  0  0  0  0  0  0  0  0  0  0  0
   -1.9744    2.1807    0.6701 H   0  0  0  0  0  0  0  0  0  0  0  0
   -1.9289    1.1322   -1.7387 H   0  0  0  0  0  0  0  0  0  0  0  0
   -1.7274   -0.6335   -1.8202 H   0  0  0  0  0  0  0  0  0  0  0  0
   -3.6010    1.4152    2.2267 H   0  0  0  0  0  0  0  0  0  0  0  0
   -3.1505   -0.3504    1.9126 H   0  0  0  0  0  0  0  0  0  0  0  0
   -3.6313   -1.1383   -0.6881 H   0  0  0  0  0  0  0  0  0  0  0  0
   -4.0779    0.1976   -1.7755 H   0  0  0  0  0  0  0  0  0  0  0  0
   -3.9883    1.8535   -0.0647 H   0  0  0  0  0  0  0  0  0  0  0  0
   -5.9347    2.7099    0.5655 H   0  0  0  0  0  0  0  0  0  0  0  0
    0.1647    0.0147   -2.2125 H   0  0  0  0  0  0  0  0  0  0  0  0
    0.4976    0.2098    1.7649 H   0  0  0  0  0  0  0  0  0  0  0  0
    1.7046    1.3968    1.0386 H   0  0  0  0  0  0  0  0  0  0  0  0
    1.7297   -1.5405    1.0670 H   0  0  0  0  0  0  0  0  0  0  0  0
    1.3410    1.8955   -2.1627 H   0  0  0  0  0  0  0  0  0  0  0  0
    3.4922    0.5795   -0.2360 H   0  0  0  0  0  0  0  0  0  0  0  0
    3.6330   -0.0968    1.4099 H   0  0  0  0  0  0  0  0  0  0  0  0
    3.6374   -1.8422   -1.0077 H   0  0  0  0  0  0  0  0  0  0  0  0
    5.7270   -1.4030    0.9950 H   0  0  0  0  0  0  0  0  0  0  0  0
    7.8422    2.1234    0.6250 H   0  0  0  0  0  0  0  0  0  0  0  0
    6.0224   -0.7152   -2.0039 H   0  0  0  0  0  0  0  0  0  0  0  0
    8.9850    0.0904    0.8291 H   0  0  0  0  0  0  0  0  0  0  0  0
    7.6056   -0.7821    1.5361 H   0  0  0  0  0  0  0  0  0  0  0  0
    7.9404   -1.7189   -0.5970 H   0  0  0  0  0  0  0  0  0  0  0  0
    8.2014   -0.1318   -1.4071 H   0  0  0  0  0  0  0  0  0  0  0  0
    5.4117   -3.3074   -1.0833 H   0  0  0  0  0  0  0  0  0  0  0  0
  1  2  1  0
  1  3  1  0
  2  4  1  0
  3  5  1  0
  4  6  1  0
  5  6  1  0
  7  8  1  0
  7  9  1  0
  8 10  1  0
  9 11  1  0
  2 12  1  0
 10 12  1  0
 11 12  1  0
  4 13  1  0
  7 14  1  0
 14 15  1  0
 14 16  1  0
 15 17  1  0
 16 18  1  0
 17 18  1  0
 15 19  1  0
 18 20  1  0
 20 21  1  0
 21 22  1  0
 23 24  1  0
 22 25  1  0
 23 25  1  0
 24 26  1  0
 25 27  1  0
 26 27  1  0
 22 28  1  0
 24 29  1  0
  1 30  1  0
  1 31  1  0
  3 32  1  0
  3 33  1  0
  4 34  1  0
  6 35  1  0
  6 36  1  0
  7 37  1  0
  8 38  1  0
  8 39  1  0
  9 40  1  0
  9 41  1  0
 10 42  1  0
 10 43  1  0
 11 44  1  0
 11 45  1  0
 12 46  1  0
 13 47  1  0
 15 48  1  0
 16 49  1  0
 16 50  1  0
 18 51  1  1
 19 52  1  0
 20 53  1  0
 20 54  1  0
 21 55  1  0
 22 56  1  0
 24 57  1  0
 25 58  1  0
 26 59  1  0
 26 60  1  0
 27 61  1  0
 27 62  1  0
 28 63  1  0
M  END
>  <PDBID>  (1) 
2W26

>  <PDB ID>  (1) 
2W26

>  <Generic Name>  (1) 
Rivaroxaban

>  <Brand Name>  (1) 
Xarelto

>  <DrugBank ID>  (1) 
DB06228

>  <ATC Codes>  (1) 
B01AF01

>  <Ligand ID>  (1) 
RIV

>  <Target Name>  (1) 
Coagulation factor X

>  <UniProt ID>  (1) 
P00742

>  <PDB ID.1>  (1) 
2W26

>  <Seq. Identity>  (1) 
100%

$$$$
