PDB_DB01264_06
     RDKit          3D

 91 94  0  0  0  0  0  0  0  0999 V2000
    6.7798   -1.9614    3.0063 N   0  0  0  0  0  0  0  0  0  0  0  0
    5.6482   -1.3199    3.6581 C   0  0  0  0  0  0  0  0  0  0  0  0
    5.3372    0.0232    3.1005 C   0  0  0  0  0  0  0  0  0  0  0  0
    4.6908   -0.0477    1.7257 C   0  0  0  0  0  0  0  0  0  0  0  0
    3.6045   -1.0815    1.6317 C   0  0  0  0  0  0  0  0  0  0  0  0
    3.2829   -1.4477    3.1065 C   0  0  0  0  0  0  0  0  0  0  0  0
    4.4412   -2.2238    3.6880 C   0  0  0  0  0  0  0  0  0  0  0  0
    2.3113   -0.7055    0.7972 S   0  0  0  0  0  0  0  0  0  0  0  0
    1.1619   -2.1686    1.0953 O   0  0  0  0  0  0  0  0  0  0  0  0
    1.3054    0.1890    2.3066 O   0  0  0  0  0  0  0  0  0  0  0  0
    1.8160    0.0129   -0.2657 N   0  0  0  0  0  0  0  0  0  0  0  0
    2.3476    0.3010   -1.5710 C   0  0  0  0  0  0  0  0  0  0  0  0
    3.7175   -0.3153   -1.8254 C   0  0  0  0  0  0  0  0  0  0  0  0
    4.1472    0.0820   -3.2510 C   0  0  0  0  0  0  0  0  0  0  0  0
    3.6570   -1.8254   -1.8526 C   0  0  0  0  0  0  0  0  0  0  0  0
    0.5112    0.7018   -0.1615 C   0  0  0  0  0  0  0  0  0  0  0  0
   -0.4810    0.0451   -1.0719 C   0  0  1  0  0  0  0  0  0  0  0  0
   -0.5426   -1.3206   -0.6759 O   0  0  0  0  0  0  0  0  0  0  0  0
   -1.8416    0.6455   -1.0380 C   0  0  1  0  0  0  0  0  0  0  0  0
   -2.5097    0.7680    0.1997 N   0  0  0  0  0  0  0  0  0  0  0  0
   -2.8473   -0.3852    0.9390 C   0  0  0  0  0  0  0  0  0  0  0  0
   -1.7892   -1.0875    1.5104 O   0  0  0  0  0  0  0  0  0  0  0  0
   -3.6862   -1.2678    0.2455 O   0  0  0  0  0  0  0  0  0  0  0  0
   -4.9202   -1.4218    0.8351 C   0  0  1  0  0  0  0  0  0  0  0  0
   -6.0023   -1.0020   -0.1331 C   0  0  0  0  0  0  0  0  0  0  0  0
   -7.0483   -1.8750   -0.0495 O   0  0  0  0  0  0  0  0  0  0  0  0
   -6.7765   -2.8410    0.8758 C   0  0  1  0  0  0  0  0  0  0  0  0
   -7.0804   -4.1221    0.4343 O   0  0  0  0  0  0  0  0  0  0  0  0
   -6.0166   -4.6074   -0.2819 C   0  0  0  0  0  0  0  0  0  0  0  0
   -4.8003   -3.7964    0.0501 C   0  0  0  0  0  0  0  0  0  0  0  0
   -5.2842   -2.8423    1.1190 C   0  0  1  0  0  0  0  0  0  0  0  0
   -2.0633    1.7656   -1.9688 C   0  0  0  0  0  0  0  0  0  0  0  0
   -1.7316    3.9780   -2.9661 C   0  0  0  0  0  0  0  0  0  0  0  0
   -1.0126    5.2739   -2.8512 C   0  0  0  0  0  0  0  0  0  0  0  0
   -1.1454    5.9160   -1.4991 C   0  0  0  0  0  0  0  0  0  0  0  0
   -0.5598    4.9458   -0.4803 C   0  0  0  0  0  0  0  0  0  0  0  0
   -1.3869    3.6791   -0.5706 C   0  0  0  0  0  0  0  0  0  0  0  0
   -1.2360    2.9830   -1.8764 C   0  0  0  0  0  0  0  0  0  0  0  0
    6.6370   -2.9841    2.8524 H   0  0  0  0  0  0  0  0  0  0  0  0
    7.0546   -1.4450    2.1395 H   0  0  0  0  0  0  0  0  0  0  0  0
    5.9595   -1.1734    4.7271 H   0  0  0  0  0  0  0  0  0  0  0  0
    6.2905    0.5808    2.9741 H   0  0  0  0  0  0  0  0  0  0  0  0
    4.7340    0.5977    3.8286 H   0  0  0  0  0  0  0  0  0  0  0  0
    5.5237   -0.2635    1.0037 H   0  0  0  0  0  0  0  0  0  0  0  0
    4.3483    0.9715    1.4903 H   0  0  0  0  0  0  0  0  0  0  0  0
    4.1176   -2.0310    1.2851 H   0  0  0  0  0  0  0  0  0  0  0  0
    3.0534   -0.5179    3.6551 H   0  0  0  0  0  0  0  0  0  0  0  0
    2.3828   -2.0954    3.1338 H   0  0  0  0  0  0  0  0  0  0  0  0
    4.1841   -2.5541    4.7118 H   0  0  0  0  0  0  0  0  0  0  0  0
    4.6361   -3.0771    3.0068 H   0  0  0  0  0  0  0  0  0  0  0  0
    1.8655   -2.8482    0.9488 H   0  0  0  0  0  0  0  0  0  0  0  0
    1.8514    1.0165    2.1221 H   0  0  0  0  0  0  0  0  0  0  0  0
    1.7298   -0.0848   -2.4195 H   0  0  0  0  0  0  0  0  0  0  0  0
    2.3858    1.4123   -1.7695 H   0  0  0  0  0  0  0  0  0  0  0  0
    4.4865   -0.0088   -1.1215 H   0  0  0  0  0  0  0  0  0  0  0  0
    3.7505   -0.6317   -3.9891 H   0  0  0  0  0  0  0  0  0  0  0  0
    5.2530    0.1489   -3.2806 H   0  0  0  0  0  0  0  0  0  0  0  0
    3.7297    1.1019   -3.3975 H   0  0  0  0  0  0  0  0  0  0  0  0
    3.3010   -2.1843   -2.8650 H   0  0  0  0  0  0  0  0  0  0  0  0
    3.0535   -2.2669   -1.0526 H   0  0  0  0  0  0  0  0  0  0  0  0
    4.6921   -2.2092   -1.7758 H   0  0  0  0  0  0  0  0  0  0  0  0
    0.1862    0.6859    0.9010 H   0  0  0  0  0  0  0  0  0  0  0  0
    0.7348    1.7446   -0.3962 H   0  0  0  0  0  0  0  0  0  0  0  0
   -0.1332    0.0583   -2.0975 H   0  0  0  0  0  0  0  0  0  0  0  0
   -0.9910   -1.8738   -1.3310 H   0  0  0  0  0  0  0  0  0  0  0  0
   -2.4749   -0.2494   -1.5372 H   0  0  0  0  0  0  0  0  0  0  0  0
   -3.3823    1.3213    0.0359 H   0  0  0  0  0  0  0  0  0  0  0  0
   -3.4626   -0.0388    1.8226 H   0  0  0  0  0  0  0  0  0  0  0  0
   -1.9419   -2.0636    1.5382 H   0  0  0  0  0  0  0  0  0  0  0  0
   -5.0492   -0.8280    1.7541 H   0  0  0  0  0  0  0  0  0  0  0  0
   -5.5676   -1.0946   -1.1710 H   0  0  0  0  0  0  0  0  0  0  0  0
   -6.3320    0.0362    0.0079 H   0  0  0  0  0  0  0  0  0  0  0  0
   -7.3159   -2.6715    1.8538 H   0  0  0  0  0  0  0  0  0  0  0  0
   -5.8763   -5.6958   -0.0246 H   0  0  0  0  0  0  0  0  0  0  0  0
   -6.2640   -4.6106   -1.3675 H   0  0  0  0  0  0  0  0  0  0  0  0
   -4.4140   -3.2593   -0.8401 H   0  0  0  0  0  0  0  0  0  0  0  0
   -4.0546   -4.4712    0.5178 H   0  0  0  0  0  0  0  0  0  0  0  0
   -5.0182   -3.1836    2.1429 H   0  0  0  0  0  0  0  0  0  0  0  0
   -3.1672    2.0579   -1.9356 H   0  0  0  0  0  0  0  0  0  0  0  0
   -1.9960    1.3649   -3.0398 H   0  0  0  0  0  0  0  0  0  0  0  0
   -2.8215    4.0552   -2.9257 H   0  0  0  0  0  0  0  0  0  0  0  0
   -1.4556    3.4934   -3.9241 H   0  0  0  0  0  0  0  0  0  0  0  0
   -1.4565    5.9724   -3.5926 H   0  0  0  0  0  0  0  0  0  0  0  0
    0.0575    5.1305   -3.1378 H   0  0  0  0  0  0  0  0  0  0  0  0
   -2.2000    6.0881   -1.2789 H   0  0  0  0  0  0  0  0  0  0  0  0
   -0.5448    6.8564   -1.5299 H   0  0  0  0  0  0  0  0  0  0  0  0
   -0.7183    5.3807    0.5125 H   0  0  0  0  0  0  0  0  0  0  0  0
    0.4963    4.7777   -0.7253 H   0  0  0  0  0  0  0  0  0  0  0  0
   -2.4600    4.0308   -0.5119 H   0  0  0  0  0  0  0  0  0  0  0  0
   -1.2219    3.0414    0.3017 H   0  0  0  0  0  0  0  0  0  0  0  0
   -0.1734    2.8463   -2.1647 H   0  0  0  0  0  0  0  0  0  0  0  0
  1  2  1  0
  2  3  1  0
  3  4  1  0
  4  5  1  0
  5  6  1  0
  2  7  1  0
  6  7  1  0
  5  8  1  0
  8  9  1  0
  8 10  1  0
  8 11  1  0
 11 12  1  0
 12 13  1  0
 13 14  1  0
 13 15  1  0
 11 16  1  0
 16 17  1  0
 17 18  1  0
 17 19  1  0
 19 20  1  0
 20 21  1  0
 21 22  1  0
 21 23  1  0
 23 24  1  0
 24 25  1  0
 25 26  1  0
 26 27  1  0
 27 28  1  0
 28 29  1  0
 29 30  1  0
 24 31  1  0
 27 31  1  0
 30 31  1  0
 19 32  1  0
 33 34  1  0
 34 35  1  0
 35 36  1  0
 36 37  1  0
 32 38  1  0
 33 38  1  0
 37 38  1  0
  1 39  1  0
  1 40  1  0
  2 41  1  0
  3 42  1  0
  3 43  1  0
  4 44  1  0
  4 45  1  0
  5 46  1  0
  6 47  1  0
  6 48  1  0
  7 49  1  0
  7 50  1  0
  9 51  1  0
 10 52  1  0
 12 53  1  0
 12 54  1  0
 13 55  1  0
 14 56  1  0
 14 57  1  0
 14 58  1  0
 15 59  1  0
 15 60  1  0
 15 61  1  0
 16 62  1  0
 16 63  1  0
 17 64  1  6
 18 65  1  0
 19 66  1  6
 20 67  1  0
 21 68  1  0
 22 69  1  0
 24 70  1  1
 25 71  1  0
 25 72  1  0
 27 73  1  1
 29 74  1  0
 29 75  1  0
 30 76  1  0
 30 77  1  0
 31 78  1  1
 32 79  1  0
 32 80  1  0
 33 81  1  0
 33 82  1  0
 34 83  1  0
 34 84  1  0
 35 85  1  0
 35 86  1  0
 36 87  1  0
 36 88  1  0
 37 89  1  0
 37 90  1  0
 38 91  1  0
M  END
>  <PDBID>  (1) 
4HLA

>  <PDB ID>  (1) 
4HLA

>  <Generic Name>  (1) 
Darunavir

>  <Brand Name>  (1) 
Pat-darunavir#Prezcobix#Prezista

>  <DrugBank ID>  (1) 
DB01264

>  <ATC Codes>  (1) 
J05AE10#J05AR14

>  <Ligand ID>  (1) 
17

>  <Target Name>  (1) 
Pol polyprotein

>  <UniProt ID>  (1) 
Q72874

>  <PDB ID.1>  (1) 
4HLA

>  <Seq. Identity>  (1) 
99%

$$$$
