PDB_DB00317_06
     RDKit          3D

 71 74  0  0  0  0  0  0  0  0999 V2000
    5.8708   -0.5998    0.7240 C   0  0  0  0  0  0  0  0  0  0  0  0
    7.3805   -0.7350    1.0242 C   0  0  0  0  0  0  0  0  0  0  0  0
    7.9254    0.4947    1.4145 O   0  0  0  0  0  0  0  0  0  0  0  0
    7.2027    1.5732    0.9663 C   0  0  0  0  0  0  0  0  0  0  0  0
    6.6424    1.3352   -0.4250 C   0  0  0  0  0  0  0  0  0  0  0  0
    5.7725    0.1621   -0.4627 N   0  0  0  0  0  0  0  0  0  0  0  0
    4.4772    0.4709   -0.9527 C   0  0  0  0  0  0  0  0  0  0  0  0
    3.7913   -0.7701   -1.4989 C   0  0  0  0  0  0  0  0  0  0  0  0
    2.4674   -0.3949   -2.1175 C   0  0  0  0  0  0  0  0  0  0  0  0
    1.4942    0.0990   -1.3296 O   0  0  0  0  0  0  0  0  0  0  0  0
    0.8374   -0.7944   -0.5093 C   0  0  0  0  0  0  0  0  0  0  0  0
    0.9219   -0.4303    0.9199 C   0  0  0  0  0  0  0  0  0  0  0  0
    0.4468    0.9957    1.1782 C   0  0  0  0  0  0  0  0  0  0  0  0
    2.1939   -0.5563    1.4245 O   0  0  0  0  0  0  0  0  0  0  0  0
    2.1693   -1.5034    2.4870 C   0  0  0  0  0  0  0  0  0  0  0  0
   -0.6197   -0.8334   -0.9853 C   0  0  0  0  0  0  0  0  0  0  0  0
   -1.4416    0.1068   -0.1228 C   0  0  0  0  0  0  0  0  0  0  0  0
   -0.6136    1.3523    0.1466 C   0  0  0  0  0  0  0  0  0  0  0  0
   -1.3788    2.4402    0.7103 N   0  0  0  0  0  0  0  0  0  0  0  0
   -2.6018    2.6820    0.0081 C   0  0  0  0  0  0  0  0  0  0  0  0
   -3.3698    1.4671    0.0500 N   0  0  0  0  0  0  0  0  0  0  0  0
   -2.7131    0.5140   -0.8844 C   0  0  0  0  0  0  0  0  0  0  0  0
   -3.6010   -0.5643   -1.1416 N   0  0  0  0  0  0  0  0  0  0  0  0
   -4.8463   -0.4982   -0.4154 C   0  0  0  0  0  0  0  0  0  0  0  0
   -5.2440   -1.6735    0.3934 C   0  0  0  0  0  0  0  0  0  0  0  0
   -6.4888   -1.3364    1.1824 C   0  0  0  0  0  0  0  0  0  0  0  0
   -7.1322   -2.9059    1.8021 Cl  0  0  0  0  0  0  0  0  0  0  0  0
   -7.5938   -0.7089    0.4177 C   0  0  0  0  0  0  0  0  0  0  0  0
   -8.3968   -0.0034    1.3115 F   0  0  0  0  0  0  0  0  0  0  0  0
   -7.1457    0.2785   -0.6238 C   0  0  0  0  0  0  0  0  0  0  0  0
   -5.9893   -0.2213   -1.4271 C   0  0  0  0  0  0  0  0  0  0  0  0
    5.3623   -0.1021    1.5781 H   0  0  0  0  0  0  0  0  0  0  0  0
    5.5117   -1.6317    0.5670 H   0  0  0  0  0  0  0  0  0  0  0  0
    7.5638   -1.5046    1.7729 H   0  0  0  0  0  0  0  0  0  0  0  0
    7.8636   -1.0033    0.0708 H   0  0  0  0  0  0  0  0  0  0  0  0
    6.3659    1.8021    1.6515 H   0  0  0  0  0  0  0  0  0  0  0  0
    7.8831    2.4638    0.8908 H   0  0  0  0  0  0  0  0  0  0  0  0
    6.0076    2.2080   -0.6926 H   0  0  0  0  0  0  0  0  0  0  0  0
    7.4590    1.2943   -1.1741 H   0  0  0  0  0  0  0  0  0  0  0  0
    4.6277    1.1507   -1.8604 H   0  0  0  0  0  0  0  0  0  0  0  0
    3.8339    0.9960   -0.2117 H   0  0  0  0  0  0  0  0  0  0  0  0
    3.6938   -1.5504   -0.7349 H   0  0  0  0  0  0  0  0  0  0  0  0
    4.4504   -1.1492   -2.3317 H   0  0  0  0  0  0  0  0  0  0  0  0
    2.6923    0.3140   -2.9512 H   0  0  0  0  0  0  0  0  0  0  0  0
    2.1277   -1.3360   -2.6480 H   0  0  0  0  0  0  0  0  0  0  0  0
    1.2097   -1.8442   -0.6095 H   0  0  0  0  0  0  0  0  0  0  0  0
    0.2656   -1.1277    1.5472 H   0  0  0  0  0  0  0  0  0  0  0  0
    0.0025    1.0604    2.1785 H   0  0  0  0  0  0  0  0  0  0  0  0
    1.2719    1.7063    1.0274 H   0  0  0  0  0  0  0  0  0  0  0  0
    1.8577   -2.4984    2.0495 H   0  0  0  0  0  0  0  0  0  0  0  0
    1.3212   -1.2274    3.1920 H   0  0  0  0  0  0  0  0  0  0  0  0
    3.1301   -1.6239    2.9813 H   0  0  0  0  0  0  0  0  0  0  0  0
   -0.6626   -0.4432   -2.0563 H   0  0  0  0  0  0  0  0  0  0  0  0
   -1.0338   -1.8557   -1.0161 H   0  0  0  0  0  0  0  0  0  0  0  0
   -1.7546   -0.4195    0.7785 H   0  0  0  0  0  0  0  0  0  0  0  0
   -0.1490    1.6749   -0.7960 H   0  0  0  0  0  0  0  0  0  0  0  0
   -0.8117    3.2868    0.7596 H   0  0  0  0  0  0  0  0  0  0  0  0
   -3.1941    3.4192    0.6257 H   0  0  0  0  0  0  0  0  0  0  0  0
   -2.4680    3.0247   -1.0385 H   0  0  0  0  0  0  0  0  0  0  0  0
   -3.1910    1.0470    1.0105 H   0  0  0  0  0  0  0  0  0  0  0  0
   -2.4150    1.0760   -1.8078 H   0  0  0  0  0  0  0  0  0  0  0  0
   -3.1594   -1.5109   -0.9681 H   0  0  0  0  0  0  0  0  0  0  0  0
   -4.9186    0.3933    0.2741 H   0  0  0  0  0  0  0  0  0  0  0  0
   -4.4592   -1.8792    1.1476 H   0  0  0  0  0  0  0  0  0  0  0  0
   -5.4278   -2.5946   -0.2253 H   0  0  0  0  0  0  0  0  0  0  0  0
   -6.1965   -0.7777    2.0935 H   0  0  0  0  0  0  0  0  0  0  0  0
   -8.2788   -1.4561   -0.0701 H   0  0  0  0  0  0  0  0  0  0  0  0
   -7.9941    0.4388   -1.3262 H   0  0  0  0  0  0  0  0  0  0  0  0
   -6.8960    1.2592   -0.1820 H   0  0  0  0  0  0  0  0  0  0  0  0
   -6.2544   -1.1187   -1.9865 H   0  0  0  0  0  0  0  0  0  0  0  0
   -5.6545    0.5964   -2.0924 H   0  0  0  0  0  0  0  0  0  0  0  0
  1  2  1  0
  2  3  1  0
  3  4  1  0
  4  5  1  0
  1  6  1  0
  5  6  1  0
  6  7  1  0
  7  8  1  0
  8  9  1  0
  9 10  1  0
 10 11  1  0
 11 12  1  0
 12 13  1  0
 12 14  1  0
 14 15  1  0
 11 16  1  0
 16 17  1  0
 13 18  1  0
 17 18  1  0
 18 19  1  0
 19 20  1  0
 20 21  1  0
 17 22  1  0
 21 22  1  0
 22 23  1  0
 23 24  1  0
 24 25  1  0
 25 26  1  0
 26 27  1  0
 26 28  1  0
 28 29  1  0
 28 30  1  0
 24 31  1  0
 30 31  1  0
  1 32  1  0
  1 33  1  0
  2 34  1  0
  2 35  1  0
  4 36  1  0
  4 37  1  0
  5 38  1  0
  5 39  1  0
  7 40  1  0
  7 41  1  0
  8 42  1  0
  8 43  1  0
  9 44  1  0
  9 45  1  0
 11 46  1  0
 12 47  1  0
 13 48  1  0
 13 49  1  0
 15 50  1  0
 15 51  1  0
 15 52  1  0
 16 53  1  0
 16 54  1  0
 17 55  1  0
 18 56  1  0
 19 57  1  0
 20 58  1  0
 20 59  1  0
 21 60  1  0
 22 61  1  0
 23 62  1  0
 24 63  1  0
 25 64  1  0
 25 65  1  0
 26 66  1  0
 28 67  1  0
 30 68  1  0
 30 69  1  0
 31 70  1  0
 31 71  1  0
M  END
>  <PDBID>  (1) 
4WKQ

>  <PDB ID>  (1) 
4WKQ

>  <Generic Name>  (1) 
Gefitinib

>  <Brand Name>  (1) 
Iressa

>  <DrugBank ID>  (1) 
DB00317

>  <ATC Codes>  (1) 
L01XE02

>  <Ligand ID>  (1) 
IRE

>  <Target Name>  (1) 
Epidermal growth factor receptor

>  <UniProt ID>  (1) 
P00533

>  <PDB ID.1>  (1) 
4WKQ

>  <Seq. Identity>  (1) 
96%

$$$$
