PDB_DB00806_06
     RDKit          3D

 96 98  0  0  0  0  0  0  0  0999 V2000
    6.2871    0.3123    0.1146 C   0  0  0  0  0  0  0  0  0  0  0  0
    4.8276    0.0930   -0.3017 C   0  0  0  0  0  0  0  0  0  0  0  0
    4.1206    1.1165    0.3752 O   0  0  0  0  0  0  0  0  0  0  0  0
    4.3914   -1.2278    0.2237 C   0  0  0  0  0  0  0  0  0  0  0  0
    2.9959   -1.6364   -0.1016 C   0  0  0  0  0  0  0  0  0  0  0  0
    1.9494   -0.6843    0.4065 C   0  0  0  0  0  0  0  0  0  0  0  0
    0.5875   -1.2755    0.0767 C   0  0  0  0  0  0  0  0  0  0  0  0
   -0.5005   -0.4305    0.5243 N   0  0  0  0  0  0  0  0  0  0  0  0
   -1.7353   -1.1875    0.4768 C   0  0  0  0  0  0  0  0  0  0  0  0
   -2.0365   -1.7780   -0.7091 O   0  0  0  0  0  0  0  0  0  0  0  0
   -2.8674   -0.3121    0.9275 C   0  0  0  0  0  0  0  0  0  0  0  0
   -4.1530   -0.9228    0.6660 N   0  0  0  0  0  0  0  0  0  0  0  0
   -5.0946   -0.3057    1.5961 C   0  0  0  0  0  0  0  0  0  0  0  0
   -4.5465   -0.5545   -0.6532 C   0  0  0  0  0  0  0  0  0  0  0  0
   -4.0235    0.7723   -0.8356 N   0  0  0  0  0  0  0  0  0  0  0  0
   -2.9659    0.9623    0.1450 C   0  0  0  0  0  0  0  0  0  0  0  0
   -1.7924    1.3641   -0.5178 N   0  0  0  0  0  0  0  0  0  0  0  0
   -1.7128    2.8075   -0.5588 C   0  0  0  0  0  0  0  0  0  0  0  0
   -0.5687    0.7425   -0.3053 C   0  0  0  0  0  0  0  0  0  0  0  0
    0.3277    1.6784    0.2042 O   0  0  0  0  0  0  0  0  0  0  0  0
    6.2871    0.3123    0.1146 C   0  0  0  0  0  0  0  0  0  0  0  0
    4.8276    0.0930   -0.3017 C   0  0  0  0  0  0  0  0  0  0  0  0
    4.1206    1.1165    0.3752 O   0  0  0  0  0  0  0  0  0  0  0  0
    4.3914   -1.2278    0.2237 C   0  0  0  0  0  0  0  0  0  0  0  0
    2.9959   -1.6364   -0.1016 C   0  0  0  0  0  0  0  0  0  0  0  0
    1.9494   -0.6843    0.4065 C   0  0  0  0  0  0  0  0  0  0  0  0
    0.5875   -1.2755    0.0767 C   0  0  0  0  0  0  0  0  0  0  0  0
   -0.5005   -0.4305    0.5243 N   0  0  0  0  0  0  0  0  0  0  0  0
   -1.7353   -1.1875    0.4768 C   0  0  0  0  0  0  0  0  0  0  0  0
   -2.0365   -1.7780   -0.7091 O   0  0  0  0  0  0  0  0  0  0  0  0
   -2.8674   -0.3121    0.9275 C   0  0  0  0  0  0  0  0  0  0  0  0
   -4.1530   -0.9228    0.6660 N   0  0  0  0  0  0  0  0  0  0  0  0
   -5.0946   -0.3057    1.5961 C   0  0  0  0  0  0  0  0  0  0  0  0
   -4.5465   -0.5545   -0.6532 C   0  0  0  0  0  0  0  0  0  0  0  0
   -4.0235    0.7723   -0.8356 N   0  0  0  0  0  0  0  0  0  0  0  0
   -2.9659    0.9623    0.1450 C   0  0  0  0  0  0  0  0  0  0  0  0
   -1.7924    1.3641   -0.5178 N   0  0  0  0  0  0  0  0  0  0  0  0
   -1.7128    2.8075   -0.5588 C   0  0  0  0  0  0  0  0  0  0  0  0
   -0.5687    0.7425   -0.3053 C   0  0  0  0  0  0  0  0  0  0  0  0
    0.3277    1.6784    0.2042 O   0  0  0  0  0  0  0  0  0  0  0  0
    6.9006   -0.5780   -0.1584 H   0  0  0  0  0  0  0  0  0  0  0  0
    6.6770    1.2477   -0.3564 H   0  0  0  0  0  0  0  0  0  0  0  0
    6.3078    0.4284    1.2269 H   0  0  0  0  0  0  0  0  0  0  0  0
    4.7512    0.1832   -1.3949 H   0  0  0  0  0  0  0  0  0  0  0  0
    4.7055    1.8641    0.5834 H   0  0  0  0  0  0  0  0  0  0  0  0
    5.0709   -2.0143   -0.2287 H   0  0  0  0  0  0  0  0  0  0  0  0
    4.5420   -1.2885    1.3452 H   0  0  0  0  0  0  0  0  0  0  0  0
    2.9550   -1.7052   -1.2364 H   0  0  0  0  0  0  0  0  0  0  0  0
    2.8174   -2.6807    0.2331 H   0  0  0  0  0  0  0  0  0  0  0  0
    2.0135   -0.5200    1.4955 H   0  0  0  0  0  0  0  0  0  0  0  0
    2.1066    0.2702   -0.1139 H   0  0  0  0  0  0  0  0  0  0  0  0
    0.5388   -2.2704    0.5307 H   0  0  0  0  0  0  0  0  0  0  0  0
    0.5955   -1.3838   -1.0321 H   0  0  0  0  0  0  0  0  0  0  0  0
   -1.6261   -1.9966    1.2551 H   0  0  0  0  0  0  0  0  0  0  0  0
   -1.3622   -1.7829   -1.4004 H   0  0  0  0  0  0  0  0  0  0  0  0
   -2.7909   -0.1135    2.0177 H   0  0  0  0  0  0  0  0  0  0  0  0
   -4.6152   -0.1021    2.5648 H   0  0  0  0  0  0  0  0  0  0  0  0
   -6.0210   -0.9052    1.7112 H   0  0  0  0  0  0  0  0  0  0  0  0
   -5.3614    0.6798    1.1624 H   0  0  0  0  0  0  0  0  0  0  0  0
   -4.1939   -1.2499   -1.4396 H   0  0  0  0  0  0  0  0  0  0  0  0
   -5.6605   -0.5822   -0.7057 H   0  0  0  0  0  0  0  0  0  0  0  0
   -3.6923    0.8872   -1.8262 H   0  0  0  0  0  0  0  0  0  0  0  0
   -3.3169    1.7553    0.8395 H   0  0  0  0  0  0  0  0  0  0  0  0
   -1.2157    3.1460    0.3655 H   0  0  0  0  0  0  0  0  0  0  0  0
   -1.2741    3.2206   -1.4687 H   0  0  0  0  0  0  0  0  0  0  0  0
   -2.7696    3.1888   -0.4958 H   0  0  0  0  0  0  0  0  0  0  0  0
   -0.1537    0.4278   -1.3106 H   0  0  0  0  0  0  0  0  0  0  0  0
    0.5812    2.3404   -0.4990 H   0  0  0  0  0  0  0  0  0  0  0  0
    6.9006   -0.5780   -0.1584 H   0  0  0  0  0  0  0  0  0  0  0  0
    6.6770    1.2477   -0.3564 H   0  0  0  0  0  0  0  0  0  0  0  0
    6.3078    0.4284    1.2269 H   0  0  0  0  0  0  0  0  0  0  0  0
    4.7512    0.1832   -1.3949 H   0  0  0  0  0  0  0  0  0  0  0  0
    4.7055    1.8641    0.5834 H   0  0  0  0  0  0  0  0  0  0  0  0
    5.0709   -2.0143   -0.2287 H   0  0  0  0  0  0  0  0  0  0  0  0
    4.5420   -1.2885    1.3452 H   0  0  0  0  0  0  0  0  0  0  0  0
    2.9550   -1.7052   -1.2364 H   0  0  0  0  0  0  0  0  0  0  0  0
    2.8174   -2.6807    0.2331 H   0  0  0  0  0  0  0  0  0  0  0  0
    2.0135   -0.5200    1.4955 H   0  0  0  0  0  0  0  0  0  0  0  0
    2.1066    0.2702   -0.1139 H   0  0  0  0  0  0  0  0  0  0  0  0
    0.5388   -2.2704    0.5307 H   0  0  0  0  0  0  0  0  0  0  0  0
    0.5955   -1.3838   -1.0321 H   0  0  0  0  0  0  0  0  0  0  0  0
   -1.6261   -1.9966    1.2551 H   0  0  0  0  0  0  0  0  0  0  0  0
   -1.3622   -1.7829   -1.4004 H   0  0  0  0  0  0  0  0  0  0  0  0
   -2.7909   -0.1135    2.0177 H   0  0  0  0  0  0  0  0  0  0  0  0
   -4.6152   -0.1021    2.5648 H   0  0  0  0  0  0  0  0  0  0  0  0
   -6.0210   -0.9052    1.7112 H   0  0  0  0  0  0  0  0  0  0  0  0
   -5.3614    0.6798    1.1624 H   0  0  0  0  0  0  0  0  0  0  0  0
   -4.1939   -1.2499   -1.4396 H   0  0  0  0  0  0  0  0  0  0  0  0
   -5.6605   -0.5822   -0.7057 H   0  0  0  0  0  0  0  0  0  0  0  0
   -3.6923    0.8872   -1.8262 H   0  0  0  0  0  0  0  0  0  0  0  0
   -3.3169    1.7553    0.8395 H   0  0  0  0  0  0  0  0  0  0  0  0
   -1.2157    3.1460    0.3655 H   0  0  0  0  0  0  0  0  0  0  0  0
   -1.2741    3.2206   -1.4687 H   0  0  0  0  0  0  0  0  0  0  0  0
   -2.7696    3.1888   -0.4958 H   0  0  0  0  0  0  0  0  0  0  0  0
   -0.1537    0.4278   -1.3106 H   0  0  0  0  0  0  0  0  0  0  0  0
    0.5812    2.3404   -0.4990 H   0  0  0  0  0  0  0  0  0  0  0  0
  1  2  1  0
  2  3  1  0
  2  4  1  0
  4  5  1  0
  5  6  1  0
  6  7  1  0
  7  8  1  0
  8  9  1  0
  9 10  1  0
  9 11  1  0
 11 12  1  0
 12 13  1  0
 12 14  1  0
 14 15  1  0
 11 16  1  0
 15 16  1  0
 16 17  1  0
 17 18  1  0
  8 19  1  0
 17 19  1  0
 19 20  1  0
 21 22  1  0
 22 23  1  0
 22 24  1  0
 24 25  1  0
 25 26  1  0
 26 27  1  0
 27 28  1  0
 28 29  1  0
 29 30  1  0
 29 31  1  0
 31 32  1  0
 32 33  1  0
 32 34  1  0
 34 35  1  0
 31 36  1  0
 35 36  1  0
 36 37  1  0
 37 38  1  0
 28 39  1  0
 37 39  1  0
 39 40  1  0
  1 41  1  0
  1 42  1  0
  1 43  1  0
  2 44  1  0
  3 45  1  0
  4 46  1  0
  4 47  1  0
  5 48  1  0
  5 49  1  0
  6 50  1  0
  6 51  1  0
  7 52  1  0
  7 53  1  0
  9 54  1  0
 10 55  1  0
 11 56  1  0
 13 57  1  0
 13 58  1  0
 13 59  1  0
 14 60  1  0
 14 61  1  0
 15 62  1  0
 16 63  1  0
 18 64  1  0
 18 65  1  0
 18 66  1  0
 19 67  1  0
 20 68  1  0
 21 69  1  0
 21 70  1  0
 21 71  1  0
 22 72  1  0
 23 73  1  0
 24 74  1  0
 24 75  1  0
 25 76  1  0
 25 77  1  0
 26 78  1  0
 26 79  1  0
 27 80  1  0
 27 81  1  0
 29 82  1  0
 30 83  1  0
 31 84  1  0
 33 85  1  0
 33 86  1  0
 33 87  1  0
 34 88  1  0
 34 89  1  0
 35 90  1  0
 36 91  1  0
 38 92  1  0
 38 93  1  0
 38 94  1  0
 39 95  1  0
 40 96  1  0
M  END
>  <PDBID>  (1) 
3TVX

>  <PDB ID>  (1) 
3TVX

>  <Generic Name>  (1) 
Pentoxifylline

>  <Brand Name>  (1) 
Gapeam Budibac#Nu-pentoxifylline-SR 400 mg#Pentoxifylline#Pentoxifylline SR#Ratio-pentoxifylline#Trental#Trental Srt 400mg#Trental Tab 400mg#Agapurin#Agapurin SR#An Ruo Ning#Angiopent#Ao Le Ni#Ao Nuo Hong#Aotong#Azupentat#Behrifil#Bo Shu Te#Claudicat#Durapental#Elorgan#Endopentoksas#Pentilin#Pentilin Retard#Pentoflux#Pentofyllin#Pentoksifilin#Pentolab#Pentomer#Pentoxil#Rentylin#Torental#Trentilin Retard

>  <DrugBank ID>  (1) 
DB00806

>  <ATC Codes>  (1) 
C04AD03

>  <Ligand ID>  (1) 
PNX

>  <Target Name>  (1) 
cAMP-specific 3',5'-cyclic phosphodiesterase 4B

>  <UniProt ID>  (1) 
Q07343

>  <PDB ID.1>  (1) 
3TVX

>  <Seq. Identity>  (1) 
84%

$$$$
