PDB_DB08864_04
     RDKit          3D

 74 76  0  0  0  0  0  0  0  0999 V2000
    2.7705    1.1832   -1.5065 C   0  0  0  0  0  0  0  0  0  0  0  0
   -2.4647    1.4324    1.3099 N   0  0  0  0  0  0  0  0  0  0  0  0
    4.0309   -0.5991   -0.3514 C   0  0  0  0  0  0  0  0  0  0  0  0
    3.6482   -1.2212   -1.6661 C   0  0  0  0  0  0  0  0  0  0  0  0
    2.1759   -1.1238   -1.8815 C   0  0  0  0  0  0  0  0  0  0  0  0
    1.5925    0.2383   -1.5019 C   0  0  0  0  0  0  0  0  0  0  0  0
    2.4135    2.6297   -1.5367 C   0  0  0  0  0  0  0  0  0  0  0  0
    3.7146    0.8715   -0.3447 C   0  0  0  0  0  0  0  0  0  0  0  0
    1.4151   -2.2286   -1.1845 C   0  0  0  0  0  0  0  0  0  0  0  0
    0.9521    0.1060   -0.2609 N   0  0  0  0  0  0  0  0  0  0  0  0
   -1.2897    1.7879    2.1045 C   0  0  0  0  0  0  0  0  0  0  0  0
   -0.1931    0.8422    1.7456 C   0  0  0  0  0  0  0  0  0  0  0  0
    0.3036    1.2110    0.3354 C   0  0  0  0  0  0  0  0  0  0  0  0
   -0.8071    1.7342   -0.3902 N   0  0  0  0  0  0  0  0  0  0  0  0
   -2.0586    1.1302   -0.0554 C   0  0  1  0  0  0  0  0  0  0  0  0
   -2.0645   -0.2731   -0.3306 N   0  0  0  0  0  0  0  0  0  0  0  0
   -6.0941   -1.4978    0.1704 C   0  0  0  0  0  0  0  0  0  0  0  0
   -5.5245   -1.3461   -1.2001 C   0  0  0  0  0  0  0  0  0  0  0  0
   -4.3428   -0.3797   -1.2363 C   0  0  0  0  0  0  0  0  0  0  0  0
   -3.3373   -0.9077   -0.2330 C   0  0  0  0  0  0  0  0  0  0  0  0
   -3.9694   -0.7301    1.1296 C   0  0  0  0  0  0  0  0  0  0  0  0
   -5.0751   -1.7691    1.2424 C   0  0  0  0  0  0  0  0  0  0  0  0
   -8.1212   -0.2189   -0.3456 N   0  0  0  0  0  0  0  0  0  0  0  0
   -7.0008   -0.3455    0.5530 C   0  0  0  0  0  0  0  0  0  0  0  0
    5.8247   -0.1230    1.2303 C   0  0  0  0  0  0  0  0  0  0  0  0
    5.5348   -0.7599   -0.0907 C   0  0  0  0  0  0  0  0  0  0  0  0
    8.0860    0.4549    0.6177 N   0  0  0  0  0  0  0  0  0  0  0  0
    7.2818   -0.2129    1.6184 C   0  0  0  0  0  0  0  0  0  0  0  0
    4.1917   -0.8501   -2.5375 H   0  0  0  0  0  0  0  0  0  0  0  0
    2.9654    3.1408   -2.3682 H   0  0  0  0  0  0  0  0  0  0  0  0
    1.3406    2.7885   -1.7274 H   0  0  0  0  0  0  0  0  0  0  0  0
    2.7759    3.1429   -0.6150 H   0  0  0  0  0  0  0  0  0  0  0  0
    4.6052    1.5029   -0.5253 H   0  0  0  0  0  0  0  0  0  0  0  0
    0.3779   -1.8707   -1.0307 H   0  0  0  0  0  0  0  0  0  0  0  0
    1.3031   -3.1170   -1.8628 H   0  0  0  0  0  0  0  0  0  0  0  0
    1.8186   -2.5094   -0.2047 H   0  0  0  0  0  0  0  0  0  0  0  0
    1.2057   -0.6545    0.3647 H   0  0  0  0  0  0  0  0  0  0  0  0
   -0.9939    2.8171    1.7995 H   0  0  0  0  0  0  0  0  0  0  0  0
   -0.5875   -0.2115    1.7151 H   0  0  0  0  0  0  0  0  0  0  0  0
   -1.5602   -0.4828   -1.2097 H   0  0  0  0  0  0  0  0  0  0  0  0
   -5.2033   -2.3447   -1.5837 H   0  0  0  0  0  0  0  0  0  0  0  0
   -3.9169   -0.4414   -2.2528 H   0  0  0  0  0  0  0  0  0  0  0  0
   -3.2706   -0.7815    1.9633 H   0  0  0  0  0  0  0  0  0  0  0  0
   -5.5781   -1.6259    2.2288 H   0  0  0  0  0  0  0  0  0  0  0  0
    5.5664    0.9525    1.1649 H   0  0  0  0  0  0  0  0  0  0  0  0
    5.8234   -1.8310   -0.1320 H   0  0  0  0  0  0  0  0  0  0  0  0
    3.3829    0.9898   -2.4281 H   0  0  0  0  0  0  0  0  0  0  0  0
   -3.1237    2.2234    1.2987 H   0  0  0  0  0  0  0  0  0  0  0  0
    3.5181   -1.1760    0.4518 H   0  0  0  0  0  0  0  0  0  0  0  0
    3.8811   -2.3168   -1.5930 H   0  0  0  0  0  0  0  0  0  0  0  0
    1.9955   -1.2648   -2.9721 H   0  0  0  0  0  0  0  0  0  0  0  0
    0.9274    0.5922   -2.3302 H   0  0  0  0  0  0  0  0  0  0  0  0
    3.2964    1.1373    0.6283 H   0  0  0  0  0  0  0  0  0  0  0  0
   -1.5077    1.8103    3.1751 H   0  0  0  0  0  0  0  0  0  0  0  0
    0.6748    0.8596    2.4019 H   0  0  0  0  0  0  0  0  0  0  0  0
    1.0252    2.0496    0.5290 H   0  0  0  0  0  0  0  0  0  0  0  0
   -0.8533    2.7685   -0.2352 H   0  0  0  0  0  0  0  0  0  0  0  0
   -2.8308    1.5850   -0.7217 H   0  0  0  0  0  0  0  0  0  0  0  0
   -6.7617   -2.4090    0.1412 H   0  0  0  0  0  0  0  0  0  0  0  0
   -6.3228   -0.9293   -1.8569 H   0  0  0  0  0  0  0  0  0  0  0  0
   -4.7212    0.6063   -0.9578 H   0  0  0  0  0  0  0  0  0  0  0  0
   -3.2036   -1.9928   -0.4480 H   0  0  0  0  0  0  0  0  0  0  0  0
   -4.5052    0.2593    1.1110 H   0  0  0  0  0  0  0  0  0  0  0  0
   -4.6355   -2.7710    1.1438 H   0  0  0  0  0  0  0  0  0  0  0  0
   -7.8300    0.3092   -1.1985 H   0  0  0  0  0  0  0  0  0  0  0  0
   -8.8563    0.3576    0.1224 H   0  0  0  0  0  0  0  0  0  0  0  0
   -7.3998   -0.4817    1.5769 H   0  0  0  0  0  0  0  0  0  0  0  0
   -6.4330    0.6097    0.5468 H   0  0  0  0  0  0  0  0  0  0  0  0
    5.1553   -0.5621    1.9799 H   0  0  0  0  0  0  0  0  0  0  0  0
    6.1078   -0.2454   -0.8928 H   0  0  0  0  0  0  0  0  0  0  0  0
    8.0401   -0.0961   -0.2686 H   0  0  0  0  0  0  0  0  0  0  0  0
    7.7038    1.4174    0.4825 H   0  0  0  0  0  0  0  0  0  0  0  0
    7.3874    0.3828    2.5678 H   0  0  0  0  0  0  0  0  0  0  0  0
    7.6243   -1.2220    1.8505 H   0  0  0  0  0  0  0  0  0  0  0  0
  3  4  1  0
  4  5  1  0
  1  6  1  0
  5  6  1  0
  1  7  1  0
  1  8  1  0
  3  8  1  0
  5  9  1  0
  6 10  1  0
  2 11  1  0
 11 12  1  0
 10 13  1  0
 12 13  1  0
 13 14  1  0
  2 15  1  0
 14 15  1  0
 15 16  1  0
 17 18  1  0
 18 19  1  0
 16 20  1  0
 19 20  1  0
 20 21  1  0
 17 22  1  0
 21 22  1  0
 17 24  1  0
 23 24  1  0
  3 26  1  0
 25 26  1  0
 25 28  1  0
 27 28  1  0
  4 29  1  0
  7 30  1  0
  7 31  1  0
  7 32  1  0
  8 33  1  0
  9 34  1  0
  9 35  1  0
  9 36  1  0
 10 37  1  0
 11 38  1  0
 12 39  1  0
 16 40  1  0
 18 41  1  0
 19 42  1  0
 21 43  1  0
 22 44  1  0
 25 45  1  0
 26 46  1  0
  1 47  1  0
  2 48  1  0
  3 49  1  0
  4 50  1  0
  5 51  1  0
  6 52  1  0
  8 53  1  0
 11 54  1  0
 12 55  1  0
 13 56  1  0
 14 57  1  0
 15 58  1  6
 17 59  1  0
 18 60  1  0
 19 61  1  0
 20 62  1  0
 21 63  1  0
 22 64  1  0
 23 65  1  0
 23 66  1  0
 24 67  1  0
 24 68  1  0
 25 69  1  0
 26 70  1  0
 27 71  1  0
 27 72  1  0
 28 73  1  0
 28 74  1  0
M  END
>  <PDBID>  (1) 
4G1Q

>  <PDB ID>  (1) 
4G1Q

>  <Generic Name>  (1) 
Rilpivirine

>  <Brand Name>  (1) 
Complera#Edurant#Odefsey

>  <DrugBank ID>  (1) 
DB08864

>  <ATC Codes>  (1) 
nan

>  <Ligand ID>  (1) 
T27

>  <Target Name>  (1) 
Reverse transcriptase/RNaseH

>  <UniProt ID>  (1) 
Q72547

>  <PDB ID.1>  (1) 
4G1Q

>  <Seq. Identity>  (1) 
95%

$$$$
