PDB_DB00148_02
     RDKit          3D

 22 21  0  0  0  0  0  0  0  0999 V2000
    2.8868    0.9098    0.9594 O   0  0  0  0  0  0  0  0  0  0  0  0
    2.0414    0.5721   -0.0881 C   0  0  0  0  0  0  0  0  0  0  0  0
    2.6103   -0.4693   -0.7967 O   0  0  0  0  0  0  0  0  0  0  0  0
    0.6987    0.1944    0.5411 C   0  0  0  0  0  0  0  0  0  0  0  0
   -0.2208   -0.1570   -0.4919 N   0  0  0  0  0  0  0  0  0  0  0  0
    0.0730   -1.3643   -1.1796 C   0  0  0  0  0  0  0  0  0  0  0  0
   -1.5798    0.1671   -0.2844 C   0  0  0  0  0  0  0  0  0  0  0  0
   -2.2177   -0.4979    0.8376 N   0  0  0  0  0  0  0  0  0  0  0  0
   -1.7689    1.5944   -0.0660 N   0  0  0  0  0  0  0  0  0  0  0  0
    2.7329    0.2518    1.6604 H   0  0  0  0  0  0  0  0  0  0  0  0
    1.8806    1.4186   -0.8116 H   0  0  0  0  0  0  0  0  0  0  0  0
    3.0105   -1.1824   -0.2350 H   0  0  0  0  0  0  0  0  0  0  0  0
    0.8900   -0.6287    1.2605 H   0  0  0  0  0  0  0  0  0  0  0  0
    0.3532    1.0717    1.1347 H   0  0  0  0  0  0  0  0  0  0  0  0
    0.7210   -1.0862   -2.0442 H   0  0  0  0  0  0  0  0  0  0  0  0
    0.7119   -2.0789   -0.5858 H   0  0  0  0  0  0  0  0  0  0  0  0
   -0.8022   -1.9438   -1.5360 H   0  0  0  0  0  0  0  0  0  0  0  0
   -2.1709   -0.0917   -1.1829 H   0  0  0  0  0  0  0  0  0  0  0  0
   -3.2636   -0.4184    0.6632 H   0  0  0  0  0  0  0  0  0  0  0  0
   -2.0609    0.0588    1.7296 H   0  0  0  0  0  0  0  0  0  0  0  0
   -2.6996    1.8612   -0.4571 H   0  0  0  0  0  0  0  0  0  0  0  0
   -1.8257    1.8186    0.9728 H   0  0  0  0  0  0  0  0  0  0  0  0
  1  2  1  0
  2  3  1  0
  2  4  1  0
  4  5  1  0
  5  6  1  0
  5  7  1  0
  7  8  1  0
  7  9  1  0
  1 10  1  0
  2 11  1  0
  3 12  1  0
  4 13  1  0
  4 14  1  0
  6 15  1  0
  6 16  1  0
  6 17  1  0
  7 18  1  0
  8 19  1  0
  8 20  1  0
  9 21  1  0
  9 22  1  0
M  END
>  <PDBID>  (1) 
3B6R

>  <PDB ID>  (1) 
3B6R

>  <Generic Name>  (1) 
Creatine

>  <Brand Name>  (1) 
nan

>  <DrugBank ID>  (1) 
DB00148

>  <ATC Codes>  (1) 
nan

>  <Ligand ID>  (1) 
CRN

>  <Target Name>  (1) 
Creatine kinase B-type

>  <UniProt ID>  (1) 
P12277

>  <PDB ID.1>  (1) 
3B6R

>  <Seq. Identity>  (1) 
96%

$$$$
