PDB_DB00482_06
     RDKit          3D

116120  0  0  0  0  0  0  0  0999 V2000
    4.8953    1.5475   -0.3857 S   0  0  0  0  0  0  0  0  0  0  0  0
    3.8996    0.1274   -0.2154 C   0  0  0  0  0  0  0  0  0  0  0  0
    2.8658    0.2286    0.8583 C   0  0  0  0  0  0  0  0  0  0  0  0
    1.4818    0.5320    0.3351 C   0  0  0  0  0  0  0  0  0  0  0  0
    0.9540   -0.4616   -0.6553 C   0  0  0  0  0  0  0  0  0  0  0  0
    2.1904   -1.3223   -1.0819 C   0  0  0  0  0  0  0  0  0  0  0  0
    3.2097   -0.2553   -1.5134 C   0  0  0  0  0  0  0  0  0  0  0  0
   -0.0090   -1.3409   -0.2208 N   0  0  0  0  0  0  0  0  0  0  0  0
   -1.2649   -1.1030    0.2552 C   0  0  0  0  0  0  0  0  0  0  0  0
   -2.2091   -0.1379   -0.4187 C   0  0  0  0  0  0  0  0  0  0  0  0
   -3.5796   -0.2794    0.2464 C   0  0  0  0  0  0  0  0  0  0  0  0
   -4.4777    0.8799    0.0997 C   0  0  0  0  0  0  0  0  0  0  0  0
   -3.7719    2.1815    0.5154 C   0  0  0  0  0  0  0  0  0  0  0  0
   -4.7663    3.3071    0.5219 C   0  0  0  0  0  0  0  0  0  0  0  0
   -2.6986    2.3458   -0.5337 C   0  0  0  0  0  0  0  0  0  0  0  0
   -1.6790    1.2415   -0.2955 C   0  0  0  0  0  0  0  0  0  0  0  0
   -1.8925   -2.5309    0.1951 C   0  0  0  0  0  0  0  0  0  0  0  0
   -0.7004   -3.3410    0.6535 C   0  0  0  0  0  0  0  0  0  0  0  0
   -0.6284   -4.7006    0.0359 C   0  0  0  0  0  0  0  0  0  0  0  0
   -0.5419   -4.5761   -1.3339 F   0  0  0  0  0  0  0  0  0  0  0  0
   -1.7378   -5.4570    0.3588 F   0  0  0  0  0  0  0  0  0  0  0  0
    0.5031   -5.3204    0.5167 F   0  0  0  0  0  0  0  0  0  0  0  0
    0.4503   -2.5608    0.2873 N   0  0  0  0  0  0  0  0  0  0  0  0
    5.6396    1.6362    1.1944 N   0  0  0  0  0  0  0  0  0  0  0  0
    3.7405    2.8090   -0.3374 O   0  0  0  0  0  0  0  0  0  0  0  0
    5.7989    1.5897   -1.4174 O   0  0  0  0  0  0  0  0  0  0  0  0
    4.8953    1.5475   -0.3857 S   0  0  0  0  0  0  0  0  0  0  0  0
    3.8996    0.1274   -0.2154 C   0  0  0  0  0  0  0  0  0  0  0  0
    2.8658    0.2286    0.8583 C   0  0  0  0  0  0  0  0  0  0  0  0
    1.4818    0.5320    0.3351 C   0  0  0  0  0  0  0  0  0  0  0  0
    0.9540   -0.4616   -0.6553 C   0  0  0  0  0  0  0  0  0  0  0  0
    2.1904   -1.3223   -1.0819 C   0  0  0  0  0  0  0  0  0  0  0  0
    3.2097   -0.2553   -1.5134 C   0  0  0  0  0  0  0  0  0  0  0  0
   -0.0090   -1.3409   -0.2208 N   0  0  0  0  0  0  0  0  0  0  0  0
   -1.2649   -1.1030    0.2552 C   0  0  0  0  0  0  0  0  0  0  0  0
   -2.2091   -0.1379   -0.4187 C   0  0  0  0  0  0  0  0  0  0  0  0
   -3.5796   -0.2794    0.2464 C   0  0  0  0  0  0  0  0  0  0  0  0
   -4.4777    0.8799    0.0997 C   0  0  0  0  0  0  0  0  0  0  0  0
   -3.7719    2.1815    0.5154 C   0  0  0  0  0  0  0  0  0  0  0  0
   -4.7663    3.3071    0.5219 C   0  0  0  0  0  0  0  0  0  0  0  0
   -2.6986    2.3458   -0.5337 C   0  0  0  0  0  0  0  0  0  0  0  0
   -1.6790    1.2415   -0.2955 C   0  0  0  0  0  0  0  0  0  0  0  0
   -1.8925   -2.5309    0.1951 C   0  0  0  0  0  0  0  0  0  0  0  0
   -0.7004   -3.3410    0.6535 C   0  0  0  0  0  0  0  0  0  0  0  0
   -0.6284   -4.7006    0.0359 C   0  0  0  0  0  0  0  0  0  0  0  0
   -0.5419   -4.5761   -1.3339 F   0  0  0  0  0  0  0  0  0  0  0  0
   -1.7378   -5.4570    0.3588 F   0  0  0  0  0  0  0  0  0  0  0  0
    0.5031   -5.3204    0.5167 F   0  0  0  0  0  0  0  0  0  0  0  0
    0.4503   -2.5608    0.2873 N   0  0  0  0  0  0  0  0  0  0  0  0
    5.6396    1.6362    1.1944 N   0  0  0  0  0  0  0  0  0  0  0  0
    3.7405    2.8090   -0.3374 O   0  0  0  0  0  0  0  0  0  0  0  0
    5.7989    1.5897   -1.4174 O   0  0  0  0  0  0  0  0  0  0  0  0
    4.6076   -0.7138    0.0285 H   0  0  0  0  0  0  0  0  0  0  0  0
    2.8763   -0.6525    1.5375 H   0  0  0  0  0  0  0  0  0  0  0  0
    3.1400    1.0988    1.5054 H   0  0  0  0  0  0  0  0  0  0  0  0
    0.8428    0.6447    1.2414 H   0  0  0  0  0  0  0  0  0  0  0  0
    1.5271    1.5344   -0.1370 H   0  0  0  0  0  0  0  0  0  0  0  0
    0.6877    0.0057   -1.6247 H   0  0  0  0  0  0  0  0  0  0  0  0
    1.8922   -1.9107   -1.9517 H   0  0  0  0  0  0  0  0  0  0  0  0
    2.5767   -1.8940   -0.2277 H   0  0  0  0  0  0  0  0  0  0  0  0
    2.7014    0.6521   -1.8907 H   0  0  0  0  0  0  0  0  0  0  0  0
    3.8999   -0.6231   -2.2689 H   0  0  0  0  0  0  0  0  0  0  0  0
   -1.3175   -0.9094    1.3870 H   0  0  0  0  0  0  0  0  0  0  0  0
   -2.2881   -0.4187   -1.4795 H   0  0  0  0  0  0  0  0  0  0  0  0
   -4.0490   -1.1612   -0.2415 H   0  0  0  0  0  0  0  0  0  0  0  0
   -3.4741   -0.5408    1.3178 H   0  0  0  0  0  0  0  0  0  0  0  0
   -5.3516    0.7688    0.7410 H   0  0  0  0  0  0  0  0  0  0  0  0
   -4.8255    1.0609   -0.9412 H   0  0  0  0  0  0  0  0  0  0  0  0
   -3.3038    2.0018    1.4894 H   0  0  0  0  0  0  0  0  0  0  0  0
   -4.3911    4.0932    1.2119 H   0  0  0  0  0  0  0  0  0  0  0  0
   -5.7382    2.9075    0.8535 H   0  0  0  0  0  0  0  0  0  0  0  0
   -4.8362    3.7398   -0.4943 H   0  0  0  0  0  0  0  0  0  0  0  0
   -3.1615    2.1981   -1.5310 H   0  0  0  0  0  0  0  0  0  0  0  0
   -2.1486    3.3016   -0.4530 H   0  0  0  0  0  0  0  0  0  0  0  0
   -0.8728    1.4613   -1.0013 H   0  0  0  0  0  0  0  0  0  0  0  0
   -1.3583    1.3873    0.7688 H   0  0  0  0  0  0  0  0  0  0  0  0
   -2.7022   -2.6250    0.9174 H   0  0  0  0  0  0  0  0  0  0  0  0
   -2.1526   -2.7632   -0.8458 H   0  0  0  0  0  0  0  0  0  0  0  0
   -0.6896   -3.4253    1.7726 H   0  0  0  0  0  0  0  0  0  0  0  0
    1.1189   -2.4319    1.0787 H   0  0  0  0  0  0  0  0  0  0  0  0
    6.0959    0.7174    1.3916 H   0  0  0  0  0  0  0  0  0  0  0  0
    4.9557    1.9424    1.8931 H   0  0  0  0  0  0  0  0  0  0  0  0
    3.9344    3.3839    0.4602 H   0  0  0  0  0  0  0  0  0  0  0  0
    6.1322    2.1314   -2.1722 H   0  0  0  0  0  0  0  0  0  0  0  0
    4.6076   -0.7138    0.0285 H   0  0  0  0  0  0  0  0  0  0  0  0
    2.8763   -0.6525    1.5375 H   0  0  0  0  0  0  0  0  0  0  0  0
    3.1400    1.0988    1.5054 H   0  0  0  0  0  0  0  0  0  0  0  0
    0.8428    0.6447    1.2414 H   0  0  0  0  0  0  0  0  0  0  0  0
    1.5271    1.5344   -0.1370 H   0  0  0  0  0  0  0  0  0  0  0  0
    0.6877    0.0057   -1.6247 H   0  0  0  0  0  0  0  0  0  0  0  0
    1.8922   -1.9107   -1.9517 H   0  0  0  0  0  0  0  0  0  0  0  0
    2.5767   -1.8940   -0.2277 H   0  0  0  0  0  0  0  0  0  0  0  0
    2.7014    0.6521   -1.8907 H   0  0  0  0  0  0  0  0  0  0  0  0
    3.8999   -0.6231   -2.2689 H   0  0  0  0  0  0  0  0  0  0  0  0
   -1.3175   -0.9094    1.3870 H   0  0  0  0  0  0  0  0  0  0  0  0
   -2.2881   -0.4187   -1.4795 H   0  0  0  0  0  0  0  0  0  0  0  0
   -4.0490   -1.1612   -0.2415 H   0  0  0  0  0  0  0  0  0  0  0  0
   -3.4741   -0.5408    1.3178 H   0  0  0  0  0  0  0  0  0  0  0  0
   -5.3516    0.7688    0.7410 H   0  0  0  0  0  0  0  0  0  0  0  0
   -4.8255    1.0609   -0.9412 H   0  0  0  0  0  0  0  0  0  0  0  0
   -3.3038    2.0018    1.4894 H   0  0  0  0  0  0  0  0  0  0  0  0
   -4.3911    4.0932    1.2119 H   0  0  0  0  0  0  0  0  0  0  0  0
   -5.7382    2.9075    0.8535 H   0  0  0  0  0  0  0  0  0  0  0  0
   -4.8362    3.7398   -0.4943 H   0  0  0  0  0  0  0  0  0  0  0  0
   -3.1615    2.1981   -1.5310 H   0  0  0  0  0  0  0  0  0  0  0  0
   -2.1486    3.3016   -0.4530 H   0  0  0  0  0  0  0  0  0  0  0  0
   -0.8728    1.4613   -1.0013 H   0  0  0  0  0  0  0  0  0  0  0  0
   -1.3583    1.3873    0.7688 H   0  0  0  0  0  0  0  0  0  0  0  0
   -2.7022   -2.6250    0.9174 H   0  0  0  0  0  0  0  0  0  0  0  0
   -2.1526   -2.7632   -0.8458 H   0  0  0  0  0  0  0  0  0  0  0  0
   -0.6896   -3.4253    1.7726 H   0  0  0  0  0  0  0  0  0  0  0  0
    1.1189   -2.4319    1.0787 H   0  0  0  0  0  0  0  0  0  0  0  0
    6.0959    0.7174    1.3916 H   0  0  0  0  0  0  0  0  0  0  0  0
    4.9557    1.9424    1.8931 H   0  0  0  0  0  0  0  0  0  0  0  0
    3.9344    3.3839    0.4602 H   0  0  0  0  0  0  0  0  0  0  0  0
    6.1322    2.1314   -2.1722 H   0  0  0  0  0  0  0  0  0  0  0  0
  1  2  1  0
  2  3  1  0
  3  4  1  0
  4  5  1  0
  5  6  1  0
  2  7  1  0
  6  7  1  0
  5  8  1  0
  8  9  1  0
  9 10  1  0
 10 11  1  0
 11 12  1  0
 12 13  1  0
 13 14  1  0
 13 15  1  0
 10 16  1  0
 15 16  1  0
  9 17  1  0
 17 18  1  0
 18 19  1  0
 19 20  1  0
 19 21  1  0
 19 22  1  0
  8 23  1  0
 18 23  1  0
  1 24  1  0
  1 25  1  0
  1 26  1  0
 27 28  1  0
 28 29  1  0
 29 30  1  0
 30 31  1  0
 31 32  1  0
 28 33  1  0
 32 33  1  0
 31 34  1  0
 34 35  1  0
 35 36  1  0
 36 37  1  0
 37 38  1  0
 38 39  1  0
 39 40  1  0
 39 41  1  0
 36 42  1  0
 41 42  1  0
 35 43  1  0
 43 44  1  0
 44 45  1  0
 45 46  1  0
 45 47  1  0
 45 48  1  0
 34 49  1  0
 44 49  1  0
 27 50  1  0
 27 51  1  0
 27 52  1  0
  2 53  1  0
  3 54  1  0
  3 55  1  0
  4 56  1  0
  4 57  1  0
  5 58  1  0
  6 59  1  0
  6 60  1  0
  7 61  1  0
  7 62  1  0
  9 63  1  0
 10 64  1  0
 11 65  1  0
 11 66  1  0
 12 67  1  0
 12 68  1  0
 13 69  1  0
 14 70  1  0
 14 71  1  0
 14 72  1  0
 15 73  1  0
 15 74  1  0
 16 75  1  0
 16 76  1  0
 17 77  1  0
 17 78  1  0
 18 79  1  0
 23 80  1  0
 24 81  1  0
 24 82  1  0
 25 83  1  0
 26 84  1  0
 28 85  1  0
 29 86  1  0
 29 87  1  0
 30 88  1  0
 30 89  1  0
 31 90  1  0
 32 91  1  0
 32 92  1  0
 33 93  1  0
 33 94  1  0
 35 95  1  0
 36 96  1  0
 37 97  1  0
 37 98  1  0
 38 99  1  0
 38100  1  0
 39101  1  0
 40102  1  0
 40103  1  0
 40104  1  0
 41105  1  0
 41106  1  0
 42107  1  0
 42108  1  0
 43109  1  0
 43110  1  0
 44111  1  0
 49112  1  0
 50113  1  0
 50114  1  0
 51115  1  0
 52116  1  0
M  END
>  <PDBID>  (1) 
5JW1

>  <PDB ID>  (1) 
5JW1

>  <Generic Name>  (1) 
Celecoxib

>  <Brand Name>  (1) 
Accel-celecoxib#Act Celecoxib#Ag-celecoxib#Apo-celecoxib#Auro-celecoxib#Bio-celecoxib#Celebrex#Celecoxib#Celecoxib 100 mg#Celecoxib 200 mg#Celecoxib 400 mg#Celecoxib 50 mg#Dom-celecoxib#Gd-celecoxib#Ipg-celecoxib#Jamp-celecoxib#Lupin-celecoxib#Mar-celecoxib#Mint-celecoxib#Mylan-celecoxib#PMS-celecoxib#Priva-celecoxib#Ran-celecoxib#Rbx-celecoxib#Riva-celecox#Riva-celecoxib#Sandoz Celecoxib#Sdz Celecoxib#Teva-celecoxib#Articox#Articoxib#Artiflex#Artilog#Artix#Artrixib#Blockten#Caditar#Cefinix#Celact#Celebra#Onsenal#Valdyne

>  <DrugBank ID>  (1) 
DB00482

>  <ATC Codes>  (1) 
L01XX33#M01AH01

>  <Ligand ID>  (1) 
CEL

>  <Target Name>  (1) 
Prostaglandin G/H synthase 2

>  <UniProt ID>  (1) 
P35354

>  <PDB ID.1>  (1) 
5JW1

>  <Seq. Identity>  (1) 
85%

$$$$
