PDB_DB00619_08
     RDKit          3D

 94 98  0  0  0  0  0  0  0  0999 V2000
   -8.2913    2.6934    0.7147 C   0  0  0  0  0  0  0  0  0  0  0  0
   -7.5129    1.4102    0.9289 C   0  0  0  0  0  0  0  0  0  0  0  0
   -7.8847    0.4852   -0.2160 C   0  0  0  0  0  0  0  0  0  0  0  0
   -9.3816    0.2476   -0.0617 C   0  0  0  0  0  0  0  0  0  0  0  0
  -10.0828    1.4744   -0.3726 N   0  0  0  0  0  0  0  0  0  0  0  0
   -9.7820    2.4063    0.7207 C   0  0  0  0  0  0  0  0  0  0  0  0
   -7.2040   -0.8661    0.0076 C   0  0  0  0  0  0  0  0  0  0  0  0
   -7.4507   -1.7106   -1.1899 C   0  0  0  0  0  0  0  0  0  0  0  0
   -6.3602   -1.6813   -2.2329 C   0  0  0  0  0  0  0  0  0  0  0  0
   -5.1532   -1.0036   -1.7086 N   0  0  0  0  0  0  0  0  0  0  0  0
   -4.9789   -1.5440   -0.3865 C   0  0  0  0  0  0  0  0  0  0  0  0
   -5.8614   -0.7614    0.4756 N   0  0  0  0  0  0  0  0  0  0  0  0
   -3.6904   -1.7554    0.0891 N   0  0  0  0  0  0  0  0  0  0  0  0
   -2.8088   -0.7350    0.4687 C   0  0  0  0  0  0  0  0  0  0  0  0
   -2.4265    0.1705   -0.6455 C   0  0  0  0  0  0  0  0  0  0  0  0
   -1.3924    1.1962   -0.2493 C   0  0  0  0  0  0  0  0  0  0  0  0
   -0.6483    0.9425    1.0193 C   0  0  0  0  0  0  0  0  0  0  0  0
   -0.5342   -0.4510    1.4628 C   0  0  1  0  0  0  0  0  0  0  0  0
   -1.4818   -1.4277    0.8509 C   0  0  0  0  0  0  0  0  0  0  0  0
    0.7891   -1.0129    1.5072 N   0  0  0  0  0  0  0  0  0  0  0  0
    1.5099   -1.0084    0.2671 C   0  0  0  0  0  0  0  0  0  0  0  0
    2.8947   -0.3284    0.4540 C   0  0  0  0  0  0  0  0  0  0  0  0
    3.6362   -0.2771   -0.8582 C   0  0  0  0  0  0  0  0  0  0  0  0
    4.9473    0.5093   -0.6003 C   0  0  0  0  0  0  0  0  0  0  0  0
    5.5993   -0.1186    0.5523 C   0  0  0  0  0  0  0  0  0  0  0  0
    5.0270   -1.5285    0.8002 C   0  0  0  0  0  0  0  0  0  0  0  0
    3.6570   -1.2921    1.3914 C   0  0  0  0  0  0  0  0  0  0  0  0
    7.0575   -0.0728    0.7513 C   0  0  0  0  0  0  0  0  0  0  0  0
    7.9613   -0.5808   -0.1830 N   0  0  0  0  0  0  0  0  0  0  0  0
    8.2277    0.1275   -1.3890 C   0  0  0  0  0  0  0  0  0  0  0  0
    8.6478    1.5792   -1.0845 C   0  0  0  0  0  0  0  0  0  0  0  0
    9.4194    1.5583    0.1346 N   0  0  0  0  0  0  0  0  0  0  0  0
   10.3178    2.6814    0.1461 C   0  0  0  0  0  0  0  0  0  0  0  0
   10.1650    0.3495    0.3427 C   0  0  0  0  0  0  0  0  0  0  0  0
    9.2455   -0.8565    0.4697 C   0  0  0  0  0  0  0  0  0  0  0  0
    1.7898   -2.2844   -0.2258 O   0  0  0  0  0  0  0  0  0  0  0  0
   -1.9382   -0.6455   -1.8236 C   0  0  0  0  0  0  0  0  0  0  0  0
   -8.0943    3.3479    1.6098 H   0  0  0  0  0  0  0  0  0  0  0  0
   -8.0650    3.1998   -0.2215 H   0  0  0  0  0  0  0  0  0  0  0  0
   -7.8925    0.9254    1.8393 H   0  0  0  0  0  0  0  0  0  0  0  0
   -6.4396    1.6180    0.9399 H   0  0  0  0  0  0  0  0  0  0  0  0
   -7.6107    0.9137   -1.1925 H   0  0  0  0  0  0  0  0  0  0  0  0
   -9.7657   -0.6347   -0.5454 H   0  0  0  0  0  0  0  0  0  0  0  0
   -9.5295    0.0915    1.0424 H   0  0  0  0  0  0  0  0  0  0  0  0
   -9.6663    1.9219   -1.2391 H   0  0  0  0  0  0  0  0  0  0  0  0
  -10.2927    3.3579    0.5871 H   0  0  0  0  0  0  0  0  0  0  0  0
  -10.0689    1.9094    1.6642 H   0  0  0  0  0  0  0  0  0  0  0  0
   -7.7947   -1.3714    0.8500 H   0  0  0  0  0  0  0  0  0  0  0  0
   -8.3641   -1.3231   -1.7176 H   0  0  0  0  0  0  0  0  0  0  0  0
   -7.7441   -2.7693   -0.9148 H   0  0  0  0  0  0  0  0  0  0  0  0
   -6.0615   -2.7536   -2.4226 H   0  0  0  0  0  0  0  0  0  0  0  0
   -6.6822   -1.2362   -3.1870 H   0  0  0  0  0  0  0  0  0  0  0  0
   -5.4564    0.0009   -1.6434 H   0  0  0  0  0  0  0  0  0  0  0  0
   -5.4862   -2.5677   -0.3936 H   0  0  0  0  0  0  0  0  0  0  0  0
   -5.7313   -0.9870    1.4864 H   0  0  0  0  0  0  0  0  0  0  0  0
   -3.5677   -2.6681    0.5878 H   0  0  0  0  0  0  0  0  0  0  0  0
   -3.1655   -0.1416    1.3665 H   0  0  0  0  0  0  0  0  0  0  0  0
   -3.3453    0.6842   -0.9961 H   0  0  0  0  0  0  0  0  0  0  0  0
   -1.9154    2.1723   -0.1802 H   0  0  0  0  0  0  0  0  0  0  0  0
   -0.6975    1.2958   -1.1057 H   0  0  0  0  0  0  0  0  0  0  0  0
   -1.0659    1.6216    1.8180 H   0  0  0  0  0  0  0  0  0  0  0  0
    0.3869    1.3555    0.8839 H   0  0  0  0  0  0  0  0  0  0  0  0
   -0.8380   -0.4563    2.5745 H   0  0  0  0  0  0  0  0  0  0  0  0
   -1.1033   -1.8810   -0.0834 H   0  0  0  0  0  0  0  0  0  0  0  0
   -1.7637   -2.2464    1.5331 H   0  0  0  0  0  0  0  0  0  0  0  0
    1.3196   -0.5332    2.2508 H   0  0  0  0  0  0  0  0  0  0  0  0
    1.0111   -0.3861   -0.4720 H   0  0  0  0  0  0  0  0  0  0  0  0
    2.7929    0.6618    0.8845 H   0  0  0  0  0  0  0  0  0  0  0  0
    2.9949    0.3770   -1.5263 H   0  0  0  0  0  0  0  0  0  0  0  0
    3.8096   -1.2331   -1.3398 H   0  0  0  0  0  0  0  0  0  0  0  0
    5.4657    0.5425   -1.5529 H   0  0  0  0  0  0  0  0  0  0  0  0
    4.5408    1.5416   -0.3225 H   0  0  0  0  0  0  0  0  0  0  0  0
    5.1782    0.4500    1.4866 H   0  0  0  0  0  0  0  0  0  0  0  0
    5.6796   -2.0586    1.5544 H   0  0  0  0  0  0  0  0  0  0  0  0
    5.0430   -2.1593   -0.0936 H   0  0  0  0  0  0  0  0  0  0  0  0
    3.8336   -0.7358    2.3526 H   0  0  0  0  0  0  0  0  0  0  0  0
    3.1348   -2.2286    1.5483 H   0  0  0  0  0  0  0  0  0  0  0  0
    7.3676    0.9803    1.1097 H   0  0  0  0  0  0  0  0  0  0  0  0
    7.2464   -0.6558    1.7264 H   0  0  0  0  0  0  0  0  0  0  0  0
    9.2149   -0.3202   -1.7751 H   0  0  0  0  0  0  0  0  0  0  0  0
    7.5604    0.0311   -2.2208 H   0  0  0  0  0  0  0  0  0  0  0  0
    7.7639    2.2508   -1.0074 H   0  0  0  0  0  0  0  0  0  0  0  0
    9.2372    1.9171   -1.9591 H   0  0  0  0  0  0  0  0  0  0  0  0
   11.1907    2.5213    0.8170 H   0  0  0  0  0  0  0  0  0  0  0  0
   10.5982    2.9959   -0.8710 H   0  0  0  0  0  0  0  0  0  0  0  0
    9.7775    3.5709    0.5926 H   0  0  0  0  0  0  0  0  0  0  0  0
   10.7615    0.4516    1.2691 H   0  0  0  0  0  0  0  0  0  0  0  0
   10.8879    0.2429   -0.4961 H   0  0  0  0  0  0  0  0  0  0  0  0
    9.1307   -1.1106    1.5390 H   0  0  0  0  0  0  0  0  0  0  0  0
    9.7417   -1.7078   -0.0315 H   0  0  0  0  0  0  0  0  0  0  0  0
    1.9898   -2.2160   -1.1954 H   0  0  0  0  0  0  0  0  0  0  0  0
   -2.1584   -0.0385   -2.7495 H   0  0  0  0  0  0  0  0  0  0  0  0
   -2.4782   -1.5948   -1.8881 H   0  0  0  0  0  0  0  0  0  0  0  0
   -0.8424   -0.8249   -1.8159 H   0  0  0  0  0  0  0  0  0  0  0  0
  1  2  1  0
  2  3  1  0
  3  4  1  0
  4  5  1  0
  1  6  1  0
  5  6  1  0
  3  7  1  0
  7  8  1  0
  8  9  1  0
  9 10  1  0
 10 11  1  0
  7 12  1  0
 11 12  1  0
 11 13  1  0
 13 14  1  0
 14 15  1  0
 15 16  1  0
 16 17  1  0
 17 18  1  0
 14 19  1  0
 18 19  1  0
 18 20  1  0
 20 21  1  0
 21 22  1  0
 22 23  1  0
 23 24  1  0
 24 25  1  0
 25 26  1  0
 22 27  1  0
 26 27  1  0
 25 28  1  0
 28 29  1  0
 29 30  1  0
 30 31  1  0
 31 32  1  0
 32 33  1  0
 32 34  1  0
 29 35  1  0
 34 35  1  0
 21 36  1  0
 15 37  1  0
  1 38  1  0
  1 39  1  0
  2 40  1  0
  2 41  1  0
  3 42  1  0
  4 43  1  0
  4 44  1  0
  5 45  1  0
  6 46  1  0
  6 47  1  0
  7 48  1  0
  8 49  1  0
  8 50  1  0
  9 51  1  0
  9 52  1  0
 10 53  1  0
 11 54  1  0
 12 55  1  0
 13 56  1  0
 14 57  1  0
 15 58  1  0
 16 59  1  0
 16 60  1  0
 17 61  1  0
 17 62  1  0
 18 63  1  1
 19 64  1  0
 19 65  1  0
 20 66  1  0
 21 67  1  0
 22 68  1  0
 23 69  1  0
 23 70  1  0
 24 71  1  0
 24 72  1  0
 25 73  1  0
 26 74  1  0
 26 75  1  0
 27 76  1  0
 27 77  1  0
 28 78  1  0
 28 79  1  0
 30 80  1  0
 30 81  1  0
 31 82  1  0
 31 83  1  0
 33 84  1  0
 33 85  1  0
 33 86  1  0
 34 87  1  0
 34 88  1  0
 35 89  1  0
 35 90  1  0
 36 91  1  0
 37 92  1  0
 37 93  1  0
 37 94  1  0
M  END
>  <PDBID>  (1) 
1T46

>  <PDB ID>  (1) 
1T46

>  <Generic Name>  (1) 
Imatinib

>  <Brand Name>  (1) 
Apo-imatinib#Gleevec#Imatinib Mesylate#Mylan-imatinib#Nat-imatinib#PMS-imatinib#Ran-imatinib#Teva-imatinib#Celonib#Enliven#Glivec#Imatib#Mesylonib#Mitinab#Plivatinib#Shantinib

>  <DrugBank ID>  (1) 
DB00619

>  <ATC Codes>  (1) 
L01XE01

>  <Ligand ID>  (1) 
STI

>  <Target Name>  (1) 
Mast/stem cell growth factor receptor Kit

>  <UniProt ID>  (1) 
P10721

>  <PDB ID.1>  (1) 
1T46

>  <Seq. Identity>  (1) 
90%

$$$$
