PDB_DB00988_05
     RDKit          3D

 28 28  0  0  0  0  0  0  0  0999 V2000
    1.6368   -0.9237   -0.2763 C   0  0  0  0  0  0  0  0  0  0  0  0
    0.5717    0.0242    0.2907 C   0  0  0  0  0  0  0  0  0  0  0  0
   -2.3608    0.0484    0.1474 C   0  0  0  0  0  0  0  0  0  0  0  0
   -0.1333    0.6929   -0.8249 C   0  0  0  0  0  0  0  0  0  0  0  0
   -0.2778   -0.7656    1.2164 C   0  0  0  0  0  0  0  0  0  0  0  0
   -1.6124   -1.1492    0.6363 C   0  0  0  0  0  0  0  0  0  0  0  0
   -1.5557    1.0465   -0.5843 C   0  0  0  0  0  0  0  0  0  0  0  0
   -1.6679    2.3120    0.0310 O   0  0  0  0  0  0  0  0  0  0  0  0
   -3.4573   -0.4163   -0.6123 O   0  0  0  0  0  0  0  0  0  0  0  0
    2.6321   -0.1479   -1.0990 C   0  0  0  0  0  0  0  0  0  0  0  0
    3.2617    0.8406   -0.2460 N   0  0  0  0  0  0  0  0  0  0  0  0
    1.1860   -1.7371   -0.8539 H   0  0  0  0  0  0  0  0  0  0  0  0
    2.1640   -1.3563    0.6001 H   0  0  0  0  0  0  0  0  0  0  0  0
    0.4032    1.6673   -1.0303 H   0  0  0  0  0  0  0  0  0  0  0  0
   -0.4462   -0.2142    2.1553 H   0  0  0  0  0  0  0  0  0  0  0  0
   -1.5487   -1.8983   -0.1595 H   0  0  0  0  0  0  0  0  0  0  0  0
   -2.6638    2.4683    0.0968 H   0  0  0  0  0  0  0  0  0  0  0  0
   -3.5729   -1.3838   -0.5200 H   0  0  0  0  0  0  0  0  0  0  0  0
    3.4164   -0.8615   -1.4205 H   0  0  0  0  0  0  0  0  0  0  0  0
    2.1272    0.3208   -1.9685 H   0  0  0  0  0  0  0  0  0  0  0  0
    4.1111    0.4550    0.2198 H   0  0  0  0  0  0  0  0  0  0  0  0
    3.4864    1.7146   -0.7698 H   0  0  0  0  0  0  0  0  0  0  0  0
    1.1626    0.7702    0.8974 H   0  0  0  0  0  0  0  0  0  0  0  0
   -2.8363    0.5265    1.0528 H   0  0  0  0  0  0  0  0  0  0  0  0
   -0.0110    0.1213   -1.7912 H   0  0  0  0  0  0  0  0  0  0  0  0
    0.2265   -1.7284    1.5186 H   0  0  0  0  0  0  0  0  0  0  0  0
   -2.2113   -1.6195    1.4623 H   0  0  0  0  0  0  0  0  0  0  0  0
   -2.0305    1.1933   -1.6000 H   0  0  0  0  0  0  0  0  0  0  0  0
  1  2  1  0
  2  4  1  0
  2  5  1  0
  3  6  1  0
  5  6  1  0
  3  7  1  0
  4  7  1  0
  7  8  1  0
  3  9  1  0
  1 10  1  0
 10 11  1  0
  1 12  1  0
  1 13  1  0
  4 14  1  0
  5 15  1  0
  6 16  1  0
  8 17  1  0
  9 18  1  0
 10 19  1  0
 10 20  1  0
 11 21  1  0
 11 22  1  0
  2 23  1  0
  3 24  1  0
  4 25  1  0
  5 26  1  0
  6 27  1  0
  7 28  1  0
M  END
>  <PDBID>  (1) 
4XP1

>  <PDB ID>  (1) 
4XP1

>  <Generic Name>  (1) 
Dopamine

>  <Brand Name>  (1) 
Dopamine#Dopamine HCl#Dopamine HCl Inj 4%#Dopamine Hydrochloride#Dopamine Hydrochloride and Dextrose#Intropin Injection 40mg/ml#Intropin#Revimine

>  <DrugBank ID>  (1) 
DB00988

>  <ATC Codes>  (1) 
C01CA04

>  <Ligand ID>  (1) 
LDP

>  <Target Name>  (1) 
Sodium-dependent dopamine transporter

>  <UniProt ID>  (1) 
Q01959

>  <PDB ID.1>  (1) 
4XP1

>  <Seq. Identity>  (1) 
52%

$$$$
