PDB_DB00988_09
     RDKit          3D

 28 28  0  0  0  0  0  0  0  0999 V2000
    1.4218   -0.1008   -0.9702 C   0  0  0  0  0  0  0  0  0  0  0  0
    0.5906    0.5728    0.0682 C   0  0  0  0  0  0  0  0  0  0  0  0
   -2.3061    0.0565    0.0329 C   0  0  0  0  0  0  0  0  0  0  0  0
   -0.1059   -0.4138    0.9562 C   0  0  0  0  0  0  0  0  0  0  0  0
   -0.3645    1.5129   -0.6213 C   0  0  0  0  0  0  0  0  0  0  0  0
   -1.7625    1.4313   -0.1038 C   0  0  0  0  0  0  0  0  0  0  0  0
   -1.2584   -1.0124    0.1965 C   0  0  0  0  0  0  0  0  0  0  0  0
   -1.8108   -2.0264    0.9710 O   0  0  0  0  0  0  0  0  0  0  0  0
   -3.1037    0.0343    1.2005 O   0  0  0  0  0  0  0  0  0  0  0  0
    2.5055   -0.9818   -0.4275 C   0  0  0  0  0  0  0  0  0  0  0  0
    3.4576   -0.3062    0.3935 N   0  0  0  0  0  0  0  0  0  0  0  0
    0.7579   -0.7633   -1.5949 H   0  0  0  0  0  0  0  0  0  0  0  0
    1.8696    0.6122   -1.6790 H   0  0  0  0  0  0  0  0  0  0  0  0
    0.6346   -1.1596    1.3004 H   0  0  0  0  0  0  0  0  0  0  0  0
   -0.0001    2.5513   -0.4830 H   0  0  0  0  0  0  0  0  0  0  0  0
   -2.4144    1.9968   -0.8100 H   0  0  0  0  0  0  0  0  0  0  0  0
   -1.4578   -2.9245    0.7250 H   0  0  0  0  0  0  0  0  0  0  0  0
   -3.4533    0.9398    1.3501 H   0  0  0  0  0  0  0  0  0  0  0  0
    3.0701   -1.3681   -1.3262 H   0  0  0  0  0  0  0  0  0  0  0  0
    2.1208   -1.8686    0.1013 H   0  0  0  0  0  0  0  0  0  0  0  0
    3.2973   -0.4102    1.4170 H   0  0  0  0  0  0  0  0  0  0  0  0
    3.7045    0.6453    0.0970 H   0  0  0  0  0  0  0  0  0  0  0  0
    1.2917    1.1580    0.7311 H   0  0  0  0  0  0  0  0  0  0  0  0
   -2.9934   -0.2323   -0.7902 H   0  0  0  0  0  0  0  0  0  0  0  0
   -0.5240    0.1501    1.8302 H   0  0  0  0  0  0  0  0  0  0  0  0
   -0.3746    1.3368   -1.7192 H   0  0  0  0  0  0  0  0  0  0  0  0
   -1.8178    2.0122    0.8627 H   0  0  0  0  0  0  0  0  0  0  0  0
   -0.9747   -1.4423   -0.7612 H   0  0  0  0  0  0  0  0  0  0  0  0
  1  2  1  0
  2  4  1  0
  2  5  1  0
  3  6  1  0
  5  6  1  0
  3  7  1  0
  4  7  1  0
  7  8  1  0
  3  9  1  0
  1 10  1  0
 10 11  1  0
  1 12  1  0
  1 13  1  0
  4 14  1  0
  5 15  1  0
  6 16  1  0
  8 17  1  0
  9 18  1  0
 10 19  1  0
 10 20  1  0
 11 21  1  0
 11 22  1  0
  2 23  1  0
  3 24  1  0
  4 25  1  0
  5 26  1  0
  6 27  1  0
  7 28  1  0
M  END
>  <PDBID>  (1) 
4XP1

>  <PDB ID>  (1) 
4XP1

>  <Generic Name>  (1) 
Dopamine

>  <Brand Name>  (1) 
Dopamine#Dopamine HCl#Dopamine HCl Inj 4%#Dopamine Hydrochloride#Dopamine Hydrochloride and Dextrose#Intropin Injection 40mg/ml#Intropin#Revimine

>  <DrugBank ID>  (1) 
DB00988

>  <ATC Codes>  (1) 
C01CA04

>  <Ligand ID>  (1) 
LDP

>  <Target Name>  (1) 
Sodium-dependent dopamine transporter

>  <UniProt ID>  (1) 
Q01959

>  <PDB ID.1>  (1) 
4XP1

>  <Seq. Identity>  (1) 
52%

$$$$
