PDB_DB00302_03
     RDKit          3D

 56 56  0  0  0  0  0  0  0  0999 V2000
   -1.3385   -0.1971   -0.6233 C   0  0  0  0  0  0  0  0  0  0  0  0
   -1.1123    1.1520   -0.0293 C   0  0  0  0  0  0  0  0  0  0  0  0
    0.3401    1.5074   -0.1638 C   0  0  0  0  0  0  0  0  0  0  0  0
    1.2573    0.5248    0.4799 C   0  0  0  0  0  0  0  0  0  0  0  0
    0.7530   -0.8486    0.6283 C   0  0  0  0  0  0  0  0  0  0  0  0
   -0.4085   -1.2558   -0.1786 C   0  0  0  0  0  0  0  0  0  0  0  0
    2.5769    0.5628   -0.3033 C   0  0  0  0  0  0  0  0  0  0  0  0
   -2.7928   -0.5763   -0.3110 C   0  0  0  0  0  0  0  0  0  0  0  0
    3.4959   -0.3665    0.2766 N   0  0  0  0  0  0  0  0  0  0  0  0
   -3.6680    0.3509   -0.8665 O   0  0  0  0  0  0  0  0  0  0  0  0
   -3.0711   -1.8121   -0.9216 O   0  0  0  0  0  0  0  0  0  0  0  0
   -1.3385   -0.1971   -0.6233 C   0  0  0  0  0  0  0  0  0  0  0  0
   -1.1123    1.1520   -0.0293 C   0  0  0  0  0  0  0  0  0  0  0  0
    0.3401    1.5074   -0.1638 C   0  0  0  0  0  0  0  0  0  0  0  0
    1.2573    0.5248    0.4799 C   0  0  0  0  0  0  0  0  0  0  0  0
    0.7530   -0.8486    0.6283 C   0  0  0  0  0  0  0  0  0  0  0  0
   -0.4085   -1.2558   -0.1786 C   0  0  0  0  0  0  0  0  0  0  0  0
    2.5769    0.5628   -0.3033 C   0  0  0  0  0  0  0  0  0  0  0  0
   -2.7928   -0.5763   -0.3110 C   0  0  0  0  0  0  0  0  0  0  0  0
    3.4959   -0.3665    0.2766 N   0  0  0  0  0  0  0  0  0  0  0  0
   -3.6680    0.3509   -0.8665 O   0  0  0  0  0  0  0  0  0  0  0  0
   -3.0711   -1.8121   -0.9216 O   0  0  0  0  0  0  0  0  0  0  0  0
   -1.3281   -0.0671   -1.7460 H   0  0  0  0  0  0  0  0  0  0  0  0
   -1.6750    1.8904   -0.6665 H   0  0  0  0  0  0  0  0  0  0  0  0
   -1.4362    1.2708    1.0035 H   0  0  0  0  0  0  0  0  0  0  0  0
    0.4605    2.5304    0.2811 H   0  0  0  0  0  0  0  0  0  0  0  0
    0.6019    1.6460   -1.2492 H   0  0  0  0  0  0  0  0  0  0  0  0
    1.5332    0.9560    1.4883 H   0  0  0  0  0  0  0  0  0  0  0  0
    0.5617   -1.0651    1.7217 H   0  0  0  0  0  0  0  0  0  0  0  0
    1.6066   -1.5501    0.3799 H   0  0  0  0  0  0  0  0  0  0  0  0
   -0.0747   -1.8256   -1.0967 H   0  0  0  0  0  0  0  0  0  0  0  0
   -0.9939   -2.0284    0.4045 H   0  0  0  0  0  0  0  0  0  0  0  0
    2.9727    1.5927   -0.1642 H   0  0  0  0  0  0  0  0  0  0  0  0
    2.4020    0.4104   -1.3900 H   0  0  0  0  0  0  0  0  0  0  0  0
   -2.9519   -0.7248    0.7685 H   0  0  0  0  0  0  0  0  0  0  0  0
    3.8168   -1.1165   -0.3871 H   0  0  0  0  0  0  0  0  0  0  0  0
    4.3527    0.1062    0.6741 H   0  0  0  0  0  0  0  0  0  0  0  0
   -3.6091    1.2426   -0.4692 H   0  0  0  0  0  0  0  0  0  0  0  0
   -2.2710   -2.3095   -1.1615 H   0  0  0  0  0  0  0  0  0  0  0  0
   -1.3281   -0.0671   -1.7460 H   0  0  0  0  0  0  0  0  0  0  0  0
   -1.6750    1.8904   -0.6665 H   0  0  0  0  0  0  0  0  0  0  0  0
   -1.4362    1.2708    1.0035 H   0  0  0  0  0  0  0  0  0  0  0  0
    0.4605    2.5304    0.2811 H   0  0  0  0  0  0  0  0  0  0  0  0
    0.6019    1.6460   -1.2492 H   0  0  0  0  0  0  0  0  0  0  0  0
    1.5332    0.9560    1.4883 H   0  0  0  0  0  0  0  0  0  0  0  0
    0.5617   -1.0651    1.7217 H   0  0  0  0  0  0  0  0  0  0  0  0
    1.6066   -1.5501    0.3799 H   0  0  0  0  0  0  0  0  0  0  0  0
   -0.0747   -1.8256   -1.0967 H   0  0  0  0  0  0  0  0  0  0  0  0
   -0.9939   -2.0284    0.4045 H   0  0  0  0  0  0  0  0  0  0  0  0
    2.9727    1.5927   -0.1642 H   0  0  0  0  0  0  0  0  0  0  0  0
    2.4020    0.4104   -1.3900 H   0  0  0  0  0  0  0  0  0  0  0  0
   -2.9519   -0.7248    0.7685 H   0  0  0  0  0  0  0  0  0  0  0  0
    3.8168   -1.1165   -0.3871 H   0  0  0  0  0  0  0  0  0  0  0  0
    4.3527    0.1062    0.6741 H   0  0  0  0  0  0  0  0  0  0  0  0
   -3.6091    1.2426   -0.4692 H   0  0  0  0  0  0  0  0  0  0  0  0
   -2.2710   -2.3095   -1.1615 H   0  0  0  0  0  0  0  0  0  0  0  0
  1  2  1  0
  2  3  1  0
  3  4  1  0
  4  5  1  0
  1  6  1  0
  5  6  1  0
  4  7  1  0
  1  8  1  0
  7  9  1  0
  8 10  1  0
  8 11  1  0
 12 13  1  0
 13 14  1  0
 14 15  1  0
 15 16  1  0
 12 17  1  0
 16 17  1  0
 15 18  1  0
 12 19  1  0
 18 20  1  0
 19 21  1  0
 19 22  1  0
  1 23  1  0
  2 24  1  0
  2 25  1  0
  3 26  1  0
  3 27  1  0
  4 28  1  0
  5 29  1  0
  5 30  1  0
  6 31  1  0
  6 32  1  0
  7 33  1  0
  7 34  1  0
  8 35  1  0
  9 36  1  0
  9 37  1  0
 10 38  1  0
 11 39  1  0
 12 40  1  0
 13 41  1  0
 13 42  1  0
 14 43  1  0
 14 44  1  0
 15 45  1  0
 16 46  1  0
 16 47  1  0
 17 48  1  0
 17 49  1  0
 18 50  1  0
 18 51  1  0
 19 52  1  0
 20 53  1  0
 20 54  1  0
 21 55  1  0
 22 56  1  0
M  END
>  <PDBID>  (1) 
1CEB

>  <PDB ID>  (1) 
1CEB

>  <Generic Name>  (1) 
Tranexamic Acid

>  <Brand Name>  (1) 
Cyklokapron#Cyklokapron 100 mg/ml#Cyklokapron 500 mg#Erfa-tranexamic#Gd-tranexamic Acid#Lysteda#Pure Whitenol Serum#Tranexamic Acid#Tranexamic Acid Injection#Tranexamic Acid Injection BP#Tranexamic Acid Tablets#Tranexamic Acid Tranexamic Acid#Cyclo-F#Espercil#Femstrual#Rikavarin#Transamin#Transcam#Traxyl

>  <DrugBank ID>  (1) 
DB00302

>  <ATC Codes>  (1) 
B02AA02

>  <Ligand ID>  (1) 
AMH

>  <Target Name>  (1) 
Plasminogen

>  <UniProt ID>  (1) 
P00747

>  <PDB ID.1>  (1) 
1CEB

>  <Seq. Identity>  (1) 
100%

$$$$
