PDB_DB09324_05
     RDKit          3D

 32 33  0  0  0  0  0  0  0  0999 V2000
   -2.3269    0.2267   -0.3465 C   0  0  0  0  0  0  0  0  0  0  0  0
   -1.0002   -0.1807    0.2560 C   0  0  0  0  0  0  0  0  0  0  0  0
   -1.3097   -0.7696    1.6244 C   0  0  0  0  0  0  0  0  0  0  0  0
   -0.1309   -1.3125   -0.7584 S   0  0  0  0  0  0  0  0  0  0  0  0
   -0.9860   -1.7250   -2.3293 O   0  0  0  0  0  0  0  0  0  0  0  0
    0.1536   -2.9484   -0.0055 O   0  0  0  0  0  0  0  0  0  0  0  0
    1.3219   -0.3753   -1.0158 C   0  0  2  0  0  0  0  0  0  0  0  0
    2.5506   -0.9184   -0.2891 C   0  0  0  0  0  0  0  0  0  0  0  0
    2.2145    0.0875    0.8215 C   0  0  0  0  0  0  0  0  0  0  0  0
    1.8743   -0.4985    2.0060 O   0  0  0  0  0  0  0  0  0  0  0  0
    1.2365    0.6221   -0.0174 N   0  0  0  0  0  0  0  0  0  0  0  0
   -0.0360    0.9625    0.3529 C   0  0  1  0  0  0  0  0  0  0  0  0
   -0.4922    2.1528   -0.5026 C   0  0  0  0  0  0  0  0  0  0  0  0
    0.3899    3.2051   -0.2669 O   0  0  0  0  0  0  0  0  0  0  0  0
   -0.3226    1.7754   -1.8414 O   0  0  0  0  0  0  0  0  0  0  0  0
   -2.7833    0.9709    0.3017 H   0  0  0  0  0  0  0  0  0  0  0  0
   -2.2504    0.5066   -1.4047 H   0  0  0  0  0  0  0  0  0  0  0  0
   -2.9774   -0.6943   -0.2956 H   0  0  0  0  0  0  0  0  0  0  0  0
   -2.3865   -0.8336    1.8278 H   0  0  0  0  0  0  0  0  0  0  0  0
   -0.9133   -1.8140    1.7180 H   0  0  0  0  0  0  0  0  0  0  0  0
   -0.8246   -0.1405    2.3924 H   0  0  0  0  0  0  0  0  0  0  0  0
   -1.8001   -2.1441   -1.9790 H   0  0  0  0  0  0  0  0  0  0  0  0
   -0.7699   -3.2834    0.0945 H   0  0  0  0  0  0  0  0  0  0  0  0
    1.5254   -0.0551   -2.0362 H   0  0  0  0  0  0  0  0  0  0  0  0
    2.4848   -1.9643    0.0232 H   0  0  0  0  0  0  0  0  0  0  0  0
    3.4734   -0.6211   -0.8313 H   0  0  0  0  0  0  0  0  0  0  0  0
    3.0675    0.8103    0.9821 H   0  0  0  0  0  0  0  0  0  0  0  0
    2.6147   -1.1053    2.2799 H   0  0  0  0  0  0  0  0  0  0  0  0
   -0.0774    1.3323    1.4038 H   0  0  0  0  0  0  0  0  0  0  0  0
   -1.5086    2.4563   -0.2729 H   0  0  0  0  0  0  0  0  0  0  0  0
    0.1250    3.7387    0.5413 H   0  0  0  0  0  0  0  0  0  0  0  0
   -0.1363    2.5370   -2.4329 H   0  0  0  0  0  0  0  0  0  0  0  0
  2  1  1  0
  2  3  1  0
  2  4  1  0
  4  5  1  0
  4  6  1  0
  4  7  1  0
  7  8  1  0
  8  9  1  0
  9 10  1  0
  7 11  1  0
  9 11  1  0
  2 12  1  0
 11 12  1  0
 12 13  1  0
 13 14  1  0
 13 15  1  0
  1 16  1  0
  1 17  1  0
  1 18  1  0
  3 19  1  0
  3 20  1  0
  3 21  1  0
  5 22  1  0
  6 23  1  0
  7 24  1  6
  8 25  1  0
  8 26  1  0
  9 27  1  0
 10 28  1  0
 12 29  1  1
 13 30  1  0
 14 31  1  0
 15 32  1  0
M  END
>  <PDBID>  (1) 
4FH2

>  <PDB ID>  (1) 
4FH2

>  <Generic Name>  (1) 
Sulbactam

>  <Brand Name>  (1) 
Ampicillin Sodium and Sulbactam Sodium#Ampicillin and Sulbactam#Unasyn

>  <DrugBank ID>  (1) 
DB09324

>  <ATC Codes>  (1) 
J01CG01

>  <Ligand ID>  (1) 
0RN

>  <Target Name>  (1) 
Beta-lactamase

>  <UniProt ID>  (1) 
P00807

>  <PDB ID.1>  (1) 
4FH2

>  <Seq. Identity>  (1) 
31%

$$$$
