PDB_DB00278_06
     RDKit          3D

170174  0  0  0  0  0  0  0  0999 V2000
    1.6928    1.2940   -1.3225 S   0  0  0  0  0  0  0  0  0  0  0  0
    2.5988    1.5702   -2.5666 O   0  0  0  0  0  0  0  0  0  0  0  0
    1.2498    3.0831   -0.8943 O   0  0  0  0  0  0  0  0  0  0  0  0
    4.2556   -2.0084   -1.5002 C   0  0  0  0  0  0  0  0  0  0  0  0
    4.8072   -2.5880   -0.2515 C   0  0  2  0  0  0  0  0  0  0  0  0
    5.2984   -1.6162    0.7619 C   0  0  0  0  0  0  0  0  0  0  0  0
    4.6156   -0.2919    0.7590 C   0  0  0  0  0  0  0  0  0  0  0  0
    5.5662    0.7196    0.1094 C   0  0  0  0  0  0  0  0  0  0  0  0
    4.7766    1.9727   -0.1065 C   0  0  0  0  0  0  0  0  0  0  0  0
    3.4442    1.9743    0.5889 C   0  0  0  0  0  0  0  0  0  0  0  0
    2.5263    0.8679    0.0851 C   0  0  0  0  0  0  0  0  0  0  0  0
    3.3475   -0.3898   -0.0604 C   0  0  0  0  0  0  0  0  0  0  0  0
    6.0028   -3.4702   -0.6419 C   0  0  0  0  0  0  0  0  0  0  0  0
    3.7117   -0.6962   -1.4050 N   0  0  0  0  0  0  0  0  0  0  0  0
    0.3320    0.6820   -1.5803 N   0  0  0  0  0  0  0  0  0  0  0  0
   -0.6057    0.2916   -0.5482 C   0  0  2  0  0  0  0  0  0  0  0  0
   -1.7287   -0.4504   -1.2432 C   0  0  0  0  0  0  0  0  0  0  0  0
   -1.0794   -1.5407   -1.8910 O   0  0  0  0  0  0  0  0  0  0  0  0
   -1.1315    1.4880    0.2096 C   0  0  0  0  0  0  0  0  0  0  0  0
   -1.8748    2.4507   -0.6855 C   0  0  0  0  0  0  0  0  0  0  0  0
   -2.3801    3.6451    0.0932 C   0  0  0  0  0  0  0  0  0  0  0  0
   -3.2871    3.2586    1.1501 N   0  0  0  0  0  0  0  0  0  0  0  0
   -3.7205    4.4569    1.8439 C   0  0  0  0  0  0  0  0  0  0  0  0
   -4.3948    5.3839    0.9514 N   0  0  0  0  0  0  0  0  0  0  0  0
   -2.6050    5.1563    2.4429 N   0  0  0  0  0  0  0  0  0  0  0  0
   -2.7257   -0.9730   -0.3204 N   0  0  0  0  0  0  0  0  0  0  0  0
   -2.2558   -1.9687    0.5745 C   0  0  2  0  0  0  0  0  0  0  0  0
   -2.7936   -3.3541    0.2517 C   0  0  0  0  0  0  0  0  0  0  0  0
   -4.2943   -3.3981    0.2614 C   0  0  1  0  0  0  0  0  0  0  0  0
   -4.8735   -2.1824   -0.3828 C   0  0  0  0  0  0  0  0  0  0  0  0
   -3.8892   -1.3100   -1.0765 C   0  0  0  0  0  0  0  0  0  0  0  0
   -2.4282   -1.6530    2.0439 C   0  0  0  0  0  0  0  0  0  0  0  0
   -3.7584   -1.4548    2.3959 O   0  0  0  0  0  0  0  0  0  0  0  0
   -2.0468   -2.8163    2.7639 O   0  0  0  0  0  0  0  0  0  0  0  0
   -4.7006   -4.6846   -0.4580 C   0  0  0  0  0  0  0  0  0  0  0  0
    1.6928    1.2940   -1.3225 S   0  0  0  0  0  0  0  0  0  0  0  0
    2.5988    1.5702   -2.5666 O   0  0  0  0  0  0  0  0  0  0  0  0
    1.2498    3.0831   -0.8943 O   0  0  0  0  0  0  0  0  0  0  0  0
    4.2556   -2.0084   -1.5002 C   0  0  0  0  0  0  0  0  0  0  0  0
    4.8072   -2.5880   -0.2515 C   0  0  2  0  0  0  0  0  0  0  0  0
    5.2984   -1.6162    0.7619 C   0  0  0  0  0  0  0  0  0  0  0  0
    4.6156   -0.2919    0.7590 C   0  0  0  0  0  0  0  0  0  0  0  0
    5.5662    0.7196    0.1094 C   0  0  0  0  0  0  0  0  0  0  0  0
    4.7766    1.9727   -0.1065 C   0  0  0  0  0  0  0  0  0  0  0  0
    3.4442    1.9743    0.5889 C   0  0  0  0  0  0  0  0  0  0  0  0
    2.5263    0.8679    0.0851 C   0  0  0  0  0  0  0  0  0  0  0  0
    3.3475   -0.3898   -0.0604 C   0  0  0  0  0  0  0  0  0  0  0  0
    6.0028   -3.4702   -0.6419 C   0  0  0  0  0  0  0  0  0  0  0  0
    3.7117   -0.6962   -1.4050 N   0  0  0  0  0  0  0  0  0  0  0  0
    0.3320    0.6820   -1.5803 N   0  0  0  0  0  0  0  0  0  0  0  0
   -0.6057    0.2916   -0.5482 C   0  0  2  0  0  0  0  0  0  0  0  0
   -1.7287   -0.4504   -1.2432 C   0  0  0  0  0  0  0  0  0  0  0  0
   -1.0794   -1.5407   -1.8910 O   0  0  0  0  0  0  0  0  0  0  0  0
   -1.1315    1.4880    0.2096 C   0  0  0  0  0  0  0  0  0  0  0  0
   -1.8748    2.4507   -0.6855 C   0  0  0  0  0  0  0  0  0  0  0  0
   -2.3801    3.6451    0.0932 C   0  0  0  0  0  0  0  0  0  0  0  0
   -3.2871    3.2586    1.1501 N   0  0  0  0  0  0  0  0  0  0  0  0
   -3.7205    4.4569    1.8439 C   0  0  0  0  0  0  0  0  0  0  0  0
   -4.3948    5.3839    0.9514 N   0  0  0  0  0  0  0  0  0  0  0  0
   -2.6050    5.1563    2.4429 N   0  0  0  0  0  0  0  0  0  0  0  0
   -2.7257   -0.9730   -0.3204 N   0  0  0  0  0  0  0  0  0  0  0  0
   -2.2558   -1.9687    0.5745 C   0  0  2  0  0  0  0  0  0  0  0  0
   -2.7936   -3.3541    0.2517 C   0  0  0  0  0  0  0  0  0  0  0  0
   -4.2943   -3.3981    0.2614 C   0  0  1  0  0  0  0  0  0  0  0  0
   -4.8735   -2.1824   -0.3828 C   0  0  0  0  0  0  0  0  0  0  0  0
   -3.8892   -1.3100   -1.0765 C   0  0  0  0  0  0  0  0  0  0  0  0
   -2.4282   -1.6530    2.0439 C   0  0  0  0  0  0  0  0  0  0  0  0
   -3.7584   -1.4548    2.3959 O   0  0  0  0  0  0  0  0  0  0  0  0
   -2.0468   -2.8163    2.7639 O   0  0  0  0  0  0  0  0  0  0  0  0
   -4.7006   -4.6846   -0.4580 C   0  0  0  0  0  0  0  0  0  0  0  0
    2.4117    0.9663   -3.3444 H   0  0  0  0  0  0  0  0  0  0  0  0
    0.9801    3.3459   -1.7915 H   0  0  0  0  0  0  0  0  0  0  0  0
    3.4308   -2.6811   -1.8782 H   0  0  0  0  0  0  0  0  0  0  0  0
    5.0197   -2.0421   -2.3301 H   0  0  0  0  0  0  0  0  0  0  0  0
    4.0634   -3.2949    0.1957 H   0  0  0  0  0  0  0  0  0  0  0  0
    5.1103   -2.0746    1.7777 H   0  0  0  0  0  0  0  0  0  0  0  0
    6.4236   -1.5181    0.7285 H   0  0  0  0  0  0  0  0  0  0  0  0
    4.4075    0.0963    1.7831 H   0  0  0  0  0  0  0  0  0  0  0  0
    5.9838    0.2961   -0.8318 H   0  0  0  0  0  0  0  0  0  0  0  0
    6.4237    0.8396    0.7975 H   0  0  0  0  0  0  0  0  0  0  0  0
    5.3671    2.8038    0.3777 H   0  0  0  0  0  0  0  0  0  0  0  0
    4.7068    2.2697   -1.1745 H   0  0  0  0  0  0  0  0  0  0  0  0
    2.9451    2.9373    0.3136 H   0  0  0  0  0  0  0  0  0  0  0  0
    3.5719    1.9718    1.6705 H   0  0  0  0  0  0  0  0  0  0  0  0
    1.8095    0.6850    0.9162 H   0  0  0  0  0  0  0  0  0  0  0  0
    2.7862   -1.2860    0.3351 H   0  0  0  0  0  0  0  0  0  0  0  0
    5.7815   -4.1010   -1.5097 H   0  0  0  0  0  0  0  0  0  0  0  0
    6.8092   -2.7381   -0.9405 H   0  0  0  0  0  0  0  0  0  0  0  0
    6.4006   -4.0092    0.2279 H   0  0  0  0  0  0  0  0  0  0  0  0
    4.2380    0.0306   -1.8969 H   0  0  0  0  0  0  0  0  0  0  0  0
   -0.1975    0.9439   -2.4156 H   0  0  0  0  0  0  0  0  0  0  0  0
   -0.1103   -0.3786    0.1492 H   0  0  0  0  0  0  0  0  0  0  0  0
   -2.1819    0.1272   -2.0660 H   0  0  0  0  0  0  0  0  0  0  0  0
   -0.2451   -1.2541   -2.3026 H   0  0  0  0  0  0  0  0  0  0  0  0
   -1.7362    1.1680    1.0695 H   0  0  0  0  0  0  0  0  0  0  0  0
   -0.2524    2.0297    0.6107 H   0  0  0  0  0  0  0  0  0  0  0  0
   -1.3414    2.8022   -1.5546 H   0  0  0  0  0  0  0  0  0  0  0  0
   -2.8207    1.8914   -0.9743 H   0  0  0  0  0  0  0  0  0  0  0  0
   -2.8731    4.3883   -0.5586 H   0  0  0  0  0  0  0  0  0  0  0  0
   -1.5099    4.1511    0.5747 H   0  0  0  0  0  0  0  0  0  0  0  0
   -4.0904    2.7061    0.8407 H   0  0  0  0  0  0  0  0  0  0  0  0
   -4.4894    4.1795    2.6162 H   0  0  0  0  0  0  0  0  0  0  0  0
   -4.8074    4.9098    0.1330 H   0  0  0  0  0  0  0  0  0  0  0  0
   -3.7711    6.1465    0.6285 H   0  0  0  0  0  0  0  0  0  0  0  0
   -2.9956    5.6233    3.3131 H   0  0  0  0  0  0  0  0  0  0  0  0
   -2.2787    5.9671    1.8468 H   0  0  0  0  0  0  0  0  0  0  0  0
   -1.1405   -2.0799    0.4294 H   0  0  0  0  0  0  0  0  0  0  0  0
   -2.4219   -4.0379    1.0306 H   0  0  0  0  0  0  0  0  0  0  0  0
   -2.3881   -3.6245   -0.7523 H   0  0  0  0  0  0  0  0  0  0  0  0
   -4.6515   -3.5408    1.3209 H   0  0  0  0  0  0  0  0  0  0  0  0
   -5.5917   -2.5529   -1.1735 H   0  0  0  0  0  0  0  0  0  0  0  0
   -5.5380   -1.5877    0.3073 H   0  0  0  0  0  0  0  0  0  0  0  0
   -4.4131   -0.3469   -1.3240 H   0  0  0  0  0  0  0  0  0  0  0  0
   -3.6412   -1.7538   -2.0755 H   0  0  0  0  0  0  0  0  0  0  0  0
   -1.7955   -0.8213    2.3442 H   0  0  0  0  0  0  0  0  0  0  0  0
   -3.7443   -1.0564    3.3141 H   0  0  0  0  0  0  0  0  0  0  0  0
   -1.0577   -2.9089    2.7672 H   0  0  0  0  0  0  0  0  0  0  0  0
   -5.7576   -4.9084   -0.3173 H   0  0  0  0  0  0  0  0  0  0  0  0
   -4.0347   -5.4807   -0.0259 H   0  0  0  0  0  0  0  0  0  0  0  0
   -4.4451   -4.6462   -1.5333 H   0  0  0  0  0  0  0  0  0  0  0  0
    2.4117    0.9663   -3.3444 H   0  0  0  0  0  0  0  0  0  0  0  0
    0.9801    3.3459   -1.7915 H   0  0  0  0  0  0  0  0  0  0  0  0
    3.4308   -2.6811   -1.8782 H   0  0  0  0  0  0  0  0  0  0  0  0
    5.0197   -2.0421   -2.3301 H   0  0  0  0  0  0  0  0  0  0  0  0
    4.0634   -3.2949    0.1957 H   0  0  0  0  0  0  0  0  0  0  0  0
    5.1103   -2.0746    1.7777 H   0  0  0  0  0  0  0  0  0  0  0  0
    6.4236   -1.5181    0.7285 H   0  0  0  0  0  0  0  0  0  0  0  0
    4.4075    0.0963    1.7831 H   0  0  0  0  0  0  0  0  0  0  0  0
    5.9838    0.2961   -0.8318 H   0  0  0  0  0  0  0  0  0  0  0  0
    6.4237    0.8396    0.7975 H   0  0  0  0  0  0  0  0  0  0  0  0
    5.3671    2.8038    0.3777 H   0  0  0  0  0  0  0  0  0  0  0  0
    4.7068    2.2697   -1.1745 H   0  0  0  0  0  0  0  0  0  0  0  0
    2.9451    2.9373    0.3136 H   0  0  0  0  0  0  0  0  0  0  0  0
    3.5719    1.9718    1.6705 H   0  0  0  0  0  0  0  0  0  0  0  0
    1.8095    0.6850    0.9162 H   0  0  0  0  0  0  0  0  0  0  0  0
    2.7862   -1.2860    0.3351 H   0  0  0  0  0  0  0  0  0  0  0  0
    5.7815   -4.1010   -1.5097 H   0  0  0  0  0  0  0  0  0  0  0  0
    6.8092   -2.7381   -0.9405 H   0  0  0  0  0  0  0  0  0  0  0  0
    6.4006   -4.0092    0.2279 H   0  0  0  0  0  0  0  0  0  0  0  0
    4.2380    0.0306   -1.8969 H   0  0  0  0  0  0  0  0  0  0  0  0
   -0.1975    0.9439   -2.4156 H   0  0  0  0  0  0  0  0  0  0  0  0
   -0.1103   -0.3786    0.1492 H   0  0  0  0  0  0  0  0  0  0  0  0
   -2.1819    0.1272   -2.0660 H   0  0  0  0  0  0  0  0  0  0  0  0
   -0.2451   -1.2541   -2.3026 H   0  0  0  0  0  0  0  0  0  0  0  0
   -1.7362    1.1680    1.0695 H   0  0  0  0  0  0  0  0  0  0  0  0
   -0.2524    2.0297    0.6107 H   0  0  0  0  0  0  0  0  0  0  0  0
   -1.3414    2.8022   -1.5546 H   0  0  0  0  0  0  0  0  0  0  0  0
   -2.8207    1.8914   -0.9743 H   0  0  0  0  0  0  0  0  0  0  0  0
   -2.8731    4.3883   -0.5586 H   0  0  0  0  0  0  0  0  0  0  0  0
   -1.5099    4.1511    0.5747 H   0  0  0  0  0  0  0  0  0  0  0  0
   -4.0904    2.7061    0.8407 H   0  0  0  0  0  0  0  0  0  0  0  0
   -4.4894    4.1795    2.6162 H   0  0  0  0  0  0  0  0  0  0  0  0
   -4.8074    4.9098    0.1330 H   0  0  0  0  0  0  0  0  0  0  0  0
   -3.7711    6.1465    0.6285 H   0  0  0  0  0  0  0  0  0  0  0  0
   -2.9956    5.6233    3.3131 H   0  0  0  0  0  0  0  0  0  0  0  0
   -2.2787    5.9671    1.8468 H   0  0  0  0  0  0  0  0  0  0  0  0
   -1.1405   -2.0799    0.4294 H   0  0  0  0  0  0  0  0  0  0  0  0
   -2.4219   -4.0379    1.0306 H   0  0  0  0  0  0  0  0  0  0  0  0
   -2.3881   -3.6245   -0.7523 H   0  0  0  0  0  0  0  0  0  0  0  0
   -4.6515   -3.5408    1.3209 H   0  0  0  0  0  0  0  0  0  0  0  0
   -5.5917   -2.5529   -1.1735 H   0  0  0  0  0  0  0  0  0  0  0  0
   -5.5380   -1.5877    0.3073 H   0  0  0  0  0  0  0  0  0  0  0  0
   -4.4131   -0.3469   -1.3240 H   0  0  0  0  0  0  0  0  0  0  0  0
   -3.6412   -1.7538   -2.0755 H   0  0  0  0  0  0  0  0  0  0  0  0
   -1.7955   -0.8213    2.3442 H   0  0  0  0  0  0  0  0  0  0  0  0
   -3.7443   -1.0564    3.3141 H   0  0  0  0  0  0  0  0  0  0  0  0
   -1.0577   -2.9089    2.7672 H   0  0  0  0  0  0  0  0  0  0  0  0
   -5.7576   -4.9084   -0.3173 H   0  0  0  0  0  0  0  0  0  0  0  0
   -4.0347   -5.4807   -0.0259 H   0  0  0  0  0  0  0  0  0  0  0  0
   -4.4451   -4.6462   -1.5333 H   0  0  0  0  0  0  0  0  0  0  0  0
  1  2  1  0
  1  3  1  0
  4  5  1  0
  5  6  1  0
  6  7  1  0
  7  8  1  0
  8  9  1  0
  9 10  1  0
  1 11  1  0
 10 11  1  0
  7 12  1  0
 11 12  1  0
  5 13  1  0
  4 14  1  0
 12 14  1  0
  1 15  1  0
 15 16  1  0
 16 17  1  0
 17 18  1  0
 16 19  1  0
 19 20  1  0
 20 21  1  0
 21 22  1  0
 22 23  1  0
 23 24  1  0
 23 25  1  0
 17 26  1  0
 26 27  1  0
 27 28  1  0
 28 29  1  0
 29 30  1  0
 26 31  1  0
 30 31  1  0
 27 32  1  0
 32 33  1  0
 32 34  1  0
 29 35  1  0
 36 37  1  0
 36 38  1  0
 39 40  1  0
 40 41  1  0
 41 42  1  0
 42 43  1  0
 43 44  1  0
 44 45  1  0
 36 46  1  0
 45 46  1  0
 42 47  1  0
 46 47  1  0
 40 48  1  0
 39 49  1  0
 47 49  1  0
 36 50  1  0
 50 51  1  0
 51 52  1  0
 52 53  1  0
 51 54  1  0
 54 55  1  0
 55 56  1  0
 56 57  1  0
 57 58  1  0
 58 59  1  0
 58 60  1  0
 52 61  1  0
 61 62  1  0
 62 63  1  0
 63 64  1  0
 64 65  1  0
 61 66  1  0
 65 66  1  0
 62 67  1  0
 67 68  1  0
 67 69  1  0
 64 70  1  0
  2 71  1  0
  3 72  1  0
  4 73  1  0
  4 74  1  0
  5 75  1  1
  6 76  1  0
  6 77  1  0
  7 78  1  0
  8 79  1  0
  8 80  1  0
  9 81  1  0
  9 82  1  0
 10 83  1  0
 10 84  1  0
 11 85  1  0
 12 86  1  0
 13 87  1  0
 13 88  1  0
 13 89  1  0
 14 90  1  0
 15 91  1  0
 16 92  1  1
 17 93  1  0
 18 94  1  0
 19 95  1  0
 19 96  1  0
 20 97  1  0
 20 98  1  0
 21 99  1  0
 21100  1  0
 22101  1  0
 23102  1  0
 24103  1  0
 24104  1  0
 25105  1  0
 25106  1  0
 27107  1  1
 28108  1  0
 28109  1  0
 29110  1  1
 30111  1  0
 30112  1  0
 31113  1  0
 31114  1  0
 32115  1  0
 33116  1  0
 34117  1  0
 35118  1  0
 35119  1  0
 35120  1  0
 37121  1  0
 38122  1  0
 39123  1  0
 39124  1  0
 40125  1  1
 41126  1  0
 41127  1  0
 42128  1  0
 43129  1  0
 43130  1  0
 44131  1  0
 44132  1  0
 45133  1  0
 45134  1  0
 46135  1  0
 47136  1  0
 48137  1  0
 48138  1  0
 48139  1  0
 49140  1  0
 50141  1  0
 51142  1  1
 52143  1  0
 53144  1  0
 54145  1  0
 54146  1  0
 55147  1  0
 55148  1  0
 56149  1  0
 56150  1  0
 57151  1  0
 58152  1  0
 59153  1  0
 59154  1  0
 60155  1  0
 60156  1  0
 62157  1  1
 63158  1  0
 63159  1  0
 64160  1  1
 65161  1  0
 65162  1  0
 66163  1  0
 66164  1  0
 67165  1  0
 68166  1  0
 69167  1  0
 70168  1  0
 70169  1  0
 70170  1  0
M  END
>  <PDBID>  (1) 
4HFP

>  <PDB ID>  (1) 
4HFP

>  <Generic Name>  (1) 
Argatroban

>  <Brand Name>  (1) 
Argatroban

>  <DrugBank ID>  (1) 
DB00278

>  <ATC Codes>  (1) 
B01AE03

>  <Ligand ID>  (1) 
15U,MIT

>  <Target Name>  (1) 
Prothrombin

>  <UniProt ID>  (1) 
P00734

>  <PDB ID.1>  (1) 
4HFP

>  <Seq. Identity>  (1) 
100%

$$$$
