PDB_DB00147_07
     RDKit          3D

 58 58  0  0  0  0  0  0  0  0999 V2000
    3.2913    0.4565   -0.5374 O   0  0  0  0  0  0  0  0  0  0  0  0
    2.4963   -0.6637   -0.4754 C   0  0  0  0  0  0  0  0  0  0  0  0
    1.2182   -0.4572    0.3051 C   0  0  0  0  0  0  0  0  0  0  0  0
    0.4688   -1.7739    0.2752 C   0  0  0  0  0  0  0  0  0  0  0  0
   -0.6710   -1.6607   -0.6505 N   0  0  0  0  0  0  0  0  0  0  0  0
   -1.6184   -0.7850    0.0395 C   0  0  0  0  0  0  0  0  0  0  0  0
   -1.0545    0.5914    0.0579 C   0  0  0  0  0  0  0  0  0  0  0  0
    0.4087    0.6861   -0.2171 C   0  0  0  0  0  0  0  0  0  0  0  0
    0.8971    1.9951    0.4174 C   0  0  0  0  0  0  0  0  0  0  0  0
    0.1198    3.0557   -0.0899 O   0  0  0  0  0  0  0  0  0  0  0  0
   -1.2939    1.1399    1.3309 O   0  0  0  0  0  0  0  0  0  0  0  0
   -2.9985   -0.8835   -0.5343 C   0  0  0  0  0  0  0  0  0  0  0  0
    3.2913    0.4565   -0.5374 O   0  0  0  0  0  0  0  0  0  0  0  0
    2.4963   -0.6637   -0.4754 C   0  0  0  0  0  0  0  0  0  0  0  0
    1.2182   -0.4572    0.3051 C   0  0  0  0  0  0  0  0  0  0  0  0
    0.4688   -1.7739    0.2752 C   0  0  0  0  0  0  0  0  0  0  0  0
   -0.6710   -1.6607   -0.6505 N   0  0  0  0  0  0  0  0  0  0  0  0
   -1.6184   -0.7850    0.0395 C   0  0  0  0  0  0  0  0  0  0  0  0
   -1.0545    0.5914    0.0579 C   0  0  0  0  0  0  0  0  0  0  0  0
    0.4087    0.6861   -0.2171 C   0  0  0  0  0  0  0  0  0  0  0  0
    0.8971    1.9951    0.4174 C   0  0  0  0  0  0  0  0  0  0  0  0
    0.1198    3.0557   -0.0899 O   0  0  0  0  0  0  0  0  0  0  0  0
   -1.2939    1.1399    1.3309 O   0  0  0  0  0  0  0  0  0  0  0  0
   -2.9985   -0.8835   -0.5343 C   0  0  0  0  0  0  0  0  0  0  0  0
    3.9122    0.3451   -1.3091 H   0  0  0  0  0  0  0  0  0  0  0  0
    2.2430   -1.0302   -1.5114 H   0  0  0  0  0  0  0  0  0  0  0  0
    3.0577   -1.4851    0.0122 H   0  0  0  0  0  0  0  0  0  0  0  0
    1.4756   -0.2603    1.3653 H   0  0  0  0  0  0  0  0  0  0  0  0
    1.0704   -2.6130   -0.0749 H   0  0  0  0  0  0  0  0  0  0  0  0
    0.0149   -2.0147    1.2625 H   0  0  0  0  0  0  0  0  0  0  0  0
   -0.3785   -1.1546   -1.5264 H   0  0  0  0  0  0  0  0  0  0  0  0
   -1.6638   -1.1830    1.0897 H   0  0  0  0  0  0  0  0  0  0  0  0
   -1.6255    1.1995   -0.7015 H   0  0  0  0  0  0  0  0  0  0  0  0
    0.6421    0.8003   -1.3098 H   0  0  0  0  0  0  0  0  0  0  0  0
    1.9317    2.2207    0.1681 H   0  0  0  0  0  0  0  0  0  0  0  0
    0.6691    1.9242    1.4821 H   0  0  0  0  0  0  0  0  0  0  0  0
   -0.3461    2.7801   -0.9154 H   0  0  0  0  0  0  0  0  0  0  0  0
   -2.1840    1.5441    1.3000 H   0  0  0  0  0  0  0  0  0  0  0  0
   -3.7618   -1.0580    0.2745 H   0  0  0  0  0  0  0  0  0  0  0  0
   -3.2290    0.0625   -1.0567 H   0  0  0  0  0  0  0  0  0  0  0  0
   -3.0919   -1.7784   -1.2011 H   0  0  0  0  0  0  0  0  0  0  0  0
    3.9122    0.3451   -1.3091 H   0  0  0  0  0  0  0  0  0  0  0  0
    2.2430   -1.0302   -1.5114 H   0  0  0  0  0  0  0  0  0  0  0  0
    3.0577   -1.4851    0.0122 H   0  0  0  0  0  0  0  0  0  0  0  0
    1.4756   -0.2603    1.3653 H   0  0  0  0  0  0  0  0  0  0  0  0
    1.0704   -2.6130   -0.0749 H   0  0  0  0  0  0  0  0  0  0  0  0
    0.0149   -2.0147    1.2625 H   0  0  0  0  0  0  0  0  0  0  0  0
   -0.3785   -1.1546   -1.5264 H   0  0  0  0  0  0  0  0  0  0  0  0
   -1.6638   -1.1830    1.0897 H   0  0  0  0  0  0  0  0  0  0  0  0
   -1.6255    1.1995   -0.7015 H   0  0  0  0  0  0  0  0  0  0  0  0
    0.6421    0.8003   -1.3098 H   0  0  0  0  0  0  0  0  0  0  0  0
    1.9317    2.2207    0.1681 H   0  0  0  0  0  0  0  0  0  0  0  0
    0.6691    1.9242    1.4821 H   0  0  0  0  0  0  0  0  0  0  0  0
   -0.3461    2.7801   -0.9154 H   0  0  0  0  0  0  0  0  0  0  0  0
   -2.1840    1.5441    1.3000 H   0  0  0  0  0  0  0  0  0  0  0  0
   -3.7618   -1.0580    0.2745 H   0  0  0  0  0  0  0  0  0  0  0  0
   -3.2290    0.0625   -1.0567 H   0  0  0  0  0  0  0  0  0  0  0  0
   -3.0919   -1.7784   -1.2011 H   0  0  0  0  0  0  0  0  0  0  0  0
  1  2  1  0
  2  3  1  0
  3  4  1  0
  4  5  1  0
  5  6  1  0
  6  7  1  0
  3  8  1  0
  7  8  1  0
  8  9  1  0
  9 10  1  0
  7 11  1  0
  6 12  1  0
 13 14  1  0
 14 15  1  0
 15 16  1  0
 16 17  1  0
 17 18  1  0
 18 19  1  0
 15 20  1  0
 19 20  1  0
 20 21  1  0
 21 22  1  0
 19 23  1  0
 18 24  1  0
  1 25  1  0
  2 26  1  0
  2 27  1  0
  3 28  1  0
  4 29  1  0
  4 30  1  0
  5 31  1  0
  6 32  1  0
  7 33  1  0
  8 34  1  0
  9 35  1  0
  9 36  1  0
 10 37  1  0
 11 38  1  0
 12 39  1  0
 12 40  1  0
 12 41  1  0
 13 42  1  0
 14 43  1  0
 14 44  1  0
 15 45  1  0
 16 46  1  0
 16 47  1  0
 17 48  1  0
 18 49  1  0
 19 50  1  0
 20 51  1  0
 21 52  1  0
 21 53  1  0
 22 54  1  0
 23 55  1  0
 24 56  1  0
 24 57  1  0
 24 58  1  0
M  END
>  <PDBID>  (1) 
3FHX

>  <PDB ID>  (1) 
3FHX

>  <Generic Name>  (1) 
Pyridoxal

>  <Brand Name>  (1) 
nan

>  <DrugBank ID>  (1) 
DB00147

>  <ATC Codes>  (1) 
nan

>  <Ligand ID>  (1) 
PXL

>  <Target Name>  (1) 
Pyridoxal kinase

>  <UniProt ID>  (1) 
O00764

>  <PDB ID.1>  (1) 
3FHX

>  <Seq. Identity>  (1) 
100%

$$$$
