PDB_DB00787_04
     RDKit          3D

 70 72  0  0  0  0  0  0  0  0999 V2000
    3.8881    0.4482    0.0997 C   0  0  0  0  0  0  0  0  0  0  0  0
    3.4105    1.6190   -0.5036 O   0  0  0  0  0  0  0  0  0  0  0  0
    3.6005   -0.7020   -0.8206 C   0  0  0  0  0  0  0  0  0  0  0  0
    2.2601   -0.8854   -1.1018 O   0  0  0  0  0  0  0  0  0  0  0  0
    1.5403   -1.1368    0.0340 C   0  0  0  0  0  0  0  0  0  0  0  0
    0.1276   -1.3480   -0.2257 N   0  0  0  0  0  0  0  0  0  0  0  0
   -0.5156   -1.6012    1.0513 C   0  0  0  0  0  0  0  0  0  0  0  0
   -0.7456   -0.2985    1.6328 N   0  0  0  0  0  0  0  0  0  0  0  0
   -0.5774    0.6729    0.5904 C   0  0  0  0  0  0  0  0  0  0  0  0
   -1.6213    1.7531    0.5941 C   0  0  0  0  0  0  0  0  0  0  0  0
   -2.0604    1.9536    1.9079 O   0  0  0  0  0  0  0  0  0  0  0  0
   -2.7135    1.4914   -0.3073 N   0  0  0  0  0  0  0  0  0  0  0  0
   -2.9333    0.0590   -0.3184 C   0  0  0  0  0  0  0  0  0  0  0  0
   -4.2013   -0.2904   -0.9181 N   0  0  0  0  0  0  0  0  0  0  0  0
   -1.8955   -0.5711   -1.0708 N   0  0  0  0  0  0  0  0  0  0  0  0
   -0.5575   -0.1557   -0.6516 C   0  0  0  0  0  0  0  0  0  0  0  0
    4.0364    0.6360   -0.3208 C   0  0  0  0  0  0  0  0  0  0  0  0
    3.5418    1.9505   -0.3940 O   0  0  0  0  0  0  0  0  0  0  0  0
    3.3150   -0.2664   -1.2744 C   0  0  0  0  0  0  0  0  0  0  0  0
    1.9643   -0.3723   -1.0753 O   0  0  0  0  0  0  0  0  0  0  0  0
    1.6420   -0.8683    0.1813 C   0  0  0  0  0  0  0  0  0  0  0  0
    0.2066   -0.9740    0.3670 N   0  0  0  0  0  0  0  0  0  0  0  0
   -0.0331   -1.4943    1.6901 C   0  0  0  0  0  0  0  0  0  0  0  0
   -0.7772   -0.4871    2.4194 N   0  0  0  0  0  0  0  0  0  0  0  0
   -1.5328    0.1485    1.3612 C   0  0  2  0  0  0  0  0  0  0  0  0
   -2.5739   -0.7718    0.7702 C   0  0  0  0  0  0  0  0  0  0  0  0
   -3.3510   -1.3957    1.7141 O   0  0  0  0  0  0  0  0  0  0  0  0
   -3.3198   -0.0366   -0.2102 N   0  0  0  0  0  0  0  0  0  0  0  0
   -2.4466    0.9911   -0.7667 C   0  0  0  0  0  0  0  0  0  0  0  0
   -3.0576    1.4262   -2.0068 N   0  0  0  0  0  0  0  0  0  0  0  0
   -1.1075    0.5319   -0.9591 N   0  0  0  0  0  0  0  0  0  0  0  0
   -0.4473    0.3076    0.2898 C   0  0  0  0  0  0  0  0  0  0  0  0
    5.0026    0.6311    0.1828 H   0  0  0  0  0  0  0  0  0  0  0  0
    3.5478    0.3070    1.1329 H   0  0  0  0  0  0  0  0  0  0  0  0
    3.9077    2.3861   -0.1681 H   0  0  0  0  0  0  0  0  0  0  0  0
    3.9440   -1.6266   -0.2653 H   0  0  0  0  0  0  0  0  0  0  0  0
    4.2113   -0.6597   -1.7505 H   0  0  0  0  0  0  0  0  0  0  0  0
    1.9088   -2.0916    0.4785 H   0  0  0  0  0  0  0  0  0  0  0  0
    1.6857   -0.3740    0.8510 H   0  0  0  0  0  0  0  0  0  0  0  0
   -1.4523   -2.1501    0.8253 H   0  0  0  0  0  0  0  0  0  0  0  0
    0.1212   -2.2214    1.7138 H   0  0  0  0  0  0  0  0  0  0  0  0
   -0.0917   -0.1714    2.4277 H   0  0  0  0  0  0  0  0  0  0  0  0
    0.4141    1.2055    0.6458 H   0  0  0  0  0  0  0  0  0  0  0  0
   -1.1900    2.7485    0.2784 H   0  0  0  0  0  0  0  0  0  0  0  0
   -2.2186    1.0520    2.2990 H   0  0  0  0  0  0  0  0  0  0  0  0
   -2.6014    1.8887   -1.2468 H   0  0  0  0  0  0  0  0  0  0  0  0
   -2.9545   -0.2814    0.7221 H   0  0  0  0  0  0  0  0  0  0  0  0
   -4.9787   -0.1078   -0.2438 H   0  0  0  0  0  0  0  0  0  0  0  0
   -4.1770   -1.3405   -1.0629 H   0  0  0  0  0  0  0  0  0  0  0  0
   -2.0202   -0.5489   -2.0862 H   0  0  0  0  0  0  0  0  0  0  0  0
   -0.0646    0.3463   -1.5067 H   0  0  0  0  0  0  0  0  0  0  0  0
    5.1151    0.6355   -0.6543 H   0  0  0  0  0  0  0  0  0  0  0  0
    4.0476    0.3121    0.7190 H   0  0  0  0  0  0  0  0  0  0  0  0
    4.1191    2.4356   -1.0646 H   0  0  0  0  0  0  0  0  0  0  0  0
    3.8360   -1.2460   -1.2807 H   0  0  0  0  0  0  0  0  0  0  0  0
    3.4648    0.1652   -2.2996 H   0  0  0  0  0  0  0  0  0  0  0  0
    2.1238   -1.8611    0.2791 H   0  0  0  0  0  0  0  0  0  0  0  0
    2.0871   -0.1811    0.9360 H   0  0  0  0  0  0  0  0  0  0  0  0
    0.9205   -1.6443    2.2616 H   0  0  0  0  0  0  0  0  0  0  0  0
   -0.5651   -2.4655    1.6929 H   0  0  0  0  0  0  0  0  0  0  0  0
   -0.0976    0.2106    2.7772 H   0  0  0  0  0  0  0  0  0  0  0  0
   -1.9228    1.1039    1.7064 H   0  0  0  0  0  0  0  0  0  0  0  0
   -1.9967   -1.5605    0.2047 H   0  0  0  0  0  0  0  0  0  0  0  0
   -3.4776   -2.3749    1.5264 H   0  0  0  0  0  0  0  0  0  0  0  0
   -4.1328    0.4124    0.2599 H   0  0  0  0  0  0  0  0  0  0  0  0
   -2.4133    1.8981   -0.1075 H   0  0  0  0  0  0  0  0  0  0  0  0
   -2.4145    2.0131   -2.5799 H   0  0  0  0  0  0  0  0  0  0  0  0
   -3.9720    1.8758   -1.8188 H   0  0  0  0  0  0  0  0  0  0  0  0
   -1.0053   -0.2096   -1.6585 H   0  0  0  0  0  0  0  0  0  0  0  0
    0.2247    1.1552    0.5343 H   0  0  0  0  0  0  0  0  0  0  0  0
  1  2  1  0
  1  3  1  0
  3  4  1  0
  4  5  1  0
  5  6  1  0
  6  7  1  0
  7  8  1  0
  8  9  1  0
  9 10  1  0
 10 11  1  0
 10 12  1  0
 12 13  1  0
 13 14  1  0
 13 15  1  0
  6 16  1  0
  9 16  1  0
 15 16  1  0
 17 18  1  0
 17 19  1  0
 19 20  1  0
 20 21  1  0
 21 22  1  0
 22 23  1  0
 23 24  1  0
 24 25  1  0
 25 26  1  0
 26 27  1  0
 26 28  1  0
 28 29  1  0
 29 30  1  0
 29 31  1  0
 22 32  1  0
 25 32  1  0
 31 32  1  0
  1 33  1  0
  1 34  1  0
  2 35  1  0
  3 36  1  0
  3 37  1  0
  5 38  1  0
  5 39  1  0
  7 40  1  0
  7 41  1  0
  8 42  1  0
  9 43  1  0
 10 44  1  0
 11 45  1  0
 12 46  1  0
 13 47  1  0
 14 48  1  0
 14 49  1  0
 15 50  1  0
 16 51  1  0
 17 52  1  0
 17 53  1  0
 18 54  1  0
 19 55  1  0
 19 56  1  0
 21 57  1  0
 21 58  1  0
 23 59  1  0
 23 60  1  0
 24 61  1  0
 25 62  1  1
 26 63  1  0
 27 64  1  0
 28 65  1  0
 29 66  1  0
 30 67  1  0
 30 68  1  0
 31 69  1  0
 32 70  1  0
M  END
>  <PDBID>  (1) 
2KI5

>  <PDB ID>  (1) 
2KI5

>  <Generic Name>  (1) 
Aciclovir

>  <Brand Name>  (1) 
Acyclovir#Acyclovir Sodium#Acyclovir Sodium Injection#Acyclovir Sodium for Injection#Acyclovir-200#Acyclovir-400#Acyclovir-800#Alti-acyclovir - 400mg#Alti-acyclovir - 800mg#Alti-acyclovir - Tab 200mg#Apo-acyclovir - Tab 200mg#Apo-acyclovir - Tab 400mg#Apo-acyclovir - Tab 800mg#Mylan-acyclovir#Ntp-acyclovir#Nu-acyclovir - Tab 200mg#Nu-acyclovir - Tab 400mg#Nu-acyclovir - Tab 800mg#Ratio-acyclovir#Sitavig#Teva-acyclovir#Xerese#Zovirax#Zovirax 400#Zovirax 800#Zovirax Cap 200mg#Zovirax Tab 200mg#Zovir

>  <DrugBank ID>  (1) 
DB00787

>  <ATC Codes>  (1) 
S01AD03#D06BB03#J05AB01#D06BB53

>  <Ligand ID>  (1) 
AC2

>  <Target Name>  (1) 
Thymidine kinase

>  <UniProt ID>  (1) 
P03176

>  <PDB ID.1>  (1) 
2KI5

>  <Seq. Identity>  (1) 
100%

$$$$
