PDB_DB01113_08
     RDKit          3D

 62 64  0  0  0  0  0  0  0  0999 V2000
   -5.1338    2.6446   -0.7698 C   0  0  0  0  0  0  0  0  0  0  0  0
   -4.4987    1.4185   -1.0035 O   0  0  0  0  0  0  0  0  0  0  0  0
   -3.8996    0.9270    0.1308 C   0  0  0  0  0  0  0  0  0  0  0  0
   -4.4784   -0.4419    0.5104 C   0  0  0  0  0  0  0  0  0  0  0  0
   -5.8628   -0.3642    0.5311 O   0  0  0  0  0  0  0  0  0  0  0  0
   -6.4489   -1.2716   -0.3502 C   0  0  0  0  0  0  0  0  0  0  0  0
   -3.9684   -0.7376    1.9034 C   0  0  0  0  0  0  0  0  0  0  0  0
   -2.5348   -0.2236    2.0727 C   0  0  0  0  0  0  0  0  0  0  0  0
   -2.4292    0.6685   -0.2027 C   0  0  0  0  0  0  0  0  0  0  0  0
   -1.8486   -0.3621    0.7414 C   0  0  0  0  0  0  0  0  0  0  0  0
   -0.3526   -0.0794    0.9180 C   0  0  0  0  0  0  0  0  0  0  0  0
    0.2746   -0.2326   -0.4391 C   0  0  0  0  0  0  0  0  0  0  0  0
    0.0332   -1.5909   -0.8830 N   0  0  0  0  0  0  0  0  0  0  0  0
    0.9504   -2.5326   -0.2811 C   0  0  0  0  0  0  0  0  0  0  0  0
    2.3851   -2.2442   -0.6270 C   0  0  0  0  0  0  0  0  0  0  0  0
    2.5053   -0.8766   -1.2630 C   0  0  0  0  0  0  0  0  0  0  0  0
    1.7017    0.1587   -0.5096 C   0  0  0  0  0  0  0  0  0  0  0  0
    2.3605    0.3310    0.8439 C   0  0  0  0  0  0  0  0  0  0  0  0
    3.6667    1.0769    0.5266 C   0  0  0  0  0  0  0  0  0  0  0  0
    3.2893    2.1208   -0.3142 O   0  0  0  0  0  0  0  0  0  0  0  0
    3.6210    3.3637    0.2009 C   0  0  0  0  0  0  0  0  0  0  0  0
    4.5563    0.0800   -0.1696 C   0  0  0  0  0  0  0  0  0  0  0  0
    3.9486   -0.4931   -1.4118 C   0  0  0  0  0  0  0  0  0  0  0  0
    4.9162   -0.8861    0.7665 O   0  0  0  0  0  0  0  0  0  0  0  0
    6.2872   -0.8675    1.0234 C   0  0  0  0  0  0  0  0  0  0  0  0
   -5.5887    2.9731   -1.7223 H   0  0  0  0  0  0  0  0  0  0  0  0
   -4.3799    3.3617   -0.4104 H   0  0  0  0  0  0  0  0  0  0  0  0
   -5.9821    2.5072   -0.0548 H   0  0  0  0  0  0  0  0  0  0  0  0
   -4.0106    1.5585    1.0213 H   0  0  0  0  0  0  0  0  0  0  0  0
   -4.1114   -1.2138   -0.2063 H   0  0  0  0  0  0  0  0  0  0  0  0
   -6.1069   -1.0645   -1.3981 H   0  0  0  0  0  0  0  0  0  0  0  0
   -7.5433   -1.1772   -0.3680 H   0  0  0  0  0  0  0  0  0  0  0  0
   -6.2024   -2.3096   -0.0606 H   0  0  0  0  0  0  0  0  0  0  0  0
   -4.0303   -1.8165    2.1437 H   0  0  0  0  0  0  0  0  0  0  0  0
   -4.5819   -0.1784    2.6434 H   0  0  0  0  0  0  0  0  0  0  0  0
   -1.9928   -0.8725    2.8012 H   0  0  0  0  0  0  0  0  0  0  0  0
   -2.5283    0.8271    2.4021 H   0  0  0  0  0  0  0  0  0  0  0  0
   -2.3957    0.3488   -1.2611 H   0  0  0  0  0  0  0  0  0  0  0  0
   -1.9095    1.6492   -0.1222 H   0  0  0  0  0  0  0  0  0  0  0  0
   -1.9726   -1.3553    0.3126 H   0  0  0  0  0  0  0  0  0  0  0  0
   -0.2618    0.9958    1.2501 H   0  0  0  0  0  0  0  0  0  0  0  0
    0.0500   -0.7559    1.6795 H   0  0  0  0  0  0  0  0  0  0  0  0
   -0.3246    0.4224   -1.1365 H   0  0  0  0  0  0  0  0  0  0  0  0
   -0.0524   -1.6901   -1.8987 H   0  0  0  0  0  0  0  0  0  0  0  0
    0.6802   -3.5362   -0.6706 H   0  0  0  0  0  0  0  0  0  0  0  0
    0.7912   -2.5441    0.8191 H   0  0  0  0  0  0  0  0  0  0  0  0
    3.0490   -2.3808    0.2392 H   0  0  0  0  0  0  0  0  0  0  0  0
    2.7445   -2.9825   -1.4014 H   0  0  0  0  0  0  0  0  0  0  0  0
    2.0713   -0.9530   -2.2819 H   0  0  0  0  0  0  0  0  0  0  0  0
    1.8260    1.1180   -1.0761 H   0  0  0  0  0  0  0  0  0  0  0  0
    2.6463   -0.6707    1.2771 H   0  0  0  0  0  0  0  0  0  0  0  0
    1.7518    0.8892    1.5589 H   0  0  0  0  0  0  0  0  0  0  0  0
    4.1540    1.4170    1.4373 H   0  0  0  0  0  0  0  0  0  0  0  0
    3.2809    4.1194   -0.5375 H   0  0  0  0  0  0  0  0  0  0  0  0
    4.7356    3.4920    0.2593 H   0  0  0  0  0  0  0  0  0  0  0  0
    3.1211    3.5970    1.1568 H   0  0  0  0  0  0  0  0  0  0  0  0
    5.4846    0.6134   -0.4616 H   0  0  0  0  0  0  0  0  0  0  0  0
    4.5072   -1.4426   -1.6423 H   0  0  0  0  0  0  0  0  0  0  0  0
    4.1096    0.1703   -2.2859 H   0  0  0  0  0  0  0  0  0  0  0  0
    6.4893   -1.6601    1.7728 H   0  0  0  0  0  0  0  0  0  0  0  0
    6.8129   -1.1327    0.0916 H   0  0  0  0  0  0  0  0  0  0  0  0
    6.6294    0.0906    1.4573 H   0  0  0  0  0  0  0  0  0  0  0  0
  1  2  1  0
  2  3  1  0
  3  4  1  0
  4  5  1  0
  5  6  1  0
  4  7  1  0
  7  8  1  0
  3  9  1  0
  8 10  1  0
  9 10  1  0
 10 11  1  0
 11 12  1  0
 12 13  1  0
 13 14  1  0
 14 15  1  0
 15 16  1  0
 12 17  1  0
 16 17  1  0
 17 18  1  0
 18 19  1  0
 19 20  1  0
 20 21  1  0
 19 22  1  0
 16 23  1  0
 22 23  1  0
 22 24  1  0
 24 25  1  0
  1 26  1  0
  1 27  1  0
  1 28  1  0
  3 29  1  0
  4 30  1  0
  6 31  1  0
  6 32  1  0
  6 33  1  0
  7 34  1  0
  7 35  1  0
  8 36  1  0
  8 37  1  0
  9 38  1  0
  9 39  1  0
 10 40  1  0
 11 41  1  0
 11 42  1  0
 12 43  1  0
 13 44  1  0
 14 45  1  0
 14 46  1  0
 15 47  1  0
 15 48  1  0
 16 49  1  0
 17 50  1  0
 18 51  1  0
 18 52  1  0
 19 53  1  0
 21 54  1  0
 21 55  1  0
 21 56  1  0
 22 57  1  0
 23 58  1  0
 23 59  1  0
 25 60  1  0
 25 61  1  0
 25 62  1  0
M  END
>  <PDBID>  (1) 
3IAK

>  <PDB ID>  (1) 
3IAK

>  <Generic Name>  (1) 
Papaverine

>  <Brand Name>  (1) 
Papaverine Hydrochloride#Papaverine Hydrochloride Injection USP#Alapav#Albatran#Artegodan#Cardioverina#Cerebid#Cerespan#Delapav#Dilaves#Dispamil#Drapavel#Durapav#Dynovas#Mesotina#Myobid#Optenyl#Pameion#Pamelon#Panergon#Papacon#Papalease#Papaversan#Papital T.R.#Paptial T.R.#Pavabid#Pavacap#Pavacen#Pavadel#Pavagen#Pavakey#Pavased#Pavatest#Paverolan#Paveron#Pavnell#Qua Bid#Ro-Papav#Therapav#Vasal#Vaso-Pav

>  <DrugBank ID>  (1) 
DB01113

>  <ATC Codes>  (1) 
G04BE52#G04BE02#A03AD01

>  <Ligand ID>  (1) 
EV1

>  <Target Name>  (1) 
cAMP-specific 3',5'-cyclic phosphodiesterase 4B

>  <UniProt ID>  (1) 
Q07343

>  <PDB ID.1>  (1) 
3IAK

>  <Seq. Identity>  (1) 
85%

$$$$
