PDB_DB09026_05
     RDKit          3D

204204  0  0  0  0  0  0  0  0999 V2000
    6.4733    3.1809   -2.4071 C   0  0  0  0  0  0  0  0  0  0  0  0
    7.4187    2.2235   -2.6620 O   0  0  0  0  0  0  0  0  0  0  0  0
    6.9873    1.1181   -3.3576 C   0  0  0  0  0  0  0  0  0  0  0  0
    5.8747    0.3596   -2.6378 C   0  0  0  0  0  0  0  0  0  0  0  0
    6.4674   -0.0637   -1.3016 C   0  0  0  0  0  0  0  0  0  0  0  0
    5.6419   -0.7616   -0.4924 O   0  0  0  0  0  0  0  0  0  0  0  0
    5.1308   -1.9476   -0.8735 C   0  0  0  0  0  0  0  0  0  0  0  0
    3.6314   -1.7987   -1.0012 C   0  0  0  0  0  0  0  0  0  0  0  0
    3.1114   -1.1352    0.3222 C   0  0  0  0  0  0  0  0  0  0  0  0
    3.8001   -1.8117    1.3959 C   0  0  0  0  0  0  0  0  0  0  0  0
    4.1757   -3.2452    0.9672 C   0  0  0  0  0  0  0  0  0  0  0  0
    5.3741   -3.1034    0.0561 C   0  0  0  0  0  0  0  0  0  0  0  0
    5.5390   -4.3036   -0.6032 O   0  0  0  0  0  0  0  0  0  0  0  0
    6.6905   -4.9894   -0.2956 C   0  0  0  0  0  0  0  0  0  0  0  0
    1.6913   -0.8935    0.2158 C   0  0  0  0  0  0  0  0  0  0  0  0
    0.7962   -0.2852    1.1980 C   0  0  2  0  0  0  0  0  0  0  0  0
    1.1728    1.1347    1.5854 C   0  0  0  0  0  0  0  0  0  0  0  0
    2.4777    1.3779    2.1857 C   0  0  0  0  0  0  0  0  0  0  0  0
    1.1152    1.9912    0.3329 C   0  0  0  0  0  0  0  0  0  0  0  0
    0.3006   -1.1062    2.3374 C   0  0  0  0  0  0  0  0  0  0  0  0
   -0.6098   -0.5505    3.3268 C   0  0  2  0  0  0  0  0  0  0  0  0
   -0.7562   -1.6432    4.3779 N   0  0  0  0  0  0  0  0  0  0  0  0
   -2.0548   -0.2990    2.9991 C   0  0  1  0  0  0  0  0  0  0  0  0
   -2.6516    0.1879    4.1877 O   0  0  0  0  0  0  0  0  0  0  0  0
   -2.4292    0.4769    1.8236 C   0  0  0  0  0  0  0  0  0  0  0  0
   -3.9298    0.6934    1.6278 C   0  0  1  0  0  0  0  0  0  0  0  0
   -4.6204    1.4285    2.7118 C   0  0  0  0  0  0  0  0  0  0  0  0
   -4.0612    2.8205    2.9410 C   0  0  0  0  0  0  0  0  0  0  0  0
   -6.0941    1.6787    2.2936 C   0  0  0  0  0  0  0  0  0  0  0  0
   -4.2026    1.2492    0.2315 C   0  0  0  0  0  0  0  0  0  0  0  0
   -3.5398    2.4822    0.0755 O   0  0  0  0  0  0  0  0  0  0  0  0
   -3.8513    0.3302   -0.7867 N   0  0  0  0  0  0  0  0  0  0  0  0
   -4.3911    0.5265   -2.0822 C   0  0  0  0  0  0  0  0  0  0  0  0
   -5.8374    0.2713   -2.2909 C   0  0  0  0  0  0  0  0  0  0  0  0
   -6.1550   -1.1871   -1.9095 C   0  0  0  0  0  0  0  0  0  0  0  0
   -6.8218    1.1825   -1.6872 C   0  0  0  0  0  0  0  0  0  0  0  0
   -6.1319    0.2866   -3.8227 C   0  0  1  0  0  0  0  0  0  0  0  0
   -5.7959    1.5084   -4.3548 O   0  0  0  0  0  0  0  0  0  0  0  0
   -5.3787   -0.8018   -4.3762 N   0  0  0  0  0  0  0  0  0  0  0  0
    9.3023    2.8982   -1.3548 C   0  0  0  0  0  0  0  0  0  0  0  0
    9.7900    1.8832   -2.0441 O   0  0  0  0  0  0  0  0  0  0  0  0
    9.1533    0.9515   -2.7372 C   0  0  0  0  0  0  0  0  0  0  0  0
    8.1352    0.1562   -1.9912 C   0  0  0  0  0  0  0  0  0  0  0  0
    6.9108    0.8702   -1.5362 C   0  0  0  0  0  0  0  0  0  0  0  0
    6.0282    0.0849   -0.8286 O   0  0  0  0  0  0  0  0  0  0  0  0
    5.4879   -0.9966   -1.3853 C   0  0  0  0  0  0  0  0  0  0  0  0
    3.9989   -0.8065   -1.5586 C   0  0  0  0  0  0  0  0  0  0  0  0
    3.3321   -0.4787   -0.1910 C   0  0  2  0  0  0  0  0  0  0  0  0
    4.0376   -1.2474    0.8143 C   0  0  0  0  0  0  0  0  0  0  0  0
    4.5072   -2.5898    0.2208 C   0  0  0  0  0  0  0  0  0  0  0  0
    5.6856   -2.3241   -0.7262 C   0  0  0  0  0  0  0  0  0  0  0  0
    5.7296   -3.3801   -1.6065 O   0  0  0  0  0  0  0  0  0  0  0  0
    6.8531   -4.1809   -1.4548 C   0  0  0  0  0  0  0  0  0  0  0  0
    1.8905   -0.4156   -0.3484 C   0  0  0  0  0  0  0  0  0  0  0  0
    0.8857   -0.1345    0.6657 C   0  0  2  0  0  0  0  0  0  0  0  0
    0.9984    1.2207    1.3627 C   0  0  0  0  0  0  0  0  0  0  0  0
    2.2546    1.4741    2.0986 C   0  0  0  0  0  0  0  0  0  0  0  0
    0.8681    2.3609    0.3490 C   0  0  0  0  0  0  0  0  0  0  0  0
    0.4218   -1.2318    1.5369 C   0  0  0  0  0  0  0  0  0  0  0  0
   -0.5780   -1.0529    2.5844 C   0  0  2  0  0  0  0  0  0  0  0  0
   -0.6242   -2.4463    3.2310 N   0  0  0  0  0  0  0  0  0  0  0  0
   -2.0250   -0.8772    2.2865 C   0  0  1  0  0  0  0  0  0  0  0  0
   -2.6368   -0.9458    3.5832 O   0  0  0  0  0  0  0  0  0  0  0  0
   -2.5145    0.2080    1.4679 C   0  0  0  0  0  0  0  0  0  0  0  0
   -4.0485    0.2632    1.2532 C   0  0  1  0  0  0  0  0  0  0  0  0
   -4.8091    0.4372    2.5113 C   0  0  0  0  0  0  0  0  0  0  0  0
   -4.4391    1.7062    3.2572 C   0  0  0  0  0  0  0  0  0  0  0  0
   -6.3353    0.4179    2.2940 C   0  0  0  0  0  0  0  0  0  0  0  0
   -4.2365    1.3536    0.2247 C   0  0  0  0  0  0  0  0  0  0  0  0
   -3.4465    0.8892   -0.8887 O   0  0  0  0  0  0  0  0  0  0  0  0
   -5.5538    1.4413   -0.3448 N   0  0  0  0  0  0  0  0  0  0  0  0
   -5.8930    0.2635   -1.0917 C   0  0  0  0  0  0  0  0  0  0  0  0
   -7.1681    0.3220   -1.8531 C   0  0  0  0  0  0  0  0  0  0  0  0
   -7.3129   -1.0353   -2.5579 C   0  0  0  0  0  0  0  0  0  0  0  0
   -7.1448    1.3531   -2.9635 C   0  0  0  0  0  0  0  0  0  0  0  0
   -8.3886    0.6078   -1.0223 C   0  0  0  0  0  0  0  0  0  0  0  0
   -8.2461    1.8277   -0.3920 O   0  0  0  0  0  0  0  0  0  0  0  0
   -8.5796   -0.4741   -0.0870 N   0  0  0  0  0  0  0  0  0  0  0  0
    6.9504    4.0367   -1.8420 H   0  0  0  0  0  0  0  0  0  0  0  0
    5.6678    2.8285   -1.7026 H   0  0  0  0  0  0  0  0  0  0  0  0
    5.9799    3.6124   -3.2796 H   0  0  0  0  0  0  0  0  0  0  0  0
    6.6938    1.4093   -4.3728 H   0  0  0  0  0  0  0  0  0  0  0  0
    7.8472    0.4176   -3.4362 H   0  0  0  0  0  0  0  0  0  0  0  0
    5.5005   -0.4793   -3.2212 H   0  0  0  0  0  0  0  0  0  0  0  0
    5.0387    1.0764   -2.5170 H   0  0  0  0  0  0  0  0  0  0  0  0
    6.7284    0.8912   -0.7862 H   0  0  0  0  0  0  0  0  0  0  0  0
    7.4519   -0.5508   -1.4997 H   0  0  0  0  0  0  0  0  0  0  0  0
    5.5083   -2.2062   -1.8882 H   0  0  0  0  0  0  0  0  0  0  0  0
    3.3635   -1.0621   -1.8075 H   0  0  0  0  0  0  0  0  0  0  0  0
    3.0971   -2.7132   -1.2106 H   0  0  0  0  0  0  0  0  0  0  0  0
    3.6162   -0.1134    0.2079 H   0  0  0  0  0  0  0  0  0  0  0  0
    4.8274   -1.3521    1.5812 H   0  0  0  0  0  0  0  0  0  0  0  0
    3.3867   -1.9269    2.3858 H   0  0  0  0  0  0  0  0  0  0  0  0
    3.3407   -3.7734    0.5162 H   0  0  0  0  0  0  0  0  0  0  0  0
    4.5066   -3.8205    1.8559 H   0  0  0  0  0  0  0  0  0  0  0  0
    6.2464   -2.9350    0.7278 H   0  0  0  0  0  0  0  0  0  0  0  0
    6.8052   -5.2642    0.7526 H   0  0  0  0  0  0  0  0  0  0  0  0
    6.6484   -5.9638   -0.8643 H   0  0  0  0  0  0  0  0  0  0  0  0
    7.5774   -4.4600   -0.7226 H   0  0  0  0  0  0  0  0  0  0  0  0
    1.4651   -0.3542   -0.7764 H   0  0  0  0  0  0  0  0  0  0  0  0
    1.2517   -1.9206   -0.0549 H   0  0  0  0  0  0  0  0  0  0  0  0
   -0.1229   -0.0628    0.6066 H   0  0  0  0  0  0  0  0  0  0  0  0
    0.3046    1.5005    2.2080 H   0  0  0  0  0  0  0  0  0  0  0  0
    2.3288    2.2014    2.9568 H   0  0  0  0  0  0  0  0  0  0  0  0
    3.1739    1.8459    1.4681 H   0  0  0  0  0  0  0  0  0  0  0  0
    2.9269    0.5640    2.7746 H   0  0  0  0  0  0  0  0  0  0  0  0
    0.9849    3.0426    0.6877 H   0  0  0  0  0  0  0  0  0  0  0  0
    2.0981    1.9856   -0.1995 H   0  0  0  0  0  0  0  0  0  0  0  0
    0.2818    1.6792   -0.3316 H   0  0  0  0  0  0  0  0  0  0  0  0
    1.1818   -1.6157    2.8223 H   0  0  0  0  0  0  0  0  0  0  0  0
   -0.2455   -2.0411    1.9526 H   0  0  0  0  0  0  0  0  0  0  0  0
   -0.2651    0.3103    3.9176 H   0  0  0  0  0  0  0  0  0  0  0  0
   -1.4183   -2.3089    3.9615 H   0  0  0  0  0  0  0  0  0  0  0  0
   -1.2117   -1.1569    5.1762 H   0  0  0  0  0  0  0  0  0  0  0  0
   -2.5835   -1.3410    2.9191 H   0  0  0  0  0  0  0  0  0  0  0  0
   -2.0420    0.8624    4.5983 H   0  0  0  0  0  0  0  0  0  0  0  0
   -2.2013   -0.1961    0.9194 H   0  0  0  0  0  0  0  0  0  0  0  0
   -1.9712    1.4416    1.6449 H   0  0  0  0  0  0  0  0  0  0  0  0
   -4.3643   -0.3513    1.6158 H   0  0  0  0  0  0  0  0  0  0  0  0
   -4.6740    0.9088    3.6745 H   0  0  0  0  0  0  0  0  0  0  0  0
   -2.9774    2.8400    3.0646 H   0  0  0  0  0  0  0  0  0  0  0  0
   -4.4128    3.5132    2.1300 H   0  0  0  0  0  0  0  0  0  0  0  0
   -4.5122    3.2258    3.8771 H   0  0  0  0  0  0  0  0  0  0  0  0
   -6.7075    1.8493    3.1998 H   0  0  0  0  0  0  0  0  0  0  0  0
   -6.4790    0.8368    1.7152 H   0  0  0  0  0  0  0  0  0  0  0  0
   -6.1714    2.5907    1.6734 H   0  0  0  0  0  0  0  0  0  0  0  0
   -5.2680    1.4768    0.2136 H   0  0  0  0  0  0  0  0  0  0  0  0
   -4.0563    3.0763   -0.5514 H   0  0  0  0  0  0  0  0  0  0  0  0
   -2.7872    0.3774   -0.9055 H   0  0  0  0  0  0  0  0  0  0  0  0
   -3.7984   -0.0030   -2.8776 H   0  0  0  0  0  0  0  0  0  0  0  0
   -4.2249    1.6213   -2.3682 H   0  0  0  0  0  0  0  0  0  0  0  0
   -6.1926   -1.2424   -0.7990 H   0  0  0  0  0  0  0  0  0  0  0  0
   -5.3466   -1.8608   -2.3203 H   0  0  0  0  0  0  0  0  0  0  0  0
   -7.1113   -1.4829   -2.3419 H   0  0  0  0  0  0  0  0  0  0  0  0
   -6.4591    2.2213   -1.6133 H   0  0  0  0  0  0  0  0  0  0  0  0
   -7.2692    0.8282   -0.7117 H   0  0  0  0  0  0  0  0  0  0  0  0
   -7.7559    1.2120   -2.3626 H   0  0  0  0  0  0  0  0  0  0  0  0
   -7.2152    0.0547   -3.8799 H   0  0  0  0  0  0  0  0  0  0  0  0
   -6.6116    1.8773   -4.7718 H   0  0  0  0  0  0  0  0  0  0  0  0
   -5.0344   -0.5282   -5.3109 H   0  0  0  0  0  0  0  0  0  0  0  0
   -5.8469   -1.7107   -4.3202 H   0  0  0  0  0  0  0  0  0  0  0  0
   10.1473    3.5876   -0.9604 H   0  0  0  0  0  0  0  0  0  0  0  0
    8.8719    2.6017   -0.3314 H   0  0  0  0  0  0  0  0  0  0  0  0
    8.5621    3.5730   -1.7993 H   0  0  0  0  0  0  0  0  0  0  0  0
    8.6111    1.4331   -3.6237 H   0  0  0  0  0  0  0  0  0  0  0  0
    9.8837    0.2005   -3.1781 H   0  0  0  0  0  0  0  0  0  0  0  0
    8.7050   -0.2615   -1.0941 H   0  0  0  0  0  0  0  0  0  0  0  0
    7.8554   -0.6982   -2.6637 H   0  0  0  0  0  0  0  0  0  0  0  0
    6.3230    1.0418   -2.5249 H   0  0  0  0  0  0  0  0  0  0  0  0
    7.0028    1.8895   -1.1721 H   0  0  0  0  0  0  0  0  0  0  0  0
    5.8879   -1.0968   -2.4394 H   0  0  0  0  0  0  0  0  0  0  0  0
    3.8234    0.0531   -2.2164 H   0  0  0  0  0  0  0  0  0  0  0  0
    3.6003   -1.7560   -1.9551 H   0  0  0  0  0  0  0  0  0  0  0  0
    3.6923    0.5979   -0.0735 H   0  0  0  0  0  0  0  0  0  0  0  0
    5.0362   -0.7591    1.0750 H   0  0  0  0  0  0  0  0  0  0  0  0
    3.6158   -1.4784    1.7740 H   0  0  0  0  0  0  0  0  0  0  0  0
    3.7018   -3.1282   -0.2740 H   0  0  0  0  0  0  0  0  0  0  0  0
    4.8684   -3.2208    1.0568 H   0  0  0  0  0  0  0  0  0  0  0  0
    6.5868   -2.3724   -0.0870 H   0  0  0  0  0  0  0  0  0  0  0  0
    6.8929   -5.0175   -2.1471 H   0  0  0  0  0  0  0  0  0  0  0  0
    7.7403   -3.5302   -1.6840 H   0  0  0  0  0  0  0  0  0  0  0  0
    6.9909   -4.5200   -0.4086 H   0  0  0  0  0  0  0  0  0  0  0  0
    1.6539    0.2863   -1.2281 H   0  0  0  0  0  0  0  0  0  0  0  0
    1.6173   -1.4068   -0.8538 H   0  0  0  0  0  0  0  0  0  0  0  0
   -0.0422    0.1025    0.0328 H   0  0  0  0  0  0  0  0  0  0  0  0
    0.0893    1.3426    1.9989 H   0  0  0  0  0  0  0  0  0  0  0  0
    1.9512    2.1001    3.0026 H   0  0  0  0  0  0  0  0  0  0  0  0
    2.9245    2.1335    1.5531 H   0  0  0  0  0  0  0  0  0  0  0  0
    2.7211    0.5946    2.5792 H   0  0  0  0  0  0  0  0  0  0  0  0
    0.7523    3.2933    0.9714 H   0  0  0  0  0  0  0  0  0  0  0  0
    1.7825    2.3482   -0.2506 H   0  0  0  0  0  0  0  0  0  0  0  0
   -0.0576    2.2023   -0.2713 H   0  0  0  0  0  0  0  0  0  0  0  0
    1.3420   -1.7843    1.9058 H   0  0  0  0  0  0  0  0  0  0  0  0
   -0.0256   -2.0928    0.9046 H   0  0  0  0  0  0  0  0  0  0  0  0
   -0.2695   -0.4568    3.4675 H   0  0  0  0  0  0  0  0  0  0  0  0
   -0.8450   -3.1136    2.4735 H   0  0  0  0  0  0  0  0  0  0  0  0
    0.3360   -2.5344    3.5940 H   0  0  0  0  0  0  0  0  0  0  0  0
   -2.4431   -1.8442    1.8222 H   0  0  0  0  0  0  0  0  0  0  0  0
   -2.3134   -1.7364    4.0619 H   0  0  0  0  0  0  0  0  0  0  0  0
   -2.1551    0.0924    0.3921 H   0  0  0  0  0  0  0  0  0  0  0  0
   -2.2607    1.2406    1.7488 H   0  0  0  0  0  0  0  0  0  0  0  0
   -4.2878   -0.7012    0.7643 H   0  0  0  0  0  0  0  0  0  0  0  0
   -4.6348   -0.4043    3.1926 H   0  0  0  0  0  0  0  0  0  0  0  0
   -3.3676    1.6985    3.4997 H   0  0  0  0  0  0  0  0  0  0  0  0
   -4.7149    2.6204    2.7013 H   0  0  0  0  0  0  0  0  0  0  0  0
   -5.0167    1.7034    4.2042 H   0  0  0  0  0  0  0  0  0  0  0  0
   -6.8473    0.5156    3.2880 H   0  0  0  0  0  0  0  0  0  0  0  0
   -6.6622   -0.5389    1.8914 H   0  0  0  0  0  0  0  0  0  0  0  0
   -6.6213    1.3218    1.7394 H   0  0  0  0  0  0  0  0  0  0  0  0
   -3.7926    2.3126    0.5095 H   0  0  0  0  0  0  0  0  0  0  0  0
   -3.0913    1.6378   -1.3924 H   0  0  0  0  0  0  0  0  0  0  0  0
   -5.7093    2.2674   -0.9234 H   0  0  0  0  0  0  0  0  0  0  0  0
   -5.9674   -0.5920   -0.3825 H   0  0  0  0  0  0  0  0  0  0  0  0
   -5.0121    0.0366   -1.7390 H   0  0  0  0  0  0  0  0  0  0  0  0
   -8.3765   -1.1604   -2.7972 H   0  0  0  0  0  0  0  0  0  0  0  0
   -6.9766   -1.7910   -1.7893 H   0  0  0  0  0  0  0  0  0  0  0  0
   -6.6495   -1.0150   -3.4264 H   0  0  0  0  0  0  0  0  0  0  0  0
   -6.1441    1.4422   -3.4356 H   0  0  0  0  0  0  0  0  0  0  0  0
   -7.5590    2.3243   -2.6245 H   0  0  0  0  0  0  0  0  0  0  0  0
   -7.8287    0.9925   -3.7582 H   0  0  0  0  0  0  0  0  0  0  0  0
   -9.2940    0.6945   -1.6911 H   0  0  0  0  0  0  0  0  0  0  0  0
   -8.8232    1.8460    0.4191 H   0  0  0  0  0  0  0  0  0  0  0  0
   -9.0806   -0.1841    0.7651 H   0  0  0  0  0  0  0  0  0  0  0  0
   -8.9903   -1.3057   -0.5617 H   0  0  0  0  0  0  0  0  0  0  0  0
  1  2  1  0
  2  3  1  0
  3  4  1  0
  4  5  1  0
  5  6  1  0
  6  7  1  0
  7  8  1  0
  8  9  1  0
  9 10  1  0
 10 11  1  0
  7 12  1  0
 11 12  1  0
 12 13  1  0
 13 14  1  0
  9 15  1  0
 15 16  1  0
 16 17  1  0
 17 18  1  0
 17 19  1  0
 16 20  1  0
 20 21  1  0
 21 22  1  0
 21 23  1  0
 23 24  1  0
 23 25  1  0
 25 26  1  0
 26 27  1  0
 27 28  1  0
 27 29  1  0
 26 30  1  0
 30 31  1  0
 30 32  1  0
 32 33  1  0
 34 33  1  0
 34 35  1  0
 34 36  1  0
 34 37  1  0
 37 38  1  0
 37 39  1  0
 40 41  1  0
 41 42  1  0
 42 43  1  0
 43 44  1  0
 44 45  1  0
 45 46  1  0
 46 47  1  0
 47 48  1  0
 48 49  1  0
 49 50  1  0
 46 51  1  0
 50 51  1  0
 51 52  1  0
 52 53  1  0
 48 54  1  0
 54 55  1  0
 55 56  1  0
 56 57  1  0
 56 58  1  0
 55 59  1  0
 59 60  1  0
 60 61  1  0
 60 62  1  0
 62 63  1  0
 62 64  1  0
 64 65  1  0
 65 66  1  0
 66 67  1  0
 66 68  1  0
 65 69  1  0
 69 70  1  0
 69 71  1  0
 71 72  1  0
 73 72  1  0
 73 74  1  0
 73 75  1  0
 73 76  1  0
 76 77  1  0
 76 78  1  0
  1 79  1  0
  1 80  1  0
  1 81  1  0
  3 82  1  0
  3 83  1  0
  4 84  1  0
  4 85  1  0
  5 86  1  0
  5 87  1  0
  7 88  1  0
  8 89  1  0
  8 90  1  0
  9 91  1  0
 10 92  1  0
 10 93  1  0
 11 94  1  0
 11 95  1  0
 12 96  1  0
 14 97  1  0
 14 98  1  0
 14 99  1  0
 15100  1  0
 15101  1  0
 16102  1  6
 17103  1  0
 18104  1  0
 18105  1  0
 18106  1  0
 19107  1  0
 19108  1  0
 19109  1  0
 20110  1  0
 20111  1  0
 21112  1  1
 22113  1  0
 22114  1  0
 23115  1  6
 24116  1  0
 25117  1  0
 25118  1  0
 26119  1  6
 27120  1  0
 28121  1  0
 28122  1  0
 28123  1  0
 29124  1  0
 29125  1  0
 29126  1  0
 30127  1  0
 31128  1  0
 32129  1  0
 33130  1  0
 33131  1  0
 35132  1  0
 35133  1  0
 35134  1  0
 36135  1  0
 36136  1  0
 36137  1  0
 37138  1  1
 38139  1  0
 39140  1  0
 39141  1  0
 40142  1  0
 40143  1  0
 40144  1  0
 42145  1  0
 42146  1  0
 43147  1  0
 43148  1  0
 44149  1  0
 44150  1  0
 46151  1  0
 47152  1  0
 47153  1  0
 48154  1  1
 49155  1  0
 49156  1  0
 50157  1  0
 50158  1  0
 51159  1  0
 53160  1  0
 53161  1  0
 53162  1  0
 54163  1  0
 54164  1  0
 55165  1  6
 56166  1  0
 57167  1  0
 57168  1  0
 57169  1  0
 58170  1  0
 58171  1  0
 58172  1  0
 59173  1  0
 59174  1  0
 60175  1  1
 61176  1  0
 61177  1  0
 62178  1  6
 63179  1  0
 64180  1  0
 64181  1  0
 65182  1  6
 66183  1  0
 67184  1  0
 67185  1  0
 67186  1  0
 68187  1  0
 68188  1  0
 68189  1  0
 69190  1  0
 70191  1  0
 71192  1  0
 72193  1  0
 72194  1  0
 74195  1  0
 74196  1  0
 74197  1  0
 75198  1  0
 75199  1  0
 75200  1  0
 76201  1  0
 77202  1  0
 78203  1  0
 78204  1  0
M  END
>  <PDBID>  (1) 
2V0Z

>  <PDB ID>  (1) 
2V0Z

>  <Generic Name>  (1) 
Aliskiren

>  <Brand Name>  (1) 
Amturnide#Rasilez#Rasilez Hct#Sandoz Aliskiren#Tekamlo#Tekturna#Tekturna Hct

>  <DrugBank ID>  (1) 
DB09026

>  <ATC Codes>  (1) 
C09DX02#C09XA02#C09XA52#C09XA53#C09XA54

>  <Ligand ID>  (1) 
C41

>  <Target Name>  (1) 
Renin

>  <UniProt ID>  (1) 
P00797

>  <PDB ID.1>  (1) 
2V0Z

>  <Seq. Identity>  (1) 
100%

$$$$
