PDB_DB00939_01
     RDKit          3D

 88 90  0  0  0  0  0  0  0  0999 V2000
   -3.6143    2.1971   -1.2653 O   0  0  0  0  0  0  0  0  0  0  0  0
   -2.4788    1.8311   -0.5355 C   0  0  0  0  0  0  0  0  0  0  0  0
   -2.6364    2.3777    0.7445 O   0  0  0  0  0  0  0  0  0  0  0  0
   -2.4550    0.3212   -0.4924 C   0  0  0  0  0  0  0  0  0  0  0  0
   -3.7080   -0.1015    0.1706 C   0  0  0  0  0  0  0  0  0  0  0  0
   -3.6047   -1.2641    1.1113 C   0  0  0  0  0  0  0  0  0  0  0  0
   -2.6065   -2.2169    0.4317 C   0  0  0  0  0  0  0  0  0  0  0  0
   -1.2393   -1.5986    0.6064 C   0  0  0  0  0  0  0  0  0  0  0  0
   -1.1651   -0.1486    0.1875 C   0  0  0  0  0  0  0  0  0  0  0  0
   -0.1264    0.0861   -0.7213 N   0  0  0  0  0  0  0  0  0  0  0  0
    1.1991   -0.2760   -0.5290 C   0  0  0  0  0  0  0  0  0  0  0  0
    1.9437    0.4047    0.5793 C   0  0  0  0  0  0  0  0  0  0  0  0
    1.0896    0.2802    2.1016 Cl  0  0  0  0  0  0  0  0  0  0  0  0
    3.3689   -0.1439    0.7077 C   0  0  0  0  0  0  0  0  0  0  0  0
    4.0024    0.5142    1.9038 C   0  0  0  0  0  0  0  0  0  0  0  0
    4.1088    0.1729   -0.5532 C   0  0  0  0  0  0  0  0  0  0  0  0
    3.3748   -0.4980   -1.7042 C   0  0  0  0  0  0  0  0  0  0  0  0
    1.9938    0.0680   -1.8236 C   0  0  0  0  0  0  0  0  0  0  0  0
    2.0240    1.8263   -2.0041 Cl  0  0  0  0  0  0  0  0  0  0  0  0
   -4.4737   -0.4141   -0.6028 H   0  0  0  0  0  0  0  0  0  0  0  0
   -3.2206   -0.9144    2.0887 H   0  0  0  0  0  0  0  0  0  0  0  0
   -2.6917   -3.1659    0.9863 H   0  0  0  0  0  0  0  0  0  0  0  0
   -0.5513   -2.1681   -0.0705 H   0  0  0  0  0  0  0  0  0  0  0  0
   -0.2574    0.8905   -1.3271 H   0  0  0  0  0  0  0  0  0  0  0  0
    3.7900    1.6169    1.8338 H   0  0  0  0  0  0  0  0  0  0  0  0
    3.4471    0.1709    2.8042 H   0  0  0  0  0  0  0  0  0  0  0  0
    5.0829    0.3527    1.9810 H   0  0  0  0  0  0  0  0  0  0  0  0
    4.1165    1.2665   -0.7155 H   0  0  0  0  0  0  0  0  0  0  0  0
    3.9295   -0.3673   -2.6466 H   0  0  0  0  0  0  0  0  0  0  0  0
   -3.6143    2.1971   -1.2653 O   0  0  0  0  0  0  0  0  0  0  0  0
   -2.4788    1.8311   -0.5355 C   0  0  0  0  0  0  0  0  0  0  0  0
   -2.6364    2.3777    0.7445 O   0  0  0  0  0  0  0  0  0  0  0  0
   -2.4550    0.3212   -0.4924 C   0  0  0  0  0  0  0  0  0  0  0  0
   -3.7080   -0.1015    0.1706 C   0  0  0  0  0  0  0  0  0  0  0  0
   -3.6047   -1.2641    1.1113 C   0  0  0  0  0  0  0  0  0  0  0  0
   -2.6065   -2.2169    0.4317 C   0  0  0  0  0  0  0  0  0  0  0  0
   -1.2393   -1.5986    0.6064 C   0  0  0  0  0  0  0  0  0  0  0  0
   -1.1651   -0.1486    0.1875 C   0  0  0  0  0  0  0  0  0  0  0  0
   -0.1264    0.0861   -0.7213 N   0  0  0  0  0  0  0  0  0  0  0  0
    1.1991   -0.2760   -0.5290 C   0  0  0  0  0  0  0  0  0  0  0  0
    1.9437    0.4047    0.5793 C   0  0  0  0  0  0  0  0  0  0  0  0
    1.0896    0.2802    2.1016 Cl  0  0  0  0  0  0  0  0  0  0  0  0
    3.3689   -0.1439    0.7077 C   0  0  0  0  0  0  0  0  0  0  0  0
    4.0024    0.5142    1.9038 C   0  0  0  0  0  0  0  0  0  0  0  0
    4.1088    0.1729   -0.5532 C   0  0  0  0  0  0  0  0  0  0  0  0
    3.3748   -0.4980   -1.7042 C   0  0  0  0  0  0  0  0  0  0  0  0
    1.9938    0.0680   -1.8236 C   0  0  0  0  0  0  0  0  0  0  0  0
    2.0240    1.8263   -2.0041 Cl  0  0  0  0  0  0  0  0  0  0  0  0
   -4.4737   -0.4141   -0.6028 H   0  0  0  0  0  0  0  0  0  0  0  0
   -3.2206   -0.9144    2.0887 H   0  0  0  0  0  0  0  0  0  0  0  0
   -2.6917   -3.1659    0.9863 H   0  0  0  0  0  0  0  0  0  0  0  0
   -0.5513   -2.1681   -0.0705 H   0  0  0  0  0  0  0  0  0  0  0  0
   -0.2574    0.8905   -1.3271 H   0  0  0  0  0  0  0  0  0  0  0  0
    3.7900    1.6169    1.8338 H   0  0  0  0  0  0  0  0  0  0  0  0
    3.4471    0.1709    2.8042 H   0  0  0  0  0  0  0  0  0  0  0  0
    5.0829    0.3527    1.9810 H   0  0  0  0  0  0  0  0  0  0  0  0
    4.1165    1.2665   -0.7155 H   0  0  0  0  0  0  0  0  0  0  0  0
    3.9295   -0.3673   -2.6466 H   0  0  0  0  0  0  0  0  0  0  0  0
   -4.1788    1.4164   -1.4969 H   0  0  0  0  0  0  0  0  0  0  0  0
   -1.6332    2.3043   -1.0157 H   0  0  0  0  0  0  0  0  0  0  0  0
   -3.1856    3.1728    0.6795 H   0  0  0  0  0  0  0  0  0  0  0  0
   -2.3921   -0.0350   -1.5407 H   0  0  0  0  0  0  0  0  0  0  0  0
   -4.2345    0.7447    0.7027 H   0  0  0  0  0  0  0  0  0  0  0  0
   -4.5856   -1.7255    1.2235 H   0  0  0  0  0  0  0  0  0  0  0  0
   -2.9099   -2.3608   -0.6032 H   0  0  0  0  0  0  0  0  0  0  0  0
   -1.0011   -1.7353    1.6805 H   0  0  0  0  0  0  0  0  0  0  0  0
   -1.0801    0.4572    1.1080 H   0  0  0  0  0  0  0  0  0  0  0  0
    1.3776   -1.3835   -0.4315 H   0  0  0  0  0  0  0  0  0  0  0  0
    2.0224    1.4904    0.2701 H   0  0  0  0  0  0  0  0  0  0  0  0
    3.2570   -1.2374    0.8256 H   0  0  0  0  0  0  0  0  0  0  0  0
    5.1363   -0.2163   -0.5050 H   0  0  0  0  0  0  0  0  0  0  0  0
    3.2801   -1.5880   -1.4586 H   0  0  0  0  0  0  0  0  0  0  0  0
    1.4857   -0.4039   -2.6856 H   0  0  0  0  0  0  0  0  0  0  0  0
   -4.1788    1.4164   -1.4969 H   0  0  0  0  0  0  0  0  0  0  0  0
   -1.6332    2.3043   -1.0157 H   0  0  0  0  0  0  0  0  0  0  0  0
   -3.1856    3.1728    0.6795 H   0  0  0  0  0  0  0  0  0  0  0  0
   -2.3921   -0.0350   -1.5407 H   0  0  0  0  0  0  0  0  0  0  0  0
   -4.2345    0.7447    0.7027 H   0  0  0  0  0  0  0  0  0  0  0  0
   -4.5856   -1.7255    1.2235 H   0  0  0  0  0  0  0  0  0  0  0  0
   -2.9099   -2.3608   -0.6032 H   0  0  0  0  0  0  0  0  0  0  0  0
   -1.0011   -1.7353    1.6805 H   0  0  0  0  0  0  0  0  0  0  0  0
   -1.0801    0.4572    1.1080 H   0  0  0  0  0  0  0  0  0  0  0  0
    1.3776   -1.3835   -0.4315 H   0  0  0  0  0  0  0  0  0  0  0  0
    2.0224    1.4904    0.2701 H   0  0  0  0  0  0  0  0  0  0  0  0
    3.2570   -1.2374    0.8256 H   0  0  0  0  0  0  0  0  0  0  0  0
    5.1363   -0.2163   -0.5050 H   0  0  0  0  0  0  0  0  0  0  0  0
    3.2801   -1.5880   -1.4586 H   0  0  0  0  0  0  0  0  0  0  0  0
    1.4857   -0.4039   -2.6856 H   0  0  0  0  0  0  0  0  0  0  0  0
  1  2  1  0
  2  3  1  0
  2  4  1  0
  4  5  1  0
  5  6  1  0
  6  7  1  0
  7  8  1  0
  4  9  1  0
  8  9  1  0
  9 10  1  0
 10 11  1  0
 11 12  1  0
 12 13  1  0
 12 14  1  0
 14 15  1  0
 14 16  1  0
 16 17  1  0
 11 18  1  0
 17 18  1  0
 18 19  1  0
  5 20  1  0
  6 21  1  0
  7 22  1  0
  8 23  1  0
 10 24  1  0
 15 25  1  0
 15 26  1  0
 15 27  1  0
 16 28  1  0
 17 29  1  0
 30 31  1  0
 31 32  1  0
 31 33  1  0
 33 34  1  0
 34 35  1  0
 35 36  1  0
 36 37  1  0
 33 38  1  0
 37 38  1  0
 38 39  1  0
 39 40  1  0
 40 41  1  0
 41 42  1  0
 41 43  1  0
 43 44  1  0
 43 45  1  0
 45 46  1  0
 40 47  1  0
 46 47  1  0
 47 48  1  0
 34 49  1  0
 35 50  1  0
 36 51  1  0
 37 52  1  0
 39 53  1  0
 44 54  1  0
 44 55  1  0
 44 56  1  0
 45 57  1  0
 46 58  1  0
  1 59  1  0
  2 60  1  0
  3 61  1  0
  4 62  1  0
  5 63  1  0
  6 64  1  0
  7 65  1  0
  8 66  1  0
  9 67  1  0
 11 68  1  0
 12 69  1  0
 14 70  1  0
 16 71  1  0
 17 72  1  0
 18 73  1  0
 30 74  1  0
 31 75  1  0
 32 76  1  0
 33 77  1  0
 34 78  1  0
 35 79  1  0
 36 80  1  0
 37 81  1  0
 38 82  1  0
 40 83  1  0
 41 84  1  0
 43 85  1  0
 45 86  1  0
 46 87  1  0
 47 88  1  0
M  END
>  <PDBID>  (1) 
5IKQ

>  <PDB ID>  (1) 
5IKQ

>  <Generic Name>  (1) 
Meclofenamic acid

>  <Brand Name>  (1) 
Meclofenamate Sodium#Ethos#Eucome#Meclomen

>  <DrugBank ID>  (1) 
DB00939

>  <ATC Codes>  (1) 
M01AG04#M02AA18

>  <Ligand ID>  (1) 
JMS

>  <Target Name>  (1) 
Prostaglandin G/H synthase 1

>  <UniProt ID>  (1) 
P23219

>  <PDB ID.1>  (1) 
5IKQ

>  <Seq. Identity>  (1) 
61%

$$$$
