PDB_DB01016_02
     RDKit          3D

316324  0  0  0  0  0  0  0  0999 V2000
   -5.2620    0.8295    0.8649 O   0  0  0  0  0  0  0  0  0  0  0  0
   -2.9928   -1.5152    0.7899 O   0  0  0  0  0  0  0  0  0  0  0  0
   -2.7556    1.0283    1.3384 O   0  0  0  0  0  0  0  0  0  0  0  0
    6.0967    1.4074    1.9730 O   0  0  0  0  0  0  0  0  0  0  0  0
    8.4292    3.3904   -0.5516 Cl  0  0  0  0  0  0  0  0  0  0  0  0
   -2.6809    0.1854    0.1352 S   0  0  0  0  0  0  0  0  0  0  0  0
    7.4874   -1.3898   -0.9357 O   0  0  0  0  0  0  0  0  0  0  0  0
   -6.3559    0.2633   -1.0427 N   0  0  0  0  0  0  0  0  0  0  0  0
   -3.9571    0.2626   -0.9269 N   0  0  0  0  0  0  0  0  0  0  0  0
    4.1127    1.4599    0.7039 N   0  0  0  0  0  0  0  0  0  0  0  0
   -7.5510    0.0950   -0.2395 C   0  0  0  0  0  0  0  0  0  0  0  0
   -7.7059   -1.3307    0.1685 C   0  0  0  0  0  0  0  0  0  0  0  0
   -8.7276    0.6626   -1.0039 C   0  0  0  0  0  0  0  0  0  0  0  0
   -9.0637   -1.6926    0.7014 C   0  0  0  0  0  0  0  0  0  0  0  0
  -10.0008    0.3788   -0.1940 C   0  0  0  0  0  0  0  0  0  0  0  0
  -10.1421   -1.1322   -0.1979 C   0  0  0  0  0  0  0  0  0  0  0  0
   -5.2091   -0.0538   -0.2180 C   0  0  0  0  0  0  0  0  0  0  0  0
   -1.2186   -0.1060   -0.6233 C   0  0  0  0  0  0  0  0  0  0  0  0
    1.4850   -0.1738   -1.4683 C   0  0  0  0  0  0  0  0  0  0  0  0
    2.9250    0.2597   -1.0607 C   0  0  0  0  0  0  0  0  0  0  0  0
   -0.1586   -0.5572    0.3877 C   0  0  0  0  0  0  0  0  0  0  0  0
   -0.6516    1.1551   -1.2288 C   0  0  0  0  0  0  0  0  0  0  0  0
    0.9812   -1.1068   -0.4464 C   0  0  0  0  0  0  0  0  0  0  0  0
    0.7125    1.0124   -1.8102 C   0  0  0  0  0  0  0  0  0  0  0  0
    2.9206    0.9212    0.2570 C   0  0  0  0  0  0  0  0  0  0  0  0
    5.2626    0.7874    1.0236 C   0  0  0  0  0  0  0  0  0  0  0  0
    6.0509    0.2631   -0.1437 C   0  0  0  0  0  0  0  0  0  0  0  0
    7.0757   -0.7879    0.2486 C   0  0  0  0  0  0  0  0  0  0  0  0
    6.7204    1.4099   -0.8848 C   0  0  0  0  0  0  0  0  0  0  0  0
    8.2036   -0.2659    1.0685 C   0  0  0  0  0  0  0  0  0  0  0  0
    8.1584    1.6035   -0.6226 C   0  0  0  0  0  0  0  0  0  0  0  0
    8.7252    1.0567    0.6290 C   0  0  0  0  0  0  0  0  0  0  0  0
    7.1231   -2.7170   -1.0313 C   0  0  0  0  0  0  0  0  0  0  0  0
   -5.2620    0.8295    0.8649 O   0  0  0  0  0  0  0  0  0  0  0  0
   -2.9928   -1.5152    0.7899 O   0  0  0  0  0  0  0  0  0  0  0  0
   -2.7556    1.0283    1.3384 O   0  0  0  0  0  0  0  0  0  0  0  0
    6.0967    1.4074    1.9730 O   0  0  0  0  0  0  0  0  0  0  0  0
    8.4292    3.3904   -0.5516 Cl  0  0  0  0  0  0  0  0  0  0  0  0
   -2.6809    0.1854    0.1352 S   0  0  0  0  0  0  0  0  0  0  0  0
    7.4874   -1.3898   -0.9357 O   0  0  0  0  0  0  0  0  0  0  0  0
   -6.3559    0.2633   -1.0427 N   0  0  0  0  0  0  0  0  0  0  0  0
   -3.9571    0.2626   -0.9269 N   0  0  0  0  0  0  0  0  0  0  0  0
    4.1127    1.4599    0.7039 N   0  0  0  0  0  0  0  0  0  0  0  0
   -7.5510    0.0950   -0.2395 C   0  0  0  0  0  0  0  0  0  0  0  0
   -7.7059   -1.3307    0.1685 C   0  0  0  0  0  0  0  0  0  0  0  0
   -8.7276    0.6626   -1.0039 C   0  0  0  0  0  0  0  0  0  0  0  0
   -9.0637   -1.6926    0.7014 C   0  0  0  0  0  0  0  0  0  0  0  0
  -10.0008    0.3788   -0.1940 C   0  0  0  0  0  0  0  0  0  0  0  0
  -10.1421   -1.1322   -0.1979 C   0  0  0  0  0  0  0  0  0  0  0  0
   -5.2091   -0.0538   -0.2180 C   0  0  0  0  0  0  0  0  0  0  0  0
   -1.2186   -0.1060   -0.6233 C   0  0  0  0  0  0  0  0  0  0  0  0
    1.4850   -0.1738   -1.4683 C   0  0  0  0  0  0  0  0  0  0  0  0
    2.9250    0.2597   -1.0607 C   0  0  0  0  0  0  0  0  0  0  0  0
   -0.1586   -0.5572    0.3877 C   0  0  0  0  0  0  0  0  0  0  0  0
   -0.6516    1.1551   -1.2288 C   0  0  0  0  0  0  0  0  0  0  0  0
    0.9812   -1.1068   -0.4464 C   0  0  0  0  0  0  0  0  0  0  0  0
    0.7125    1.0124   -1.8102 C   0  0  0  0  0  0  0  0  0  0  0  0
    2.9206    0.9212    0.2570 C   0  0  0  0  0  0  0  0  0  0  0  0
    5.2626    0.7874    1.0236 C   0  0  0  0  0  0  0  0  0  0  0  0
    6.0509    0.2631   -0.1437 C   0  0  0  0  0  0  0  0  0  0  0  0
    7.0757   -0.7879    0.2486 C   0  0  0  0  0  0  0  0  0  0  0  0
    6.7204    1.4099   -0.8848 C   0  0  0  0  0  0  0  0  0  0  0  0
    8.2036   -0.2659    1.0685 C   0  0  0  0  0  0  0  0  0  0  0  0
    8.1584    1.6035   -0.6226 C   0  0  0  0  0  0  0  0  0  0  0  0
    8.7252    1.0567    0.6290 C   0  0  0  0  0  0  0  0  0  0  0  0
    7.1231   -2.7170   -1.0313 C   0  0  0  0  0  0  0  0  0  0  0  0
   -5.2620    0.8295    0.8649 O   0  0  0  0  0  0  0  0  0  0  0  0
   -2.9928   -1.5152    0.7899 O   0  0  0  0  0  0  0  0  0  0  0  0
   -2.7556    1.0283    1.3384 O   0  0  0  0  0  0  0  0  0  0  0  0
    6.0967    1.4074    1.9730 O   0  0  0  0  0  0  0  0  0  0  0  0
    8.4292    3.3904   -0.5516 Cl  0  0  0  0  0  0  0  0  0  0  0  0
   -2.6809    0.1854    0.1352 S   0  0  0  0  0  0  0  0  0  0  0  0
    7.4874   -1.3898   -0.9357 O   0  0  0  0  0  0  0  0  0  0  0  0
   -6.3559    0.2633   -1.0427 N   0  0  0  0  0  0  0  0  0  0  0  0
   -3.9571    0.2626   -0.9269 N   0  0  0  0  0  0  0  0  0  0  0  0
    4.1127    1.4599    0.7039 N   0  0  0  0  0  0  0  0  0  0  0  0
   -7.5510    0.0950   -0.2395 C   0  0  0  0  0  0  0  0  0  0  0  0
   -7.7059   -1.3307    0.1685 C   0  0  0  0  0  0  0  0  0  0  0  0
   -8.7276    0.6626   -1.0039 C   0  0  0  0  0  0  0  0  0  0  0  0
   -9.0637   -1.6926    0.7014 C   0  0  0  0  0  0  0  0  0  0  0  0
  -10.0008    0.3788   -0.1940 C   0  0  0  0  0  0  0  0  0  0  0  0
  -10.1421   -1.1322   -0.1979 C   0  0  0  0  0  0  0  0  0  0  0  0
   -5.2091   -0.0538   -0.2180 C   0  0  0  0  0  0  0  0  0  0  0  0
   -1.2186   -0.1060   -0.6233 C   0  0  0  0  0  0  0  0  0  0  0  0
    1.4850   -0.1738   -1.4683 C   0  0  0  0  0  0  0  0  0  0  0  0
    2.9250    0.2597   -1.0607 C   0  0  0  0  0  0  0  0  0  0  0  0
   -0.1586   -0.5572    0.3877 C   0  0  0  0  0  0  0  0  0  0  0  0
   -0.6516    1.1551   -1.2288 C   0  0  0  0  0  0  0  0  0  0  0  0
    0.9812   -1.1068   -0.4464 C   0  0  0  0  0  0  0  0  0  0  0  0
    0.7125    1.0124   -1.8102 C   0  0  0  0  0  0  0  0  0  0  0  0
    2.9206    0.9212    0.2570 C   0  0  0  0  0  0  0  0  0  0  0  0
    5.2626    0.7874    1.0236 C   0  0  0  0  0  0  0  0  0  0  0  0
    6.0509    0.2631   -0.1437 C   0  0  0  0  0  0  0  0  0  0  0  0
    7.0757   -0.7879    0.2486 C   0  0  0  0  0  0  0  0  0  0  0  0
    6.7204    1.4099   -0.8848 C   0  0  0  0  0  0  0  0  0  0  0  0
    8.2036   -0.2659    1.0685 C   0  0  0  0  0  0  0  0  0  0  0  0
    8.1584    1.6035   -0.6226 C   0  0  0  0  0  0  0  0  0  0  0  0
    8.7252    1.0567    0.6290 C   0  0  0  0  0  0  0  0  0  0  0  0
    7.1231   -2.7170   -1.0313 C   0  0  0  0  0  0  0  0  0  0  0  0
   -5.2620    0.8295    0.8649 O   0  0  0  0  0  0  0  0  0  0  0  0
   -2.9928   -1.5152    0.7899 O   0  0  0  0  0  0  0  0  0  0  0  0
   -2.7556    1.0283    1.3384 O   0  0  0  0  0  0  0  0  0  0  0  0
    6.0967    1.4074    1.9730 O   0  0  0  0  0  0  0  0  0  0  0  0
    8.4292    3.3904   -0.5516 Cl  0  0  0  0  0  0  0  0  0  0  0  0
   -2.6809    0.1854    0.1352 S   0  0  0  0  0  0  0  0  0  0  0  0
    7.4874   -1.3898   -0.9357 O   0  0  0  0  0  0  0  0  0  0  0  0
   -6.3559    0.2633   -1.0427 N   0  0  0  0  0  0  0  0  0  0  0  0
   -3.9571    0.2626   -0.9269 N   0  0  0  0  0  0  0  0  0  0  0  0
    4.1127    1.4599    0.7039 N   0  0  0  0  0  0  0  0  0  0  0  0
   -7.5510    0.0950   -0.2395 C   0  0  0  0  0  0  0  0  0  0  0  0
   -7.7059   -1.3307    0.1685 C   0  0  0  0  0  0  0  0  0  0  0  0
   -8.7276    0.6626   -1.0039 C   0  0  0  0  0  0  0  0  0  0  0  0
   -9.0637   -1.6926    0.7014 C   0  0  0  0  0  0  0  0  0  0  0  0
  -10.0008    0.3788   -0.1940 C   0  0  0  0  0  0  0  0  0  0  0  0
  -10.1421   -1.1322   -0.1979 C   0  0  0  0  0  0  0  0  0  0  0  0
   -5.2091   -0.0538   -0.2180 C   0  0  0  0  0  0  0  0  0  0  0  0
   -1.2186   -0.1060   -0.6233 C   0  0  0  0  0  0  0  0  0  0  0  0
    1.4850   -0.1738   -1.4683 C   0  0  0  0  0  0  0  0  0  0  0  0
    2.9250    0.2597   -1.0607 C   0  0  0  0  0  0  0  0  0  0  0  0
   -0.1586   -0.5572    0.3877 C   0  0  0  0  0  0  0  0  0  0  0  0
   -0.6516    1.1551   -1.2288 C   0  0  0  0  0  0  0  0  0  0  0  0
    0.9812   -1.1068   -0.4464 C   0  0  0  0  0  0  0  0  0  0  0  0
    0.7125    1.0124   -1.8102 C   0  0  0  0  0  0  0  0  0  0  0  0
    2.9206    0.9212    0.2570 C   0  0  0  0  0  0  0  0  0  0  0  0
    5.2626    0.7874    1.0236 C   0  0  0  0  0  0  0  0  0  0  0  0
    6.0509    0.2631   -0.1437 C   0  0  0  0  0  0  0  0  0  0  0  0
    7.0757   -0.7879    0.2486 C   0  0  0  0  0  0  0  0  0  0  0  0
    6.7204    1.4099   -0.8848 C   0  0  0  0  0  0  0  0  0  0  0  0
    8.2036   -0.2659    1.0685 C   0  0  0  0  0  0  0  0  0  0  0  0
    8.1584    1.6035   -0.6226 C   0  0  0  0  0  0  0  0  0  0  0  0
    8.7252    1.0567    0.6290 C   0  0  0  0  0  0  0  0  0  0  0  0
    7.1231   -2.7170   -1.0313 C   0  0  0  0  0  0  0  0  0  0  0  0
   -5.5329    0.3156    1.6662 H   0  0  0  0  0  0  0  0  0  0  0  0
   -2.7808   -2.0426   -0.0184 H   0  0  0  0  0  0  0  0  0  0  0  0
   -3.2653    0.8926    2.1528 H   0  0  0  0  0  0  0  0  0  0  0  0
    5.5397    1.8075    2.6777 H   0  0  0  0  0  0  0  0  0  0  0  0
   -6.2636    1.2497   -1.3779 H   0  0  0  0  0  0  0  0  0  0  0  0
   -3.9138   -0.4494   -1.7105 H   0  0  0  0  0  0  0  0  0  0  0  0
    4.1050    2.5002    0.8190 H   0  0  0  0  0  0  0  0  0  0  0  0
   -7.4881    0.7102    0.6986 H   0  0  0  0  0  0  0  0  0  0  0  0
   -7.3767   -2.0292   -0.6329 H   0  0  0  0  0  0  0  0  0  0  0  0
   -6.9827   -1.4904    1.0228 H   0  0  0  0  0  0  0  0  0  0  0  0
   -8.6211    1.7666   -1.0170 H   0  0  0  0  0  0  0  0  0  0  0  0
   -8.8043    0.2923   -2.0272 H   0  0  0  0  0  0  0  0  0  0  0  0
   -9.1326   -2.8075    0.7068 H   0  0  0  0  0  0  0  0  0  0  0  0
   -9.1627   -1.2839    1.7225 H   0  0  0  0  0  0  0  0  0  0  0  0
  -10.8226    0.9114   -0.6593 H   0  0  0  0  0  0  0  0  0  0  0  0
   -9.7929    0.6789    0.8453 H   0  0  0  0  0  0  0  0  0  0  0  0
   -9.9284   -1.4736   -1.2405 H   0  0  0  0  0  0  0  0  0  0  0  0
  -11.1515   -1.4376    0.1216 H   0  0  0  0  0  0  0  0  0  0  0  0
   -5.2072   -1.0944    0.0786 H   0  0  0  0  0  0  0  0  0  0  0  0
   -1.2494   -0.8671   -1.4146 H   0  0  0  0  0  0  0  0  0  0  0  0
    1.6882   -0.7953   -2.3953 H   0  0  0  0  0  0  0  0  0  0  0  0
    3.3267    0.8708   -1.8395 H   0  0  0  0  0  0  0  0  0  0  0  0
    3.3957   -0.7524   -0.9312 H   0  0  0  0  0  0  0  0  0  0  0  0
    0.1428    0.3351    0.9588 H   0  0  0  0  0  0  0  0  0  0  0  0
   -0.5908   -1.3657    0.9680 H   0  0  0  0  0  0  0  0  0  0  0  0
   -0.6703    1.9302   -0.4186 H   0  0  0  0  0  0  0  0  0  0  0  0
   -1.4060    1.5114   -1.9741 H   0  0  0  0  0  0  0  0  0  0  0  0
    1.7530   -1.4583    0.2630 H   0  0  0  0  0  0  0  0  0  0  0  0
    0.5615   -2.0537   -0.9080 H   0  0  0  0  0  0  0  0  0  0  0  0
    0.5809    1.0764   -2.9384 H   0  0  0  0  0  0  0  0  0  0  0  0
    1.2694    1.9655   -1.5826 H   0  0  0  0  0  0  0  0  0  0  0  0
    2.1394    1.7541    0.3072 H   0  0  0  0  0  0  0  0  0  0  0  0
    2.5338    0.2326    1.0759 H   0  0  0  0  0  0  0  0  0  0  0  0
    4.9576   -0.1778    1.6350 H   0  0  0  0  0  0  0  0  0  0  0  0
    5.4059   -0.2079   -0.8666 H   0  0  0  0  0  0  0  0  0  0  0  0
    6.5324   -1.5520    0.8393 H   0  0  0  0  0  0  0  0  0  0  0  0
    6.1187    2.3225   -0.6632 H   0  0  0  0  0  0  0  0  0  0  0  0
    6.6067    1.2913   -2.0063 H   0  0  0  0  0  0  0  0  0  0  0  0
    9.0054   -1.0662    1.0330 H   0  0  0  0  0  0  0  0  0  0  0  0
    7.9336   -0.2167    2.1504 H   0  0  0  0  0  0  0  0  0  0  0  0
    8.8072    1.2906   -1.5040 H   0  0  0  0  0  0  0  0  0  0  0  0
    9.8398    0.9080    0.4411 H   0  0  0  0  0  0  0  0  0  0  0  0
    8.7298    1.8331    1.4463 H   0  0  0  0  0  0  0  0  0  0  0  0
    6.0341   -2.8996   -0.9914 H   0  0  0  0  0  0  0  0  0  0  0  0
    7.5888   -3.3425   -0.2162 H   0  0  0  0  0  0  0  0  0  0  0  0
    7.5110   -3.1862   -1.9785 H   0  0  0  0  0  0  0  0  0  0  0  0
   -5.5329    0.3156    1.6662 H   0  0  0  0  0  0  0  0  0  0  0  0
   -2.7808   -2.0426   -0.0184 H   0  0  0  0  0  0  0  0  0  0  0  0
   -3.2653    0.8926    2.1528 H   0  0  0  0  0  0  0  0  0  0  0  0
    5.5397    1.8075    2.6777 H   0  0  0  0  0  0  0  0  0  0  0  0
   -6.2636    1.2497   -1.3779 H   0  0  0  0  0  0  0  0  0  0  0  0
   -3.9138   -0.4494   -1.7105 H   0  0  0  0  0  0  0  0  0  0  0  0
    4.1050    2.5002    0.8190 H   0  0  0  0  0  0  0  0  0  0  0  0
   -7.4881    0.7102    0.6986 H   0  0  0  0  0  0  0  0  0  0  0  0
   -7.3767   -2.0292   -0.6329 H   0  0  0  0  0  0  0  0  0  0  0  0
   -6.9827   -1.4904    1.0228 H   0  0  0  0  0  0  0  0  0  0  0  0
   -8.6211    1.7666   -1.0170 H   0  0  0  0  0  0  0  0  0  0  0  0
   -8.8043    0.2923   -2.0272 H   0  0  0  0  0  0  0  0  0  0  0  0
   -9.1326   -2.8075    0.7068 H   0  0  0  0  0  0  0  0  0  0  0  0
   -9.1627   -1.2839    1.7225 H   0  0  0  0  0  0  0  0  0  0  0  0
  -10.8226    0.9114   -0.6593 H   0  0  0  0  0  0  0  0  0  0  0  0
   -9.7929    0.6789    0.8453 H   0  0  0  0  0  0  0  0  0  0  0  0
   -9.9284   -1.4736   -1.2405 H   0  0  0  0  0  0  0  0  0  0  0  0
  -11.1515   -1.4376    0.1216 H   0  0  0  0  0  0  0  0  0  0  0  0
   -5.2072   -1.0944    0.0786 H   0  0  0  0  0  0  0  0  0  0  0  0
   -1.2494   -0.8671   -1.4146 H   0  0  0  0  0  0  0  0  0  0  0  0
    1.6882   -0.7953   -2.3953 H   0  0  0  0  0  0  0  0  0  0  0  0
    3.3267    0.8708   -1.8395 H   0  0  0  0  0  0  0  0  0  0  0  0
    3.3957   -0.7524   -0.9312 H   0  0  0  0  0  0  0  0  0  0  0  0
    0.1428    0.3351    0.9588 H   0  0  0  0  0  0  0  0  0  0  0  0
   -0.5908   -1.3657    0.9680 H   0  0  0  0  0  0  0  0  0  0  0  0
   -0.6703    1.9302   -0.4186 H   0  0  0  0  0  0  0  0  0  0  0  0
   -1.4060    1.5114   -1.9741 H   0  0  0  0  0  0  0  0  0  0  0  0
    1.7530   -1.4583    0.2630 H   0  0  0  0  0  0  0  0  0  0  0  0
    0.5615   -2.0537   -0.9080 H   0  0  0  0  0  0  0  0  0  0  0  0
    0.5809    1.0764   -2.9384 H   0  0  0  0  0  0  0  0  0  0  0  0
    1.2694    1.9655   -1.5826 H   0  0  0  0  0  0  0  0  0  0  0  0
    2.1394    1.7541    0.3072 H   0  0  0  0  0  0  0  0  0  0  0  0
    2.5338    0.2326    1.0759 H   0  0  0  0  0  0  0  0  0  0  0  0
    4.9576   -0.1778    1.6350 H   0  0  0  0  0  0  0  0  0  0  0  0
    5.4059   -0.2079   -0.8666 H   0  0  0  0  0  0  0  0  0  0  0  0
    6.5324   -1.5520    0.8393 H   0  0  0  0  0  0  0  0  0  0  0  0
    6.1187    2.3225   -0.6632 H   0  0  0  0  0  0  0  0  0  0  0  0
    6.6067    1.2913   -2.0063 H   0  0  0  0  0  0  0  0  0  0  0  0
    9.0054   -1.0662    1.0330 H   0  0  0  0  0  0  0  0  0  0  0  0
    7.9336   -0.2167    2.1504 H   0  0  0  0  0  0  0  0  0  0  0  0
    8.8072    1.2906   -1.5040 H   0  0  0  0  0  0  0  0  0  0  0  0
    9.8398    0.9080    0.4411 H   0  0  0  0  0  0  0  0  0  0  0  0
    8.7298    1.8331    1.4463 H   0  0  0  0  0  0  0  0  0  0  0  0
    6.0341   -2.8996   -0.9914 H   0  0  0  0  0  0  0  0  0  0  0  0
    7.5888   -3.3425   -0.2162 H   0  0  0  0  0  0  0  0  0  0  0  0
    7.5110   -3.1862   -1.9785 H   0  0  0  0  0  0  0  0  0  0  0  0
   -5.5329    0.3156    1.6662 H   0  0  0  0  0  0  0  0  0  0  0  0
   -2.7808   -2.0426   -0.0184 H   0  0  0  0  0  0  0  0  0  0  0  0
   -3.2653    0.8926    2.1528 H   0  0  0  0  0  0  0  0  0  0  0  0
    5.5397    1.8075    2.6777 H   0  0  0  0  0  0  0  0  0  0  0  0
   -6.2636    1.2497   -1.3779 H   0  0  0  0  0  0  0  0  0  0  0  0
   -3.9138   -0.4494   -1.7105 H   0  0  0  0  0  0  0  0  0  0  0  0
    4.1050    2.5002    0.8190 H   0  0  0  0  0  0  0  0  0  0  0  0
   -7.4881    0.7102    0.6986 H   0  0  0  0  0  0  0  0  0  0  0  0
   -7.3767   -2.0292   -0.6329 H   0  0  0  0  0  0  0  0  0  0  0  0
   -6.9827   -1.4904    1.0228 H   0  0  0  0  0  0  0  0  0  0  0  0
   -8.6211    1.7666   -1.0170 H   0  0  0  0  0  0  0  0  0  0  0  0
   -8.8043    0.2923   -2.0272 H   0  0  0  0  0  0  0  0  0  0  0  0
   -9.1326   -2.8075    0.7068 H   0  0  0  0  0  0  0  0  0  0  0  0
   -9.1627   -1.2839    1.7225 H   0  0  0  0  0  0  0  0  0  0  0  0
  -10.8226    0.9114   -0.6593 H   0  0  0  0  0  0  0  0  0  0  0  0
   -9.7929    0.6789    0.8453 H   0  0  0  0  0  0  0  0  0  0  0  0
   -9.9284   -1.4736   -1.2405 H   0  0  0  0  0  0  0  0  0  0  0  0
  -11.1515   -1.4376    0.1216 H   0  0  0  0  0  0  0  0  0  0  0  0
   -5.2072   -1.0944    0.0786 H   0  0  0  0  0  0  0  0  0  0  0  0
   -1.2494   -0.8671   -1.4146 H   0  0  0  0  0  0  0  0  0  0  0  0
    1.6882   -0.7953   -2.3953 H   0  0  0  0  0  0  0  0  0  0  0  0
    3.3267    0.8708   -1.8395 H   0  0  0  0  0  0  0  0  0  0  0  0
    3.3957   -0.7524   -0.9312 H   0  0  0  0  0  0  0  0  0  0  0  0
    0.1428    0.3351    0.9588 H   0  0  0  0  0  0  0  0  0  0  0  0
   -0.5908   -1.3657    0.9680 H   0  0  0  0  0  0  0  0  0  0  0  0
   -0.6703    1.9302   -0.4186 H   0  0  0  0  0  0  0  0  0  0  0  0
   -1.4060    1.5114   -1.9741 H   0  0  0  0  0  0  0  0  0  0  0  0
    1.7530   -1.4583    0.2630 H   0  0  0  0  0  0  0  0  0  0  0  0
    0.5615   -2.0537   -0.9080 H   0  0  0  0  0  0  0  0  0  0  0  0
    0.5809    1.0764   -2.9384 H   0  0  0  0  0  0  0  0  0  0  0  0
    1.2694    1.9655   -1.5826 H   0  0  0  0  0  0  0  0  0  0  0  0
    2.1394    1.7541    0.3072 H   0  0  0  0  0  0  0  0  0  0  0  0
    2.5338    0.2326    1.0759 H   0  0  0  0  0  0  0  0  0  0  0  0
    4.9576   -0.1778    1.6350 H   0  0  0  0  0  0  0  0  0  0  0  0
    5.4059   -0.2079   -0.8666 H   0  0  0  0  0  0  0  0  0  0  0  0
    6.5324   -1.5520    0.8393 H   0  0  0  0  0  0  0  0  0  0  0  0
    6.1187    2.3225   -0.6632 H   0  0  0  0  0  0  0  0  0  0  0  0
    6.6067    1.2913   -2.0063 H   0  0  0  0  0  0  0  0  0  0  0  0
    9.0054   -1.0662    1.0330 H   0  0  0  0  0  0  0  0  0  0  0  0
    7.9336   -0.2167    2.1504 H   0  0  0  0  0  0  0  0  0  0  0  0
    8.8072    1.2906   -1.5040 H   0  0  0  0  0  0  0  0  0  0  0  0
    9.8398    0.9080    0.4411 H   0  0  0  0  0  0  0  0  0  0  0  0
    8.7298    1.8331    1.4463 H   0  0  0  0  0  0  0  0  0  0  0  0
    6.0341   -2.8996   -0.9914 H   0  0  0  0  0  0  0  0  0  0  0  0
    7.5888   -3.3425   -0.2162 H   0  0  0  0  0  0  0  0  0  0  0  0
    7.5110   -3.1862   -1.9785 H   0  0  0  0  0  0  0  0  0  0  0  0
   -5.5329    0.3156    1.6662 H   0  0  0  0  0  0  0  0  0  0  0  0
   -2.7808   -2.0426   -0.0184 H   0  0  0  0  0  0  0  0  0  0  0  0
   -3.2653    0.8926    2.1528 H   0  0  0  0  0  0  0  0  0  0  0  0
    5.5397    1.8075    2.6777 H   0  0  0  0  0  0  0  0  0  0  0  0
   -6.2636    1.2497   -1.3779 H   0  0  0  0  0  0  0  0  0  0  0  0
   -3.9138   -0.4494   -1.7105 H   0  0  0  0  0  0  0  0  0  0  0  0
    4.1050    2.5002    0.8190 H   0  0  0  0  0  0  0  0  0  0  0  0
   -7.4881    0.7102    0.6986 H   0  0  0  0  0  0  0  0  0  0  0  0
   -7.3767   -2.0292   -0.6329 H   0  0  0  0  0  0  0  0  0  0  0  0
   -6.9827   -1.4904    1.0228 H   0  0  0  0  0  0  0  0  0  0  0  0
   -8.6211    1.7666   -1.0170 H   0  0  0  0  0  0  0  0  0  0  0  0
   -8.8043    0.2923   -2.0272 H   0  0  0  0  0  0  0  0  0  0  0  0
   -9.1326   -2.8075    0.7068 H   0  0  0  0  0  0  0  0  0  0  0  0
   -9.1627   -1.2839    1.7225 H   0  0  0  0  0  0  0  0  0  0  0  0
  -10.8226    0.9114   -0.6593 H   0  0  0  0  0  0  0  0  0  0  0  0
   -9.7929    0.6789    0.8453 H   0  0  0  0  0  0  0  0  0  0  0  0
   -9.9284   -1.4736   -1.2405 H   0  0  0  0  0  0  0  0  0  0  0  0
  -11.1515   -1.4376    0.1216 H   0  0  0  0  0  0  0  0  0  0  0  0
   -5.2072   -1.0944    0.0786 H   0  0  0  0  0  0  0  0  0  0  0  0
   -1.2494   -0.8671   -1.4146 H   0  0  0  0  0  0  0  0  0  0  0  0
    1.6882   -0.7953   -2.3953 H   0  0  0  0  0  0  0  0  0  0  0  0
    3.3267    0.8708   -1.8395 H   0  0  0  0  0  0  0  0  0  0  0  0
    3.3957   -0.7524   -0.9312 H   0  0  0  0  0  0  0  0  0  0  0  0
    0.1428    0.3351    0.9588 H   0  0  0  0  0  0  0  0  0  0  0  0
   -0.5908   -1.3657    0.9680 H   0  0  0  0  0  0  0  0  0  0  0  0
   -0.6703    1.9302   -0.4186 H   0  0  0  0  0  0  0  0  0  0  0  0
   -1.4060    1.5114   -1.9741 H   0  0  0  0  0  0  0  0  0  0  0  0
    1.7530   -1.4583    0.2630 H   0  0  0  0  0  0  0  0  0  0  0  0
    0.5615   -2.0537   -0.9080 H   0  0  0  0  0  0  0  0  0  0  0  0
    0.5809    1.0764   -2.9384 H   0  0  0  0  0  0  0  0  0  0  0  0
    1.2694    1.9655   -1.5826 H   0  0  0  0  0  0  0  0  0  0  0  0
    2.1394    1.7541    0.3072 H   0  0  0  0  0  0  0  0  0  0  0  0
    2.5338    0.2326    1.0759 H   0  0  0  0  0  0  0  0  0  0  0  0
    4.9576   -0.1778    1.6350 H   0  0  0  0  0  0  0  0  0  0  0  0
    5.4059   -0.2079   -0.8666 H   0  0  0  0  0  0  0  0  0  0  0  0
    6.5324   -1.5520    0.8393 H   0  0  0  0  0  0  0  0  0  0  0  0
    6.1187    2.3225   -0.6632 H   0  0  0  0  0  0  0  0  0  0  0  0
    6.6067    1.2913   -2.0063 H   0  0  0  0  0  0  0  0  0  0  0  0
    9.0054   -1.0662    1.0330 H   0  0  0  0  0  0  0  0  0  0  0  0
    7.9336   -0.2167    2.1504 H   0  0  0  0  0  0  0  0  0  0  0  0
    8.8072    1.2906   -1.5040 H   0  0  0  0  0  0  0  0  0  0  0  0
    9.8398    0.9080    0.4411 H   0  0  0  0  0  0  0  0  0  0  0  0
    8.7298    1.8331    1.4463 H   0  0  0  0  0  0  0  0  0  0  0  0
    6.0341   -2.8996   -0.9914 H   0  0  0  0  0  0  0  0  0  0  0  0
    7.5888   -3.3425   -0.2162 H   0  0  0  0  0  0  0  0  0  0  0  0
    7.5110   -3.1862   -1.9785 H   0  0  0  0  0  0  0  0  0  0  0  0
  6  2  1  0
  3  6  1  0
  6  9  1  0
  8 11  1  0
 11 12  1  0
 11 13  1  0
 12 14  1  0
 13 15  1  0
 14 16  1  0
 15 16  1  0
  1 17  1  0
  8 17  1  0
  9 17  1  0
  6 18  1  0
 19 20  1  0
 18 21  1  0
 18 22  1  0
 19 23  1  0
 21 23  1  0
 19 24  1  0
 22 24  1  0
 10 25  1  0
 20 25  1  0
  4 26  1  0
 10 26  1  0
 26 27  1  0
  7 28  1  0
 27 28  1  0
 27 29  1  0
 28 30  1  0
  5 31  1  0
 29 31  1  0
 30 32  1  0
 31 32  1  0
  7 33  1  0
 39 35  1  0
 36 39  1  0
 39 42  1  0
 41 44  1  0
 44 45  1  0
 44 46  1  0
 45 47  1  0
 46 48  1  0
 47 49  1  0
 48 49  1  0
 34 50  1  0
 41 50  1  0
 42 50  1  0
 39 51  1  0
 52 53  1  0
 51 54  1  0
 51 55  1  0
 52 56  1  0
 54 56  1  0
 52 57  1  0
 55 57  1  0
 43 58  1  0
 53 58  1  0
 37 59  1  0
 43 59  1  0
 59 60  1  0
 40 61  1  0
 60 61  1  0
 60 62  1  0
 61 63  1  0
 38 64  1  0
 62 64  1  0
 63 65  1  0
 64 65  1  0
 40 66  1  0
 72 68  1  0
 69 72  1  0
 72 75  1  0
 74 77  1  0
 77 78  1  0
 77 79  1  0
 78 80  1  0
 79 81  1  0
 80 82  1  0
 81 82  1  0
 67 83  1  0
 74 83  1  0
 75 83  1  0
 72 84  1  0
 85 86  1  0
 84 87  1  0
 84 88  1  0
 85 89  1  0
 87 89  1  0
 85 90  1  0
 88 90  1  0
 76 91  1  0
 86 91  1  0
 70 92  1  0
 76 92  1  0
 92 93  1  0
 73 94  1  0
 93 94  1  0
 93 95  1  0
 94 96  1  0
 71 97  1  0
 95 97  1  0
 96 98  1  0
 97 98  1  0
 73 99  1  0
105101  1  0
102105  1  0
105108  1  0
107110  1  0
110111  1  0
110112  1  0
111113  1  0
112114  1  0
113115  1  0
114115  1  0
100116  1  0
107116  1  0
108116  1  0
105117  1  0
118119  1  0
117120  1  0
117121  1  0
118122  1  0
120122  1  0
118123  1  0
121123  1  0
109124  1  0
119124  1  0
103125  1  0
109125  1  0
125126  1  0
106127  1  0
126127  1  0
126128  1  0
127129  1  0
104130  1  0
128130  1  0
129131  1  0
130131  1  0
106132  1  0
  1133  1  0
  2134  1  0
  3135  1  0
  4136  1  0
  8137  1  0
  9138  1  0
 10139  1  0
 11140  1  0
 12141  1  0
 12142  1  0
 13143  1  0
 13144  1  0
 14145  1  0
 14146  1  0
 15147  1  0
 15148  1  0
 16149  1  0
 16150  1  0
 17151  1  0
 18152  1  0
 19153  1  0
 20154  1  0
 20155  1  0
 21156  1  0
 21157  1  0
 22158  1  0
 22159  1  0
 23160  1  0
 23161  1  0
 24162  1  0
 24163  1  0
 25164  1  0
 25165  1  0
 26166  1  0
 27167  1  0
 28168  1  0
 29169  1  0
 29170  1  0
 30171  1  0
 30172  1  0
 31173  1  0
 32174  1  0
 32175  1  0
 33176  1  0
 33177  1  0
 33178  1  0
 34179  1  0
 35180  1  0
 36181  1  0
 37182  1  0
 41183  1  0
 42184  1  0
 43185  1  0
 44186  1  0
 45187  1  0
 45188  1  0
 46189  1  0
 46190  1  0
 47191  1  0
 47192  1  0
 48193  1  0
 48194  1  0
 49195  1  0
 49196  1  0
 50197  1  0
 51198  1  0
 52199  1  0
 53200  1  0
 53201  1  0
 54202  1  0
 54203  1  0
 55204  1  0
 55205  1  0
 56206  1  0
 56207  1  0
 57208  1  0
 57209  1  0
 58210  1  0
 58211  1  0
 59212  1  0
 60213  1  0
 61214  1  0
 62215  1  0
 62216  1  0
 63217  1  0
 63218  1  0
 64219  1  0
 65220  1  0
 65221  1  0
 66222  1  0
 66223  1  0
 66224  1  0
 67225  1  0
 68226  1  0
 69227  1  0
 70228  1  0
 74229  1  0
 75230  1  0
 76231  1  0
 77232  1  0
 78233  1  0
 78234  1  0
 79235  1  0
 79236  1  0
 80237  1  0
 80238  1  0
 81239  1  0
 81240  1  0
 82241  1  0
 82242  1  0
 83243  1  0
 84244  1  0
 85245  1  0
 86246  1  0
 86247  1  0
 87248  1  0
 87249  1  0
 88250  1  0
 88251  1  0
 89252  1  0
 89253  1  0
 90254  1  0
 90255  1  0
 91256  1  0
 91257  1  0
 92258  1  0
 93259  1  0
 94260  1  0
 95261  1  0
 95262  1  0
 96263  1  0
 96264  1  0
 97265  1  0
 98266  1  0
 98267  1  0
 99268  1  0
 99269  1  0
 99270  1  0
100271  1  0
101272  1  0
102273  1  0
103274  1  0
107275  1  0
108276  1  0
109277  1  0
110278  1  0
111279  1  0
111280  1  0
112281  1  0
112282  1  0
113283  1  0
113284  1  0
114285  1  0
114286  1  0
115287  1  0
115288  1  0
116289  1  0
117290  1  0
118291  1  0
119292  1  0
119293  1  0
120294  1  0
120295  1  0
121296  1  0
121297  1  0
122298  1  0
122299  1  0
123300  1  0
123301  1  0
124302  1  0
124303  1  0
125304  1  0
126305  1  0
127306  1  0
128307  1  0
128308  1  0
129309  1  0
129310  1  0
130311  1  0
131312  1  0
131313  1  0
132314  1  0
132315  1  0
132316  1  0
M  END
>  <PDBID>  (1) 
6BAA

>  <PDB ID>  (1) 
6BAA

>  <Generic Name>  (1) 
Glyburide

>  <Brand Name>  (1) 
Apo Glyburide Tab 2.5mg#Apo Glyburide Tab 5mg#Ava-glyburide#Diabeta#Diabeta 5mg#Diabeta Tab 2.5mg#Diabeta Tab 5mg#Diabeta Tablets 2.5mg#Dom-glyburide#Euglucon#Glucovance#Glyburide#Glyburide (micronized) and Metformin Hydrochloride#Glyburide Tablets 2.5mg#Glyburide Tablets 5mg#Glyburide and Metformin#Glyburide and Metformin Hydrochloride#Glyburide-2.5 Tab 2.5mg#Glyburide-5 Tab 5mg#Glyburide-metformin Hydrochloride#Glynase#Med Glybe Tab 2.5mg#Med Glybe Tab 5mg#Mylan-glybe#Ntp-glyburide#Nu-glyburide Tab 2.5mg#Nu-glyburide Tab 5mg#PMS-glyburide#Penta-glyburide - 2.5mg#Penta-glyburide - 5mg#Pro-glyburide#Ratio-glyburide#Riva-glyburide#Sandoz Glyburide#Teva-glyburide#Daonil#Delmide#Micronase#Novo-Glyburide#Semi-Daonil

>  <DrugBank ID>  (1) 
DB01016

>  <ATC Codes>  (1) 
A10BB01

>  <Ligand ID>  (1) 
GBM

>  <Target Name>  (1) 
ATP-sensitive inward rectifier potassium channel 11

>  <UniProt ID>  (1) 
Q14654

>  <PDB ID.1>  (1) 
6BAA

>  <Seq. Identity>  (1) 
94%

$$$$
