PDB_DB06228_08
     RDKit          3D

 63 66  0  0  0  0  0  0  0  0999 V2000
    5.8308    0.7074    1.0909 C   0  0  0  0  0  0  0  0  0  0  0  0
    5.3331   -0.3284    0.2087 N   0  0  0  0  0  0  0  0  0  0  0  0
    7.2132    0.3520    1.5449 C   0  0  0  0  0  0  0  0  0  0  0  0
    6.2117   -0.4707   -0.9319 C   0  0  0  0  0  0  0  0  0  0  0  0
    7.9838   -0.2196    0.5529 O   0  0  0  0  0  0  0  0  0  0  0  0
    7.5654    0.1698   -0.7142 C   0  0  0  0  0  0  0  0  0  0  0  0
    1.1531   -0.1964   -0.3130 C   0  0  0  0  0  0  0  0  0  0  0  0
    1.9729   -1.4139   -0.0385 C   0  0  0  0  0  0  0  0  0  0  0  0
    1.8443    1.0225    0.2606 C   0  0  0  0  0  0  0  0  0  0  0  0
    3.3175   -1.2890   -0.6819 C   0  0  0  0  0  0  0  0  0  0  0  0
    3.2210    0.7507    0.7705 C   0  0  0  0  0  0  0  0  0  0  0  0
    3.9863   -0.0423   -0.2372 C   0  0  0  0  0  0  0  0  0  0  0  0
    5.6552   -0.0308   -2.1160 O   0  0  0  0  0  0  0  0  0  0  0  0
   -0.1608   -0.3664    0.2112 N   0  0  0  0  0  0  0  0  0  0  0  0
   -0.8715   -1.4082   -0.4203 C   0  0  0  0  0  0  0  0  0  0  0  0
   -0.9557    0.8203    0.1624 C   0  0  0  0  0  0  0  0  0  0  0  0
   -2.2203   -1.0642   -0.4688 O   0  0  0  0  0  0  0  0  0  0  0  0
   -2.3703    0.2087    0.0625 C   0  0  1  0  0  0  0  0  0  0  0  0
   -0.4514   -1.5480   -1.7582 O   0  0  0  0  0  0  0  0  0  0  0  0
   -2.9983    0.1548    1.3922 C   0  0  0  0  0  0  0  0  0  0  0  0
   -4.3013   -0.3276    1.5234 N   0  0  0  0  0  0  0  0  0  0  0  0
   -5.3589    0.4622    1.0865 C   0  0  0  0  0  0  0  0  0  0  0  0
   -6.0970   -0.8573   -1.2058 S   0  0  0  0  0  0  0  0  0  0  0  0
   -7.8740   -0.5949   -1.4181 C   0  0  0  0  0  0  0  0  0  0  0  0
   -5.6735    0.6933   -0.3354 C   0  0  0  0  0  0  0  0  0  0  0  0
   -8.1253    0.6079   -0.5530 C   0  0  0  0  0  0  0  0  0  0  0  0
   -6.9565    1.4878   -0.5164 C   0  0  0  0  0  0  0  0  0  0  0  0
   -6.5347    0.0296    1.7695 O   0  0  0  0  0  0  0  0  0  0  0  0
   -8.7455   -2.0037   -0.7486 Cl  0  0  0  0  0  0  0  0  0  0  0  0
    5.7981    1.6896    0.5765 H   0  0  0  0  0  0  0  0  0  0  0  0
    5.1663    0.6950    1.9928 H   0  0  0  0  0  0  0  0  0  0  0  0
    7.1736   -0.3515    2.4060 H   0  0  0  0  0  0  0  0  0  0  0  0
    7.7772    1.2366    1.9113 H   0  0  0  0  0  0  0  0  0  0  0  0
    6.4339   -1.5756   -1.0592 H   0  0  0  0  0  0  0  0  0  0  0  0
    7.5450    1.2634   -0.7885 H   0  0  0  0  0  0  0  0  0  0  0  0
    8.3085   -0.2655   -1.4304 H   0  0  0  0  0  0  0  0  0  0  0  0
    1.1067   -0.1043   -1.4389 H   0  0  0  0  0  0  0  0  0  0  0  0
    1.4362   -2.3476   -0.3921 H   0  0  0  0  0  0  0  0  0  0  0  0
    2.0490   -1.5444    1.0756 H   0  0  0  0  0  0  0  0  0  0  0  0
    1.8526    1.7969   -0.5534 H   0  0  0  0  0  0  0  0  0  0  0  0
    1.2176    1.4820    1.0592 H   0  0  0  0  0  0  0  0  0  0  0  0
    3.8776   -2.2293   -0.4010 H   0  0  0  0  0  0  0  0  0  0  0  0
    3.1711   -1.3312   -1.7835 H   0  0  0  0  0  0  0  0  0  0  0  0
    3.7544    1.7239    0.8995 H   0  0  0  0  0  0  0  0  0  0  0  0
    3.1527    0.2565    1.7569 H   0  0  0  0  0  0  0  0  0  0  0  0
    4.1254    0.6312   -1.1341 H   0  0  0  0  0  0  0  0  0  0  0  0
    6.2568   -0.3614   -2.8395 H   0  0  0  0  0  0  0  0  0  0  0  0
   -0.6752   -2.3540    0.1039 H   0  0  0  0  0  0  0  0  0  0  0  0
   -0.7322    1.5096   -0.6582 H   0  0  0  0  0  0  0  0  0  0  0  0
   -0.9119    1.3710    1.1139 H   0  0  0  0  0  0  0  0  0  0  0  0
   -2.8591    0.8203   -0.7059 H   0  0  0  0  0  0  0  0  0  0  0  0
   -1.0564   -1.0004   -2.3512 H   0  0  0  0  0  0  0  0  0  0  0  0
   -2.8345    1.1314    1.9641 H   0  0  0  0  0  0  0  0  0  0  0  0
   -2.3490   -0.5474    2.0656 H   0  0  0  0  0  0  0  0  0  0  0  0
   -4.3349   -1.3377    1.2065 H   0  0  0  0  0  0  0  0  0  0  0  0
   -5.2145    1.5182    1.5224 H   0  0  0  0  0  0  0  0  0  0  0  0
   -8.1341   -0.4160   -2.4822 H   0  0  0  0  0  0  0  0  0  0  0  0
   -4.8997    1.2346   -0.9245 H   0  0  0  0  0  0  0  0  0  0  0  0
   -8.9621    1.2110   -1.0087 H   0  0  0  0  0  0  0  0  0  0  0  0
   -8.4437    0.2801    0.4748 H   0  0  0  0  0  0  0  0  0  0  0  0
   -7.0118    2.1416    0.3880 H   0  0  0  0  0  0  0  0  0  0  0  0
   -6.9116    2.1013   -1.4475 H   0  0  0  0  0  0  0  0  0  0  0  0
   -6.4650    0.3124    2.7027 H   0  0  0  0  0  0  0  0  0  0  0  0
  1  2  1  0
  1  3  1  0
  2  4  1  0
  3  5  1  0
  4  6  1  0
  5  6  1  0
  7  8  1  0
  7  9  1  0
  8 10  1  0
  9 11  1  0
  2 12  1  0
 10 12  1  0
 11 12  1  0
  4 13  1  0
  7 14  1  0
 14 15  1  0
 14 16  1  0
 15 17  1  0
 16 18  1  0
 17 18  1  0
 15 19  1  0
 18 20  1  0
 20 21  1  0
 21 22  1  0
 23 24  1  0
 22 25  1  0
 23 25  1  0
 24 26  1  0
 25 27  1  0
 26 27  1  0
 22 28  1  0
 24 29  1  0
  1 30  1  0
  1 31  1  0
  3 32  1  0
  3 33  1  0
  4 34  1  0
  6 35  1  0
  6 36  1  0
  7 37  1  0
  8 38  1  0
  8 39  1  0
  9 40  1  0
  9 41  1  0
 10 42  1  0
 10 43  1  0
 11 44  1  0
 11 45  1  0
 12 46  1  0
 13 47  1  0
 15 48  1  0
 16 49  1  0
 16 50  1  0
 18 51  1  6
 19 52  1  0
 20 53  1  0
 20 54  1  0
 21 55  1  0
 22 56  1  0
 24 57  1  0
 25 58  1  0
 26 59  1  0
 26 60  1  0
 27 61  1  0
 27 62  1  0
 28 63  1  0
M  END
>  <PDBID>  (1) 
2W26

>  <PDB ID>  (1) 
2W26

>  <Generic Name>  (1) 
Rivaroxaban

>  <Brand Name>  (1) 
Xarelto

>  <DrugBank ID>  (1) 
DB06228

>  <ATC Codes>  (1) 
B01AF01

>  <Ligand ID>  (1) 
RIV

>  <Target Name>  (1) 
Coagulation factor X

>  <UniProt ID>  (1) 
P00742

>  <PDB ID.1>  (1) 
2W26

>  <Seq. Identity>  (1) 
100%

$$$$
