PDB_DB00184_05
     RDKit          3D

 64 66  0  0  0  0  0  0  0  0999 V2000
    2.6324    0.9715    0.9381 N   0  0  0  0  0  0  0  0  0  0  0  0
    1.2445    1.1750    0.4789 C   0  0  0  0  0  0  0  0  0  0  0  0
    0.5978   -0.1722    0.4977 C   0  0  0  0  0  0  0  0  0  0  0  0
    1.2695   -1.0393   -0.5204 C   0  0  0  0  0  0  0  0  0  0  0  0
    2.5459   -0.4155   -1.0636 C   0  0  0  0  0  0  0  0  0  0  0  0
    3.3843    0.2202   -0.0123 C   0  0  0  0  0  0  0  0  0  0  0  0
   -1.4962    0.4178   -0.6973 N   0  0  0  0  0  0  0  0  0  0  0  0
   -0.8828   -0.1674    0.4302 C   0  0  1  0  0  0  0  0  0  0  0  0
   -1.4665   -1.5755    0.3525 C   0  0  0  0  0  0  0  0  0  0  0  0
   -2.9382   -1.1944    0.2937 C   0  0  0  0  0  0  0  0  0  0  0  0
   -2.8981    0.0426   -0.5428 C   0  0  0  0  0  0  0  0  0  0  0  0
   -1.4557    1.8413   -0.7843 C   0  0  0  0  0  0  0  0  0  0  0  0
    2.6324    0.9715    0.9381 N   0  0  0  0  0  0  0  0  0  0  0  0
    1.2445    1.1750    0.4789 C   0  0  0  0  0  0  0  0  0  0  0  0
    0.5978   -0.1722    0.4977 C   0  0  0  0  0  0  0  0  0  0  0  0
    1.2695   -1.0393   -0.5204 C   0  0  0  0  0  0  0  0  0  0  0  0
    2.5459   -0.4155   -1.0636 C   0  0  0  0  0  0  0  0  0  0  0  0
    3.3843    0.2202   -0.0123 C   0  0  0  0  0  0  0  0  0  0  0  0
   -1.4962    0.4178   -0.6973 N   0  0  0  0  0  0  0  0  0  0  0  0
   -0.8828   -0.1674    0.4302 C   0  0  1  0  0  0  0  0  0  0  0  0
   -1.4665   -1.5755    0.3525 C   0  0  0  0  0  0  0  0  0  0  0  0
   -2.9382   -1.1944    0.2937 C   0  0  0  0  0  0  0  0  0  0  0  0
   -2.8981    0.0426   -0.5428 C   0  0  0  0  0  0  0  0  0  0  0  0
   -1.4557    1.8413   -0.7843 C   0  0  0  0  0  0  0  0  0  0  0  0
    2.5317    0.3895    1.8233 H   0  0  0  0  0  0  0  0  0  0  0  0
    0.8255    1.8764    1.2324 H   0  0  0  0  0  0  0  0  0  0  0  0
    1.3378    1.6213   -0.5297 H   0  0  0  0  0  0  0  0  0  0  0  0
    0.8664   -0.6090    1.5081 H   0  0  0  0  0  0  0  0  0  0  0  0
    1.5836   -2.0350   -0.0883 H   0  0  0  0  0  0  0  0  0  0  0  0
    0.6506   -1.2799   -1.3919 H   0  0  0  0  0  0  0  0  0  0  0  0
    3.1258   -1.2399   -1.5286 H   0  0  0  0  0  0  0  0  0  0  0  0
    2.2656    0.2726   -1.8890 H   0  0  0  0  0  0  0  0  0  0  0  0
    4.1341    0.8679   -0.5198 H   0  0  0  0  0  0  0  0  0  0  0  0
    3.9784   -0.5641    0.5151 H   0  0  0  0  0  0  0  0  0  0  0  0
   -1.3220    0.2796    1.3494 H   0  0  0  0  0  0  0  0  0  0  0  0
   -1.2550   -2.0560   -0.6208 H   0  0  0  0  0  0  0  0  0  0  0  0
   -1.2216   -2.1857    1.2240 H   0  0  0  0  0  0  0  0  0  0  0  0
   -3.5071   -2.0087   -0.1944 H   0  0  0  0  0  0  0  0  0  0  0  0
   -3.2516   -1.0014    1.3311 H   0  0  0  0  0  0  0  0  0  0  0  0
   -3.3866   -0.0711   -1.5291 H   0  0  0  0  0  0  0  0  0  0  0  0
   -3.4305    0.8476    0.0178 H   0  0  0  0  0  0  0  0  0  0  0  0
   -1.2797    2.3549    0.1877 H   0  0  0  0  0  0  0  0  0  0  0  0
   -0.7366    2.2026   -1.5769 H   0  0  0  0  0  0  0  0  0  0  0  0
   -2.4456    2.2342   -1.1385 H   0  0  0  0  0  0  0  0  0  0  0  0
    2.5317    0.3895    1.8233 H   0  0  0  0  0  0  0  0  0  0  0  0
    0.8255    1.8764    1.2324 H   0  0  0  0  0  0  0  0  0  0  0  0
    1.3378    1.6213   -0.5297 H   0  0  0  0  0  0  0  0  0  0  0  0
    0.8664   -0.6090    1.5081 H   0  0  0  0  0  0  0  0  0  0  0  0
    1.5836   -2.0350   -0.0883 H   0  0  0  0  0  0  0  0  0  0  0  0
    0.6506   -1.2799   -1.3919 H   0  0  0  0  0  0  0  0  0  0  0  0
    3.1258   -1.2399   -1.5286 H   0  0  0  0  0  0  0  0  0  0  0  0
    2.2656    0.2726   -1.8890 H   0  0  0  0  0  0  0  0  0  0  0  0
    4.1341    0.8679   -0.5198 H   0  0  0  0  0  0  0  0  0  0  0  0
    3.9784   -0.5641    0.5151 H   0  0  0  0  0  0  0  0  0  0  0  0
   -1.3220    0.2796    1.3494 H   0  0  0  0  0  0  0  0  0  0  0  0
   -1.2550   -2.0560   -0.6208 H   0  0  0  0  0  0  0  0  0  0  0  0
   -1.2216   -2.1857    1.2240 H   0  0  0  0  0  0  0  0  0  0  0  0
   -3.5071   -2.0087   -0.1944 H   0  0  0  0  0  0  0  0  0  0  0  0
   -3.2516   -1.0014    1.3311 H   0  0  0  0  0  0  0  0  0  0  0  0
   -3.3866   -0.0711   -1.5291 H   0  0  0  0  0  0  0  0  0  0  0  0
   -3.4305    0.8476    0.0178 H   0  0  0  0  0  0  0  0  0  0  0  0
   -1.2797    2.3549    0.1877 H   0  0  0  0  0  0  0  0  0  0  0  0
   -0.7366    2.2026   -1.5769 H   0  0  0  0  0  0  0  0  0  0  0  0
   -2.4456    2.2342   -1.1385 H   0  0  0  0  0  0  0  0  0  0  0  0
  1  2  1  0
  2  3  1  0
  3  4  1  0
  4  5  1  0
  1  6  1  0
  5  6  1  0
  3  8  1  0
  7  8  1  0
  8  9  1  0
  9 10  1  0
  7 11  1  0
 10 11  1  0
  7 12  1  0
 13 14  1  0
 14 15  1  0
 15 16  1  0
 16 17  1  0
 13 18  1  0
 17 18  1  0
 15 20  1  0
 19 20  1  0
 20 21  1  0
 21 22  1  0
 19 23  1  0
 22 23  1  0
 19 24  1  0
  1 25  1  0
  2 26  1  0
  2 27  1  0
  3 28  1  0
  4 29  1  0
  4 30  1  0
  5 31  1  0
  5 32  1  0
  6 33  1  0
  6 34  1  0
  8 35  1  1
  9 36  1  0
  9 37  1  0
 10 38  1  0
 10 39  1  0
 11 40  1  0
 11 41  1  0
 12 42  1  0
 12 43  1  0
 12 44  1  0
 13 45  1  0
 14 46  1  0
 14 47  1  0
 15 48  1  0
 16 49  1  0
 16 50  1  0
 17 51  1  0
 17 52  1  0
 18 53  1  0
 18 54  1  0
 20 55  1  1
 21 56  1  0
 21 57  1  0
 22 58  1  0
 22 59  1  0
 23 60  1  0
 23 61  1  0
 24 62  1  0
 24 63  1  0
 24 64  1  0
M  END
>  <PDBID>  (1) 
5KXI

>  <PDB ID>  (1) 
5KXI

>  <Generic Name>  (1) 
Nicotine

>  <Brand Name>  (1) 
American Fare Nicotine Transdermal System#Berkley and Jensen Nicotine#Berkley and Jensen Nicotine Polacrilex#Care One Nicotine#Careone Mini Nicotine Polacrilex#Careone Nicotine#Careone Nicotine Polacrilex#Careone Nicotine Transdermal System Step 1#Careone Nicotine Transdermal System Step 2#Careone Nicotine Transdermal System Step 3#Equaline Nicotine#Equate Nicotine#Exchange Select Nicotine Transdermal System Step 3#Good Neighbor Pharmacy Nicotine#Good Neighbor Pharmacy Nicotine Mini#Good Sense Nicotine#Good Sense Nicotine Mint#Good Sense Nicotine Stop Smoking Aid#Habitrol Patch Nicotine Transdermal System, Step 1#Habitrol Patch Nicotine Transdermal System, Step 2#Habitrol Patch Nicotine Transdermal System, Step 3#Harris Teeter Nicotine#Health Mart Nicotine#Health Mart Nicotine Polacrilex#Healthmart Nicotine Transdermal System Step 1#Healthmart Nicotine Transdermal System Step 2#Healthmart Nicotine Transdermal System Step 3#Healthy Accents Nicotine#Humana Pharmacy Nicotine#In Control Nicotine#Kirkland Signature Quit 2#Kirkland Signature Quit 4#Kroger Nicotine Transdermal System Step 1#Kroger Nicotine Transdermal System Step 2#Kroger Nicotine Transdermal System Step 3#Leader Nicotine#Leader Nicotine Transdermal System Step 1#Leader Nicotine Transdermal System Step 2#Leader Nicotine Transdermal System Step 3#Meijer Nicotine Transdermal System Step 1#Meijer Nicotine Transdermal System Step 2#Meijer Nicotine Transdermal System Step 3#Members Mark Mini Nicotine#Members Mark Nicotine#Mini Nicotine#Nicoderm Cq#Nicoderm Trd 114mg Nicotine/21#Nicoderm Trd 36mg Nicotine/7 Sqcm Patch#Nicoderm Trd 78mg Nicotine/14#Nicorelief#Nicorette#Nicorette Cinnamon Surge#Nicorette Fresh Mint#Nicorette Fruit Chill#Nicorette Gum 2mg#Nicorette Invisipatch#Nicorette Mint#Nicorette Original#Nicorette Plus 4mg#Nicorette Spearmint Burst#Nicorette White Ice Mint#Nicotine#Nicotine Coated Mint#Nicotine Gum#Nicotine Mini#Nicotine Mint Flavor#Nicotine Original#Nicotine Polacrilex#Nicotine Polacrilex Stop Smoking Aid#Nicotine Polacrilex, Coated Fruit Flavor#Nicotine Polacrilex, Coated Mint Flavor#Nicotine Polacrilex, Original#Nicotine Stop Smoking Aid#Nicotine Transdermal System#Nicotine Transdermal System Patch Kit#Nicotine Transdermal System Step 1#Nicotine Transdermal System Step 2#Nicotine Transdermal System Step 3#Nicotine Un1654#Nicotrol#Nicotrol (professional Sample)#Nictoine Gum#Preferred Plus Nicotine#Preferred Plus Nicotine Polacrilex Gum, Original Flavor#Rexall Nicotine#Rite Aid Nicotine Transdermal System Step 1#Rite Aid Nicotine Transdermal System Step 2#Rite Aid Nicotine Transdermal System Step 3#Rugby Nicotine#Rugby Nicotine Polacrilex Gum, Coated Cinnamon Flavor#Rugby Nicotine Polacrilex Gum, Coated Fruit Flavor#Rugby Nicotine Polacrilex Gum, Coated Mint Flavor#Rugby Nicotine Polacrilex Gum, Mint Flavor#Rugby Nicotine Polacrilex Gum, Original Flavor#Safeway Nicotine Transdermal System Step 1#Safeway Nicotine Transdermal System Step 2#Safeway Nicotine Transdermal System Step 3#Signature Care Nicotine#Simply Right Nicotine#Smart Sense Nicotine#Smart Sense Nicotine Mint#Smart Sense Nicotine Polacrilex#Stop Smoking Aid#Stop Smoking Aid Nicotine#Sunmark Nicotine#Sunmark Nicotine Transdermal System Step 1#Sunmark Nicotine Transdermal System Step 2#Sunmark Nicotine Transdermal System Step 3#Topcare Nicotine#Topcare Nicotine Gum#Topcare Nicotine Polacrilex#Topcare Nicotine Stop Smoking Aid#Tru Relief Nicotine#Up and Up Nicotine#Up and Up Nicotine Polacrilex#Zonnic#Zonnic Nicotine#Zonnic Nicotine Mini#Zonnic Nicotine Polacrilex#Habitrol#Nicoderm

>  <DrugBank ID>  (1) 
DB00184

>  <ATC Codes>  (1) 
N07BA01

>  <Ligand ID>  (1) 
NCT

>  <Target Name>  (1) 
Neuronal acetylcholine receptor subunit alpha-4

>  <UniProt ID>  (1) 
P43681

>  <PDB ID.1>  (1) 
5KXI

>  <Seq. Identity>  (1) 
54%

$$$$
