PDB_DB09026_01
     RDKit          3D

204204  0  0  0  0  0  0  0  0999 V2000
    8.0676    5.4098    1.1256 C   0  0  0  0  0  0  0  0  0  0  0  0
    7.4858    4.1891    0.7671 O   0  0  0  0  0  0  0  0  0  0  0  0
    8.1608    3.5967   -0.2981 C   0  0  0  0  0  0  0  0  0  0  0  0
    7.4344    2.2854   -0.5898 C   0  0  0  0  0  0  0  0  0  0  0  0
    6.0151    2.6339   -0.9372 C   0  0  0  0  0  0  0  0  0  0  0  0
    5.2475    1.5491   -1.2175 O   0  0  0  0  0  0  0  0  0  0  0  0
    5.1008    0.6804   -0.1255 C   0  0  0  0  0  0  0  0  0  0  0  0
    3.6244    0.5998    0.1350 C   0  0  0  0  0  0  0  0  0  0  0  0
    3.2177   -0.5923    1.0551 C   0  0  0  0  0  0  0  0  0  0  0  0
    4.4518   -1.1029    1.6128 C   0  0  0  0  0  0  0  0  0  0  0  0
    5.4781   -1.5942    0.6215 C   0  0  0  0  0  0  0  0  0  0  0  0
    5.5745   -0.6691   -0.5732 C   0  0  0  0  0  0  0  0  0  0  0  0
    6.8193   -0.6821   -1.1482 O   0  0  0  0  0  0  0  0  0  0  0  0
    6.7296   -1.1522   -2.4501 C   0  0  0  0  0  0  0  0  0  0  0  0
    2.1969   -1.3047    0.3278 C   0  0  0  0  0  0  0  0  0  0  0  0
    1.4103   -2.4601    0.6324 C   0  0  2  0  0  0  0  0  0  0  0  0
    2.0296   -3.8017    0.9058 C   0  0  0  0  0  0  0  0  0  0  0  0
    2.9218   -3.9620    2.0636 C   0  0  0  0  0  0  0  0  0  0  0  0
    2.7731   -4.3293   -0.3165 C   0  0  0  0  0  0  0  0  0  0  0  0
    0.4081   -2.7723   -0.4927 C   0  0  0  0  0  0  0  0  0  0  0  0
   -0.6015   -1.7930   -0.8543 C   0  0  2  0  0  0  0  0  0  0  0  0
   -0.1498   -0.5238   -1.3624 N   0  0  0  0  0  0  0  0  0  0  0  0
   -1.7000   -1.6094    0.1902 C   0  0  1  0  0  0  0  0  0  0  0  0
   -1.1792   -0.8465    1.2210 O   0  0  0  0  0  0  0  0  0  0  0  0
   -2.9500   -1.0367   -0.4229 C   0  0  0  0  0  0  0  0  0  0  0  0
   -4.0748   -0.8373    0.5376 C   0  0  1  0  0  0  0  0  0  0  0  0
   -3.8453    0.0896    1.6690 C   0  0  0  0  0  0  0  0  0  0  0  0
   -5.1416    0.1207    2.4945 C   0  0  0  0  0  0  0  0  0  0  0  0
   -3.4902    1.4927    1.3181 C   0  0  0  0  0  0  0  0  0  0  0  0
   -5.3896   -0.5819   -0.1844 C   0  0  0  0  0  0  0  0  0  0  0  0
   -5.6458   -1.7195   -0.9797 O   0  0  0  0  0  0  0  0  0  0  0  0
   -5.3751    0.5411   -1.0451 N   0  0  0  0  0  0  0  0  0  0  0  0
   -6.4683    0.7426   -1.9110 C   0  0  0  0  0  0  0  0  0  0  0  0
   -7.7705    1.1629   -1.3575 C   0  0  0  0  0  0  0  0  0  0  0  0
   -8.4189    0.2578   -0.3700 C   0  0  0  0  0  0  0  0  0  0  0  0
   -8.7573    1.2934   -2.5534 C   0  0  0  0  0  0  0  0  0  0  0  0
   -7.7082    2.5815   -0.7943 C   0  0  1  0  0  0  0  0  0  0  0  0
   -8.9837    2.8546   -0.3068 O   0  0  0  0  0  0  0  0  0  0  0  0
   -6.7020    2.7537    0.2041 N   0  0  0  0  0  0  0  0  0  0  0  0
    7.5879    4.0125    1.4481 C   0  0  0  0  0  0  0  0  0  0  0  0
    7.6378    4.4641    0.1524 O   0  0  0  0  0  0  0  0  0  0  0  0
    8.2509    3.6223   -0.7433 C   0  0  0  0  0  0  0  0  0  0  0  0
    7.5515    2.2532   -0.8337 C   0  0  0  0  0  0  0  0  0  0  0  0
    6.1459    2.5017   -1.2707 C   0  0  0  0  0  0  0  0  0  0  0  0
    5.3304    1.4253   -1.4186 O   0  0  0  0  0  0  0  0  0  0  0  0
    5.1081    0.6793   -0.2488 C   0  0  0  0  0  0  0  0  0  0  0  0
    3.6491    0.8177    0.0590 C   0  0  0  0  0  0  0  0  0  0  0  0
    3.1173   -0.3569    0.9616 C   0  0  2  0  0  0  0  0  0  0  0  0
    4.3402   -0.8633    1.5995 C   0  0  0  0  0  0  0  0  0  0  0  0
    5.2959   -1.5661    0.6953 C   0  0  0  0  0  0  0  0  0  0  0  0
    5.5590   -0.7264   -0.5437 C   0  0  0  0  0  0  0  0  0  0  0  0
    6.9285   -0.6963   -0.8269 O   0  0  0  0  0  0  0  0  0  0  0  0
    7.1775   -1.1176   -2.1318 C   0  0  0  0  0  0  0  0  0  0  0  0
    2.2365   -1.1719    0.1314 C   0  0  0  0  0  0  0  0  0  0  0  0
    1.4658   -2.3266    0.4781 C   0  0  2  0  0  0  0  0  0  0  0  0
    2.0042   -3.6130    0.9674 C   0  0  0  0  0  0  0  0  0  0  0  0
    2.7427   -3.6223    2.2447 C   0  0  0  0  0  0  0  0  0  0  0  0
    2.8309   -4.3423   -0.0804 C   0  0  0  0  0  0  0  0  0  0  0  0
    0.4357   -2.7475   -0.5925 C   0  0  0  0  0  0  0  0  0  0  0  0
   -0.6099   -1.8130   -0.9733 C   0  0  2  0  0  0  0  0  0  0  0  0
   -0.2361   -0.5595   -1.5615 N   0  0  0  0  0  0  0  0  0  0  0  0
   -1.6602   -1.5643    0.1054 C   0  0  1  0  0  0  0  0  0  0  0  0
   -1.1563   -0.7036    1.0407 O   0  0  0  0  0  0  0  0  0  0  0  0
   -2.9577   -1.0766   -0.4611 C   0  0  0  0  0  0  0  0  0  0  0  0
   -4.0289   -0.8229    0.5388 C   0  0  1  0  0  0  0  0  0  0  0  0
   -3.7869    0.1935    1.5752 C   0  0  0  0  0  0  0  0  0  0  0  0
   -4.9960    0.2889    2.4872 C   0  0  0  0  0  0  0  0  0  0  0  0
   -3.4646    1.5697    1.0663 C   0  0  0  0  0  0  0  0  0  0  0  0
   -5.4056   -0.7022   -0.1188 C   0  0  0  0  0  0  0  0  0  0  0  0
   -5.6631   -1.9285   -0.7644 O   0  0  0  0  0  0  0  0  0  0  0  0
   -5.4794    0.3666   -1.0302 N   0  0  0  0  0  0  0  0  0  0  0  0
   -6.6436    0.6083   -1.7744 C   0  0  0  0  0  0  0  0  0  0  0  0
   -7.8570    1.1673   -1.1006 C   0  0  0  0  0  0  0  0  0  0  0  0
   -8.4114    0.3590    0.0100 C   0  0  0  0  0  0  0  0  0  0  0  0
   -8.9806    1.2294   -2.1685 C   0  0  0  0  0  0  0  0  0  0  0  0
   -7.6983    2.6158   -0.6716 C   0  0  0  0  0  0  0  0  0  0  0  0
   -7.4388    3.4355   -1.7704 O   0  0  0  0  0  0  0  0  0  0  0  0
   -6.6713    2.8141    0.2998 N   0  0  0  0  0  0  0  0  0  0  0  0
    9.1186    5.2902    1.4334 H   0  0  0  0  0  0  0  0  0  0  0  0
    8.0214    6.1161    0.2524 H   0  0  0  0  0  0  0  0  0  0  0  0
    7.5040    5.8249    1.9917 H   0  0  0  0  0  0  0  0  0  0  0  0
    8.0627    4.2093   -1.2147 H   0  0  0  0  0  0  0  0  0  0  0  0
    9.1987    3.4018    0.0071 H   0  0  0  0  0  0  0  0  0  0  0  0
    7.4691    1.6989    0.3176 H   0  0  0  0  0  0  0  0  0  0  0  0
    7.9097    1.7854   -1.4695 H   0  0  0  0  0  0  0  0  0  0  0  0
    5.9901    3.3326   -1.8334 H   0  0  0  0  0  0  0  0  0  0  0  0
    5.6271    3.2094   -0.0379 H   0  0  0  0  0  0  0  0  0  0  0  0
    5.6677    1.0790    0.7140 H   0  0  0  0  0  0  0  0  0  0  0  0
    3.2013    1.5523    0.5076 H   0  0  0  0  0  0  0  0  0  0  0  0
    3.1524    0.3921   -0.8440 H   0  0  0  0  0  0  0  0  0  0  0  0
    2.6973   -0.0272    1.9186 H   0  0  0  0  0  0  0  0  0  0  0  0
    4.4696   -1.7527    2.4865 H   0  0  0  0  0  0  0  0  0  0  0  0
    5.0005   -0.1677    2.0527 H   0  0  0  0  0  0  0  0  0  0  0  0
    6.4642   -1.5724    1.1261 H   0  0  0  0  0  0  0  0  0  0  0  0
    5.3167   -2.6315    0.2993 H   0  0  0  0  0  0  0  0  0  0  0  0
    4.8350   -1.0383   -1.3125 H   0  0  0  0  0  0  0  0  0  0  0  0
    7.7192   -1.1818   -2.9559 H   0  0  0  0  0  0  0  0  0  0  0  0
    6.2748   -2.1596   -2.5307 H   0  0  0  0  0  0  0  0  0  0  0  0
    6.0796   -0.4822   -3.0847 H   0  0  0  0  0  0  0  0  0  0  0  0
    2.5629   -1.4374   -0.7698 H   0  0  0  0  0  0  0  0  0  0  0  0
    1.4230   -0.4434    0.0769 H   0  0  0  0  0  0  0  0  0  0  0  0
    0.6559   -2.2541    1.5061 H   0  0  0  0  0  0  0  0  0  0  0  0
    1.2007   -4.5833    1.0388 H   0  0  0  0  0  0  0  0  0  0  0  0
    2.6658   -3.1810    2.8111 H   0  0  0  0  0  0  0  0  0  0  0  0
    3.9729   -3.9302    1.7786 H   0  0  0  0  0  0  0  0  0  0  0  0
    2.7698   -4.9792    2.5219 H   0  0  0  0  0  0  0  0  0  0  0  0
    3.4207   -3.5951   -0.7879 H   0  0  0  0  0  0  0  0  0  0  0  0
    3.4061   -5.1614    0.0485 H   0  0  0  0  0  0  0  0  0  0  0  0
    2.0500   -4.8009   -1.0385 H   0  0  0  0  0  0  0  0  0  0  0  0
   -0.0958   -3.7457   -0.2816 H   0  0  0  0  0  0  0  0  0  0  0  0
    0.9970   -3.0064   -1.4398 H   0  0  0  0  0  0  0  0  0  0  0  0
   -1.1780   -2.2486   -1.7323 H   0  0  0  0  0  0  0  0  0  0  0  0
    0.5710   -0.7567   -2.1137 H   0  0  0  0  0  0  0  0  0  0  0  0
   -0.9065   -0.0398   -1.8845 H   0  0  0  0  0  0  0  0  0  0  0  0
   -1.9562   -2.5997    0.5995 H   0  0  0  0  0  0  0  0  0  0  0  0
   -0.7443   -0.0176    0.9648 H   0  0  0  0  0  0  0  0  0  0  0  0
   -3.3551   -1.7128   -1.2275 H   0  0  0  0  0  0  0  0  0  0  0  0
   -2.6875   -0.0983   -0.9722 H   0  0  0  0  0  0  0  0  0  0  0  0
   -4.2375   -1.8624    1.0216 H   0  0  0  0  0  0  0  0  0  0  0  0
   -3.0651   -0.3177    2.3518 H   0  0  0  0  0  0  0  0  0  0  0  0
   -5.6320   -0.8516    2.5487 H   0  0  0  0  0  0  0  0  0  0  0  0
   -4.8756    0.4993    3.5159 H   0  0  0  0  0  0  0  0  0  0  0  0
   -5.8265    0.8402    2.0181 H   0  0  0  0  0  0  0  0  0  0  0  0
   -3.7885    2.1570    2.1796 H   0  0  0  0  0  0  0  0  0  0  0  0
   -4.0622    1.8765    0.4534 H   0  0  0  0  0  0  0  0  0  0  0  0
   -2.4052    1.6809    1.1828 H   0  0  0  0  0  0  0  0  0  0  0  0
   -6.1585   -0.5763    0.6059 H   0  0  0  0  0  0  0  0  0  0  0  0
   -5.4895   -2.4954   -0.3538 H   0  0  0  0  0  0  0  0  0  0  0  0
   -4.4539    0.6063   -1.5285 H   0  0  0  0  0  0  0  0  0  0  0  0
   -6.6652   -0.1680   -2.5488 H   0  0  0  0  0  0  0  0  0  0  0  0
   -6.1437    1.5231   -2.6688 H   0  0  0  0  0  0  0  0  0  0  0  0
   -9.5504    0.2911   -0.5147 H   0  0  0  0  0  0  0  0  0  0  0  0
   -8.1692   -0.7908   -0.6034 H   0  0  0  0  0  0  0  0  0  0  0  0
   -8.2141    0.5138    0.6953 H   0  0  0  0  0  0  0  0  0  0  0  0
   -9.5782    1.9404   -2.2385 H   0  0  0  0  0  0  0  0  0  0  0  0
   -8.2142    1.7749   -3.3710 H   0  0  0  0  0  0  0  0  0  0  0  0
   -9.0918    0.2719   -2.8427 H   0  0  0  0  0  0  0  0  0  0  0  0
   -7.5662    3.2619   -1.6846 H   0  0  0  0  0  0  0  0  0  0  0  0
   -8.9075    3.6274    0.3222 H   0  0  0  0  0  0  0  0  0  0  0  0
   -6.0772    3.5482   -0.0294 H   0  0  0  0  0  0  0  0  0  0  0  0
   -7.1751    2.8985    1.1371 H   0  0  0  0  0  0  0  0  0  0  0  0
    8.6377    3.8482    1.8104 H   0  0  0  0  0  0  0  0  0  0  0  0
    7.0432    3.0608    1.5890 H   0  0  0  0  0  0  0  0  0  0  0  0
    7.1899    4.8031    2.1476 H   0  0  0  0  0  0  0  0  0  0  0  0
    8.2337    4.1012   -1.7438 H   0  0  0  0  0  0  0  0  0  0  0  0
    9.3158    3.4739   -0.4490 H   0  0  0  0  0  0  0  0  0  0  0  0
    7.5859    1.7602    0.1414 H   0  0  0  0  0  0  0  0  0  0  0  0
    8.1118    1.6411   -1.5746 H   0  0  0  0  0  0  0  0  0  0  0  0
    6.2268    2.9807   -2.2947 H   0  0  0  0  0  0  0  0  0  0  0  0
    5.6524    3.2291   -0.5799 H   0  0  0  0  0  0  0  0  0  0  0  0
    5.7259    1.1789    0.5322 H   0  0  0  0  0  0  0  0  0  0  0  0
    3.4983    1.7791    0.5545 H   0  0  0  0  0  0  0  0  0  0  0  0
    3.0635    0.8140   -0.8686 H   0  0  0  0  0  0  0  0  0  0  0  0
    2.5432    0.2067    1.7761 H   0  0  0  0  0  0  0  0  0  0  0  0
    4.1959   -1.3996    2.5341 H   0  0  0  0  0  0  0  0  0  0  0  0
    4.9177    0.0887    1.9492 H   0  0  0  0  0  0  0  0  0  0  0  0
    6.2725   -1.6184    1.2386 H   0  0  0  0  0  0  0  0  0  0  0  0
    5.0368   -2.5644    0.3902 H   0  0  0  0  0  0  0  0  0  0  0  0
    5.0541   -1.0828   -1.4432 H   0  0  0  0  0  0  0  0  0  0  0  0
    8.2615   -1.0920   -2.3534 H   0  0  0  0  0  0  0  0  0  0  0  0
    6.7889   -2.1388   -2.3355 H   0  0  0  0  0  0  0  0  0  0  0  0
    6.6915   -0.4559   -2.8808 H   0  0  0  0  0  0  0  0  0  0  0  0
    2.7913   -1.3025   -0.8770 H   0  0  0  0  0  0  0  0  0  0  0  0
    1.4514   -0.3790   -0.2495 H   0  0  0  0  0  0  0  0  0  0  0  0
    0.7364   -1.9735    1.3285 H   0  0  0  0  0  0  0  0  0  0  0  0
    1.1247   -4.3486    1.1335 H   0  0  0  0  0  0  0  0  0  0  0  0
    2.3801   -2.7739    2.8720 H   0  0  0  0  0  0  0  0  0  0  0  0
    3.8478   -3.6600    2.1344 H   0  0  0  0  0  0  0  0  0  0  0  0
    2.4226   -4.5298    2.8711 H   0  0  0  0  0  0  0  0  0  0  0  0
    3.5530   -5.0456    0.3233 H   0  0  0  0  0  0  0  0  0  0  0  0
    2.1193   -4.9102   -0.7137 H   0  0  0  0  0  0  0  0  0  0  0  0
    3.2692   -3.5870   -0.7991 H   0  0  0  0  0  0  0  0  0  0  0  0
   -0.0658   -3.7014   -0.2277 H   0  0  0  0  0  0  0  0  0  0  0  0
    1.0221   -3.1275   -1.4841 H   0  0  0  0  0  0  0  0  0  0  0  0
   -1.2218   -2.3295   -1.8036 H   0  0  0  0  0  0  0  0  0  0  0  0
   -0.8454    0.2456   -1.3222 H   0  0  0  0  0  0  0  0  0  0  0  0
   -0.1403   -0.6211   -2.5977 H   0  0  0  0  0  0  0  0  0  0  0  0
   -1.8980   -2.5145    0.6425 H   0  0  0  0  0  0  0  0  0  0  0  0
   -0.6845    0.0852    0.6998 H   0  0  0  0  0  0  0  0  0  0  0  0
   -3.3701   -1.8396   -1.1872 H   0  0  0  0  0  0  0  0  0  0  0  0
   -2.8024   -0.1594   -1.0910 H   0  0  0  0  0  0  0  0  0  0  0  0
   -4.1266   -1.8170    1.1099 H   0  0  0  0  0  0  0  0  0  0  0  0
   -2.9613   -0.1711    2.2595 H   0  0  0  0  0  0  0  0  0  0  0  0
   -4.6451    0.7090    3.4604 H   0  0  0  0  0  0  0  0  0  0  0  0
   -5.7897    0.8727    2.0286 H   0  0  0  0  0  0  0  0  0  0  0  0
   -5.3909   -0.7164    2.7364 H   0  0  0  0  0  0  0  0  0  0  0  0
   -2.3826    1.7514    0.8946 H   0  0  0  0  0  0  0  0  0  0  0  0
   -4.0677    1.8422    0.1765 H   0  0  0  0  0  0  0  0  0  0  0  0
   -3.7532    2.2946    1.8696 H   0  0  0  0  0  0  0  0  0  0  0  0
   -6.1180   -0.6056    0.6982 H   0  0  0  0  0  0  0  0  0  0  0  0
   -6.5413   -1.8533   -1.1890 H   0  0  0  0  0  0  0  0  0  0  0  0
   -4.6473    0.4350   -1.6755 H   0  0  0  0  0  0  0  0  0  0  0  0
   -6.4343    1.3409   -2.6304 H   0  0  0  0  0  0  0  0  0  0  0  0
   -7.0104   -0.2947   -2.3432 H   0  0  0  0  0  0  0  0  0  0  0  0
   -8.3146   -0.7254   -0.1488 H   0  0  0  0  0  0  0  0  0  0  0  0
   -9.5390    0.5406    0.0248 H   0  0  0  0  0  0  0  0  0  0  0  0
   -8.0028    0.7229    0.9851 H   0  0  0  0  0  0  0  0  0  0  0  0
   -9.8126    1.8098   -1.7220 H   0  0  0  0  0  0  0  0  0  0  0  0
   -8.6328    1.7774   -3.0554 H   0  0  0  0  0  0  0  0  0  0  0  0
   -9.3020    0.1964   -2.3510 H   0  0  0  0  0  0  0  0  0  0  0  0
   -8.6708    2.9104   -0.2293 H   0  0  0  0  0  0  0  0  0  0  0  0
   -6.8008    4.1356   -1.5138 H   0  0  0  0  0  0  0  0  0  0  0  0
   -5.9866    3.5150   -0.0022 H   0  0  0  0  0  0  0  0  0  0  0  0
   -7.0564    3.0846    1.2096 H   0  0  0  0  0  0  0  0  0  0  0  0
  1  2  1  0
  2  3  1  0
  3  4  1  0
  4  5  1  0
  5  6  1  0
  6  7  1  0
  7  8  1  0
  8  9  1  0
  9 10  1  0
 10 11  1  0
  7 12  1  0
 11 12  1  0
 12 13  1  0
 13 14  1  0
  9 15  1  0
 15 16  1  0
 16 17  1  0
 17 18  1  0
 17 19  1  0
 16 20  1  0
 20 21  1  0
 21 22  1  0
 21 23  1  0
 23 24  1  0
 23 25  1  0
 25 26  1  0
 26 27  1  0
 27 28  1  0
 27 29  1  0
 26 30  1  0
 30 31  1  0
 30 32  1  0
 32 33  1  0
 34 33  1  0
 34 35  1  0
 34 36  1  0
 34 37  1  0
 37 38  1  0
 37 39  1  0
 40 41  1  0
 41 42  1  0
 42 43  1  0
 43 44  1  0
 44 45  1  0
 45 46  1  0
 46 47  1  0
 47 48  1  0
 48 49  1  0
 49 50  1  0
 46 51  1  0
 50 51  1  0
 51 52  1  0
 52 53  1  0
 48 54  1  0
 54 55  1  0
 55 56  1  0
 56 57  1  0
 56 58  1  0
 55 59  1  0
 59 60  1  0
 60 61  1  0
 60 62  1  0
 62 63  1  0
 62 64  1  0
 64 65  1  0
 65 66  1  0
 66 67  1  0
 66 68  1  0
 65 69  1  0
 69 70  1  0
 69 71  1  0
 71 72  1  0
 73 72  1  0
 73 74  1  0
 73 75  1  0
 73 76  1  0
 76 77  1  0
 76 78  1  0
  1 79  1  0
  1 80  1  0
  1 81  1  0
  3 82  1  0
  3 83  1  0
  4 84  1  0
  4 85  1  0
  5 86  1  0
  5 87  1  0
  7 88  1  0
  8 89  1  0
  8 90  1  0
  9 91  1  0
 10 92  1  0
 10 93  1  0
 11 94  1  0
 11 95  1  0
 12 96  1  0
 14 97  1  0
 14 98  1  0
 14 99  1  0
 15100  1  0
 15101  1  0
 16102  1  1
 17103  1  0
 18104  1  0
 18105  1  0
 18106  1  0
 19107  1  0
 19108  1  0
 19109  1  0
 20110  1  0
 20111  1  0
 21112  1  6
 22113  1  0
 22114  1  0
 23115  1  1
 24116  1  0
 25117  1  0
 25118  1  0
 26119  1  1
 27120  1  0
 28121  1  0
 28122  1  0
 28123  1  0
 29124  1  0
 29125  1  0
 29126  1  0
 30127  1  0
 31128  1  0
 32129  1  0
 33130  1  0
 33131  1  0
 35132  1  0
 35133  1  0
 35134  1  0
 36135  1  0
 36136  1  0
 36137  1  0
 37138  1  6
 38139  1  0
 39140  1  0
 39141  1  0
 40142  1  0
 40143  1  0
 40144  1  0
 42145  1  0
 42146  1  0
 43147  1  0
 43148  1  0
 44149  1  0
 44150  1  0
 46151  1  0
 47152  1  0
 47153  1  0
 48154  1  1
 49155  1  0
 49156  1  0
 50157  1  0
 50158  1  0
 51159  1  0
 53160  1  0
 53161  1  0
 53162  1  0
 54163  1  0
 54164  1  0
 55165  1  1
 56166  1  0
 57167  1  0
 57168  1  0
 57169  1  0
 58170  1  0
 58171  1  0
 58172  1  0
 59173  1  0
 59174  1  0
 60175  1  6
 61176  1  0
 61177  1  0
 62178  1  1
 63179  1  0
 64180  1  0
 64181  1  0
 65182  1  1
 66183  1  0
 67184  1  0
 67185  1  0
 67186  1  0
 68187  1  0
 68188  1  0
 68189  1  0
 69190  1  0
 70191  1  0
 71192  1  0
 72193  1  0
 72194  1  0
 74195  1  0
 74196  1  0
 74197  1  0
 75198  1  0
 75199  1  0
 75200  1  0
 76201  1  0
 77202  1  0
 78203  1  0
 78204  1  0
M  END
>  <PDBID>  (1) 
2V0Z

>  <PDB ID>  (1) 
2V0Z

>  <Generic Name>  (1) 
Aliskiren

>  <Brand Name>  (1) 
Amturnide#Rasilez#Rasilez Hct#Sandoz Aliskiren#Tekamlo#Tekturna#Tekturna Hct

>  <DrugBank ID>  (1) 
DB09026

>  <ATC Codes>  (1) 
C09DX02#C09XA02#C09XA52#C09XA53#C09XA54

>  <Ligand ID>  (1) 
C41

>  <Target Name>  (1) 
Renin

>  <UniProt ID>  (1) 
P00797

>  <PDB ID.1>  (1) 
2V0Z

>  <Seq. Identity>  (1) 
100%

$$$$
