PDB_DB00215_07
     RDKit          3D

 61 63  0  0  0  0  0  0  0  0999 V2000
   -0.0787    2.2390   -0.6505 C   0  0  0  0  0  0  0  0  0  0  0  0
    0.6237   -1.0696   -1.4839 C   0  0  0  0  0  0  0  0  0  0  0  0
   -1.2139    3.0979   -0.0713 C   0  0  0  0  0  0  0  0  0  0  0  0
    1.2060   -2.4214   -1.1054 C   0  0  0  0  0  0  0  0  0  0  0  0
    1.1467    3.9071    0.7793 C   0  0  0  0  0  0  0  0  0  0  0  0
    0.1346    5.0206    0.5480 C   0  0  0  0  0  0  0  0  0  0  0  0
   -4.9686   -2.7037    1.2056 C   0  0  0  0  0  0  0  0  0  0  0  0
    3.5917   -2.1847   -1.6505 C   0  0  0  0  0  0  0  0  0  0  0  0
    0.7566    6.1046   -0.0164 F   0  0  0  0  0  0  0  0  0  0  0  0
    0.2260    1.1323    1.3800 O   0  0  0  0  0  0  0  0  0  0  0  0
   -3.5285   -2.4753    1.2796 N   0  0  0  0  0  0  0  0  0  0  0  0
    4.9409   -2.0747   -1.1513 N   0  0  0  0  0  0  0  0  0  0  0  0
   -0.0732    0.8715    0.0381 C   0  0  1  0  0  0  0  0  0  0  0  0
   -1.5095    0.4220    0.0535 C   0  0  0  0  0  0  0  0  0  0  0  0
    0.9308   -0.0466   -0.4701 C   0  0  0  0  0  0  0  0  0  0  0  0
    1.4062   -0.7035    0.8079 C   0  0  0  0  0  0  0  0  0  0  0  0
   -1.7584   -0.9101    0.7078 C   0  0  0  0  0  0  0  0  0  0  0  0
    1.3918    0.4943    1.7020 C   0  0  0  0  0  0  0  0  0  0  0  0
   -3.2744   -1.2016    0.6562 C   0  0  0  0  0  0  0  0  0  0  0  0
    2.7638   -1.2636    0.5276 C   0  0  0  0  0  0  0  0  0  0  0  0
    1.1756    3.0175   -0.4760 C   0  0  0  0  0  0  0  0  0  0  0  0
    2.5790   -2.3112   -0.5349 C   0  0  0  0  0  0  0  0  0  0  0  0
   -0.9293    4.5322   -0.4438 C   0  0  0  0  0  0  0  0  0  0  0  0
   -2.8978   -3.5170    0.4653 C   0  0  0  0  0  0  0  0  0  0  0  0
   -0.3039    2.1399   -1.7303 H   0  0  0  0  0  0  0  0  0  0  0  0
    1.2325   -0.8028   -2.4136 H   0  0  0  0  0  0  0  0  0  0  0  0
   -0.3862   -1.1556   -1.8604 H   0  0  0  0  0  0  0  0  0  0  0  0
   -2.1623    2.7379   -0.5494 H   0  0  0  0  0  0  0  0  0  0  0  0
   -1.3262    2.9992    1.0038 H   0  0  0  0  0  0  0  0  0  0  0  0
    1.3281   -3.0232   -2.0628 H   0  0  0  0  0  0  0  0  0  0  0  0
    0.5228   -3.0468   -0.5053 H   0  0  0  0  0  0  0  0  0  0  0  0
    2.1440    4.3842    0.8557 H   0  0  0  0  0  0  0  0  0  0  0  0
    0.9586    3.3519    1.6929 H   0  0  0  0  0  0  0  0  0  0  0  0
   -0.4006    5.2475    1.4834 H   0  0  0  0  0  0  0  0  0  0  0  0
   -5.4745   -1.7338    1.4151 H   0  0  0  0  0  0  0  0  0  0  0  0
   -5.2946   -3.5146    1.8677 H   0  0  0  0  0  0  0  0  0  0  0  0
   -5.2418   -2.9827    0.1687 H   0  0  0  0  0  0  0  0  0  0  0  0
    3.5331   -3.1178   -2.2490 H   0  0  0  0  0  0  0  0  0  0  0  0
    3.3552   -1.3522   -2.3436 H   0  0  0  0  0  0  0  0  0  0  0  0
    5.5586   -1.8197   -1.9525 H   0  0  0  0  0  0  0  0  0  0  0  0
    5.2725   -2.9955   -0.7863 H   0  0  0  0  0  0  0  0  0  0  0  0
   -1.9840    0.4051   -0.9347 H   0  0  0  0  0  0  0  0  0  0  0  0
   -2.1235    1.1524    0.6678 H   0  0  0  0  0  0  0  0  0  0  0  0
    1.8353    0.5736   -0.7866 H   0  0  0  0  0  0  0  0  0  0  0  0
    0.7794   -1.4869    1.2023 H   0  0  0  0  0  0  0  0  0  0  0  0
   -1.4967   -0.9010    1.7913 H   0  0  0  0  0  0  0  0  0  0  0  0
   -1.3278   -1.7781    0.1805 H   0  0  0  0  0  0  0  0  0  0  0  0
    2.2908    1.0932    1.4887 H   0  0  0  0  0  0  0  0  0  0  0  0
    1.3286    0.2201    2.7857 H   0  0  0  0  0  0  0  0  0  0  0  0
   -3.5219   -1.2835   -0.4221 H   0  0  0  0  0  0  0  0  0  0  0  0
   -3.8569   -0.3778    1.0658 H   0  0  0  0  0  0  0  0  0  0  0  0
    3.3788   -0.4369    0.0678 H   0  0  0  0  0  0  0  0  0  0  0  0
    3.2702   -1.6452    1.4348 H   0  0  0  0  0  0  0  0  0  0  0  0
    1.3012    3.7695   -1.3158 H   0  0  0  0  0  0  0  0  0  0  0  0
    2.1137    2.4774   -0.4574 H   0  0  0  0  0  0  0  0  0  0  0  0
    2.7990   -3.2897   -0.0338 H   0  0  0  0  0  0  0  0  0  0  0  0
   -1.8427    5.1407   -0.3888 H   0  0  0  0  0  0  0  0  0  0  0  0
   -0.5678    4.5560   -1.4798 H   0  0  0  0  0  0  0  0  0  0  0  0
   -3.4992   -4.4632    0.5557 H   0  0  0  0  0  0  0  0  0  0  0  0
   -2.9476   -3.2377   -0.5995 H   0  0  0  0  0  0  0  0  0  0  0  0
   -1.8855   -3.7599    0.8220 H   0  0  0  0  0  0  0  0  0  0  0  0
  1  3  1  0
  2  4  1  0
  5  6  1  0
  6  9  1  0
  7 11  1  0
  8 12  1  0
  1 13  1  0
 10 13  1  0
 13 14  1  1
  2 15  1  0
 13 15  1  0
 15 16  1  0
 14 17  1  0
 10 18  1  0
 16 18  1  0
 11 19  1  0
 17 19  1  0
 16 20  1  0
  1 21  1  0
  5 21  1  0
  4 22  1  0
  8 22  1  0
 20 22  1  0
  3 23  1  0
  6 23  1  0
 11 24  1  0
  1 25  1  0
  2 26  1  0
  2 27  1  0
  3 28  1  0
  3 29  1  0
  4 30  1  0
  4 31  1  0
  5 32  1  0
  5 33  1  0
  6 34  1  0
  7 35  1  0
  7 36  1  0
  7 37  1  0
  8 38  1  0
  8 39  1  0
 12 40  1  0
 12 41  1  0
 14 42  1  0
 14 43  1  0
 15 44  1  0
 16 45  1  0
 17 46  1  0
 17 47  1  0
 18 48  1  0
 18 49  1  0
 19 50  1  0
 19 51  1  0
 20 52  1  0
 20 53  1  0
 21 54  1  0
 21 55  1  0
 22 56  1  0
 23 57  1  0
 23 58  1  0
 24 59  1  0
 24 60  1  0
 24 61  1  0
M  END
>  <PDBID>  (1) 
5I71

>  <PDB ID>  (1) 
5I71

>  <Generic Name>  (1) 
Citalopram

>  <Brand Name>  (1) 
Abbott-citalopram#Accel-citalopram Tablets#Act Citalopram#Ag-citalopram#Apo-citalopram#Auro-citalopram#Ava-citalopram#Bio-citalopram#Celexa#Celexa 10 mg#Celexa 20 mg#Celexa 40 mg#Citalopram#Citalopram Hydrobromide#Citalopram Tablets#Citalopram Tablets USP#Citalopram-10#Citalopram-20#Citalopram-40#Citalopram-odan#Ctp 30#Dom-citalopram#Ecl-citalopram#Ipg-citalopram#Jamp-citalopram#Manda-citalopram#Mar-citalopram#Mint-citalopram#Mylan-citalopram#Nat-citalopram#Nat-citalopram Tablets#Ng Citalopram#Novo-citalopram#Ntp-citalopram#Nu-citalopram#PHL-citalopram#PMS-citalopram#Pendo-citalopram#Perrigo Citalopram#Priva-citalopram#Q-citalopram#Ran-citalo#Ran-citalopram#Ratio-citalopram#Riva-citalopram#Sandoz Citalopram#Sentralopram Am-10#Septa-citalopram#Teva-citalopram#Van-citalopram#Akarin#Celapram#Ciazil#Cilift#Cipram#Cipramil#Ciprapine#Citabax#Citalec#Citol#Citopam#Citox#Citrol#Dalsan#Elopram#Humorup#Oropram#Pramcit#Recital#Seropram#Talam#Talohexal#Temperax#Vodelax#Zentius#Zetalo

>  <DrugBank ID>  (1) 
DB00215

>  <ATC Codes>  (1) 
N06AB04

>  <Ligand ID>  (1) 
68P

>  <Target Name>  (1) 
Sodium-dependent serotonin transporter

>  <UniProt ID>  (1) 
P31645

>  <PDB ID.1>  (1) 
5I71

>  <Seq. Identity>  (1) 
99%

$$$$
