PDB_DB01092_04
     RDKit          3D

178188  0  0  0  0  0  0  0  0999 V2000
    1.0793    1.2937    0.2069 C   0  0  2  0  0  0  0  0  0  0  0  0
    2.4656    1.3712   -0.3082 C   0  0  0  0  0  0  0  0  0  0  0  0
    3.2146    0.1391    0.1248 C   0  0  1  0  0  0  0  0  0  0  0  0
    2.3638   -0.9114    0.7104 C   0  0  0  0  0  0  0  0  0  0  0  0
    0.9815   -1.1013    0.1883 C   0  0  1  0  0  0  0  0  0  0  0  0
    0.2467   -1.7540    1.3269 C   0  0  0  0  0  0  0  0  0  0  0  0
   -1.2049   -1.9658    1.1622 C   0  0  0  0  0  0  0  0  0  0  0  0
   -1.7323   -1.1614   -0.0465 C   0  0  2  0  0  0  0  0  0  0  0  0
   -1.1569    0.1903    0.0995 C   0  0  1  0  0  0  0  0  0  0  0  0
    0.3132    0.1524   -0.3512 C   0  0  1  0  0  0  0  0  0  0  0  0
   -1.9414    1.3060   -0.4362 C   0  0  1  0  0  0  0  0  0  0  0  0
   -3.1650    0.9452   -1.2063 C   0  0  0  0  0  0  0  0  0  0  0  0
   -3.9978   -0.1771   -0.6605 C   0  0  1  0  0  0  0  0  0  0  0  0
   -3.1827   -1.3366   -0.1612 C   0  0  2  0  0  0  0  0  0  0  0  0
   -3.9129   -1.7242    1.1002 C   0  0  0  0  0  0  0  0  0  0  0  0
   -4.2206   -0.4094    1.7187 C   0  0  0  0  0  0  0  0  0  0  0  0
   -4.8401    0.2969    0.5027 C   0  0  2  0  0  0  0  0  0  0  0  0
   -4.8351   -0.6207   -1.8511 C   0  0  0  0  0  0  0  0  0  0  0  0
    0.3088    0.0925   -1.8555 C   0  0  0  0  0  0  0  0  0  0  0  0
   -6.2957    0.0415    0.3905 C   0  0  1  0  0  0  0  0  0  0  0  0
   -7.0912    0.4842    1.5962 C   0  0  0  0  0  0  0  0  0  0  0  0
   -6.8843    0.9669   -0.6534 C   0  0  0  0  0  0  0  0  0  0  0  0
   -7.6192    2.0159    0.2014 C   0  0  0  0  0  0  0  0  0  0  0  0
    5.4414   -0.1883   -0.4899 C   0  0  2  0  0  0  0  0  0  0  0  0
    6.2168   -1.4766   -0.4377 C   0  0  1  0  0  0  0  0  0  0  0  0
    7.5088   -1.1680    0.3297 C   0  0  1  0  0  0  0  0  0  0  0  0
    8.1752    0.0753   -0.1546 C   0  0  2  0  0  0  0  0  0  0  0  0
    7.2378    1.1432   -0.6025 C   0  0  2  0  0  0  0  0  0  0  0  0
    6.7235    2.0128    0.5180 C   0  0  0  0  0  0  0  0  0  0  0  0
    0.4238    2.5232    0.1957 O   0  0  0  0  0  0  0  0  0  0  0  0
    4.1301   -0.3176   -0.8411 O   0  0  0  0  0  0  0  0  0  0  0  0
    1.0585   -2.0828   -0.8311 O   0  0  0  0  0  0  0  0  0  0  0  0
   -2.3680    2.2251    0.5599 O   0  0  0  0  0  0  0  0  0  0  0  0
   -3.4137   -2.4563   -1.0059 O   0  0  0  0  0  0  0  0  0  0  0  0
    1.5552   -0.0591   -2.4397 O   0  0  0  0  0  0  0  0  0  0  0  0
   -7.0550    1.8495    1.4912 O   0  0  0  0  0  0  0  0  0  0  0  0
   -7.4214    3.2926   -0.2825 O   0  0  0  0  0  0  0  0  0  0  0  0
    5.5777   -2.4920    0.2460 O   0  0  0  0  0  0  0  0  0  0  0  0
    7.2177   -1.0024    1.6990 O   0  0  0  0  0  0  0  0  0  0  0  0
    9.0955   -0.1597   -1.1854 O   0  0  0  0  0  0  0  0  0  0  0  0
    6.1566    0.6765   -1.3190 O   0  0  0  0  0  0  0  0  0  0  0  0
    0.9558    1.2305   -0.1255 C   0  0  2  0  0  0  0  0  0  0  0  0
    2.3800    1.3174   -0.4969 C   0  0  0  0  0  0  0  0  0  0  0  0
    3.1469    0.1791    0.1060 C   0  0  1  0  0  0  0  0  0  0  0  0
    2.2812   -0.8181    0.7516 C   0  0  0  0  0  0  0  0  0  0  0  0
    0.9739   -1.1514    0.1360 C   0  0  1  0  0  0  0  0  0  0  0  0
    0.1635   -1.7146    1.2865 C   0  0  0  0  0  0  0  0  0  0  0  0
   -1.2173   -2.1389    0.9515 C   0  0  0  0  0  0  0  0  0  0  0  0
   -1.7465   -1.3781   -0.2864 C   0  0  2  0  0  0  0  0  0  0  0  0
   -1.2192   -0.0019   -0.1912 C   0  0  1  0  0  0  0  0  0  0  0  0
    0.2713    0.0047   -0.5725 C   0  0  1  0  0  0  0  0  0  0  0  0
   -1.9719    1.0749   -0.8304 C   0  0  1  0  0  0  0  0  0  0  0  0
   -3.2999    0.6971   -1.4238 C   0  0  0  0  0  0  0  0  0  0  0  0
   -4.0448   -0.3805   -0.7309 C   0  0  1  0  0  0  0  0  0  0  0  0
   -3.1886   -1.6011   -0.4597 C   0  0  2  0  0  0  0  0  0  0  0  0
   -3.9395   -2.2362    0.6578 C   0  0  0  0  0  0  0  0  0  0  0  0
   -4.4759   -1.1661    1.5175 C   0  0  0  0  0  0  0  0  0  0  0  0
   -4.6257    0.0084    0.6042 C   0  0  2  0  0  0  0  0  0  0  0  0
   -5.1680   -0.7877   -1.7025 C   0  0  0  0  0  0  0  0  0  0  0  0
    0.3540   -0.1589   -2.0644 C   0  0  0  0  0  0  0  0  0  0  0  0
   -6.0436    0.4938    0.5676 C   0  0  0  0  0  0  0  0  0  0  0  0
   -6.5362    0.7988    1.9981 C   0  0  0  0  0  0  0  0  0  0  0  0
   -6.1974    1.8912    0.0008 C   0  0  0  0  0  0  0  0  0  0  0  0
   -7.4665    2.3493    0.6900 C   0  0  0  0  0  0  0  0  0  0  0  0
    5.4077   -0.1551   -0.3538 C   0  0  2  0  0  0  0  0  0  0  0  0
    6.2021   -1.4161   -0.1314 C   0  0  1  0  0  0  0  0  0  0  0  0
    7.4864   -1.0423    0.5595 C   0  0  1  0  0  0  0  0  0  0  0  0
    8.1589    0.1595   -0.0106 C   0  0  2  0  0  0  0  0  0  0  0  0
    7.1857    1.1937   -0.5305 C   0  0  2  0  0  0  0  0  0  0  0  0
    6.7082    2.1170    0.5530 C   0  0  0  0  0  0  0  0  0  0  0  0
    0.3580    2.4245   -0.5158 O   0  0  0  0  0  0  0  0  0  0  0  0
    4.1169   -0.3585   -0.7584 O   0  0  0  0  0  0  0  0  0  0  0  0
    1.1561   -2.2257   -0.7629 O   0  0  0  0  0  0  0  0  0  0  0  0
   -2.2672    2.1127    0.0993 O   0  0  0  0  0  0  0  0  0  0  0  0
   -3.3559   -2.4710   -1.5713 O   0  0  0  0  0  0  0  0  0  0  0  0
    1.6548   -0.2821   -2.5562 O   0  0  0  0  0  0  0  0  0  0  0  0
   -7.6084    1.6397    1.8478 O   0  0  0  0  0  0  0  0  0  0  0  0
   -7.5201    3.7104    0.8818 O   0  0  0  0  0  0  0  0  0  0  0  0
    5.5483   -2.3498    0.6561 O   0  0  0  0  0  0  0  0  0  0  0  0
    7.3502   -0.9039    1.9315 O   0  0  0  0  0  0  0  0  0  0  0  0
    9.0799   -0.1841   -1.0255 O   0  0  0  0  0  0  0  0  0  0  0  0
    6.1451    0.6281   -1.2418 O   0  0  0  0  0  0  0  0  0  0  0  0
    1.1827    1.0671    1.3223 H   0  0  0  0  0  0  0  0  0  0  0  0
    2.9125    2.3006    0.1932 H   0  0  0  0  0  0  0  0  0  0  0  0
    2.6188    1.5579   -1.3631 H   0  0  0  0  0  0  0  0  0  0  0  0
    3.9032    0.4967    0.9589 H   0  0  0  0  0  0  0  0  0  0  0  0
    2.9207   -1.8898    0.5828 H   0  0  0  0  0  0  0  0  0  0  0  0
    2.3555   -0.8001    1.8401 H   0  0  0  0  0  0  0  0  0  0  0  0
    0.5238   -1.1968    2.2537 H   0  0  0  0  0  0  0  0  0  0  0  0
    0.7274   -2.7670    1.4485 H   0  0  0  0  0  0  0  0  0  0  0  0
   -1.4939   -3.0047    0.9864 H   0  0  0  0  0  0  0  0  0  0  0  0
   -1.6973   -1.5249    2.0652 H   0  0  0  0  0  0  0  0  0  0  0  0
   -1.2282   -1.6769   -0.8996 H   0  0  0  0  0  0  0  0  0  0  0  0
   -1.0271    0.4037    1.2118 H   0  0  0  0  0  0  0  0  0  0  0  0
   -1.3442    1.9404   -1.1207 H   0  0  0  0  0  0  0  0  0  0  0  0
   -3.8061    1.8451   -1.2731 H   0  0  0  0  0  0  0  0  0  0  0  0
   -2.8692    0.7118   -2.2697 H   0  0  0  0  0  0  0  0  0  0  0  0
   -4.9101   -2.1540    0.7806 H   0  0  0  0  0  0  0  0  0  0  0  0
   -3.4495   -2.4769    1.7099 H   0  0  0  0  0  0  0  0  0  0  0  0
   -3.3671    0.1774    2.0507 H   0  0  0  0  0  0  0  0  0  0  0  0
   -4.9076   -0.4582    2.5780 H   0  0  0  0  0  0  0  0  0  0  0  0
   -4.6379    1.3980    0.6577 H   0  0  0  0  0  0  0  0  0  0  0  0
   -5.7856   -1.0772   -1.5940 H   0  0  0  0  0  0  0  0  0  0  0  0
   -4.2446   -1.4575   -2.3424 H   0  0  0  0  0  0  0  0  0  0  0  0
   -4.8843    0.1410   -2.6592 H   0  0  0  0  0  0  0  0  0  0  0  0
   -0.3398   -0.6735   -2.2942 H   0  0  0  0  0  0  0  0  0  0  0  0
   -0.0749    1.0613   -2.3027 H   0  0  0  0  0  0  0  0  0  0  0  0
   -6.5635   -1.0218    0.2468 H   0  0  0  0  0  0  0  0  0  0  0  0
   -6.8476    0.0326    2.5365 H   0  0  0  0  0  0  0  0  0  0  0  0
   -8.1520    0.1796    1.3652 H   0  0  0  0  0  0  0  0  0  0  0  0
   -6.1469    1.5068   -1.2401 H   0  0  0  0  0  0  0  0  0  0  0  0
   -7.6305    0.4094   -1.2660 H   0  0  0  0  0  0  0  0  0  0  0  0
   -8.6866    1.7326    0.2864 H   0  0  0  0  0  0  0  0  0  0  0  0
    5.5038    0.2675    0.5291 H   0  0  0  0  0  0  0  0  0  0  0  0
    6.5011   -1.8583   -1.4256 H   0  0  0  0  0  0  0  0  0  0  0  0
    8.1897   -2.0301    0.2588 H   0  0  0  0  0  0  0  0  0  0  0  0
    8.7753    0.4832    0.7080 H   0  0  0  0  0  0  0  0  0  0  0  0
    7.8151    1.8306   -1.2856 H   0  0  0  0  0  0  0  0  0  0  0  0
    7.2866    2.9814    0.5946 H   0  0  0  0  0  0  0  0  0  0  0  0
    5.6535    2.3170    0.3555 H   0  0  0  0  0  0  0  0  0  0  0  0
    6.7765    1.5330    1.4997 H   0  0  0  0  0  0  0  0  0  0  0  0
    0.9851    3.2389   -0.2104 H   0  0  0  0  0  0  0  0  0  0  0  0
    1.7842   -2.7182   -0.6529 H   0  0  0  0  0  0  0  0  0  0  0  0
   -1.9545    1.9863    1.4203 H   0  0  0  0  0  0  0  0  0  0  0  0
   -2.6062   -2.6375   -1.5545 H   0  0  0  0  0  0  0  0  0  0  0  0
    1.7118   -0.9775   -2.7859 H   0  0  0  0  0  0  0  0  0  0  0  0
   -6.5613    3.6604    0.0184 H   0  0  0  0  0  0  0  0  0  0  0  0
    5.3229   -2.2674    1.1640 H   0  0  0  0  0  0  0  0  0  0  0  0
    7.2177   -1.8598    2.1769 H   0  0  0  0  0  0  0  0  0  0  0  0
    9.3944    0.7384   -1.4998 H   0  0  0  0  0  0  0  0  0  0  0  0
    0.9244    1.2088    1.0145 H   0  0  0  0  0  0  0  0  0  0  0  0
    2.7445    2.3172   -0.0483 H   0  0  0  0  0  0  0  0  0  0  0  0
    2.6460    1.4196   -1.5444 H   0  0  0  0  0  0  0  0  0  0  0  0
    3.7788    0.6435    0.9297 H   0  0  0  0  0  0  0  0  0  0  0  0
    2.8660   -1.7864    0.8023 H   0  0  0  0  0  0  0  0  0  0  0  0
    2.1612   -0.5548    1.8474 H   0  0  0  0  0  0  0  0  0  0  0  0
    0.1409   -0.8925    2.0608 H   0  0  0  0  0  0  0  0  0  0  0  0
    0.7859   -2.5082    1.7350 H   0  0  0  0  0  0  0  0  0  0  0  0
   -1.2947   -3.2088    0.6945 H   0  0  0  0  0  0  0  0  0  0  0  0
   -1.8330   -1.9594    1.8412 H   0  0  0  0  0  0  0  0  0  0  0  0
   -1.1774   -1.8974   -1.1055 H   0  0  0  0  0  0  0  0  0  0  0  0
   -1.1739    0.2291    0.9309 H   0  0  0  0  0  0  0  0  0  0  0  0
   -1.4665    1.6173   -1.6526 H   0  0  0  0  0  0  0  0  0  0  0  0
   -3.9392    1.6006   -1.4826 H   0  0  0  0  0  0  0  0  0  0  0  0
   -3.1697    0.3805   -2.5011 H   0  0  0  0  0  0  0  0  0  0  0  0
   -4.8367   -2.7585    0.1994 H   0  0  0  0  0  0  0  0  0  0  0  0
   -3.4101   -3.0509    1.1728 H   0  0  0  0  0  0  0  0  0  0  0  0
   -3.8617   -0.8539    2.3806 H   0  0  0  0  0  0  0  0  0  0  0  0
   -5.4410   -1.5074    1.9513 H   0  0  0  0  0  0  0  0  0  0  0  0
   -4.0253    0.8866    0.9813 H   0  0  0  0  0  0  0  0  0  0  0  0
   -5.9186   -1.4181   -1.2326 H   0  0  0  0  0  0  0  0  0  0  0  0
   -4.6493   -1.4419   -2.4659 H   0  0  0  0  0  0  0  0  0  0  0  0
   -5.5381    0.0583   -2.2939 H   0  0  0  0  0  0  0  0  0  0  0  0
   -0.2299   -0.9716   -2.4963 H   0  0  0  0  0  0  0  0  0  0  0  0
   -0.0269    0.7658   -2.6015 H   0  0  0  0  0  0  0  0  0  0  0  0
   -6.7762   -0.1760    0.1342 H   0  0  0  0  0  0  0  0  0  0  0  0
   -5.7632    1.3015    2.5861 H   0  0  0  0  0  0  0  0  0  0  0  0
   -6.9123   -0.1452    2.4709 H   0  0  0  0  0  0  0  0  0  0  0  0
   -5.3694    2.5034    0.4351 H   0  0  0  0  0  0  0  0  0  0  0  0
   -6.2640    1.9447   -1.0826 H   0  0  0  0  0  0  0  0  0  0  0  0
   -8.3287    2.0631    0.0189 H   0  0  0  0  0  0  0  0  0  0  0  0
    5.4018    0.4071    0.6034 H   0  0  0  0  0  0  0  0  0  0  0  0
    6.4751   -1.9212   -1.0798 H   0  0  0  0  0  0  0  0  0  0  0  0
    8.1859   -1.9135    0.4068 H   0  0  0  0  0  0  0  0  0  0  0  0
    8.7577    0.6469    0.7864 H   0  0  0  0  0  0  0  0  0  0  0  0
    7.7736    1.8284   -1.2509 H   0  0  0  0  0  0  0  0  0  0  0  0
    7.3165    3.0541    0.5854 H   0  0  0  0  0  0  0  0  0  0  0  0
    5.6577    2.4565    0.4041 H   0  0  0  0  0  0  0  0  0  0  0  0
    6.8391    1.6497    1.5544 H   0  0  0  0  0  0  0  0  0  0  0  0
    0.9090    3.1591   -0.1769 H   0  0  0  0  0  0  0  0  0  0  0  0
    1.8885   -2.8073   -0.5043 H   0  0  0  0  0  0  0  0  0  0  0  0
   -1.8723    1.9195    0.9886 H   0  0  0  0  0  0  0  0  0  0  0  0
   -2.5916   -2.3387   -2.1794 H   0  0  0  0  0  0  0  0  0  0  0  0
    1.8631   -1.2225   -2.8174 H   0  0  0  0  0  0  0  0  0  0  0  0
   -7.7477    4.1922    0.0419 H   0  0  0  0  0  0  0  0  0  0  0  0
    5.1601   -1.9912    1.4770 H   0  0  0  0  0  0  0  0  0  0  0  0
    6.4712   -0.6230    2.2320 H   0  0  0  0  0  0  0  0  0  0  0  0
    9.6783    0.5862   -1.1956 H   0  0  0  0  0  0  0  0  0  0  0  0
  1  2  1  0
  2  3  1  0
  3  4  1  0
  4  5  1  0
  5  6  1  0
  6  7  1  0
  7  8  1  0
  8  9  1  0
  1 10  1  0
  5 10  1  0
  9 10  1  0
  9 11  1  0
 11 12  1  0
 12 13  1  0
  8 14  1  0
 13 14  1  0
 14 15  1  0
 15 16  1  0
 13 17  1  0
 16 17  1  0
 13 18  1  6
 10 19  1  6
 17 20  1  0
 20 21  1  0
 20 22  1  0
 22 23  1  0
 24 25  1  0
 25 26  1  0
 26 27  1  0
 27 28  1  0
 28 29  1  0
  1 30  1  0
  3 31  1  0
 24 31  1  0
  5 32  1  6
 11 33  1  0
 14 34  1  6
 19 35  1  0
 21 36  1  0
 23 36  1  0
 23 37  1  0
 25 38  1  0
 26 39  1  0
 27 40  1  0
 24 41  1  0
 28 41  1  0
 42 43  1  0
 43 44  1  0
 44 45  1  0
 45 46  1  0
 46 47  1  0
 47 48  1  0
 48 49  1  0
 49 50  1  0
 42 51  1  0
 46 51  1  0
 50 51  1  0
 50 52  1  0
 52 53  1  0
 53 54  1  0
 49 55  1  0
 54 55  1  0
 55 56  1  0
 56 57  1  0
 54 58  1  0
 57 58  1  0
 54 59  1  6
 51 60  1  6
 58 61  1  0
 61 62  1  0
 61 63  1  0
 63 64  1  0
 65 66  1  0
 66 67  1  0
 67 68  1  0
 68 69  1  0
 69 70  1  0
 42 71  1  0
 44 72  1  0
 65 72  1  0
 46 73  1  6
 52 74  1  0
 55 75  1  6
 60 76  1  0
 62 77  1  0
 64 77  1  0
 64 78  1  0
 66 79  1  0
 67 80  1  0
 68 81  1  0
 65 82  1  0
 69 82  1  0
  1 83  1  1
  2 84  1  0
  2 85  1  0
  3 86  1  1
  4 87  1  0
  4 88  1  0
  6 89  1  0
  6 90  1  0
  7 91  1  0
  7 92  1  0
  8 93  1  6
  9 94  1  1
 11 95  1  6
 12 96  1  0
 12 97  1  0
 15 98  1  0
 15 99  1  0
 16100  1  0
 16101  1  0
 17102  1  1
 18103  1  0
 18104  1  0
 18105  1  0
 19106  1  0
 19107  1  0
 20108  1  6
 21109  1  0
 21110  1  0
 22111  1  0
 22112  1  0
 23113  1  0
 24114  1  1
 25115  1  6
 26116  1  1
 27117  1  1
 28118  1  6
 29119  1  0
 29120  1  0
 29121  1  0
 30122  1  0
 32123  1  0
 33124  1  0
 34125  1  0
 35126  1  0
 37127  1  0
 38128  1  0
 39129  1  0
 40130  1  0
 42131  1  1
 43132  1  0
 43133  1  0
 44134  1  1
 45135  1  0
 45136  1  0
 47137  1  0
 47138  1  0
 48139  1  0
 48140  1  0
 49141  1  6
 50142  1  1
 52143  1  6
 53144  1  0
 53145  1  0
 56146  1  0
 56147  1  0
 57148  1  0
 57149  1  0
 58150  1  1
 59151  1  0
 59152  1  0
 59153  1  0
 60154  1  0
 60155  1  0
 61156  1  0
 62157  1  0
 62158  1  0
 63159  1  0
 63160  1  0
 64161  1  0
 65162  1  1
 66163  1  6
 67164  1  1
 68165  1  1
 69166  1  6
 70167  1  0
 70168  1  0
 70169  1  0
 71170  1  0
 73171  1  0
 74172  1  0
 75173  1  0
 76174  1  0
 78175  1  0
 79176  1  0
 80177  1  0
 81178  1  0
M  END
>  <PDBID>  (1) 
3N23

>  <PDB ID>  (1) 
3N23

>  <Generic Name>  (1) 
Ouabain

>  <Brand Name>  (1) 
Strodival

>  <DrugBank ID>  (1) 
DB01092

>  <ATC Codes>  (1) 
C01AC01

>  <Ligand ID>  (1) 
OBN

>  <Target Name>  (1) 
Sodium/potassium-transporting ATPase subunit alpha-1

>  <UniProt ID>  (1) 
P05023

>  <PDB ID.1>  (1) 
3N23

>  <Seq. Identity>  (1) 
95%

$$$$
