PDB_DB00282_01
     RDKit          3D

 28 27  0  0  0  0  0  0  0  0999 V2000
    0.1008    1.3121   -0.4782 P   0  0  0  0  0  0  0  0  0  0  0  0
    1.3860    1.9807    0.3716 O   0  0  0  0  0  0  0  0  0  0  0  0
   -0.8256    1.8657    0.6205 O   0  0  0  0  0  0  0  0  0  0  0  0
   -0.6630    2.1465   -1.6825 O   0  0  0  0  0  0  0  0  0  0  0  0
   -0.3421   -0.3362   -0.1982 C   0  0  0  0  0  0  0  0  0  0  0  0
   -1.9766   -0.5258    0.4309 P   0  0  0  0  0  0  0  0  0  0  0  0
   -2.5277    0.3859    1.6656 O   0  0  0  0  0  0  0  0  0  0  0  0
   -1.7563   -1.7631    1.2962 O   0  0  0  0  0  0  0  0  0  0  0  0
   -3.0648   -1.4671   -0.4569 O   0  0  0  0  0  0  0  0  0  0  0  0
   -0.4193   -1.1399   -1.4039 O   0  0  0  0  0  0  0  0  0  0  0  0
    0.7367   -1.0502    0.5714 C   0  0  0  0  0  0  0  0  0  0  0  0
    2.0662   -1.1785   -0.0388 C   0  0  0  0  0  0  0  0  0  0  0  0
    2.8030   -0.0165   -0.3667 N   0  0  0  0  0  0  0  0  0  0  0  0
    1.0090    1.0644   -1.3493 H   0  0  0  0  0  0  0  0  0  0  0  0
    1.4378    2.9117    0.1348 H   0  0  0  0  0  0  0  0  0  0  0  0
   -0.9660    2.8146    0.7262 H   0  0  0  0  0  0  0  0  0  0  0  0
   -0.7509    3.0921   -1.5940 H   0  0  0  0  0  0  0  0  0  0  0  0
   -2.4729    0.3872   -0.3492 H   0  0  0  0  0  0  0  0  0  0  0  0
   -1.8200    0.5650    2.2861 H   0  0  0  0  0  0  0  0  0  0  0  0
   -2.4215   -2.1263    1.8942 H   0  0  0  0  0  0  0  0  0  0  0  0
   -2.5300   -1.8992   -1.1316 H   0  0  0  0  0  0  0  0  0  0  0  0
    0.3332   -0.8572   -1.9814 H   0  0  0  0  0  0  0  0  0  0  0  0
    0.3278   -2.1032    0.7174 H   0  0  0  0  0  0  0  0  0  0  0  0
    0.7879   -0.6816    1.6393 H   0  0  0  0  0  0  0  0  0  0  0  0
    2.7397   -1.7861    0.6506 H   0  0  0  0  0  0  0  0  0  0  0  0
    2.0649   -1.8257   -0.9710 H   0  0  0  0  0  0  0  0  0  0  0  0
    3.5693    0.2085    0.3271 H   0  0  0  0  0  0  0  0  0  0  0  0
    3.1744    0.0223   -1.3302 H   0  0  0  0  0  0  0  0  0  0  0  0
  1  2  1  0
  1  3  1  0
  1  4  1  0
  1  5  1  0
  5  6  1  0
  6  7  1  0
  6  8  1  0
  6  9  1  0
  5 10  1  0
  5 11  1  0
 11 12  1  0
 12 13  1  0
  1 14  1  0
  2 15  1  0
  3 16  1  0
  4 17  1  0
  6 18  1  0
  7 19  1  0
  8 20  1  0
  9 21  1  0
 10 22  1  0
 11 23  1  0
 11 24  1  0
 12 25  1  0
 12 26  1  0
 13 27  1  0
 13 28  1  0
M  END
>  <PDBID>  (1) 
2F89

>  <PDB ID>  (1) 
2F89

>  <Generic Name>  (1) 
Pamidronate

>  <Brand Name>  (1) 
Aredia#Aredia 30mg#Aredia 90mg#Aredia Liq Inj 3mg/ml#PMS-pamidronate#Pamidronate Disodium#Pamidronate Disodium Omega 3 mg/ml#Pamidronate Disodium Omega 6 mg/ml#Pamidronate Disodium Omega 9 mg/ml#Pamidronate Disodium for Injection#Val-pamidronate Disodium#Aminomux#Pamimed

>  <DrugBank ID>  (1) 
DB00282

>  <ATC Codes>  (1) 
M05BA03

>  <Ligand ID>  (1) 
210

>  <Target Name>  (1) 
Farnesyl pyrophosphate synthase

>  <UniProt ID>  (1) 
P14324

>  <PDB ID.1>  (1) 
2F89

>  <Seq. Identity>  (1) 
100%

$$$$
