PDB_DB01204_08
     RDKit          3D

152156  0  0  0  0  0  0  0  0999 V2000
   -7.3867    3.2201    0.2520 O   0  0  0  0  0  0  0  0  0  0  0  0
   -6.3419    2.9797   -0.6217 C   0  0  0  0  0  0  0  0  0  0  0  0
   -5.1876    3.8705   -0.2647 C   0  0  0  0  0  0  0  0  0  0  0  0
   -4.6835    3.6880    1.0521 N   0  0  0  0  0  0  0  0  0  0  0  0
   -4.0539    2.4040    1.2902 C   0  0  0  0  0  0  0  0  0  0  0  0
   -2.8267    2.2418    0.4305 C   0  0  0  0  0  0  0  0  0  0  0  0
   -2.1757    0.9731    0.7613 N   0  0  0  0  0  0  0  0  0  0  0  0
   -1.2542    0.6800   -0.2993 C   0  0  0  0  0  0  0  0  0  0  0  0
   -0.2102    1.6613   -0.5912 C   0  0  0  0  0  0  0  0  0  0  0  0
    0.9410    1.6332    0.3642 C   0  0  0  0  0  0  0  0  0  0  0  0
   -0.6788   -0.6983   -0.2238 C   0  0  0  0  0  0  0  0  0  0  0  0
   -1.6657   -1.7214    0.3600 C   0  0  0  0  0  0  0  0  0  0  0  0
   -1.7161   -1.3928    1.7392 O   0  0  0  0  0  0  0  0  0  0  0  0
   -1.1492   -3.1106    0.2892 C   0  0  0  0  0  0  0  0  0  0  0  0
   -1.8030   -3.8493   -0.8881 C   0  0  0  0  0  0  0  0  0  0  0  0
   -1.3032   -3.4709   -2.1075 O   0  0  0  0  0  0  0  0  0  0  0  0
   -1.5868   -5.3259   -0.6208 C   0  0  0  0  0  0  0  0  0  0  0  0
   -0.1414   -5.6451   -0.4377 C   0  0  0  0  0  0  0  0  0  0  0  0
    0.7792   -4.4495   -0.4974 C   0  0  0  0  0  0  0  0  0  0  0  0
    2.0174   -4.8992   -0.0034 O   0  0  0  0  0  0  0  0  0  0  0  0
    0.3056   -3.3233    0.3924 C   0  0  0  0  0  0  0  0  0  0  0  0
    1.1879   -2.1346    0.0942 C   0  0  0  0  0  0  0  0  0  0  0  0
    1.2535   -1.9971   -1.2921 O   0  0  0  0  0  0  0  0  0  0  0  0
    0.5425   -0.8501    0.6163 C   0  0  0  0  0  0  0  0  0  0  0  0
    1.4645    0.2820    0.7346 C   0  0  0  0  0  0  0  0  0  0  0  0
    2.8393    0.0510    0.3433 N   0  0  0  0  0  0  0  0  0  0  0  0
    3.8348    0.7924    1.0009 C   0  0  0  0  0  0  0  0  0  0  0  0
    3.9947    2.2423    0.7756 C   0  0  0  0  0  0  0  0  0  0  0  0
    4.3496    2.6225   -0.5758 N   0  0  0  0  0  0  0  0  0  0  0  0
    5.7171    2.2855   -0.9127 C   0  0  0  0  0  0  0  0  0  0  0  0
    6.7077    3.1767   -0.2018 C   0  0  0  0  0  0  0  0  0  0  0  0
    8.0316    2.8624   -0.4987 O   0  0  0  0  0  0  0  0  0  0  0  0
   -7.3867    3.2201    0.2520 O   0  0  0  0  0  0  0  0  0  0  0  0
   -6.3419    2.9797   -0.6217 C   0  0  0  0  0  0  0  0  0  0  0  0
   -5.1876    3.8705   -0.2647 C   0  0  0  0  0  0  0  0  0  0  0  0
   -4.6835    3.6880    1.0521 N   0  0  0  0  0  0  0  0  0  0  0  0
   -4.0539    2.4040    1.2902 C   0  0  0  0  0  0  0  0  0  0  0  0
   -2.8267    2.2418    0.4305 C   0  0  0  0  0  0  0  0  0  0  0  0
   -2.1757    0.9731    0.7613 N   0  0  0  0  0  0  0  0  0  0  0  0
   -1.2542    0.6800   -0.2993 C   0  0  0  0  0  0  0  0  0  0  0  0
   -0.2102    1.6613   -0.5912 C   0  0  0  0  0  0  0  0  0  0  0  0
    0.9410    1.6332    0.3642 C   0  0  0  0  0  0  0  0  0  0  0  0
   -0.6788   -0.6983   -0.2238 C   0  0  0  0  0  0  0  0  0  0  0  0
   -1.6657   -1.7214    0.3600 C   0  0  0  0  0  0  0  0  0  0  0  0
   -1.7161   -1.3928    1.7392 O   0  0  0  0  0  0  0  0  0  0  0  0
   -1.1492   -3.1106    0.2892 C   0  0  0  0  0  0  0  0  0  0  0  0
   -1.8030   -3.8493   -0.8881 C   0  0  0  0  0  0  0  0  0  0  0  0
   -1.3032   -3.4709   -2.1075 O   0  0  0  0  0  0  0  0  0  0  0  0
   -1.5868   -5.3259   -0.6208 C   0  0  0  0  0  0  0  0  0  0  0  0
   -0.1414   -5.6451   -0.4377 C   0  0  0  0  0  0  0  0  0  0  0  0
    0.7792   -4.4495   -0.4974 C   0  0  0  0  0  0  0  0  0  0  0  0
    2.0174   -4.8992   -0.0034 O   0  0  0  0  0  0  0  0  0  0  0  0
    0.3056   -3.3233    0.3924 C   0  0  0  0  0  0  0  0  0  0  0  0
    1.1879   -2.1346    0.0942 C   0  0  0  0  0  0  0  0  0  0  0  0
    1.2535   -1.9971   -1.2921 O   0  0  0  0  0  0  0  0  0  0  0  0
    0.5425   -0.8501    0.6163 C   0  0  0  0  0  0  0  0  0  0  0  0
    1.4645    0.2820    0.7346 C   0  0  0  0  0  0  0  0  0  0  0  0
    2.8393    0.0510    0.3433 N   0  0  0  0  0  0  0  0  0  0  0  0
    3.8348    0.7924    1.0009 C   0  0  0  0  0  0  0  0  0  0  0  0
    3.9947    2.2423    0.7756 C   0  0  0  0  0  0  0  0  0  0  0  0
    4.3496    2.6225   -0.5758 N   0  0  0  0  0  0  0  0  0  0  0  0
    5.7171    2.2855   -0.9127 C   0  0  0  0  0  0  0  0  0  0  0  0
    6.7077    3.1767   -0.2018 C   0  0  0  0  0  0  0  0  0  0  0  0
    8.0316    2.8624   -0.4987 O   0  0  0  0  0  0  0  0  0  0  0  0
   -8.1761    2.6784   -0.0454 H   0  0  0  0  0  0  0  0  0  0  0  0
   -6.7208    3.2389   -1.6549 H   0  0  0  0  0  0  0  0  0  0  0  0
   -6.0683    1.9018   -0.5785 H   0  0  0  0  0  0  0  0  0  0  0  0
   -4.3740    3.8573   -1.0260 H   0  0  0  0  0  0  0  0  0  0  0  0
   -5.5912    4.9317   -0.2942 H   0  0  0  0  0  0  0  0  0  0  0  0
   -5.5009    3.7134    1.7250 H   0  0  0  0  0  0  0  0  0  0  0  0
   -3.7824    2.3304    2.3316 H   0  0  0  0  0  0  0  0  0  0  0  0
   -4.7700    1.5985    1.0259 H   0  0  0  0  0  0  0  0  0  0  0  0
   -3.0983    2.2874   -0.6291 H   0  0  0  0  0  0  0  0  0  0  0  0
   -2.0712    3.0211    0.6880 H   0  0  0  0  0  0  0  0  0  0  0  0
   -2.9432    0.2440    0.6874 H   0  0  0  0  0  0  0  0  0  0  0  0
   -1.9216    0.6464   -1.2330 H   0  0  0  0  0  0  0  0  0  0  0  0
   -0.5774    2.7230   -0.6162 H   0  0  0  0  0  0  0  0  0  0  0  0
    0.2324    1.4164   -1.5976 H   0  0  0  0  0  0  0  0  0  0  0  0
    0.6248    2.2177    1.2567 H   0  0  0  0  0  0  0  0  0  0  0  0
    1.7510    2.1861   -0.1924 H   0  0  0  0  0  0  0  0  0  0  0  0
   -0.4736   -1.0419   -1.2599 H   0  0  0  0  0  0  0  0  0  0  0  0
   -2.6467   -1.6208   -0.0952 H   0  0  0  0  0  0  0  0  0  0  0  0
   -1.4796   -2.1352    2.3097 H   0  0  0  0  0  0  0  0  0  0  0  0
   -1.6163   -3.6532    1.1719 H   0  0  0  0  0  0  0  0  0  0  0  0
   -2.8770   -3.5943   -0.8348 H   0  0  0  0  0  0  0  0  0  0  0  0
   -1.3616   -4.2747   -2.7194 H   0  0  0  0  0  0  0  0  0  0  0  0
   -2.0826   -5.9637   -1.3993 H   0  0  0  0  0  0  0  0  0  0  0  0
   -2.1030   -5.5401    0.3505 H   0  0  0  0  0  0  0  0  0  0  0  0
    0.1522   -6.3184   -1.2789 H   0  0  0  0  0  0  0  0  0  0  0  0
    0.0812   -6.2095    0.4828 H   0  0  0  0  0  0  0  0  0  0  0  0
    0.9862   -4.1164   -1.5279 H   0  0  0  0  0  0  0  0  0  0  0  0
    2.3584   -4.3386    0.7299 H   0  0  0  0  0  0  0  0  0  0  0  0
    0.6070   -3.6521    1.4352 H   0  0  0  0  0  0  0  0  0  0  0  0
    2.1712   -2.3187    0.5256 H   0  0  0  0  0  0  0  0  0  0  0  0
    2.1504   -2.0967   -1.6541 H   0  0  0  0  0  0  0  0  0  0  0  0
    0.1920   -1.1634    1.6571 H   0  0  0  0  0  0  0  0  0  0  0  0
    1.6134    0.4010    1.9000 H   0  0  0  0  0  0  0  0  0  0  0  0
    2.9854   -0.0750   -0.6570 H   0  0  0  0  0  0  0  0  0  0  0  0
    4.8306    0.3144    0.7066 H   0  0  0  0  0  0  0  0  0  0  0  0
    3.8099    0.6171    2.1133 H   0  0  0  0  0  0  0  0  0  0  0  0
    4.9446    2.5207    1.3794 H   0  0  0  0  0  0  0  0  0  0  0  0
    3.2555    2.9134    1.2618 H   0  0  0  0  0  0  0  0  0  0  0  0
    4.1964    3.6438   -0.7463 H   0  0  0  0  0  0  0  0  0  0  0  0
    5.9976    1.2516   -0.6849 H   0  0  0  0  0  0  0  0  0  0  0  0
    5.8414    2.4588   -1.9894 H   0  0  0  0  0  0  0  0  0  0  0  0
    6.5811    3.2965    0.8665 H   0  0  0  0  0  0  0  0  0  0  0  0
    6.5763    4.2330   -0.6260 H   0  0  0  0  0  0  0  0  0  0  0  0
    8.4955    2.6712    0.3646 H   0  0  0  0  0  0  0  0  0  0  0  0
   -8.1761    2.6784   -0.0454 H   0  0  0  0  0  0  0  0  0  0  0  0
   -6.7208    3.2389   -1.6549 H   0  0  0  0  0  0  0  0  0  0  0  0
   -6.0683    1.9018   -0.5785 H   0  0  0  0  0  0  0  0  0  0  0  0
   -4.3740    3.8573   -1.0260 H   0  0  0  0  0  0  0  0  0  0  0  0
   -5.5912    4.9317   -0.2942 H   0  0  0  0  0  0  0  0  0  0  0  0
   -5.5009    3.7134    1.7250 H   0  0  0  0  0  0  0  0  0  0  0  0
   -3.7824    2.3304    2.3316 H   0  0  0  0  0  0  0  0  0  0  0  0
   -4.7700    1.5985    1.0259 H   0  0  0  0  0  0  0  0  0  0  0  0
   -3.0983    2.2874   -0.6291 H   0  0  0  0  0  0  0  0  0  0  0  0
   -2.0712    3.0211    0.6880 H   0  0  0  0  0  0  0  0  0  0  0  0
   -2.9432    0.2440    0.6874 H   0  0  0  0  0  0  0  0  0  0  0  0
   -1.9216    0.6464   -1.2330 H   0  0  0  0  0  0  0  0  0  0  0  0
   -0.5774    2.7230   -0.6162 H   0  0  0  0  0  0  0  0  0  0  0  0
    0.2324    1.4164   -1.5976 H   0  0  0  0  0  0  0  0  0  0  0  0
    0.6248    2.2177    1.2567 H   0  0  0  0  0  0  0  0  0  0  0  0
    1.7510    2.1861   -0.1924 H   0  0  0  0  0  0  0  0  0  0  0  0
   -0.4736   -1.0419   -1.2599 H   0  0  0  0  0  0  0  0  0  0  0  0
   -2.6467   -1.6208   -0.0952 H   0  0  0  0  0  0  0  0  0  0  0  0
   -1.4796   -2.1352    2.3097 H   0  0  0  0  0  0  0  0  0  0  0  0
   -1.6163   -3.6532    1.1719 H   0  0  0  0  0  0  0  0  0  0  0  0
   -2.8770   -3.5943   -0.8348 H   0  0  0  0  0  0  0  0  0  0  0  0
   -1.3616   -4.2747   -2.7194 H   0  0  0  0  0  0  0  0  0  0  0  0
   -2.0826   -5.9637   -1.3993 H   0  0  0  0  0  0  0  0  0  0  0  0
   -2.1030   -5.5401    0.3505 H   0  0  0  0  0  0  0  0  0  0  0  0
    0.1522   -6.3184   -1.2789 H   0  0  0  0  0  0  0  0  0  0  0  0
    0.0812   -6.2095    0.4828 H   0  0  0  0  0  0  0  0  0  0  0  0
    0.9862   -4.1164   -1.5279 H   0  0  0  0  0  0  0  0  0  0  0  0
    2.3584   -4.3386    0.7299 H   0  0  0  0  0  0  0  0  0  0  0  0
    0.6070   -3.6521    1.4352 H   0  0  0  0  0  0  0  0  0  0  0  0
    2.1712   -2.3187    0.5256 H   0  0  0  0  0  0  0  0  0  0  0  0
    2.1504   -2.0967   -1.6541 H   0  0  0  0  0  0  0  0  0  0  0  0
    0.1920   -1.1634    1.6571 H   0  0  0  0  0  0  0  0  0  0  0  0
    1.6134    0.4010    1.9000 H   0  0  0  0  0  0  0  0  0  0  0  0
    2.9854   -0.0750   -0.6570 H   0  0  0  0  0  0  0  0  0  0  0  0
    4.8306    0.3144    0.7066 H   0  0  0  0  0  0  0  0  0  0  0  0
    3.8099    0.6171    2.1133 H   0  0  0  0  0  0  0  0  0  0  0  0
    4.9446    2.5207    1.3794 H   0  0  0  0  0  0  0  0  0  0  0  0
    3.2555    2.9134    1.2618 H   0  0  0  0  0  0  0  0  0  0  0  0
    4.1964    3.6438   -0.7463 H   0  0  0  0  0  0  0  0  0  0  0  0
    5.9976    1.2516   -0.6849 H   0  0  0  0  0  0  0  0  0  0  0  0
    5.8414    2.4588   -1.9894 H   0  0  0  0  0  0  0  0  0  0  0  0
    6.5811    3.2965    0.8665 H   0  0  0  0  0  0  0  0  0  0  0  0
    6.5763    4.2330   -0.6260 H   0  0  0  0  0  0  0  0  0  0  0  0
    8.4955    2.6712    0.3646 H   0  0  0  0  0  0  0  0  0  0  0  0
  1  2  1  0
  2  3  1  0
  3  4  1  0
  4  5  1  0
  5  6  1  0
  6  7  1  0
  7  8  1  0
  8  9  1  0
  9 10  1  0
  8 11  1  0
 11 12  1  0
 12 13  1  0
 12 14  1  0
 14 15  1  0
 15 16  1  0
 15 17  1  0
 17 18  1  0
 18 19  1  0
 19 20  1  0
 14 21  1  0
 19 21  1  0
 21 22  1  0
 22 23  1  0
 11 24  1  0
 22 24  1  0
 10 25  1  0
 24 25  1  0
 25 26  1  0
 26 27  1  0
 27 28  1  0
 28 29  1  0
 29 30  1  0
 30 31  1  0
 31 32  1  0
 33 34  1  0
 34 35  1  0
 35 36  1  0
 36 37  1  0
 37 38  1  0
 38 39  1  0
 39 40  1  0
 40 41  1  0
 41 42  1  0
 40 43  1  0
 43 44  1  0
 44 45  1  0
 44 46  1  0
 46 47  1  0
 47 48  1  0
 47 49  1  0
 49 50  1  0
 50 51  1  0
 51 52  1  0
 46 53  1  0
 51 53  1  0
 53 54  1  0
 54 55  1  0
 43 56  1  0
 54 56  1  0
 42 57  1  0
 56 57  1  0
 57 58  1  0
 58 59  1  0
 59 60  1  0
 60 61  1  0
 61 62  1  0
 62 63  1  0
 63 64  1  0
  1 65  1  0
  2 66  1  0
  2 67  1  0
  3 68  1  0
  3 69  1  0
  4 70  1  0
  5 71  1  0
  5 72  1  0
  6 73  1  0
  6 74  1  0
  7 75  1  0
  8 76  1  0
  9 77  1  0
  9 78  1  0
 10 79  1  0
 10 80  1  0
 11 81  1  0
 12 82  1  0
 13 83  1  0
 14 84  1  0
 15 85  1  0
 16 86  1  0
 17 87  1  0
 17 88  1  0
 18 89  1  0
 18 90  1  0
 19 91  1  0
 20 92  1  0
 21 93  1  0
 22 94  1  0
 23 95  1  0
 24 96  1  0
 25 97  1  0
 26 98  1  0
 27 99  1  0
 27100  1  0
 28101  1  0
 28102  1  0
 29103  1  0
 30104  1  0
 30105  1  0
 31106  1  0
 31107  1  0
 32108  1  0
 33109  1  0
 34110  1  0
 34111  1  0
 35112  1  0
 35113  1  0
 36114  1  0
 37115  1  0
 37116  1  0
 38117  1  0
 38118  1  0
 39119  1  0
 40120  1  0
 41121  1  0
 41122  1  0
 42123  1  0
 42124  1  0
 43125  1  0
 44126  1  0
 45127  1  0
 46128  1  0
 47129  1  0
 48130  1  0
 49131  1  0
 49132  1  0
 50133  1  0
 50134  1  0
 51135  1  0
 52136  1  0
 53137  1  0
 54138  1  0
 55139  1  0
 56140  1  0
 57141  1  0
 58142  1  0
 59143  1  0
 59144  1  0
 60145  1  0
 60146  1  0
 61147  1  0
 62148  1  0
 62149  1  0
 63150  1  0
 63151  1  0
 64152  1  0
M  END
>  <PDBID>  (1) 
4G0V

>  <PDB ID>  (1) 
4G0V

>  <Generic Name>  (1) 
Mitoxantrone

>  <Brand Name>  (1) 
Mitoxantrone#Mitoxantrone Hydrochloride#Mitoxantrone Injection#Mitoxantrone Injection USP#Novantrone#Novantrone Inj 2mg/ml

>  <DrugBank ID>  (1) 
DB01204

>  <ATC Codes>  (1) 
L01DB07

>  <Ligand ID>  (1) 
MIX

>  <Target Name>  (1) 
DNA topoisomerase 2-alpha

>  <UniProt ID>  (1) 
P11388

>  <PDB ID.1>  (1) 
4G0V

>  <Seq. Identity>  (1) 
78%

$$$$
