PDB_DB01536_04
     RDKit          3D

 53 56  0  0  0  0  0  0  0  0999 V2000
    2.3443   -1.1926   -1.1714 C   0  0  0  0  0  0  0  0  0  0  0  0
    1.5034   -0.4632   -0.1866 C   0  0  1  0  0  0  0  0  0  0  0  0
   -0.5370   -0.9351   -1.6081 C   0  0  0  0  0  0  0  0  0  0  0  0
   -1.8498   -1.4007   -1.0725 C   0  0  0  0  0  0  0  0  0  0  0  0
   -2.6644   -0.4213   -0.3562 C   0  0  1  0  0  0  0  0  0  0  0  0
   -1.9332    0.9064   -0.3160 C   0  0  1  0  0  0  0  0  0  0  0  0
   -2.9018    1.8006    0.3133 C   0  0  0  0  0  0  0  0  0  0  0  0
   -4.2370    1.3114   -0.2336 C   0  0  0  0  0  0  0  0  0  0  0  0
   -3.9272    0.0292   -1.0108 C   0  0  0  0  0  0  0  0  0  0  0  0
   -3.0128   -0.9259    1.0206 C   0  0  0  0  0  0  0  0  0  0  0  0
    1.2343   -1.3707    0.9938 C   0  0  0  0  0  0  0  0  0  0  0  0
    3.7917   -1.2918   -0.8348 C   0  0  0  0  0  0  0  0  0  0  0  0
    4.4322   -0.0444   -0.3521 C   0  0  0  0  0  0  0  0  0  0  0  0
    3.6051    0.5071    0.7873 C   0  0  0  0  0  0  0  0  0  0  0  0
    2.2354    0.7879    0.2593 C   0  0  0  0  0  0  0  0  0  0  0  0
    1.4776    1.5951    1.2594 C   0  0  0  0  0  0  0  0  0  0  0  0
    0.0615    1.9102    0.8418 C   0  0  0  0  0  0  0  0  0  0  0  0
   -0.6257    0.6895    0.3145 C   0  0  2  0  0  0  0  0  0  0  0  0
    0.2133    0.0275   -0.7928 C   0  0  1  0  0  0  0  0  0  0  0  0
    5.6925   -0.3539    0.1573 O   0  0  0  0  0  0  0  0  0  0  0  0
   -4.9868   -0.8477   -0.8639 O   0  0  0  0  0  0  0  0  0  0  0  0
    1.9835   -2.2596   -1.2745 H   0  0  0  0  0  0  0  0  0  0  0  0
    2.2157   -0.7705   -2.2064 H   0  0  0  0  0  0  0  0  0  0  0  0
   -0.7458   -0.5274   -2.6438 H   0  0  0  0  0  0  0  0  0  0  0  0
    0.0651   -1.8673   -1.8263 H   0  0  0  0  0  0  0  0  0  0  0  0
   -1.6509   -2.3006   -0.4304 H   0  0  0  0  0  0  0  0  0  0  0  0
   -2.4541   -1.8149   -1.9327 H   0  0  0  0  0  0  0  0  0  0  0  0
   -1.8184    1.2078   -1.3995 H   0  0  0  0  0  0  0  0  0  0  0  0
   -2.8879    1.8598    1.4082 H   0  0  0  0  0  0  0  0  0  0  0  0
   -2.7139    2.8545   -0.0481 H   0  0  0  0  0  0  0  0  0  0  0  0
   -4.9795    1.1491    0.5532 H   0  0  0  0  0  0  0  0  0  0  0  0
   -4.5943    2.0469   -0.9954 H   0  0  0  0  0  0  0  0  0  0  0  0
   -3.7272    0.2670   -2.0854 H   0  0  0  0  0  0  0  0  0  0  0  0
   -2.3090   -1.6843    1.3795 H   0  0  0  0  0  0  0  0  0  0  0  0
   -4.0115   -1.4274    0.9288 H   0  0  0  0  0  0  0  0  0  0  0  0
   -3.1342   -0.1340    1.7652 H   0  0  0  0  0  0  0  0  0  0  0  0
    2.1915   -1.9254    1.1926 H   0  0  0  0  0  0  0  0  0  0  0  0
    0.9799   -0.8261    1.9124 H   0  0  0  0  0  0  0  0  0  0  0  0
    0.4098   -2.0707    0.7783 H   0  0  0  0  0  0  0  0  0  0  0  0
    3.9771   -2.1143   -0.1178 H   0  0  0  0  0  0  0  0  0  0  0  0
    4.3290   -1.6032   -1.7779 H   0  0  0  0  0  0  0  0  0  0  0  0
    4.5327    0.7348   -1.1331 H   0  0  0  0  0  0  0  0  0  0  0  0
    3.6239   -0.1489    1.6649 H   0  0  0  0  0  0  0  0  0  0  0  0
    4.0580    1.4672    1.0816 H   0  0  0  0  0  0  0  0  0  0  0  0
    2.3627    1.4248   -0.6569 H   0  0  0  0  0  0  0  0  0  0  0  0
    1.5185    1.1109    2.2570 H   0  0  0  0  0  0  0  0  0  0  0  0
    2.0001    2.5675    1.3708 H   0  0  0  0  0  0  0  0  0  0  0  0
   -0.4843    2.2336    1.7523 H   0  0  0  0  0  0  0  0  0  0  0  0
    0.0288    2.7518    0.1248 H   0  0  0  0  0  0  0  0  0  0  0  0
   -0.7433   -0.0420    1.1526 H   0  0  0  0  0  0  0  0  0  0  0  0
    0.5115    0.9032   -1.4458 H   0  0  0  0  0  0  0  0  0  0  0  0
    6.3435    0.3768    0.0164 H   0  0  0  0  0  0  0  0  0  0  0  0
   -4.7925   -1.7567   -1.1410 H   0  0  0  0  0  0  0  0  0  0  0  0
  1  2  1  0
  3  4  1  0
  4  5  1  0
  5  6  1  0
  6  7  1  0
  7  8  1  0
  5  9  1  0
  8  9  1  0
  5 10  1  1
  2 11  1  1
  1 12  1  0
 12 13  1  0
 13 14  1  0
  2 15  1  0
 14 15  1  0
 15 16  1  0
 16 17  1  0
  6 18  1  0
 17 18  1  0
  2 19  1  0
  3 19  1  0
 18 19  1  0
 13 20  1  0
  9 21  1  0
  1 22  1  0
  1 23  1  0
  3 24  1  0
  3 25  1  0
  4 26  1  0
  4 27  1  0
  6 28  1  6
  7 29  1  0
  7 30  1  0
  8 31  1  0
  8 32  1  0
  9 33  1  0
 10 34  1  0
 10 35  1  0
 10 36  1  0
 11 37  1  0
 11 38  1  0
 11 39  1  0
 12 40  1  0
 12 41  1  0
 13 42  1  0
 14 43  1  0
 14 44  1  0
 15 45  1  0
 16 46  1  0
 16 47  1  0
 17 48  1  0
 17 49  1  0
 18 50  1  1
 19 51  1  6
 20 52  1  0
 21 53  1  0
M  END
>  <PDBID>  (1) 
1QYX

>  <PDB ID>  (1) 
1QYX

>  <Generic Name>  (1) 
4-Androstenedione

>  <Brand Name>  (1) 
nan

>  <DrugBank ID>  (1) 
DB01536

>  <ATC Codes>  (1) 
nan

>  <Ligand ID>  (1) 
ASD

>  <Target Name>  (1) 
Estradiol 17-beta-dehydrogenase 1

>  <UniProt ID>  (1) 
P14061

>  <PDB ID.1>  (1) 
1QYX

>  <Seq. Identity>  (1) 
89%

$$$$
