PDB_DB00869_03
     RDKit          3D

 43 44  0  0  0  0  0  0  0  0999 V2000
    2.4244   -1.4154   -0.5327 S   0  0  0  0  0  0  0  0  0  0  0  0
    2.5789   -0.2317    0.8678 C   0  0  0  0  0  0  0  0  0  0  0  0
    1.1447    0.1258    1.0949 C   0  0  0  0  0  0  0  0  0  0  0  0
    0.4595    0.2097   -0.2440 C   0  0  0  0  0  0  0  0  0  0  0  0
   -0.9501    0.6661   -0.0704 C   0  0  2  0  0  0  0  0  0  0  0  0
   -1.9033   -0.3821    0.3763 C   0  0  0  0  0  0  0  0  0  0  0  0
   -1.9202   -1.6427   -0.4201 C   0  0  1  0  0  0  0  0  0  0  0  0
   -0.2788   -2.3779   -0.3312 S   0  0  0  0  0  0  0  0  0  0  0  0
    0.6753   -1.0568   -0.9793 C   0  0  2  0  0  0  0  0  0  0  0  0
    3.5617    1.0689    0.3422 S   0  0  0  0  0  0  0  0  0  0  0  0
    3.6451    2.0390    1.7968 O   0  0  0  0  0  0  0  0  0  0  0  0
    3.1728    1.8643   -0.7678 O   0  0  0  0  0  0  0  0  0  0  0  0
    5.1535    0.3789    0.3521 N   0  0  0  0  0  0  0  0  0  0  0  0
   -1.3257    1.4075   -1.2306 N   0  0  0  0  0  0  0  0  0  0  0  0
   -2.8835   -2.6003    0.2560 C   0  0  0  0  0  0  0  0  0  0  0  0
   -0.1995   -3.8159   -1.3647 O   0  0  0  0  0  0  0  0  0  0  0  0
    0.1977   -2.7873    1.3357 O   0  0  0  0  0  0  0  0  0  0  0  0
   -2.6205    1.9927   -1.2291 C   0  0  0  0  0  0  0  0  0  0  0  0
   -2.7932    3.1182   -0.2354 C   0  0  0  0  0  0  0  0  0  0  0  0
    3.0048   -0.7912    1.7117 H   0  0  0  0  0  0  0  0  0  0  0  0
    1.0717    1.1578    1.5387 H   0  0  0  0  0  0  0  0  0  0  0  0
    0.6115   -0.5343    1.7833 H   0  0  0  0  0  0  0  0  0  0  0  0
    0.9943    1.0220   -0.8183 H   0  0  0  0  0  0  0  0  0  0  0  0
   -0.9170    1.4254    0.7714 H   0  0  0  0  0  0  0  0  0  0  0  0
   -2.9294    0.0438    0.3549 H   0  0  0  0  0  0  0  0  0  0  0  0
   -1.7029   -0.6302    1.4386 H   0  0  0  0  0  0  0  0  0  0  0  0
   -2.1341   -1.5087   -1.4776 H   0  0  0  0  0  0  0  0  0  0  0  0
    0.5942   -0.9612   -2.0570 H   0  0  0  0  0  0  0  0  0  0  0  0
    3.7922    1.3687    2.5288 H   0  0  0  0  0  0  0  0  0  0  0  0
    3.3759    1.7740   -1.7125 H   0  0  0  0  0  0  0  0  0  0  0  0
    5.8234    1.0544   -0.0879 H   0  0  0  0  0  0  0  0  0  0  0  0
    5.1133   -0.4388   -0.3142 H   0  0  0  0  0  0  0  0  0  0  0  0
   -0.6249    2.1819   -1.3381 H   0  0  0  0  0  0  0  0  0  0  0  0
   -2.6966   -2.4706    1.3625 H   0  0  0  0  0  0  0  0  0  0  0  0
   -3.9005   -2.2211    0.0364 H   0  0  0  0  0  0  0  0  0  0  0  0
   -2.7318   -3.6524   -0.0597 H   0  0  0  0  0  0  0  0  0  0  0  0
    0.6074   -4.3102   -1.0835 H   0  0  0  0  0  0  0  0  0  0  0  0
   -0.6119   -3.0966    1.7749 H   0  0  0  0  0  0  0  0  0  0  0  0
   -2.7472    2.4785   -2.2429 H   0  0  0  0  0  0  0  0  0  0  0  0
   -3.4685    1.2998   -1.1442 H   0  0  0  0  0  0  0  0  0  0  0  0
   -2.9038    2.7531    0.8052 H   0  0  0  0  0  0  0  0  0  0  0  0
   -3.7538    3.6224   -0.4854 H   0  0  0  0  0  0  0  0  0  0  0  0
   -2.0051    3.8726   -0.3018 H   0  0  0  0  0  0  0  0  0  0  0  0
  1  2  1  0
  2  3  1  0
  3  4  1  0
  4  5  1  0
  5  6  1  0
  6  7  1  0
  7  8  1  0
  1  9  1  0
  4  9  1  0
  8  9  1  0
  2 10  1  0
 10 11  1  0
 10 12  1  0
 10 13  1  0
  5 14  1  0
  7 15  1  0
  8 16  1  0
  8 17  1  0
 14 18  1  0
 18 19  1  0
  2 20  1  0
  3 21  1  0
  3 22  1  0
  4 23  1  0
  5 24  1  1
  6 25  1  0
  6 26  1  0
  7 27  1  6
  9 28  1  6
 11 29  1  0
 12 30  1  0
 13 31  1  0
 13 32  1  0
 14 33  1  0
 15 34  1  0
 15 35  1  0
 15 36  1  0
 16 37  1  0
 17 38  1  0
 18 39  1  0
 18 40  1  0
 19 41  1  0
 19 42  1  0
 19 43  1  0
M  END
>  <PDBID>  (1) 
1CIL

>  <PDB ID>  (1) 
1CIL

>  <Generic Name>  (1) 
Dorzolamide

>  <Brand Name>  (1) 
Act Dorzotimolol#Apo-dorzo-timop#Apo-dorzolamide#Cosopt#Cosopt PF#Dorzolamide#Dorzolamide HCl#Dorzolamide HCl /timolol Maleate#Dorzolamide HCl and Timolol Maleate#Dorzolamide Hydrochloride#Dorzolamide Hydrochloride Ophthalmic Solution#Dorzolamide Hydrochloride Ophthalmic Solution 2%, 10ml Ophthalmic Solution 2%, 10ml#Dorzolamide Hydrochloride and Timolol Maleate#Dorzolamide Hydrochloride and Timolol Maleate Ophthalmic Solution#Dorzolamide Hydrochloride-timolol Maleate#Dorzolamide Hydrochloride-timolol Maleate Ophthalmic Solution Sterile Ophthalmic Solution#Jamp-dorzolamide#Jamp-dorzolamide/timolol#Med-dorzolamide#Med-dorzolamide-timolol#Mint-dorzolamide/timolol#Mylan-dorzolamide/timolol#PMS-dorzolamide-timolol#Riva-dorzolamide#Riva-dorzolamide/timolol#Sandoz Dorzolamide#Sandoz Dorzolamide/timolol#Teva-dorzotimol#Trusopt#Van-dorzolamide-timolol

>  <DrugBank ID>  (1) 
DB00869

>  <ATC Codes>  (1) 
S01EC03

>  <Ligand ID>  (1) 
ETS

>  <Target Name>  (1) 
Carbonic anhydrase 2

>  <UniProt ID>  (1) 
P00918

>  <PDB ID.1>  (1) 
1CIL

>  <Seq. Identity>  (1) 
100%

$$$$
