PDB_DB00655_00
     RDKit          3D

100106  0  0  0  0  0  0  0  0999 V2000
    0.2426   -0.6271    0.5495 C   0  0  2  0  0  0  0  0  0  0  0  0
   -1.9082   -0.9156    1.7431 C   0  0  0  0  0  0  0  0  0  0  0  0
   -2.5609   -0.0531    0.7182 C   0  0  2  0  0  0  0  0  0  0  0  0
   -2.5430    1.3948    1.1192 C   0  0  0  0  0  0  0  0  0  0  0  0
   -4.9060    0.2639    1.0107 O   0  0  0  0  0  0  0  0  0  0  0  0
    4.5982    0.0044   -1.7762 O   0  0  0  0  0  0  0  0  0  0  0  0
   -3.9526   -0.4684    0.3474 C   0  0  1  0  0  0  0  0  0  0  0  0
   -4.1049   -0.1555   -1.1426 C   0  0  0  0  0  0  0  0  0  0  0  0
   -2.7268    0.3595   -1.5811 C   0  0  0  0  0  0  0  0  0  0  0  0
   -1.8307   -0.2875   -0.6046 C   0  0  1  0  0  0  0  0  0  0  0  0
   -0.4669    0.2737   -0.4745 C   0  0  2  0  0  0  0  0  0  0  0  0
   -0.4650   -0.5275    1.8833 C   0  0  0  0  0  0  0  0  0  0  0  0
    0.3225    0.3276   -1.7401 C   0  0  0  0  0  0  0  0  0  0  0  0
    1.6533    0.9605   -1.4998 C   0  0  0  0  0  0  0  0  0  0  0  0
    2.0940    0.9102   -0.0794 C   0  0  0  0  0  0  0  0  0  0  0  0
    1.6974   -0.3549    0.6388 C   0  0  0  0  0  0  0  0  0  0  0  0
    3.5645    1.1086    0.1044 C   0  0  0  0  0  0  0  0  0  0  0  0
    4.3986   -0.0256   -0.3865 C   0  0  0  0  0  0  0  0  0  0  0  0
    3.9270   -1.3704    0.0764 C   0  0  0  0  0  0  0  0  0  0  0  0
    2.4488   -1.5397    0.0841 C   0  0  0  0  0  0  0  0  0  0  0  0
    0.2426   -0.6271    0.5495 C   0  0  2  0  0  0  0  0  0  0  0  0
   -1.9082   -0.9156    1.7431 C   0  0  0  0  0  0  0  0  0  0  0  0
   -2.5609   -0.0531    0.7182 C   0  0  2  0  0  0  0  0  0  0  0  0
   -2.5430    1.3948    1.1192 C   0  0  0  0  0  0  0  0  0  0  0  0
   -4.9060    0.2639    1.0107 O   0  0  0  0  0  0  0  0  0  0  0  0
    4.5982    0.0044   -1.7762 O   0  0  0  0  0  0  0  0  0  0  0  0
   -3.9526   -0.4684    0.3474 C   0  0  1  0  0  0  0  0  0  0  0  0
   -4.1049   -0.1555   -1.1426 C   0  0  0  0  0  0  0  0  0  0  0  0
   -2.7268    0.3595   -1.5811 C   0  0  0  0  0  0  0  0  0  0  0  0
   -1.8307   -0.2875   -0.6046 C   0  0  1  0  0  0  0  0  0  0  0  0
   -0.4669    0.2737   -0.4745 C   0  0  2  0  0  0  0  0  0  0  0  0
   -0.4650   -0.5275    1.8833 C   0  0  0  0  0  0  0  0  0  0  0  0
    0.3225    0.3276   -1.7401 C   0  0  0  0  0  0  0  0  0  0  0  0
    1.6533    0.9605   -1.4998 C   0  0  0  0  0  0  0  0  0  0  0  0
    2.0940    0.9102   -0.0794 C   0  0  0  0  0  0  0  0  0  0  0  0
    1.6974   -0.3549    0.6388 C   0  0  0  0  0  0  0  0  0  0  0  0
    3.5645    1.1086    0.1044 C   0  0  0  0  0  0  0  0  0  0  0  0
    4.3986   -0.0256   -0.3865 C   0  0  0  0  0  0  0  0  0  0  0  0
    3.9270   -1.3704    0.0764 C   0  0  0  0  0  0  0  0  0  0  0  0
    2.4488   -1.5397    0.0841 C   0  0  0  0  0  0  0  0  0  0  0  0
    0.0348   -1.6740    0.1784 H   0  0  0  0  0  0  0  0  0  0  0  0
   -2.4019   -0.7401    2.7348 H   0  0  0  0  0  0  0  0  0  0  0  0
   -1.9894   -1.9762    1.5077 H   0  0  0  0  0  0  0  0  0  0  0  0
   -3.5901    1.6571    1.4446 H   0  0  0  0  0  0  0  0  0  0  0  0
   -2.2999    2.0877    0.3090 H   0  0  0  0  0  0  0  0  0  0  0  0
   -1.9088    1.6049    2.0008 H   0  0  0  0  0  0  0  0  0  0  0  0
   -5.2846    1.0055    0.4633 H   0  0  0  0  0  0  0  0  0  0  0  0
    5.0815    0.8109   -2.0299 H   0  0  0  0  0  0  0  0  0  0  0  0
   -4.0268   -1.5713    0.5304 H   0  0  0  0  0  0  0  0  0  0  0  0
   -4.9000    0.5604   -1.3445 H   0  0  0  0  0  0  0  0  0  0  0  0
   -4.2301   -1.1347   -1.6731 H   0  0  0  0  0  0  0  0  0  0  0  0
   -2.7301    1.4453   -1.5788 H   0  0  0  0  0  0  0  0  0  0  0  0
   -2.4718   -0.0273   -2.6039 H   0  0  0  0  0  0  0  0  0  0  0  0
   -1.7978   -1.3719   -0.7738 H   0  0  0  0  0  0  0  0  0  0  0  0
   -0.4517    1.2891   -0.0229 H   0  0  0  0  0  0  0  0  0  0  0  0
    0.0108   -1.3163    2.5362 H   0  0  0  0  0  0  0  0  0  0  0  0
   -0.2914    0.4231    2.3859 H   0  0  0  0  0  0  0  0  0  0  0  0
   -0.2825    0.9077   -2.4834 H   0  0  0  0  0  0  0  0  0  0  0  0
    0.3814   -0.7027   -2.1591 H   0  0  0  0  0  0  0  0  0  0  0  0
    2.3692    0.5452   -2.2265 H   0  0  0  0  0  0  0  0  0  0  0  0
    1.5495    2.0504   -1.7755 H   0  0  0  0  0  0  0  0  0  0  0  0
    1.5822    1.7559    0.4618 H   0  0  0  0  0  0  0  0  0  0  0  0
    1.9750   -0.2288    1.7074 H   0  0  0  0  0  0  0  0  0  0  0  0
    3.9484    2.0433   -0.3233 H   0  0  0  0  0  0  0  0  0  0  0  0
    3.7438    1.1891    1.2164 H   0  0  0  0  0  0  0  0  0  0  0  0
    5.4315    0.1157    0.0504 H   0  0  0  0  0  0  0  0  0  0  0  0
    4.3414   -2.1220   -0.6584 H   0  0  0  0  0  0  0  0  0  0  0  0
    4.4139   -1.6642    1.0516 H   0  0  0  0  0  0  0  0  0  0  0  0
    2.0939   -1.8278   -0.9097 H   0  0  0  0  0  0  0  0  0  0  0  0
    2.2178   -2.4117    0.7634 H   0  0  0  0  0  0  0  0  0  0  0  0
    0.0348   -1.6740    0.1784 H   0  0  0  0  0  0  0  0  0  0  0  0
   -2.4019   -0.7401    2.7348 H   0  0  0  0  0  0  0  0  0  0  0  0
   -1.9894   -1.9762    1.5077 H   0  0  0  0  0  0  0  0  0  0  0  0
   -3.5901    1.6571    1.4446 H   0  0  0  0  0  0  0  0  0  0  0  0
   -2.2999    2.0877    0.3090 H   0  0  0  0  0  0  0  0  0  0  0  0
   -1.9088    1.6049    2.0008 H   0  0  0  0  0  0  0  0  0  0  0  0
   -5.2846    1.0055    0.4633 H   0  0  0  0  0  0  0  0  0  0  0  0
    5.0815    0.8109   -2.0299 H   0  0  0  0  0  0  0  0  0  0  0  0
   -4.0268   -1.5713    0.5304 H   0  0  0  0  0  0  0  0  0  0  0  0
   -4.9000    0.5604   -1.3445 H   0  0  0  0  0  0  0  0  0  0  0  0
   -4.2301   -1.1347   -1.6731 H   0  0  0  0  0  0  0  0  0  0  0  0
   -2.7301    1.4453   -1.5788 H   0  0  0  0  0  0  0  0  0  0  0  0
   -2.4718   -0.0273   -2.6039 H   0  0  0  0  0  0  0  0  0  0  0  0
   -1.7978   -1.3719   -0.7738 H   0  0  0  0  0  0  0  0  0  0  0  0
   -0.4517    1.2891   -0.0229 H   0  0  0  0  0  0  0  0  0  0  0  0
    0.0108   -1.3163    2.5362 H   0  0  0  0  0  0  0  0  0  0  0  0
   -0.2914    0.4231    2.3859 H   0  0  0  0  0  0  0  0  0  0  0  0
   -0.2825    0.9077   -2.4834 H   0  0  0  0  0  0  0  0  0  0  0  0
    0.3814   -0.7027   -2.1591 H   0  0  0  0  0  0  0  0  0  0  0  0
    2.3692    0.5452   -2.2265 H   0  0  0  0  0  0  0  0  0  0  0  0
    1.5495    2.0504   -1.7755 H   0  0  0  0  0  0  0  0  0  0  0  0
    1.5822    1.7559    0.4618 H   0  0  0  0  0  0  0  0  0  0  0  0
    1.9750   -0.2288    1.7074 H   0  0  0  0  0  0  0  0  0  0  0  0
    3.9484    2.0433   -0.3233 H   0  0  0  0  0  0  0  0  0  0  0  0
    3.7438    1.1891    1.2164 H   0  0  0  0  0  0  0  0  0  0  0  0
    5.4315    0.1157    0.0504 H   0  0  0  0  0  0  0  0  0  0  0  0
    4.3414   -2.1220   -0.6584 H   0  0  0  0  0  0  0  0  0  0  0  0
    4.4139   -1.6642    1.0516 H   0  0  0  0  0  0  0  0  0  0  0  0
    2.0939   -1.8278   -0.9097 H   0  0  0  0  0  0  0  0  0  0  0  0
    2.2178   -2.4117    0.7634 H   0  0  0  0  0  0  0  0  0  0  0  0
  2  3  1  0
  3  4  1  1
  3  7  1  0
  5  7  1  0
  7  8  1  0
  8  9  1  0
  3 10  1  0
  9 10  1  0
  1 11  1  0
 10 11  1  0
  1 12  1  0
  2 12  1  0
 11 13  1  0
 13 14  1  0
 14 15  1  0
  1 16  1  0
 15 16  1  0
 15 17  1  0
  6 18  1  0
 17 18  1  0
 18 19  1  0
 16 20  1  0
 19 20  1  0
 22 23  1  0
 23 24  1  1
 23 27  1  0
 25 27  1  0
 27 28  1  0
 28 29  1  0
 23 30  1  0
 29 30  1  0
 21 31  1  0
 30 31  1  0
 21 32  1  0
 22 32  1  0
 31 33  1  0
 33 34  1  0
 34 35  1  0
 21 36  1  0
 35 36  1  0
 35 37  1  0
 26 38  1  0
 37 38  1  0
 38 39  1  0
 36 40  1  0
 39 40  1  0
  1 41  1  6
  2 42  1  0
  2 43  1  0
  4 44  1  0
  4 45  1  0
  4 46  1  0
  5 47  1  0
  6 48  1  0
  7 49  1  6
  8 50  1  0
  8 51  1  0
  9 52  1  0
  9 53  1  0
 10 54  1  6
 11 55  1  1
 12 56  1  0
 12 57  1  0
 13 58  1  0
 13 59  1  0
 14 60  1  0
 14 61  1  0
 15 62  1  0
 16 63  1  0
 17 64  1  0
 17 65  1  0
 18 66  1  0
 19 67  1  0
 19 68  1  0
 20 69  1  0
 20 70  1  0
 21 71  1  6
 22 72  1  0
 22 73  1  0
 24 74  1  0
 24 75  1  0
 24 76  1  0
 25 77  1  0
 26 78  1  0
 27 79  1  6
 28 80  1  0
 28 81  1  0
 29 82  1  0
 29 83  1  0
 30 84  1  6
 31 85  1  1
 32 86  1  0
 32 87  1  0
 33 88  1  0
 33 89  1  0
 34 90  1  0
 34 91  1  0
 35 92  1  0
 36 93  1  0
 37 94  1  0
 37 95  1  0
 38 96  1  0
 39 97  1  0
 39 98  1  0
 40 99  1  0
 40100  1  0
M  END
>  <PDBID>  (1) 
3HM1

>  <PDB ID>  (1) 
3HM1

>  <Generic Name>  (1) 
Estrone

>  <Brand Name>  (1) 
Estragyn Vaginal Cream#Oestrilin Cones Vaginaux#Oestrilin Creme Vaginale 1mg#Estrone

>  <DrugBank ID>  (1) 
DB00655

>  <ATC Codes>  (1) 
G03CA07#G03CC04

>  <Ligand ID>  (1) 
J3Z

>  <Target Name>  (1) 
Estrogen receptor

>  <UniProt ID>  (1) 
P03372

>  <PDB ID.1>  (1) 
3HM1

>  <Seq. Identity>  (1) 
93%

$$$$
