PDB_DB00443_09
     RDKit          3D

130136  0  0  0  0  0  0  0  0999 V2000
    3.1579   -0.5418   -1.6744 C   0  0  0  0  0  0  0  0  0  0  0  0
    4.5951   -0.8568   -1.5121 C   0  0  0  0  0  0  0  0  0  0  0  0
    5.3126   -0.1362   -0.4378 C   0  0  0  0  0  0  0  0  0  0  0  0
    4.6574    1.0746    0.0986 C   0  0  0  0  0  0  0  0  0  0  0  0
    3.1882    1.0926    0.1213 C   0  0  0  0  0  0  0  0  0  0  0  0
    2.6053    1.5148    1.4650 C   0  0  0  0  0  0  0  0  0  0  0  0
    1.1250    1.5708    1.4498 C   0  0  0  0  0  0  0  0  0  0  0  0
    0.4660    0.3671    0.8005 C   0  0  2  0  0  0  0  0  0  0  0  0
    1.0719    0.1922   -0.5493 C   0  0  1  0  0  0  0  0  0  0  0  0
    2.5277   -0.1950   -0.3469 C   0  0  1  0  0  0  0  0  0  0  0  0
    0.3502   -0.7160   -1.4767 C   0  0  2  0  0  0  0  0  0  0  0  0
   -1.0884   -0.2656   -1.5808 C   0  0  0  0  0  0  0  0  0  0  0  0
   -1.7068   -0.3483   -0.2379 C   0  0  1  0  0  0  0  0  0  0  0  0
   -0.9791    0.6554    0.6646 C   0  0  1  0  0  0  0  0  0  0  0  0
   -1.7997    0.5365    1.9040 C   0  0  0  0  0  0  0  0  0  0  0  0
   -3.2274    0.4335    1.3421 C   0  0  2  0  0  0  0  0  0  0  0  0
   -3.0889    0.2437   -0.1416 C   0  0  2  0  0  0  0  0  0  0  0  0
   -1.6261   -1.7223    0.3790 C   0  0  0  0  0  0  0  0  0  0  0  0
    2.6802   -1.3196    0.6210 C   0  0  0  0  0  0  0  0  0  0  0  0
   -4.1296   -0.6506   -0.7453 C   0  0  0  0  0  0  0  0  0  0  0  0
   -5.4878   -0.0469   -0.7560 C   0  0  0  0  0  0  0  0  0  0  0  0
   -3.9294    1.7190    1.7003 C   0  0  0  0  0  0  0  0  0  0  0  0
    1.0677    1.4598   -1.1566 F   0  0  0  0  0  0  0  0  0  0  0  0
    6.5776    0.2395   -0.9560 O   0  0  0  0  0  0  0  0  0  0  0  0
    0.4846   -2.0566   -1.2250 O   0  0  0  0  0  0  0  0  0  0  0  0
   -3.0901    1.4817   -0.7389 O   0  0  0  0  0  0  0  0  0  0  0  0
   -4.1893   -1.9067   -0.1993 O   0  0  0  0  0  0  0  0  0  0  0  0
   -5.9741    0.0397    0.5338 O   0  0  0  0  0  0  0  0  0  0  0  0
   -1.1855    1.6750    0.2285 H   0  0  0  0  0  0  0  0  0  0  0  0
    3.2007    0.4877    1.3017 C   0  0  0  0  0  0  0  0  0  0  0  0
    4.6826    0.3745    1.2079 C   0  0  0  0  0  0  0  0  0  0  0  0
    5.1846   -0.5572    0.1591 C   0  0  0  0  0  0  0  0  0  0  0  0
    4.4479   -0.5043   -1.1365 C   0  0  0  0  0  0  0  0  0  0  0  0
    2.9508   -0.4934   -0.9202 C   0  0  0  0  0  0  0  0  0  0  0  0
    2.5646   -1.8207   -0.3135 C   0  0  0  0  0  0  0  0  0  0  0  0
    1.1667   -1.8504    0.2128 C   0  0  0  0  0  0  0  0  0  0  0  0
    0.4136   -0.6778   -0.3209 C   0  0  2  0  0  0  0  0  0  0  0  0
    1.0649    0.6392    0.1049 C   0  0  1  0  0  0  0  0  0  0  0  0
    2.5238    0.6690   -0.0542 C   0  0  1  0  0  0  0  0  0  0  0  0
    0.3245    1.7365   -0.6104 C   0  0  2  0  0  0  0  0  0  0  0  0
   -1.1415    1.7530   -0.3236 C   0  0  0  0  0  0  0  0  0  0  0  0
   -1.8056    0.4276   -0.4937 C   0  0  1  0  0  0  0  0  0  0  0  0
   -0.9435   -0.5913    0.2305 C   0  0  1  0  0  0  0  0  0  0  0  0
   -1.7937   -1.7860    0.2523 C   0  0  0  0  0  0  0  0  0  0  0  0
   -3.0924   -1.1811    0.7595 C   0  0  2  0  0  0  0  0  0  0  0  0
   -3.0597    0.2710    0.3391 C   0  0  2  0  0  0  0  0  0  0  0  0
   -2.0481    0.0974   -1.9163 C   0  0  0  0  0  0  0  0  0  0  0  0
    3.0749    1.9412   -0.6290 C   0  0  0  0  0  0  0  0  0  0  0  0
   -4.3282    0.6028   -0.3598 C   0  0  0  0  0  0  0  0  0  0  0  0
   -5.4766    0.4014    0.6273 C   0  0  0  0  0  0  0  0  0  0  0  0
   -3.0471   -1.1951    2.2777 C   0  0  0  0  0  0  0  0  0  0  0  0
    0.7402    0.7777    1.4617 F   0  0  0  0  0  0  0  0  0  0  0  0
    6.5274   -0.2040   -0.1033 O   0  0  0  0  0  0  0  0  0  0  0  0
    0.5023    1.6920   -1.9940 O   0  0  0  0  0  0  0  0  0  0  0  0
   -2.9156    1.1487    1.4200 O   0  0  0  0  0  0  0  0  0  0  0  0
   -4.5912   -0.2350   -1.4413 O   0  0  0  0  0  0  0  0  0  0  0  0
   -6.6982    0.7489    0.0031 O   0  0  0  0  0  0  0  0  0  0  0  0
    2.6157   -1.4528   -2.0513 H   0  0  0  0  0  0  0  0  0  0  0  0
    2.9642    0.2493   -2.4130 H   0  0  0  0  0  0  0  0  0  0  0  0
    5.0890   -0.7260   -2.5197 H   0  0  0  0  0  0  0  0  0  0  0  0
    4.6875   -1.9659   -1.3193 H   0  0  0  0  0  0  0  0  0  0  0  0
    5.5773   -0.8313    0.4140 H   0  0  0  0  0  0  0  0  0  0  0  0
    5.0236    1.2211    1.1591 H   0  0  0  0  0  0  0  0  0  0  0  0
    5.0695    1.9818   -0.4370 H   0  0  0  0  0  0  0  0  0  0  0  0
    2.8267    1.8806   -0.6048 H   0  0  0  0  0  0  0  0  0  0  0  0
    2.9778    2.5722    1.6161 H   0  0  0  0  0  0  0  0  0  0  0  0
    3.0459    0.9433    2.3074 H   0  0  0  0  0  0  0  0  0  0  0  0
    0.7764    2.5028    0.9805 H   0  0  0  0  0  0  0  0  0  0  0  0
    0.7700    1.5603    2.5203 H   0  0  0  0  0  0  0  0  0  0  0  0
    0.6118   -0.4748    1.4942 H   0  0  0  0  0  0  0  0  0  0  0  0
    0.7882   -0.5423   -2.5037 H   0  0  0  0  0  0  0  0  0  0  0  0
   -1.6363   -0.8962   -2.3318 H   0  0  0  0  0  0  0  0  0  0  0  0
   -1.0720    0.7906   -1.9029 H   0  0  0  0  0  0  0  0  0  0  0  0
   -1.5285   -0.3848    2.4315 H   0  0  0  0  0  0  0  0  0  0  0  0
   -1.6922    1.4132    2.5688 H   0  0  0  0  0  0  0  0  0  0  0  0
   -3.7746   -0.3957    1.8309 H   0  0  0  0  0  0  0  0  0  0  0  0
   -0.6297   -1.9435    0.8234 H   0  0  0  0  0  0  0  0  0  0  0  0
   -1.8392   -2.5270   -0.3305 H   0  0  0  0  0  0  0  0  0  0  0  0
   -2.3457   -1.8131    1.2280 H   0  0  0  0  0  0  0  0  0  0  0  0
    1.7702   -1.9607    0.7214 H   0  0  0  0  0  0  0  0  0  0  0  0
    3.4983   -2.0245    0.3553 H   0  0  0  0  0  0  0  0  0  0  0  0
    2.9101   -0.9870    1.6650 H   0  0  0  0  0  0  0  0  0  0  0  0
   -3.8236   -0.7876   -1.8251 H   0  0  0  0  0  0  0  0  0  0  0  0
   -5.5521    0.9105   -1.3092 H   0  0  0  0  0  0  0  0  0  0  0  0
   -6.1717   -0.7491   -1.3049 H   0  0  0  0  0  0  0  0  0  0  0  0
   -4.7341    1.5418    2.4732 H   0  0  0  0  0  0  0  0  0  0  0  0
   -4.3330    2.2280    0.8001 H   0  0  0  0  0  0  0  0  0  0  0  0
   -3.2440    2.4502    2.1766 H   0  0  0  0  0  0  0  0  0  0  0  0
    6.8627    1.0974   -0.5933 H   0  0  0  0  0  0  0  0  0  0  0  0
    0.3062   -2.5925   -2.0261 H   0  0  0  0  0  0  0  0  0  0  0  0
   -3.4571    1.3922   -1.6493 H   0  0  0  0  0  0  0  0  0  0  0  0
   -4.6112   -2.5145   -0.8809 H   0  0  0  0  0  0  0  0  0  0  0  0
   -6.0913   -0.8947    0.8629 H   0  0  0  0  0  0  0  0  0  0  0  0
    2.7446   -0.3092    1.8991 H   0  0  0  0  0  0  0  0  0  0  0  0
    2.9799    1.4458    1.8586 H   0  0  0  0  0  0  0  0  0  0  0  0
    5.0323   -0.0388    2.1998 H   0  0  0  0  0  0  0  0  0  0  0  0
    5.2000    1.3563    1.1250 H   0  0  0  0  0  0  0  0  0  0  0  0
    5.2369   -1.6214    0.5117 H   0  0  0  0  0  0  0  0  0  0  0  0
    4.6659   -1.4523   -1.7026 H   0  0  0  0  0  0  0  0  0  0  0  0
    4.7691    0.3138   -1.8061 H   0  0  0  0  0  0  0  0  0  0  0  0
    2.4636   -0.3882   -1.9051 H   0  0  0  0  0  0  0  0  0  0  0  0
    2.6990   -2.5852   -1.1073 H   0  0  0  0  0  0  0  0  0  0  0  0
    3.2431   -2.1172    0.5158 H   0  0  0  0  0  0  0  0  0  0  0  0
    0.6478   -2.7693   -0.1898 H   0  0  0  0  0  0  0  0  0  0  0  0
    1.0982   -1.9533    1.3157 H   0  0  0  0  0  0  0  0  0  0  0  0
    0.4839   -0.7004   -1.4253 H   0  0  0  0  0  0  0  0  0  0  0  0
    0.7416    2.7067   -0.2357 H   0  0  0  0  0  0  0  0  0  0  0  0
   -1.3717    2.2181    0.6775 H   0  0  0  0  0  0  0  0  0  0  0  0
   -1.6073    2.4448   -1.0872 H   0  0  0  0  0  0  0  0  0  0  0  0
   -0.8674   -0.2042    1.2909 H   0  0  0  0  0  0  0  0  0  0  0  0
   -1.4341   -2.4946    1.0315 H   0  0  0  0  0  0  0  0  0  0  0  0
   -1.9122   -2.2870   -0.7253 H   0  0  0  0  0  0  0  0  0  0  0  0
   -3.9737   -1.7280    0.3721 H   0  0  0  0  0  0  0  0  0  0  0  0
   -1.1458    0.1528   -2.5599 H   0  0  0  0  0  0  0  0  0  0  0  0
   -2.4764   -0.8948   -2.0999 H   0  0  0  0  0  0  0  0  0  0  0  0
   -2.7461    0.8514   -2.3347 H   0  0  0  0  0  0  0  0  0  0  0  0
    2.7589    2.7738    0.0523 H   0  0  0  0  0  0  0  0  0  0  0  0
    4.1868    1.9188   -0.5518 H   0  0  0  0  0  0  0  0  0  0  0  0
    2.7603    2.1674   -1.6439 H   0  0  0  0  0  0  0  0  0  0  0  0
   -4.3460    1.6811   -0.7115 H   0  0  0  0  0  0  0  0  0  0  0  0
   -5.6010   -0.6611    0.9080 H   0  0  0  0  0  0  0  0  0  0  0  0
   -5.3398    1.0634    1.5099 H   0  0  0  0  0  0  0  0  0  0  0  0
   -2.3732   -2.0209    2.6452 H   0  0  0  0  0  0  0  0  0  0  0  0
   -2.6097   -0.2642    2.6935 H   0  0  0  0  0  0  0  0  0  0  0  0
   -4.0307   -1.3405    2.7337 H   0  0  0  0  0  0  0  0  0  0  0  0
    7.1207   -0.6772    0.5367 H   0  0  0  0  0  0  0  0  0  0  0  0
    0.3746    2.6171   -2.3204 H   0  0  0  0  0  0  0  0  0  0  0  0
   -3.3574    2.0117    1.1635 H   0  0  0  0  0  0  0  0  0  0  0  0
   -5.4507   -0.0658   -1.8545 H   0  0  0  0  0  0  0  0  0  0  0  0
   -6.9922   -0.0165   -0.5205 H   0  0  0  0  0  0  0  0  0  0  0  0
  1  2  1  0
  2  3  1  0
  3  4  1  0
  4  5  1  0
  5  6  1  0
  6  7  1  0
  7  8  1  0
  8  9  1  0
  1 10  1  0
  5 10  1  0
  9 10  1  0
  9 11  1  0
 11 12  1  0
 12 13  1  0
  8 14  1  0
 13 14  1  0
 14 15  1  0
 15 16  1  0
 13 17  1  0
 16 17  1  0
 13 18  1  1
 10 19  1  1
 17 20  1  0
 20 21  1  0
 16 22  1  0
  9 23  1  6
  3 24  1  0
 11 25  1  0
 17 26  1  6
 20 27  1  0
 21 28  1  0
 14 29  1  6
 30 31  1  0
 31 32  1  0
 32 33  1  0
 33 34  1  0
 34 35  1  0
 35 36  1  0
 36 37  1  0
 37 38  1  0
 30 39  1  0
 34 39  1  0
 38 39  1  0
 38 40  1  0
 40 41  1  0
 41 42  1  0
 37 43  1  0
 42 43  1  0
 43 44  1  0
 44 45  1  0
 42 46  1  0
 45 46  1  0
 42 47  1  6
 39 48  1  6
 46 49  1  0
 49 50  1  0
 45 51  1  0
 38 52  1  1
 32 53  1  0
 40 54  1  0
 46 55  1  1
 49 56  1  0
 50 57  1  0
  1 58  1  0
  1 59  1  0
  2 60  1  0
  2 61  1  0
  3 62  1  0
  4 63  1  0
  4 64  1  0
  5 65  1  0
  6 66  1  0
  6 67  1  0
  7 68  1  0
  7 69  1  0
  8 70  1  1
 11 71  1  6
 12 72  1  0
 12 73  1  0
 15 74  1  0
 15 75  1  0
 16 76  1  1
 18 77  1  0
 18 78  1  0
 18 79  1  0
 19 80  1  0
 19 81  1  0
 19 82  1  0
 20 83  1  0
 21 84  1  0
 21 85  1  0
 22 86  1  0
 22 87  1  0
 22 88  1  0
 24 89  1  0
 25 90  1  0
 26 91  1  0
 27 92  1  0
 28 93  1  0
 30 94  1  0
 30 95  1  0
 31 96  1  0
 31 97  1  0
 32 98  1  0
 33 99  1  0
 33100  1  0
 34101  1  0
 35102  1  0
 35103  1  0
 36104  1  0
 36105  1  0
 37106  1  6
 40107  1  1
 41108  1  0
 41109  1  0
 43110  1  1
 44111  1  0
 44112  1  0
 45113  1  1
 47114  1  0
 47115  1  0
 47116  1  0
 48117  1  0
 48118  1  0
 48119  1  0
 49120  1  0
 50121  1  0
 50122  1  0
 51123  1  0
 51124  1  0
 51125  1  0
 53126  1  0
 54127  1  0
 55128  1  0
 56129  1  0
 57130  1  0
M  END
>  <PDBID>  (1) 
1M2Z

>  <PDB ID>  (1) 
1M2Z

>  <Generic Name>  (1) 
Betamethasone

>  <Brand Name>  (1) 
Beben Gel 0.025%#Beta 1 Kit#Betacort Scalp Lotion 0.1%#Betaderm Crm 0.05%#Betaderm Crm 0.1%#Betaderm Lotion 0.1%#Betaderm Ont 0.05%#Betaderm Ont 0.1%#Betagel - 0.1%#Betaject#Betaloan Suik#Betamethasone#Betamethasone Clotrimazole#Betamethasone Combo 6mg/ml PF#Betamethasone Combo 7mg/ml#Betamethasone Dipropionate#Betamethasone Dipropionate Augmented#Betamethasone Sodium Phosphate and Betamethasone Acetate#Betamethasone Sp 24mg/2ml PF#Betamethasone Valerate#Betamethasone Valerate Lot 0.1% USP#Betamycin Ophthalmic/otic Solution#Betaprolene Cream 0.05%#Betaprolene Ointment 0.05%#Betaprone Cream 0.05%#Betaprone Lotion 0.05%#Betaprone Ointment 0.05%#Beteflam#Betnesol Eye and Ear Drops#Betnesol Eye and Ear Drops 0.1%#Betnesol Pellets 0.1mg#Betnesol Retention Enema 5mg/100ml#Betnesol Retention Enemas#Betnesol Tab 0.5mg#Betnesol Tablets#Betnovate 1/2 Crm 0.05%#Betnovate 1/2 Lot 0.05%#Betnovate 1/2 Ont 0.05%#Betnovate Crm 0.1%#Betnovate Lot 0.1%#Betnovate Lotion 0.1%#Betnovate Ont 0.1%#Calcipotriene 0.005% and Betamethasone Dipropionate 0.064%#Calcipotriene and Betamethasone Dipropionate#Celestoderm V#Celestoderm V Crm 0.1%#Celestoderm V Ont 0.1%#Celestoderm V/2#Celestoderm V/2 Cream .05%#Celestoderm V/2 Ointment 0.05%#Celestone Repetabs 1mg#Celestone Soluspan#Celestone Tab 0.5mg#Clotrimazole and Betamethasone Dipropionate#Dermacinrx Therazole Pak#Diprogen Cream#Diprogen Ointment#Diprolene#Diprolene AF#Diprosalic#Diprosone Cream 0.05%#Diprosone Lotion 0.05%#Diprosone Ointment 0.05%#Dom-gentamicin-betamethasone#Dovobet Gel#Dovobet Ointment#Dr. Throwers Beta#Dr. Throwers Pbc No. 1#Enstilar#Garasone Ophthalmic Ointment#Garasone Ophthalmic and Otic Solution#Lotriderm Cream#Lotrisone#Luxiq#Marbeta 25 Kit#Occlucort Film Forming Lot 0.05#PMS-clotrimazole-betamethasone#PMS-gentamicin-betamethasone#Prevex B Cream 0.1%#Pro-lene Glycol Cream - 0.05%#Pro-lene Glycol Lotion - 0.05%#Pro-lene Glycol Ointment - 0.05%#Pro-sone Cream - 0.05%#Pro-sone Lotion -  0.05%#Pro-sone Ointment - 0.05%#Ratio-ectosone#Ratio-ectosone Mild Cream 0.05%#Ratio-ectosone Mild Lotion 0.05%#Ratio-ectosone Regular Cream 0.1%#Ratio-ectosone Regular Lotion 0.1%#Ratio-topilene#Ratio-topisalic#Ratio-topisone#Readysharp Betamethasone#Rhoprolene Glycol Cream 0.5mg/gm#Rhoprolene Glycol Lotion 0.5mg/gm#Rhoprolene Glycol Ointment 0.5mg/gm#Rhoprosone Cream 0.05%#Rhoprosone Lotion 0.05%#Rhoprosone Oint 0.05%#Rivasone Scalp Lot 0.1%#Rolene Cream 0.05%#Rolene Lotion 0.05%#Rolene Ointment 0.05%#Rosone Cream 0.05%#Rosone Lotion 0.05%#Rosone Ointment 0.05%#Sandoz Pentasone#Sernivo#Taclonex#Taclonex Scalp#Taro Sone Lot 0.05%#Taro Sone Ont#Taro-sone Cream 0.05%#Valisone Scalp Lotion#Valisone-G Cream#Valisone-G Ointment#Bentelan#Betnovate#Celestamine#Celestone#Diprosone#Fucibet#Procort#Rinderon

>  <DrugBank ID>  (1) 
DB00443

>  <ATC Codes>  (1) 
S01BB04#R03BA04#S01CA05#H02AB01#R01AD06#D07BC01#C05AA05#D07CC01#D07AC01#S01CB04#D07XC01#S02BA07#A07EA04#S03BA03#S01BA06#S03CA06

>  <Ligand ID>  (1) 
DEX

>  <Target Name>  (1) 
Glucocorticoid receptor

>  <UniProt ID>  (1) 
P04150

>  <PDB ID.1>  (1) 
1M2Z

>  <Seq. Identity>  (1) 
100%

$$$$
