PDB_DB01361_01
     RDKit          3D

134137  0  0  0  0  0  0  0  0999 V2000
    4.6115   -5.2758   -1.7088 C   0  0  0  0  0  0  0  0  0  0  0  0
    3.8986   -4.5557   -0.7505 O   0  0  0  0  0  0  0  0  0  0  0  0
    4.5763   -3.4518   -0.2976 C   0  0  1  0  0  0  0  0  0  0  0  0
    3.8837   -2.1527   -0.6465 C   0  0  0  0  0  0  0  0  0  0  0  0
    2.5708   -2.1040    0.1022 C   0  0  1  0  0  0  0  0  0  0  0  0
    2.6343   -2.7640    1.3172 O   0  0  0  0  0  0  0  0  0  0  0  0
    3.8594   -2.7858    1.9199 C   0  0  1  0  0  0  0  0  0  0  0  0
    3.6586   -3.3832    3.3159 C   0  0  0  0  0  0  0  0  0  0  0  0
    4.9354   -3.5140    1.1727 C   0  0  2  0  0  0  0  0  0  0  0  0
    6.1238   -2.8058    1.3457 O   0  0  0  0  0  0  0  0  0  0  0  0
    7.1508   -3.5444    1.8818 C   0  0  1  0  0  0  0  0  0  0  0  0
    8.2474   -3.6422    1.0198 O   0  0  0  0  0  0  0  0  0  0  0  0
    7.6115   -3.0146    3.2228 C   0  0  0  0  0  0  0  0  0  0  0  0
    2.0296   -0.8499    0.1709 O   0  0  0  0  0  0  0  0  0  0  0  0
    0.8238   -0.6956   -0.5590 C   0  0  2  0  0  0  0  0  0  0  0  0
    1.2503    0.1243   -1.7283 C   0  0  2  0  0  0  0  0  0  0  0  0
    2.1002    1.3208   -1.4168 C   0  0  0  0  0  0  0  0  0  0  0  0
    2.7937    1.1494   -0.1928 O   0  0  0  0  0  0  0  0  0  0  0  0
    1.4235    2.5294   -1.4174 O   0  0  0  0  0  0  0  0  0  0  0  0
    1.7284    3.3396   -2.5206 C   0  0  2  0  0  0  0  0  0  0  0  0
    3.2060    3.5954   -2.4685 C   0  0  0  0  0  0  0  0  0  0  0  0
    0.9040    4.6167   -2.4691 C   0  0  2  0  0  0  0  0  0  0  0  0
    1.6925    5.7033   -3.1214 C   0  0  0  0  0  0  0  0  0  0  0  0
    0.3782    4.8938   -1.1238 C   0  0  1  0  0  0  0  0  0  0  0  0
    1.1223    5.7189   -0.3265 O   0  0  0  0  0  0  0  0  0  0  0  0
    1.6704    5.2214    0.8009 C   0  0  2  0  0  0  0  0  0  0  0  0
    1.2110    5.9539    1.8936 O   0  0  0  0  0  0  0  0  0  0  0  0
    3.1734    5.3928    0.7549 C   0  0  0  0  0  0  0  0  0  0  0  0
   -1.1203    5.1828   -1.0637 C   0  0  2  0  0  0  0  0  0  0  0  0
   -1.8741    4.0489   -1.7751 C   0  0  2  0  0  0  0  0  0  0  0  0
   -2.2922    4.4763   -3.0482 O   0  0  0  0  0  0  0  0  0  0  0  0
   -2.9938    3.4784   -0.9976 C   0  0  2  0  0  0  0  0  0  0  0  0
   -4.2824    3.7674   -1.6862 O   0  0  0  0  0  0  0  0  0  0  0  0
   -3.9831    4.1480   -0.2805 C   0  0  0  0  0  0  0  0  0  0  0  0
   -2.8550    1.9787   -0.9279 C   0  0  0  0  0  0  0  0  0  0  0  0
   -1.8907    1.5076    0.0939 C   0  0  1  0  0  0  0  0  0  0  0  0
   -2.2303    1.9203    1.5034 C   0  0  0  0  0  0  0  0  0  0  0  0
   -1.5452    0.0493   -0.0155 C   0  0  2  0  0  0  0  0  0  0  0  0
   -2.5114   -0.7175    0.4459 O   0  0  0  0  0  0  0  0  0  0  0  0
   -3.2193   -1.6763   -0.0691 C   0  0  2  0  0  0  0  0  0  0  0  0
   -4.5337   -1.1065   -0.3018 O   0  0  0  0  0  0  0  0  0  0  0  0
   -5.2623   -2.0378   -1.0580 C   0  0  2  0  0  0  0  0  0  0  0  0
   -6.3040   -1.4639   -1.9415 C   0  0  0  0  0  0  0  0  0  0  0  0
   -5.7117   -3.2175   -0.2294 C   0  0  0  0  0  0  0  0  0  0  0  0
   -5.0193   -3.0007    1.1301 C   0  0  2  0  0  0  0  0  0  0  0  0
   -5.4686   -1.7557    1.7168 N   0  0  0  0  0  0  0  0  0  0  0  0
   -6.9040   -1.8073    1.9646 C   0  0  0  0  0  0  0  0  0  0  0  0
   -4.8443   -1.6268    3.0282 C   0  0  0  0  0  0  0  0  0  0  0  0
   -3.5368   -2.8760    0.7764 C   0  0  1  0  0  0  0  0  0  0  0  0
   -2.9452   -4.0536    0.4869 O   0  0  0  0  0  0  0  0  0  0  0  0
   -2.0573   -4.6172    1.3193 C   0  0  2  0  0  0  0  0  0  0  0  0
   -0.7533   -4.7556    0.8561 O   0  0  0  0  0  0  0  0  0  0  0  0
   -2.4464   -5.9133    1.9734 C   0  0  0  0  0  0  0  0  0  0  0  0
   -0.1289   -0.1654    0.4298 C   0  0  1  0  0  0  0  0  0  0  0  0
   -0.0517   -1.1180    1.6344 C   0  0  0  0  0  0  0  0  0  0  0  0
   -1.4961    6.4356   -1.7750 C   0  0  0  0  0  0  0  0  0  0  0  0
    0.2813    0.3090   -2.8456 C   0  0  0  0  0  0  0  0  0  0  0  0
    4.7897   -4.5654   -2.5626 H   0  0  0  0  0  0  0  0  0  0  0  0
    4.0369   -6.1008   -2.1316 H   0  0  0  0  0  0  0  0  0  0  0  0
    5.5947   -5.5929   -1.3623 H   0  0  0  0  0  0  0  0  0  0  0  0
    5.5597   -3.4343   -0.8524 H   0  0  0  0  0  0  0  0  0  0  0  0
    3.6724   -2.1897   -1.7120 H   0  0  0  0  0  0  0  0  0  0  0  0
    4.5203   -1.2799   -0.4565 H   0  0  0  0  0  0  0  0  0  0  0  0
    1.8662   -2.7000   -0.5252 H   0  0  0  0  0  0  0  0  0  0  0  0
    4.1809   -1.7351    2.1115 H   0  0  0  0  0  0  0  0  0  0  0  0
    4.6073   -3.7463    3.7163 H   0  0  0  0  0  0  0  0  0  0  0  0
    2.8523   -4.1357    3.2589 H   0  0  0  0  0  0  0  0  0  0  0  0
    3.3144   -2.5815    4.0207 H   0  0  0  0  0  0  0  0  0  0  0  0
    5.1021   -4.5370    1.5239 H   0  0  0  0  0  0  0  0  0  0  0  0
    6.7971   -4.5782    2.0635 H   0  0  0  0  0  0  0  0  0  0  0  0
    7.8770   -3.7861    0.1082 H   0  0  0  0  0  0  0  0  0  0  0  0
    6.8057   -2.4294    3.7344 H   0  0  0  0  0  0  0  0  0  0  0  0
    8.4703   -2.3126    3.1102 H   0  0  0  0  0  0  0  0  0  0  0  0
    7.8824   -3.8389    3.9147 H   0  0  0  0  0  0  0  0  0  0  0  0
    0.5755   -1.6988   -0.9530 H   0  0  0  0  0  0  0  0  0  0  0  0
    2.0082   -0.5805   -2.2294 H   0  0  0  0  0  0  0  0  0  0  0  0
    2.9415    1.4626   -2.1625 H   0  0  0  0  0  0  0  0  0  0  0  0
    2.5055    1.8652    0.4520 H   0  0  0  0  0  0  0  0  0  0  0  0
    1.4868    2.7881   -3.4551 H   0  0  0  0  0  0  0  0  0  0  0  0
    3.6703    3.2401   -1.5171 H   0  0  0  0  0  0  0  0  0  0  0  0
    3.4874    4.6536   -2.6572 H   0  0  0  0  0  0  0  0  0  0  0  0
    3.6902    3.0035   -3.2702 H   0  0  0  0  0  0  0  0  0  0  0  0
    0.0207    4.4334   -3.1488 H   0  0  0  0  0  0  0  0  0  0  0  0
    0.9258    6.4527   -3.4919 H   0  0  0  0  0  0  0  0  0  0  0  0
    2.1996    5.3643   -4.0395 H   0  0  0  0  0  0  0  0  0  0  0  0
    2.3201    6.3015   -2.4329 H   0  0  0  0  0  0  0  0  0  0  0  0
    0.4393    3.9164   -0.5726 H   0  0  0  0  0  0  0  0  0  0  0  0
    1.4700    4.1639    1.0231 H   0  0  0  0  0  0  0  0  0  0  0  0
    0.3844    6.4623    1.6862 H   0  0  0  0  0  0  0  0  0  0  0  0
    3.5573    5.4476   -0.2736 H   0  0  0  0  0  0  0  0  0  0  0  0
    3.6460    4.4648    1.1862 H   0  0  0  0  0  0  0  0  0  0  0  0
    3.5261    6.2283    1.3939 H   0  0  0  0  0  0  0  0  0  0  0  0
   -1.4228    5.2647   -0.0108 H   0  0  0  0  0  0  0  0  0  0  0  0
   -1.1423    3.2438   -1.9883 H   0  0  0  0  0  0  0  0  0  0  0  0
   -3.1495    4.9300   -2.9797 H   0  0  0  0  0  0  0  0  0  0  0  0
   -4.7245    3.6388    0.3311 H   0  0  0  0  0  0  0  0  0  0  0  0
   -4.0624    5.2620   -0.2438 H   0  0  0  0  0  0  0  0  0  0  0  0
   -3.8600    1.5291   -0.6627 H   0  0  0  0  0  0  0  0  0  0  0  0
   -2.6018    1.5214   -1.9036 H   0  0  0  0  0  0  0  0  0  0  0  0
   -0.9284    2.0621   -0.1207 H   0  0  0  0  0  0  0  0  0  0  0  0
   -2.7030    1.1124    2.0925 H   0  0  0  0  0  0  0  0  0  0  0  0
   -2.8745    2.8076    1.5775 H   0  0  0  0  0  0  0  0  0  0  0  0
   -1.2994    2.1947    2.0843 H   0  0  0  0  0  0  0  0  0  0  0  0
   -1.4754   -0.1837   -1.0968 H   0  0  0  0  0  0  0  0  0  0  0  0
   -2.9986   -2.0611   -1.0831 H   0  0  0  0  0  0  0  0  0  0  0  0
   -4.4707   -2.4631   -1.7596 H   0  0  0  0  0  0  0  0  0  0  0  0
   -6.3976   -2.1227   -2.8325 H   0  0  0  0  0  0  0  0  0  0  0  0
   -7.2836   -1.5322   -1.4251 H   0  0  0  0  0  0  0  0  0  0  0  0
   -6.1551   -0.4057   -2.2055 H   0  0  0  0  0  0  0  0  0  0  0  0
   -5.2702   -4.1855   -0.6162 H   0  0  0  0  0  0  0  0  0  0  0  0
   -6.8013   -3.3150   -0.1283 H   0  0  0  0  0  0  0  0  0  0  0  0
   -5.2389   -3.8798    1.7165 H   0  0  0  0  0  0  0  0  0  0  0  0
   -7.4227   -1.7470    1.0078 H   0  0  0  0  0  0  0  0  0  0  0  0
   -7.1714   -0.8659    2.5330 H   0  0  0  0  0  0  0  0  0  0  0  0
   -7.1987   -2.6548    2.6140 H   0  0  0  0  0  0  0  0  0  0  0  0
   -3.8670   -1.0929    2.9384 H   0  0  0  0  0  0  0  0  0  0  0  0
   -4.7803   -2.5855    3.5571 H   0  0  0  0  0  0  0  0  0  0  0  0
   -5.4905   -0.9703    3.6670 H   0  0  0  0  0  0  0  0  0  0  0  0
   -3.0988   -2.5947    1.7908 H   0  0  0  0  0  0  0  0  0  0  0  0
   -1.9523   -3.8935    2.1902 H   0  0  0  0  0  0  0  0  0  0  0  0
   -0.1691   -5.2016    1.5028 H   0  0  0  0  0  0  0  0  0  0  0  0
   -1.8587   -5.9719    2.9272 H   0  0  0  0  0  0  0  0  0  0  0  0
   -3.5093   -5.9338    2.3040 H   0  0  0  0  0  0  0  0  0  0  0  0
   -2.1417   -6.8016    1.4059 H   0  0  0  0  0  0  0  0  0  0  0  0
    0.2567    0.7958    0.8269 H   0  0  0  0  0  0  0  0  0  0  0  0
    0.8487   -0.9302    2.2567 H   0  0  0  0  0  0  0  0  0  0  0  0
   -0.0201   -2.1578    1.3429 H   0  0  0  0  0  0  0  0  0  0  0  0
   -0.8988   -0.8822    2.3470 H   0  0  0  0  0  0  0  0  0  0  0  0
   -0.8987    7.3285   -1.5329 H   0  0  0  0  0  0  0  0  0  0  0  0
   -1.5550    6.2552   -2.8815 H   0  0  0  0  0  0  0  0  0  0  0  0
   -2.5451    6.6775   -1.4789 H   0  0  0  0  0  0  0  0  0  0  0  0
    0.8620    0.5013   -3.8023 H   0  0  0  0  0  0  0  0  0  0  0  0
   -0.1930   -0.6719   -3.0598 H   0  0  0  0  0  0  0  0  0  0  0  0
   -0.4095    1.1406   -2.7777 H   0  0  0  0  0  0  0  0  0  0  0  0
  1  2  1  0
  2  3  1  0
  3  4  1  0
  4  5  1  0
  5  6  1  0
  6  7  1  0
  7  8  1  0
  3  9  1  0
  7  9  1  0
  9 10  1  0
 10 11  1  0
 11 12  1  0
 11 13  1  0
  5 14  1  0
 14 15  1  0
 15 16  1  0
 16 17  1  0
 17 18  1  0
 17 19  1  0
 19 20  1  0
 20 21  1  0
 20 22  1  0
 22 23  1  0
 22 24  1  0
 24 25  1  0
 25 26  1  0
 26 27  1  0
 26 28  1  0
 24 29  1  0
 29 30  1  0
 30 31  1  0
 30 32  1  0
 32 33  1  6
 32 34  1  0
 33 34  1  0
 32 35  1  0
 35 36  1  0
 36 37  1  0
 36 38  1  0
 38 39  1  0
 39 40  1  0
 40 41  1  0
 41 42  1  0
 42 43  1  0
 42 44  1  0
 44 45  1  0
 45 46  1  0
 46 47  1  0
 46 48  1  0
 40 49  1  0
 45 49  1  0
 49 50  1  0
 50 51  1  0
 51 52  1  0
 51 53  1  0
 15 54  1  0
 38 54  1  0
 54 55  1  0
 29 56  1  0
 16 57  1  0
  1 58  1  0
  1 59  1  0
  1 60  1  0
  3 61  1  6
  4 62  1  0
  4 63  1  0
  5 64  1  6
  7 65  1  1
  8 66  1  0
  8 67  1  0
  8 68  1  0
  9 69  1  1
 11 70  1  1
 12 71  1  0
 13 72  1  0
 13 73  1  0
 13 74  1  0
 15 75  1  6
 16 76  1  6
 17 77  1  0
 18 78  1  0
 20 79  1  6
 21 80  1  0
 21 81  1  0
 21 82  1  0
 22 83  1  6
 23 84  1  0
 23 85  1  0
 23 86  1  0
 24 87  1  1
 26 88  1  1
 27 89  1  0
 28 90  1  0
 28 91  1  0
 28 92  1  0
 29 93  1  1
 30 94  1  6
 31 95  1  0
 34 96  1  0
 34 97  1  0
 35 98  1  0
 35 99  1  0
 36100  1  6
 37101  1  0
 37102  1  0
 37103  1  0
 38104  1  6
 40105  1  6
 42106  1  6
 43107  1  0
 43108  1  0
 43109  1  0
 44110  1  0
 44111  1  0
 45112  1  1
 47113  1  0
 47114  1  0
 47115  1  0
 48116  1  0
 48117  1  0
 48118  1  0
 49119  1  1
 51120  1  1
 52121  1  0
 53122  1  0
 53123  1  0
 53124  1  0
 54125  1  1
 55126  1  0
 55127  1  0
 55128  1  0
 56129  1  0
 56130  1  0
 56131  1  0
 57132  1  0
 57133  1  0
 57134  1  0
M  END
>  <PDBID>  (1) 
1OND

>  <PDB ID>  (1) 
1OND

>  <Generic Name>  (1) 
Troleandomycin

>  <Brand Name>  (1) 
Tao#Triocetin

>  <DrugBank ID>  (1) 
DB01361

>  <ATC Codes>  (1) 
J01FA08

>  <Ligand ID>  (1) 
TAO

>  <Target Name>  (1) 
50S ribosomal protein L32

>  <UniProt ID>  (1) 
P49228

>  <PDB ID.1>  (1) 
1OND

>  <Seq. Identity>  (1) 
100%

$$$$
