PDB_DB00730_03
     RDKit          3D

 33 35  0  0  0  0  0  0  0  0999 V2000
   -1.0794    0.6801    0.3397 C   0  0  0  0  0  0  0  0  0  0  0  0
    0.0642    1.3555   -0.2266 N   0  0  0  0  0  0  0  0  0  0  0  0
    0.9279    0.3224   -0.7801 C   0  0  0  0  0  0  0  0  0  0  0  0
    2.3235    0.5361   -0.2838 C   0  0  0  0  0  0  0  0  0  0  0  0
    2.4030    0.4687    1.2369 C   0  0  0  0  0  0  0  0  0  0  0  0
    4.2196    0.2173    1.3937 S   0  0  0  0  0  0  0  0  0  0  0  0
    4.5353   -0.1924   -0.3724 C   0  0  0  0  0  0  0  0  0  0  0  0
    3.1890   -0.4702   -0.8131 N   0  0  0  0  0  0  0  0  0  0  0  0
    0.3629   -0.9485   -0.3659 N   0  0  0  0  0  0  0  0  0  0  0  0
   -1.0592   -0.6348   -0.4511 C   0  0  0  0  0  0  0  0  0  0  0  0
   -1.9212   -1.6213    0.2586 C   0  0  0  0  0  0  0  0  0  0  0  0
   -3.2029   -0.9018    0.6710 C   0  0  0  0  0  0  0  0  0  0  0  0
   -3.4335    0.3332   -0.1677 C   0  0  0  0  0  0  0  0  0  0  0  0
   -2.3720    1.3849    0.1169 C   0  0  0  0  0  0  0  0  0  0  0  0
   -0.9128    0.3866    1.3973 H   0  0  0  0  0  0  0  0  0  0  0  0
   -0.3043    1.9676   -0.9971 H   0  0  0  0  0  0  0  0  0  0  0  0
    0.9314    0.3779   -1.8876 H   0  0  0  0  0  0  0  0  0  0  0  0
    2.6400    1.5457   -0.5714 H   0  0  0  0  0  0  0  0  0  0  0  0
    1.8464   -0.3918    1.6143 H   0  0  0  0  0  0  0  0  0  0  0  0
    2.1064    1.4414    1.6646 H   0  0  0  0  0  0  0  0  0  0  0  0
    5.0271    0.6226   -0.8940 H   0  0  0  0  0  0  0  0  0  0  0  0
    5.1120   -1.1473   -0.3570 H   0  0  0  0  0  0  0  0  0  0  0  0
    2.8887   -1.4162   -0.5750 H   0  0  0  0  0  0  0  0  0  0  0  0
    0.6447   -1.6769   -1.0524 H   0  0  0  0  0  0  0  0  0  0  0  0
   -1.3147   -0.4855   -1.5020 H   0  0  0  0  0  0  0  0  0  0  0  0
   -2.2407   -2.4687   -0.4018 H   0  0  0  0  0  0  0  0  0  0  0  0
   -1.4149   -2.0769    1.1241 H   0  0  0  0  0  0  0  0  0  0  0  0
   -3.1410   -0.5866    1.7210 H   0  0  0  0  0  0  0  0  0  0  0  0
   -4.0905   -1.5537    0.5404 H   0  0  0  0  0  0  0  0  0  0  0  0
   -3.4016    0.1342   -1.2451 H   0  0  0  0  0  0  0  0  0  0  0  0
   -4.3970    0.7628    0.1451 H   0  0  0  0  0  0  0  0  0  0  0  0
   -2.2952    2.1254   -0.6816 H   0  0  0  0  0  0  0  0  0  0  0  0
   -2.6413    1.9100    1.0658 H   0  0  0  0  0  0  0  0  0  0  0  0
  1  2  1  0
  2  3  1  0
  3  4  1  0
  4  5  1  0
  5  6  1  0
  6  7  1  0
  4  8  1  0
  7  8  1  0
  3  9  1  0
  1 10  1  0
  9 10  1  0
 10 11  1  0
 11 12  1  0
 12 13  1  0
  1 14  1  0
 13 14  1  0
  1 15  1  0
  2 16  1  0
  3 17  1  0
  4 18  1  0
  5 19  1  0
  5 20  1  0
  7 21  1  0
  7 22  1  0
  8 23  1  0
  9 24  1  0
 10 25  1  0
 11 26  1  0
 11 27  1  0
 12 28  1  0
 12 29  1  0
 13 30  1  0
 13 31  1  0
 14 32  1  0
 14 33  1  0
M  END
>  <PDBID>  (1) 
3SFE

>  <PDB ID>  (1) 
3SFE

>  <Generic Name>  (1) 
Thiabendazole

>  <Brand Name>  (1) 
Mintezol Chewable Tab 500mg#Mintezol

>  <DrugBank ID>  (1) 
DB00730

>  <ATC Codes>  (1) 
D01AC06#P02CA02

>  <Ligand ID>  (1) 
TMG

>  <Target Name>  (1) 
Fumarate reductase flavoprotein subunit

>  <UniProt ID>  (1) 
P00363

>  <PDB ID.1>  (1) 
3SFE

>  <Seq. Identity>  (1) 
38%

$$$$
