PDB_DB00323_00
     RDKit          3D

 47 48  0  0  0  0  0  0  0  0999 V2000
   -0.1752    1.4116   -1.4633 O   0  0  0  0  0  0  0  0  0  0  0  0
    0.2636    1.1982   -0.1715 C   0  0  1  0  0  0  0  0  0  0  0  0
   -0.8355    0.6985    0.6884 C   0  0  1  0  0  0  0  0  0  0  0  0
   -1.9284    1.7794    0.6731 C   0  0  0  0  0  0  0  0  0  0  0  0
   -2.9228    1.5673   -0.4314 C   0  0  0  0  0  0  0  0  0  0  0  0
   -3.7590    2.6759   -0.4731 O   0  0  0  0  0  0  0  0  0  0  0  0
   -1.5032   -0.5659    0.2211 C   0  0  0  0  0  0  0  0  0  0  0  0
   -2.9319   -0.5324    0.7865 C   0  0  0  0  0  0  0  0  0  0  0  0
   -3.5187   -1.8562    0.7567 N   0  0  0  0  0  0  0  0  0  0  0  0
   -2.8380   -2.7503    1.4716 O   0  0  0  0  0  0  0  0  0  0  0  0
   -4.8160   -1.7669    1.0567 O   0  0  0  0  0  0  0  0  0  0  0  0
   -3.8103    0.3858   -0.0228 C   0  0  0  0  0  0  0  0  0  0  0  0
   -4.8026    0.8830    0.8236 O   0  0  0  0  0  0  0  0  0  0  0  0
    1.5403    0.4332   -0.1639 C   0  0  0  0  0  0  0  0  0  0  0  0
    2.0806    0.1574    1.2068 C   0  0  0  0  0  0  0  0  0  0  0  0
    3.5706   -0.0669    1.1027 C   0  0  0  0  0  0  0  0  0  0  0  0
    3.9582   -0.3666   -0.3060 C   0  0  0  0  0  0  0  0  0  0  0  0
    5.2926   -1.1281   -0.2319 C   0  0  0  0  0  0  0  0  0  0  0  0
    3.0204   -1.2687   -1.0473 C   0  0  0  0  0  0  0  0  0  0  0  0
    1.5627   -0.8300   -0.9522 C   0  0  0  0  0  0  0  0  0  0  0  0
   -2.4750    1.8153    1.6217 H   0  0  0  0  0  0  0  0  0  0  0  0
   -3.3307    3.4424   -0.0226 H   0  0  0  0  0  0  0  0  0  0  0  0
   -1.0672   -1.4779    0.6781 H   0  0  0  0  0  0  0  0  0  0  0  0
   -4.7469    1.8541    0.9606 H   0  0  0  0  0  0  0  0  0  0  0  0
    1.8237    0.9387    1.9473 H   0  0  0  0  0  0  0  0  0  0  0  0
    4.0494    0.9172    1.3738 H   0  0  0  0  0  0  0  0  0  0  0  0
    5.2364   -1.9398    0.5015 H   0  0  0  0  0  0  0  0  0  0  0  0
    5.5969   -1.4672   -1.2333 H   0  0  0  0  0  0  0  0  0  0  0  0
    6.0404   -0.3617    0.1068 H   0  0  0  0  0  0  0  0  0  0  0  0
    3.1752   -2.2996   -0.6468 H   0  0  0  0  0  0  0  0  0  0  0  0
    1.0418   -1.6280   -0.4220 H   0  0  0  0  0  0  0  0  0  0  0  0
    0.5492    1.9404   -1.9213 H   0  0  0  0  0  0  0  0  0  0  0  0
    0.5243    2.2317    0.2192 H   0  0  0  0  0  0  0  0  0  0  0  0
   -0.5611    0.5988    1.7594 H   0  0  0  0  0  0  0  0  0  0  0  0
   -1.4764    2.7859    0.5182 H   0  0  0  0  0  0  0  0  0  0  0  0
   -2.5032    1.4166   -1.4246 H   0  0  0  0  0  0  0  0  0  0  0  0
   -1.4887   -0.7021   -0.8587 H   0  0  0  0  0  0  0  0  0  0  0  0
   -2.8523   -0.1808    1.8318 H   0  0  0  0  0  0  0  0  0  0  0  0
   -2.2079   -3.2090    0.8352 H   0  0  0  0  0  0  0  0  0  0  0  0
   -5.2237   -2.6714    1.1529 H   0  0  0  0  0  0  0  0  0  0  0  0
   -4.2469   -0.1163   -0.9066 H   0  0  0  0  0  0  0  0  0  0  0  0
    2.2934    1.1174   -0.6660 H   0  0  0  0  0  0  0  0  0  0  0  0
    1.6504   -0.8115    1.5956 H   0  0  0  0  0  0  0  0  0  0  0  0
    3.9332   -0.8196    1.8318 H   0  0  0  0  0  0  0  0  0  0  0  0
    4.2294    0.5578   -0.8967 H   0  0  0  0  0  0  0  0  0  0  0  0
    3.3739   -1.3077   -2.1027 H   0  0  0  0  0  0  0  0  0  0  0  0
    1.2148   -0.6817   -1.9947 H   0  0  0  0  0  0  0  0  0  0  0  0
  1  2  1  0
  2  3  1  0
  3  4  1  0
  4  5  1  0
  5  6  1  0
  3  7  1  0
  7  8  1  0
  8  9  1  0
  9 10  1  0
  9 11  1  0
  5 12  1  0
  8 12  1  0
 12 13  1  0
  2 14  1  0
 14 15  1  0
 15 16  1  0
 16 17  1  0
 17 18  1  0
 17 19  1  0
 14 20  1  0
 19 20  1  0
  4 21  1  0
  6 22  1  0
  7 23  1  0
 24 13  1  0
 15 25  1  0
 16 26  1  0
 18 27  1  0
 18 28  1  0
 18 29  1  0
 19 30  1  0
 20 31  1  0
  1 32  1  0
  2 33  1  1
  3 34  1  1
  4 35  1  0
  5 36  1  0
  7 37  1  0
  8 38  1  0
 10 39  1  0
 11 40  1  0
 12 41  1  0
 14 42  1  0
 15 43  1  0
 16 44  1  0
 17 45  1  0
 19 46  1  0
 20 47  1  0
M  END
>  <PDBID>  (1) 
3S68

>  <PDB ID>  (1) 
3S68

>  <Generic Name>  (1) 
Tolcapone

>  <Brand Name>  (1) 
Tasmar#Tolcapone#Sen De Ning

>  <DrugBank ID>  (1) 
DB00323

>  <ATC Codes>  (1) 
N04BX01

>  <Ligand ID>  (1) 
TCW

>  <Target Name>  (1) 
Catechol O-methyltransferase

>  <UniProt ID>  (1) 
P21964

>  <PDB ID.1>  (1) 
3S68

>  <Seq. Identity>  (1) 
81%

$$$$
