PDB_DB01597_08
     RDKit          3D

 82 82  0  0  0  0  0  0  0  0999 V2000
   -2.8804   -1.2810    0.1694 C   0  0  0  0  0  0  0  0  0  0  0  0
   -2.1441   -0.1369   -0.5559 C   0  0  1  0  0  0  0  0  0  0  0  0
   -3.5495    0.0536   -0.1157 C   0  0  0  0  0  0  0  0  0  0  0  0
   -3.8910    0.9193    1.0748 C   0  0  0  0  0  0  0  0  0  0  0  0
   -4.6810   -0.0825   -1.1160 C   0  0  0  0  0  0  0  0  0  0  0  0
   -1.0869    0.5989    0.1946 C   0  0  0  0  0  0  0  0  0  0  0  0
   -0.0041   -0.1888    0.6484 N   0  0  0  0  0  0  0  0  0  0  0  0
    0.8025   -0.8367   -0.2855 C   0  0  0  0  0  0  0  0  0  0  0  0
    1.5893   -0.0869   -1.2629 C   0  0  0  0  0  0  0  0  0  0  0  0
   -0.6782    1.6679   -0.6355 O   0  0  0  0  0  0  0  0  0  0  0  0
    1.5000   -2.0261    0.2844 C   0  0  0  0  0  0  0  0  0  0  0  0
    2.3661   -2.6415   -0.6492 O   0  0  0  0  0  0  0  0  0  0  0  0
    2.2016   -1.7119    1.4175 O   0  0  0  0  0  0  0  0  0  0  0  0
    2.5865    0.9168   -0.8955 C   0  0  0  0  0  0  0  0  0  0  0  0
    3.7478    0.5658   -0.0559 C   0  0  0  0  0  0  0  0  0  0  0  0
    4.6740    1.8095    0.0782 C   0  0  0  0  0  0  0  0  0  0  0  0
   -2.8804   -1.2810    0.1694 C   0  0  0  0  0  0  0  0  0  0  0  0
   -2.1441   -0.1369   -0.5559 C   0  0  1  0  0  0  0  0  0  0  0  0
   -3.5495    0.0536   -0.1157 C   0  0  0  0  0  0  0  0  0  0  0  0
   -3.8910    0.9193    1.0748 C   0  0  0  0  0  0  0  0  0  0  0  0
   -4.6810   -0.0825   -1.1160 C   0  0  0  0  0  0  0  0  0  0  0  0
   -1.0869    0.5989    0.1946 C   0  0  0  0  0  0  0  0  0  0  0  0
   -0.0041   -0.1888    0.6484 N   0  0  0  0  0  0  0  0  0  0  0  0
    0.8025   -0.8367   -0.2855 C   0  0  0  0  0  0  0  0  0  0  0  0
    1.5893   -0.0869   -1.2629 C   0  0  0  0  0  0  0  0  0  0  0  0
   -0.6782    1.6679   -0.6355 O   0  0  0  0  0  0  0  0  0  0  0  0
    1.5000   -2.0261    0.2844 C   0  0  0  0  0  0  0  0  0  0  0  0
    2.3661   -2.6415   -0.6492 O   0  0  0  0  0  0  0  0  0  0  0  0
    2.2016   -1.7119    1.4175 O   0  0  0  0  0  0  0  0  0  0  0  0
    2.5865    0.9168   -0.8955 C   0  0  0  0  0  0  0  0  0  0  0  0
    3.7478    0.5658   -0.0559 C   0  0  0  0  0  0  0  0  0  0  0  0
    4.6740    1.8095    0.0782 C   0  0  0  0  0  0  0  0  0  0  0  0
   -3.1467   -2.1692   -0.4031 H   0  0  0  0  0  0  0  0  0  0  0  0
   -2.6278   -1.4521    1.2282 H   0  0  0  0  0  0  0  0  0  0  0  0
   -2.0356   -0.3301   -1.6430 H   0  0  0  0  0  0  0  0  0  0  0  0
   -4.9796    0.8078    1.2587 H   0  0  0  0  0  0  0  0  0  0  0  0
   -3.7383    2.0035    0.8157 H   0  0  0  0  0  0  0  0  0  0  0  0
   -3.3162    0.6450    1.9880 H   0  0  0  0  0  0  0  0  0  0  0  0
   -4.4641   -0.8620   -1.8720 H   0  0  0  0  0  0  0  0  0  0  0  0
   -4.9303    0.8769   -1.6125 H   0  0  0  0  0  0  0  0  0  0  0  0
   -5.5784   -0.3935   -0.5436 H   0  0  0  0  0  0  0  0  0  0  0  0
   -1.5527    1.0865    1.0758 H   0  0  0  0  0  0  0  0  0  0  0  0
    0.3929    0.0413    1.5695 H   0  0  0  0  0  0  0  0  0  0  0  0
    0.0180   -1.3986   -1.0007 H   0  0  0  0  0  0  0  0  0  0  0  0
    2.1293   -0.8731   -1.9134 H   0  0  0  0  0  0  0  0  0  0  0  0
    0.8607    0.3289   -2.0504 H   0  0  0  0  0  0  0  0  0  0  0  0
   -0.5936    2.5015   -0.1373 H   0  0  0  0  0  0  0  0  0  0  0  0
    0.7327   -2.8426    0.5418 H   0  0  0  0  0  0  0  0  0  0  0  0
    3.0925   -3.0497   -0.1139 H   0  0  0  0  0  0  0  0  0  0  0  0
    1.7892   -2.0372    2.2547 H   0  0  0  0  0  0  0  0  0  0  0  0
    3.0081    1.3249   -1.8794 H   0  0  0  0  0  0  0  0  0  0  0  0
    2.0618    1.8564   -0.4992 H   0  0  0  0  0  0  0  0  0  0  0  0
    4.3230   -0.3073   -0.3058 H   0  0  0  0  0  0  0  0  0  0  0  0
    3.3547    0.4933    1.0117 H   0  0  0  0  0  0  0  0  0  0  0  0
    5.1963    1.8862   -0.8860 H   0  0  0  0  0  0  0  0  0  0  0  0
    4.0411    2.6829    0.3024 H   0  0  0  0  0  0  0  0  0  0  0  0
    5.4105    1.6410    0.8693 H   0  0  0  0  0  0  0  0  0  0  0  0
   -3.1467   -2.1692   -0.4031 H   0  0  0  0  0  0  0  0  0  0  0  0
   -2.6278   -1.4521    1.2282 H   0  0  0  0  0  0  0  0  0  0  0  0
   -2.0356   -0.3301   -1.6430 H   0  0  0  0  0  0  0  0  0  0  0  0
   -4.9796    0.8078    1.2587 H   0  0  0  0  0  0  0  0  0  0  0  0
   -3.7383    2.0035    0.8157 H   0  0  0  0  0  0  0  0  0  0  0  0
   -3.3162    0.6450    1.9880 H   0  0  0  0  0  0  0  0  0  0  0  0
   -4.4641   -0.8620   -1.8720 H   0  0  0  0  0  0  0  0  0  0  0  0
   -4.9303    0.8769   -1.6125 H   0  0  0  0  0  0  0  0  0  0  0  0
   -5.5784   -0.3935   -0.5436 H   0  0  0  0  0  0  0  0  0  0  0  0
   -1.5527    1.0865    1.0758 H   0  0  0  0  0  0  0  0  0  0  0  0
    0.3929    0.0413    1.5695 H   0  0  0  0  0  0  0  0  0  0  0  0
    0.0180   -1.3986   -1.0007 H   0  0  0  0  0  0  0  0  0  0  0  0
    2.1293   -0.8731   -1.9134 H   0  0  0  0  0  0  0  0  0  0  0  0
    0.8607    0.3289   -2.0504 H   0  0  0  0  0  0  0  0  0  0  0  0
   -0.5936    2.5015   -0.1373 H   0  0  0  0  0  0  0  0  0  0  0  0
    0.7327   -2.8426    0.5418 H   0  0  0  0  0  0  0  0  0  0  0  0
    3.0925   -3.0497   -0.1139 H   0  0  0  0  0  0  0  0  0  0  0  0
    1.7892   -2.0372    2.2547 H   0  0  0  0  0  0  0  0  0  0  0  0
    3.0081    1.3249   -1.8794 H   0  0  0  0  0  0  0  0  0  0  0  0
    2.0618    1.8564   -0.4992 H   0  0  0  0  0  0  0  0  0  0  0  0
    4.3230   -0.3073   -0.3058 H   0  0  0  0  0  0  0  0  0  0  0  0
    3.3547    0.4933    1.0117 H   0  0  0  0  0  0  0  0  0  0  0  0
    5.1963    1.8862   -0.8860 H   0  0  0  0  0  0  0  0  0  0  0  0
    4.0411    2.6829    0.3024 H   0  0  0  0  0  0  0  0  0  0  0  0
    5.4105    1.6410    0.8693 H   0  0  0  0  0  0  0  0  0  0  0  0
  1  2  1  0
  1  3  1  0
  2  3  1  0
  3  4  1  0
  3  5  1  0
  2  6  1  0
  6  7  1  0
  7  8  1  0
  8  9  1  0
  6 10  1  0
  8 11  1  0
 11 12  1  0
 11 13  1  0
  9 14  1  0
 14 15  1  0
 15 16  1  0
 17 18  1  0
 17 19  1  0
 18 19  1  0
 19 20  1  0
 19 21  1  0
 18 22  1  0
 22 23  1  0
 23 24  1  0
 24 25  1  0
 22 26  1  0
 24 27  1  0
 27 28  1  0
 27 29  1  0
 25 30  1  0
 30 31  1  0
 31 32  1  0
  1 33  1  0
  1 34  1  0
  2 35  1  6
  4 36  1  0
  4 37  1  0
  4 38  1  0
  5 39  1  0
  5 40  1  0
  5 41  1  0
  6 42  1  0
  7 43  1  0
  8 44  1  0
  9 45  1  0
  9 46  1  0
 10 47  1  0
 11 48  1  0
 12 49  1  0
 13 50  1  0
 14 51  1  0
 14 52  1  0
 15 53  1  0
 15 54  1  0
 16 55  1  0
 16 56  1  0
 16 57  1  0
 17 58  1  0
 17 59  1  0
 18 60  1  6
 20 61  1  0
 20 62  1  0
 20 63  1  0
 21 64  1  0
 21 65  1  0
 21 66  1  0
 22 67  1  0
 23 68  1  0
 24 69  1  0
 25 70  1  0
 25 71  1  0
 26 72  1  0
 27 73  1  0
 28 74  1  0
 29 75  1  0
 30 76  1  0
 30 77  1  0
 31 78  1  0
 31 79  1  0
 32 80  1  0
 32 81  1  0
 32 82  1  0
M  END
>  <PDBID>  (1) 
1ITU

>  <PDB ID>  (1) 
1ITU

>  <Generic Name>  (1) 
Cilastatin

>  <Brand Name>  (1) 
Imipenem and Cilastatin#Imipenem and Cilastatin for Injection#Imipenem and Cilastatin for Injection USP#Imipenem and Cilastatin for Injection, USP#Primaxin 250#Primaxin 500#Primaxin IV#Primaxin IV 250/250 Add-vantage Vial#Primaxin IV 500#Ran-imipenem-cilastatin

>  <DrugBank ID>  (1) 
DB01597

>  <ATC Codes>  (1) 
nan

>  <Ligand ID>  (1) 
CIL

>  <Target Name>  (1) 
Dipeptidase 1

>  <UniProt ID>  (1) 
P16444

>  <PDB ID.1>  (1) 
1ITU

>  <Seq. Identity>  (1) 
100%

$$$$
