PDB_DB01167_06
     RDKit          3D

113119  0  0  0  0  0  0  0  0999 V2000
    6.7439   -1.9840    0.1158 C   0  0  0  0  0  0  0  0  0  0  0  0
    7.1781   -0.5564   -0.0853 C   0  0  0  0  0  0  0  0  0  0  0  0
   12.6804    0.0800   -0.9105 C   0  0  0  0  0  0  0  0  0  0  0  0
   12.1409   -1.2244   -0.3678 C   0  0  0  0  0  0  0  0  0  0  0  0
   10.9717   -1.0263    0.5384 C   0  0  1  0  0  0  0  0  0  0  0  0
   11.4510   -0.1495    1.7067 C   0  0  0  0  0  0  0  0  0  0  0  0
    9.7794   -0.5459   -0.0254 N   0  0  0  0  0  0  0  0  0  0  0  0
    9.1344   -1.3702   -1.0170 C   0  0  0  0  0  0  0  0  0  0  0  0
    9.9454   -1.4191   -2.1502 O   0  0  0  0  0  0  0  0  0  0  0  0
    7.9674   -0.4954   -1.2919 N   0  0  0  0  0  0  0  0  0  0  0  0
    8.6404    0.7673   -1.4616 C   0  0  0  0  0  0  0  0  0  0  0  0
    9.7477    0.7305   -0.5297 N   0  0  0  0  0  0  0  0  0  0  0  0
    5.3427   -2.0908    0.6529 C   0  0  0  0  0  0  0  0  0  0  0  0
    4.3559   -1.6155   -0.3924 C   0  0  0  0  0  0  0  0  0  0  0  0
    4.8634   -0.3495   -1.0434 C   0  0  0  0  0  0  0  0  0  0  0  0
    5.9359    0.2894   -0.1508 C   0  0  0  0  0  0  0  0  0  0  0  0
    3.0197   -1.5383    0.1006 N   0  0  0  0  0  0  0  0  0  0  0  0
    2.0533   -1.4196   -0.9407 C   0  0  0  0  0  0  0  0  0  0  0  0
    1.1736   -0.2142   -0.8764 C   0  0  0  0  0  0  0  0  0  0  0  0
    0.5151   -0.0044    0.3741 N   0  0  0  0  0  0  0  0  0  0  0  0
    1.2767   -0.6042    1.4235 C   0  0  0  0  0  0  0  0  0  0  0  0
    2.7814   -0.5680    1.1187 C   0  0  0  0  0  0  0  0  0  0  0  0
   -0.8415   -0.5074    0.4211 C   0  0  0  0  0  0  0  0  0  0  0  0
   -1.5868    0.2058    1.5296 C   0  0  0  0  0  0  0  0  0  0  0  0
   -2.1706    1.5101    1.0638 C   0  0  0  0  0  0  0  0  0  0  0  0
   -3.3989    1.1814    0.1857 C   0  0  0  0  0  0  0  0  0  0  0  0
   -3.0800   -0.1233   -0.4741 C   0  0  0  0  0  0  0  0  0  0  0  0
   -1.5939   -0.2127   -0.8532 C   0  0  0  0  0  0  0  0  0  0  0  0
   -3.6700    2.1898   -0.6638 O   0  0  0  0  0  0  0  0  0  0  0  0
   -4.6924    3.0162   -0.5647 C   0  0  0  0  0  0  0  0  0  0  0  0
   -6.0686    2.5079   -0.6066 C   0  0  1  0  0  0  0  0  0  0  0  0
   -6.4948    1.8461   -1.9093 C   0  0  0  0  0  0  0  0  0  0  0  0
   -7.6790    1.2226   -1.5060 O   0  0  0  0  0  0  0  0  0  0  0  0
   -7.6268    0.9512   -0.1717 C   0  0  2  0  0  0  0  0  0  0  0  0
   -6.5193    1.6531    0.3548 O   0  0  0  0  0  0  0  0  0  0  0  0
   -7.3706   -0.4999    0.1955 C   0  0  0  0  0  0  0  0  0  0  0  0
   -6.1478   -1.0282   -0.3602 N   0  0  0  0  0  0  0  0  0  0  0  0
   -6.0393   -2.3897    0.2133 C   0  0  0  0  0  0  0  0  0  0  0  0
   -7.3422   -2.9089   -0.2360 N   0  0  0  0  0  0  0  0  0  0  0  0
   -7.2855   -2.5260   -1.6396 C   0  0  0  0  0  0  0  0  0  0  0  0
   -6.3846   -1.4010   -1.7116 N   0  0  0  0  0  0  0  0  0  0  0  0
   -8.8525    1.4221    0.5620 C   0  0  0  0  0  0  0  0  0  0  0  0
  -10.1670    1.0112   -0.0053 C   0  0  0  0  0  0  0  0  0  0  0  0
  -11.1237    0.9226    1.2064 C   0  0  0  0  0  0  0  0  0  0  0  0
  -10.7474    2.0559    2.1787 C   0  0  0  0  0  0  0  0  0  0  0  0
  -10.2164    3.2405    1.4051 C   0  0  0  0  0  0  0  0  0  0  0  0
   -8.8812    2.9175    0.7077 C   0  0  0  0  0  0  0  0  0  0  0  0
  -12.2519    2.6055    2.9657 Cl  0  0  0  0  0  0  0  0  0  0  0  0
  -10.2669   -0.4577   -0.9098 Cl  0  0  0  0  0  0  0  0  0  0  0  0
    7.4017   -2.5153    0.8382 H   0  0  0  0  0  0  0  0  0  0  0  0
    6.8011   -2.5403   -0.8417 H   0  0  0  0  0  0  0  0  0  0  0  0
    7.7555   -0.2480    0.8069 H   0  0  0  0  0  0  0  0  0  0  0  0
   12.5474    0.0567   -2.0210 H   0  0  0  0  0  0  0  0  0  0  0  0
   12.1100    0.9473   -0.5429 H   0  0  0  0  0  0  0  0  0  0  0  0
   13.7462    0.2069   -0.6331 H   0  0  0  0  0  0  0  0  0  0  0  0
   12.9594   -1.6607    0.2912 H   0  0  0  0  0  0  0  0  0  0  0  0
   11.9550   -1.9678   -1.1797 H   0  0  0  0  0  0  0  0  0  0  0  0
   10.7442   -2.0117    1.0329 H   0  0  0  0  0  0  0  0  0  0  0  0
   11.3859    0.9222    1.4741 H   0  0  0  0  0  0  0  0  0  0  0  0
   10.8029   -0.3239    2.6089 H   0  0  0  0  0  0  0  0  0  0  0  0
   12.4823   -0.4986    1.9357 H   0  0  0  0  0  0  0  0  0  0  0  0
    8.8255   -2.3494   -0.6383 H   0  0  0  0  0  0  0  0  0  0  0  0
    9.7042   -2.1186   -2.7782 H   0  0  0  0  0  0  0  0  0  0  0  0
    8.0030    1.6383   -1.3584 H   0  0  0  0  0  0  0  0  0  0  0  0
    9.0631    0.7867   -2.4846 H   0  0  0  0  0  0  0  0  0  0  0  0
    9.7188    1.4873    0.1670 H   0  0  0  0  0  0  0  0  0  0  0  0
    5.1390   -3.1790    0.8048 H   0  0  0  0  0  0  0  0  0  0  0  0
    5.2761   -1.5737    1.6088 H   0  0  0  0  0  0  0  0  0  0  0  0
    4.3624   -2.3990   -1.1960 H   0  0  0  0  0  0  0  0  0  0  0  0
    4.0666    0.4081   -1.1447 H   0  0  0  0  0  0  0  0  0  0  0  0
    5.2553   -0.5258   -2.0698 H   0  0  0  0  0  0  0  0  0  0  0  0
    6.1224    1.3354   -0.4343 H   0  0  0  0  0  0  0  0  0  0  0  0
    5.4974    0.3128    0.8676 H   0  0  0  0  0  0  0  0  0  0  0  0
    1.3836   -2.3162   -0.9301 H   0  0  0  0  0  0  0  0  0  0  0  0
    2.5909   -1.3917   -1.9120 H   0  0  0  0  0  0  0  0  0  0  0  0
    0.4215   -0.3218   -1.7012 H   0  0  0  0  0  0  0  0  0  0  0  0
    1.7058    0.7434   -1.1286 H   0  0  0  0  0  0  0  0  0  0  0  0
    1.0398   -1.6813    1.6048 H   0  0  0  0  0  0  0  0  0  0  0  0
    1.1363   -0.0913    2.4168 H   0  0  0  0  0  0  0  0  0  0  0  0
    3.0979    0.4531    0.8207 H   0  0  0  0  0  0  0  0  0  0  0  0
    3.2836   -0.7747    2.0850 H   0  0  0  0  0  0  0  0  0  0  0  0
   -0.7926   -1.6048    0.5552 H   0  0  0  0  0  0  0  0  0  0  0  0
   -2.3881   -0.4576    1.8815 H   0  0  0  0  0  0  0  0  0  0  0  0
   -0.8989    0.3376    2.3928 H   0  0  0  0  0  0  0  0  0  0  0  0
   -1.4458    2.1371    0.5241 H   0  0  0  0  0  0  0  0  0  0  0  0
   -2.5027    2.0734    1.9594 H   0  0  0  0  0  0  0  0  0  0  0  0
   -4.2100    1.0673    0.9254 H   0  0  0  0  0  0  0  0  0  0  0  0
   -3.6975   -0.2755   -1.4105 H   0  0  0  0  0  0  0  0  0  0  0  0
   -3.2866   -1.0002    0.1638 H   0  0  0  0  0  0  0  0  0  0  0  0
   -1.5102   -1.0269   -1.5858 H   0  0  0  0  0  0  0  0  0  0  0  0
   -1.2509    0.7577   -1.2809 H   0  0  0  0  0  0  0  0  0  0  0  0
   -4.6383    3.8895   -1.2988 H   0  0  0  0  0  0  0  0  0  0  0  0
   -4.5688    3.5950    0.4290 H   0  0  0  0  0  0  0  0  0  0  0  0
   -6.7398    3.4426   -0.5594 H   0  0  0  0  0  0  0  0  0  0  0  0
   -5.7320    1.1959   -2.3092 H   0  0  0  0  0  0  0  0  0  0  0  0
   -6.7772    2.6216   -2.6589 H   0  0  0  0  0  0  0  0  0  0  0  0
   -7.1742   -0.4846    1.3236 H   0  0  0  0  0  0  0  0  0  0  0  0
   -8.2139   -1.1700    0.0888 H   0  0  0  0  0  0  0  0  0  0  0  0
   -5.2487   -2.9649   -0.2666 H   0  0  0  0  0  0  0  0  0  0  0  0
   -5.9828   -2.3378    1.3051 H   0  0  0  0  0  0  0  0  0  0  0  0
   -7.4083   -3.9313   -0.1309 H   0  0  0  0  0  0  0  0  0  0  0  0
   -8.2728   -2.3355   -2.0872 H   0  0  0  0  0  0  0  0  0  0  0  0
   -6.8689   -3.4085   -2.2019 H   0  0  0  0  0  0  0  0  0  0  0  0
   -5.4581   -1.7280   -2.0783 H   0  0  0  0  0  0  0  0  0  0  0  0
   -8.7460    0.9497    1.6006 H   0  0  0  0  0  0  0  0  0  0  0  0
  -10.5688    1.8564   -0.6301 H   0  0  0  0  0  0  0  0  0  0  0  0
  -12.1692    0.9584    0.9045 H   0  0  0  0  0  0  0  0  0  0  0  0
  -10.9349   -0.0216    1.7477 H   0  0  0  0  0  0  0  0  0  0  0  0
  -10.0564    1.7092    2.9611 H   0  0  0  0  0  0  0  0  0  0  0  0
  -10.9933    3.5010    0.6649 H   0  0  0  0  0  0  0  0  0  0  0  0
  -10.0204    4.0560    2.0997 H   0  0  0  0  0  0  0  0  0  0  0  0
   -8.9753    3.3553   -0.3073 H   0  0  0  0  0  0  0  0  0  0  0  0
   -8.0522    3.3380    1.2764 H   0  0  0  0  0  0  0  0  0  0  0  0
  1  2  1  0
  3  4  1  0
  4  5  1  0
  5  6  1  0
  5  7  1  0
  7  8  1  0
  8  9  1  0
  2 10  1  0
  8 10  1  0
 10 11  1  0
  7 12  1  0
 11 12  1  0
  1 13  1  0
 13 14  1  0
 14 15  1  0
  2 16  1  0
 15 16  1  0
 14 17  1  0
 17 18  1  0
 18 19  1  0
 19 20  1  0
 20 21  1  0
 17 22  1  0
 21 22  1  0
 20 23  1  0
 23 24  1  0
 24 25  1  0
 25 26  1  0
 26 27  1  0
 23 28  1  0
 27 28  1  0
 26 29  1  0
 29 30  1  0
 30 31  1  0
 31 32  1  0
 32 33  1  0
 33 34  1  0
 31 35  1  0
 34 35  1  0
 34 36  1  6
 36 37  1  0
 37 38  1  0
 38 39  1  0
 40 39  1  0
 37 41  1  0
 40 41  1  0
 34 42  1  0
 42 43  1  0
 43 44  1  0
 44 45  1  0
 45 46  1  0
 42 47  1  0
 46 47  1  0
 45 48  1  0
 43 49  1  0
  1 50  1  0
  1 51  1  0
  2 52  1  0
  3 53  1  0
  3 54  1  0
  3 55  1  0
  4 56  1  0
  4 57  1  0
  5 58  1  1
  6 59  1  0
  6 60  1  0
  6 61  1  0
  8 62  1  0
  9 63  1  0
 11 64  1  0
 11 65  1  0
 12 66  1  0
 13 67  1  0
 13 68  1  0
 14 69  1  0
 15 70  1  0
 15 71  1  0
 16 72  1  0
 16 73  1  0
 18 74  1  0
 18 75  1  0
 19 76  1  0
 19 77  1  0
 21 78  1  0
 21 79  1  0
 22 80  1  0
 22 81  1  0
 23 82  1  0
 24 83  1  0
 24 84  1  0
 25 85  1  0
 25 86  1  0
 26 87  1  0
 27 88  1  0
 27 89  1  0
 28 90  1  0
 28 91  1  0
 30 92  1  0
 30 93  1  0
 31 94  1  1
 32 95  1  0
 32 96  1  0
 36 97  1  0
 36 98  1  0
 38 99  1  0
 38100  1  0
 39101  1  0
 40102  1  0
 40103  1  0
 41104  1  0
 42105  1  0
 43106  1  0
 44107  1  0
 44108  1  0
 45109  1  0
 46110  1  0
 46111  1  0
 47112  1  0
 47113  1  0
M  END
>  <PDBID>  (1) 
5JLC

>  <PDB ID>  (1) 
5JLC

>  <Generic Name>  (1) 
Itraconazole

>  <Brand Name>  (1) 
Itraconazole#Onmel#Sporanox#Sporanox Oral Solution 10mg/ml#Itrizole#Oriconazole#Sporal

>  <DrugBank ID>  (1) 
DB01167

>  <ATC Codes>  (1) 
J02AC02

>  <Ligand ID>  (1) 
1YN

>  <Target Name>  (1) 
Lanosterol 14-alpha demethylase

>  <UniProt ID>  (1) 
P50859

>  <PDB ID.1>  (1) 
5JLC

>  <Seq. Identity>  (1) 
97%

$$$$
