PDB_DB00323_02
     RDKit          3D

 47 48  0  0  0  0  0  0  0  0999 V2000
    0.4779   -0.9147   -1.0201 O   0  0  0  0  0  0  0  0  0  0  0  0
    0.2711    0.4311   -0.9098 C   0  0  1  0  0  0  0  0  0  0  0  0
   -1.1046    0.7151   -0.3879 C   0  0  1  0  0  0  0  0  0  0  0  0
   -2.0899    0.1471   -1.3668 C   0  0  0  0  0  0  0  0  0  0  0  0
   -2.6471   -1.1887   -1.0543 C   0  0  0  0  0  0  0  0  0  0  0  0
   -2.0232   -2.2311   -1.7103 O   0  0  0  0  0  0  0  0  0  0  0  0
   -1.3402    0.3589    1.0365 C   0  0  0  0  0  0  0  0  0  0  0  0
   -2.7730   -0.1500    1.2016 C   0  0  0  0  0  0  0  0  0  0  0  0
   -3.7452    0.7169    0.6201 N   0  0  0  0  0  0  0  0  0  0  0  0
   -3.7343    1.9572    1.1550 O   0  0  0  0  0  0  0  0  0  0  0  0
   -4.9652    0.1905    0.8780 O   0  0  0  0  0  0  0  0  0  0  0  0
   -2.7954   -1.4699    0.4193 C   0  0  0  0  0  0  0  0  0  0  0  0
   -3.9242   -2.2086    0.7225 O   0  0  0  0  0  0  0  0  0  0  0  0
    1.3795    1.2473   -0.3649 C   0  0  0  0  0  0  0  0  0  0  0  0
    2.6291    1.1399   -1.2427 C   0  0  0  0  0  0  0  0  0  0  0  0
    3.2753   -0.1961   -1.1900 C   0  0  0  0  0  0  0  0  0  0  0  0
    3.6338   -0.5673    0.2113 C   0  0  0  0  0  0  0  0  0  0  0  0
    4.9436    0.0666    0.6550 C   0  0  0  0  0  0  0  0  0  0  0  0
    2.5527   -0.3436    1.2104 C   0  0  0  0  0  0  0  0  0  0  0  0
    1.8222    0.9592    1.0258 C   0  0  0  0  0  0  0  0  0  0  0  0
   -1.5938    0.0503   -2.3815 H   0  0  0  0  0  0  0  0  0  0  0  0
   -2.0653   -3.0234   -1.1175 H   0  0  0  0  0  0  0  0  0  0  0  0
   -1.2743    1.2246    1.7294 H   0  0  0  0  0  0  0  0  0  0  0  0
   -3.8367   -3.0926    0.3326 H   0  0  0  0  0  0  0  0  0  0  0  0
    3.3562    1.8835   -0.8569 H   0  0  0  0  0  0  0  0  0  0  0  0
    2.6999   -1.0277   -1.6392 H   0  0  0  0  0  0  0  0  0  0  0  0
    4.7180    0.8810    1.3744 H   0  0  0  0  0  0  0  0  0  0  0  0
    5.6254   -0.6485    1.1218 H   0  0  0  0  0  0  0  0  0  0  0  0
    5.4320    0.5379   -0.2243 H   0  0  0  0  0  0  0  0  0  0  0  0
    3.0686   -0.2443    2.2150 H   0  0  0  0  0  0  0  0  0  0  0  0
    1.0730    1.0367    1.8103 H   0  0  0  0  0  0  0  0  0  0  0  0
    0.1629   -1.4513   -0.2784 H   0  0  0  0  0  0  0  0  0  0  0  0
    0.1872    0.7739   -2.0196 H   0  0  0  0  0  0  0  0  0  0  0  0
   -1.2107    1.8439   -0.4397 H   0  0  0  0  0  0  0  0  0  0  0  0
   -2.8976    0.9099   -1.5872 H   0  0  0  0  0  0  0  0  0  0  0  0
   -3.7093   -1.1918   -1.4509 H   0  0  0  0  0  0  0  0  0  0  0  0
   -0.7092   -0.4764    1.4164 H   0  0  0  0  0  0  0  0  0  0  0  0
   -3.0154   -0.3624    2.2514 H   0  0  0  0  0  0  0  0  0  0  0  0
   -4.3703    2.5212    0.6473 H   0  0  0  0  0  0  0  0  0  0  0  0
   -5.6875    0.7265    0.4692 H   0  0  0  0  0  0  0  0  0  0  0  0
   -1.9115   -2.0397    0.7728 H   0  0  0  0  0  0  0  0  0  0  0  0
    1.1440    2.3562   -0.3899 H   0  0  0  0  0  0  0  0  0  0  0  0
    2.3981    1.4334   -2.2867 H   0  0  0  0  0  0  0  0  0  0  0  0
    4.2085   -0.1352   -1.7965 H   0  0  0  0  0  0  0  0  0  0  0  0
    3.8426   -1.6780    0.2032 H   0  0  0  0  0  0  0  0  0  0  0  0
    1.9224   -1.2251    1.3027 H   0  0  0  0  0  0  0  0  0  0  0  0
    2.6001    1.7576    1.2659 H   0  0  0  0  0  0  0  0  0  0  0  0
  1  2  1  0
  2  3  1  0
  3  4  1  0
  4  5  1  0
  5  6  1  0
  3  7  1  0
  7  8  1  0
  8  9  1  0
  9 10  1  0
  9 11  1  0
  5 12  1  0
  8 12  1  0
 12 13  1  0
  2 14  1  0
 14 15  1  0
 15 16  1  0
 16 17  1  0
 17 18  1  0
 17 19  1  0
 14 20  1  0
 19 20  1  0
  4 21  1  0
  6 22  1  0
  7 23  1  0
 24 13  1  0
 15 25  1  0
 16 26  1  0
 18 27  1  0
 18 28  1  0
 18 29  1  0
 19 30  1  0
 20 31  1  0
  1 32  1  0
  2 33  1  6
  3 34  1  1
  4 35  1  0
  5 36  1  0
  7 37  1  0
  8 38  1  0
 10 39  1  0
 11 40  1  0
 12 41  1  0
 14 42  1  0
 15 43  1  0
 16 44  1  0
 17 45  1  0
 19 46  1  0
 20 47  1  0
M  END
>  <PDBID>  (1) 
3S68

>  <PDB ID>  (1) 
3S68

>  <Generic Name>  (1) 
Tolcapone

>  <Brand Name>  (1) 
Tasmar#Tolcapone#Sen De Ning

>  <DrugBank ID>  (1) 
DB00323

>  <ATC Codes>  (1) 
N04BX01

>  <Ligand ID>  (1) 
TCW

>  <Target Name>  (1) 
Catechol O-methyltransferase

>  <UniProt ID>  (1) 
P21964

>  <PDB ID.1>  (1) 
3S68

>  <Seq. Identity>  (1) 
81%

$$$$
