PDB_DB00843_03
     RDKit          3D

142148  0  0  0  0  0  0  0  0999 V2000
   -5.8021    1.1732    0.2062 C   0  0  0  0  0  0  0  0  0  0  0  0
   -5.7211   -0.1043   -0.6062 C   0  0  0  0  0  0  0  0  0  0  0  0
   -4.8180   -1.0837    0.0576 C   0  0  0  0  0  0  0  0  0  0  0  0
   -4.0059   -0.5265    1.1889 C   0  0  0  0  0  0  0  0  0  0  0  0
   -3.4716    0.8509    0.9272 C   0  0  0  0  0  0  0  0  0  0  0  0
   -4.4207    1.7587    0.2343 C   0  0  0  0  0  0  0  0  0  0  0  0
   -2.1858    0.6290    0.1933 C   0  0  0  0  0  0  0  0  0  0  0  0
   -1.5857   -0.5478    0.9288 C   0  0  1  0  0  0  0  0  0  0  0  0
   -2.7609   -1.3741    1.3276 C   0  0  0  0  0  0  0  0  0  0  0  0
   -0.6299   -1.3284    0.0568 C   0  0  0  0  0  0  0  0  0  0  0  0
    0.5137   -0.4471   -0.4147 C   0  0  0  0  0  0  0  0  0  0  0  0
    1.2889    0.1108    0.7596 C   0  0  0  0  0  0  0  0  0  0  0  0
    2.4467    0.9124    0.1861 C   0  0  0  0  0  0  0  0  0  0  0  0
    3.3500    0.0957   -0.5547 N   0  0  0  0  0  0  0  0  0  0  0  0
    2.7380   -0.7183   -1.5484 C   0  0  0  0  0  0  0  0  0  0  0  0
    1.4448   -1.3526   -1.1883 C   0  0  0  0  0  0  0  0  0  0  0  0
    4.4035   -0.5183    0.1765 C   0  0  0  0  0  0  0  0  0  0  0  0
    5.3877    0.5149    0.6317 C   0  0  0  0  0  0  0  0  0  0  0  0
    6.5280   -0.0925    1.4271 C   0  0  0  0  0  0  0  0  0  0  0  0
    7.7908   -0.2566    0.6469 C   0  0  0  0  0  0  0  0  0  0  0  0
    7.5541   -0.7309   -0.7743 C   0  0  0  0  0  0  0  0  0  0  0  0
    6.6253    0.2144   -1.4993 C   0  0  0  0  0  0  0  0  0  0  0  0
    6.0243    1.2329   -0.5504 C   0  0  0  0  0  0  0  0  0  0  0  0
   -2.3182    0.2855   -1.1295 O   0  0  0  0  0  0  0  0  0  0  0  0
   -6.2480    0.8269    1.4762 O   0  0  0  0  0  0  0  0  0  0  0  0
   -7.4392    1.4442    1.7820 C   0  0  0  0  0  0  0  0  0  0  0  0
   -5.3047    0.0921   -1.8965 O   0  0  0  0  0  0  0  0  0  0  0  0
   -6.2221   -0.2140   -2.8671 C   0  0  0  0  0  0  0  0  0  0  0  0
   -5.8021    1.1732    0.2062 C   0  0  0  0  0  0  0  0  0  0  0  0
   -5.7211   -0.1043   -0.6062 C   0  0  0  0  0  0  0  0  0  0  0  0
   -4.8180   -1.0837    0.0576 C   0  0  0  0  0  0  0  0  0  0  0  0
   -4.0059   -0.5265    1.1889 C   0  0  0  0  0  0  0  0  0  0  0  0
   -3.4716    0.8509    0.9272 C   0  0  0  0  0  0  0  0  0  0  0  0
   -4.4207    1.7587    0.2343 C   0  0  0  0  0  0  0  0  0  0  0  0
   -2.1858    0.6290    0.1933 C   0  0  0  0  0  0  0  0  0  0  0  0
   -1.5857   -0.5478    0.9288 C   0  0  1  0  0  0  0  0  0  0  0  0
   -2.7609   -1.3741    1.3276 C   0  0  0  0  0  0  0  0  0  0  0  0
   -0.6299   -1.3284    0.0568 C   0  0  0  0  0  0  0  0  0  0  0  0
    0.5137   -0.4471   -0.4147 C   0  0  0  0  0  0  0  0  0  0  0  0
    1.2889    0.1108    0.7596 C   0  0  0  0  0  0  0  0  0  0  0  0
    2.4467    0.9124    0.1861 C   0  0  0  0  0  0  0  0  0  0  0  0
    3.3500    0.0957   -0.5547 N   0  0  0  0  0  0  0  0  0  0  0  0
    2.7380   -0.7183   -1.5484 C   0  0  0  0  0  0  0  0  0  0  0  0
    1.4448   -1.3526   -1.1883 C   0  0  0  0  0  0  0  0  0  0  0  0
    4.4035   -0.5183    0.1765 C   0  0  0  0  0  0  0  0  0  0  0  0
    5.3877    0.5149    0.6317 C   0  0  0  0  0  0  0  0  0  0  0  0
    6.5280   -0.0925    1.4271 C   0  0  0  0  0  0  0  0  0  0  0  0
    7.7908   -0.2566    0.6469 C   0  0  0  0  0  0  0  0  0  0  0  0
    7.5541   -0.7309   -0.7743 C   0  0  0  0  0  0  0  0  0  0  0  0
    6.6253    0.2144   -1.4993 C   0  0  0  0  0  0  0  0  0  0  0  0
    6.0243    1.2329   -0.5504 C   0  0  0  0  0  0  0  0  0  0  0  0
   -2.3182    0.2855   -1.1295 O   0  0  0  0  0  0  0  0  0  0  0  0
   -6.2480    0.8269    1.4762 O   0  0  0  0  0  0  0  0  0  0  0  0
   -7.4392    1.4442    1.7820 C   0  0  0  0  0  0  0  0  0  0  0  0
   -5.3047    0.0921   -1.8965 O   0  0  0  0  0  0  0  0  0  0  0  0
   -6.2221   -0.2140   -2.8671 C   0  0  0  0  0  0  0  0  0  0  0  0
   -6.5548    1.8762   -0.2152 H   0  0  0  0  0  0  0  0  0  0  0  0
   -6.7793   -0.4966   -0.6476 H   0  0  0  0  0  0  0  0  0  0  0  0
   -5.4266   -1.9182    0.4628 H   0  0  0  0  0  0  0  0  0  0  0  0
   -4.1255   -1.5747   -0.6854 H   0  0  0  0  0  0  0  0  0  0  0  0
   -4.5435   -0.6083    2.1582 H   0  0  0  0  0  0  0  0  0  0  0  0
   -3.2213    1.2887    1.9172 H   0  0  0  0  0  0  0  0  0  0  0  0
   -4.1083    1.9261   -0.8360 H   0  0  0  0  0  0  0  0  0  0  0  0
   -4.5131    2.7639    0.7281 H   0  0  0  0  0  0  0  0  0  0  0  0
   -1.5429    1.5343    0.2720 H   0  0  0  0  0  0  0  0  0  0  0  0
   -1.0869   -0.1853    1.8583 H   0  0  0  0  0  0  0  0  0  0  0  0
   -2.7920   -2.2732    0.6726 H   0  0  0  0  0  0  0  0  0  0  0  0
   -2.6181   -1.7615    2.3583 H   0  0  0  0  0  0  0  0  0  0  0  0
   -0.2467   -2.1873    0.6102 H   0  0  0  0  0  0  0  0  0  0  0  0
   -1.1961   -1.6087   -0.8664 H   0  0  0  0  0  0  0  0  0  0  0  0
    0.1375    0.3314   -1.0813 H   0  0  0  0  0  0  0  0  0  0  0  0
    0.6824    0.8228    1.3430 H   0  0  0  0  0  0  0  0  0  0  0  0
    1.6497   -0.7320    1.3590 H   0  0  0  0  0  0  0  0  0  0  0  0
    2.0159    1.7499   -0.4084 H   0  0  0  0  0  0  0  0  0  0  0  0
    2.9624    1.3493    1.0559 H   0  0  0  0  0  0  0  0  0  0  0  0
    3.4612   -1.5631   -1.7538 H   0  0  0  0  0  0  0  0  0  0  0  0
    2.7031   -0.1577   -2.5172 H   0  0  0  0  0  0  0  0  0  0  0  0
    1.6135   -2.2601   -0.5687 H   0  0  0  0  0  0  0  0  0  0  0  0
    0.9095   -1.6029   -2.1307 H   0  0  0  0  0  0  0  0  0  0  0  0
    4.8740   -1.3715   -0.3382 H   0  0  0  0  0  0  0  0  0  0  0  0
    3.9381   -0.9390    1.1165 H   0  0  0  0  0  0  0  0  0  0  0  0
    4.9292    1.2813    1.2710 H   0  0  0  0  0  0  0  0  0  0  0  0
    6.7741    0.5473    2.3234 H   0  0  0  0  0  0  0  0  0  0  0  0
    6.2432   -1.0781    1.8449 H   0  0  0  0  0  0  0  0  0  0  0  0
    8.4381    0.6378    0.6257 H   0  0  0  0  0  0  0  0  0  0  0  0
    8.3931   -1.0534    1.1571 H   0  0  0  0  0  0  0  0  0  0  0  0
    7.1894   -1.7900   -0.7869 H   0  0  0  0  0  0  0  0  0  0  0  0
    8.5582   -0.6962   -1.2751 H   0  0  0  0  0  0  0  0  0  0  0  0
    7.1470    0.7524   -2.2913 H   0  0  0  0  0  0  0  0  0  0  0  0
    5.8132   -0.4192   -1.9512 H   0  0  0  0  0  0  0  0  0  0  0  0
    5.3329    1.8715   -1.0986 H   0  0  0  0  0  0  0  0  0  0  0  0
    6.8675    1.8169   -0.1401 H   0  0  0  0  0  0  0  0  0  0  0  0
   -2.3640    1.1078   -1.7162 H   0  0  0  0  0  0  0  0  0  0  0  0
   -7.7255    1.1152    2.8173 H   0  0  0  0  0  0  0  0  0  0  0  0
   -8.2734    1.1281    1.1231 H   0  0  0  0  0  0  0  0  0  0  0  0
   -7.3097    2.5364    1.8309 H   0  0  0  0  0  0  0  0  0  0  0  0
   -7.1610    0.3666   -2.8081 H   0  0  0  0  0  0  0  0  0  0  0  0
   -6.4995   -1.2856   -2.7957 H   0  0  0  0  0  0  0  0  0  0  0  0
   -5.7071   -0.0877   -3.8539 H   0  0  0  0  0  0  0  0  0  0  0  0
   -6.5548    1.8762   -0.2152 H   0  0  0  0  0  0  0  0  0  0  0  0
   -6.7793   -0.4966   -0.6476 H   0  0  0  0  0  0  0  0  0  0  0  0
   -5.4266   -1.9182    0.4628 H   0  0  0  0  0  0  0  0  0  0  0  0
   -4.1255   -1.5747   -0.6854 H   0  0  0  0  0  0  0  0  0  0  0  0
   -4.5435   -0.6083    2.1582 H   0  0  0  0  0  0  0  0  0  0  0  0
   -3.2213    1.2887    1.9172 H   0  0  0  0  0  0  0  0  0  0  0  0
   -4.1083    1.9261   -0.8360 H   0  0  0  0  0  0  0  0  0  0  0  0
   -4.5131    2.7639    0.7281 H   0  0  0  0  0  0  0  0  0  0  0  0
   -1.5429    1.5343    0.2720 H   0  0  0  0  0  0  0  0  0  0  0  0
   -1.0869   -0.1853    1.8583 H   0  0  0  0  0  0  0  0  0  0  0  0
   -2.7920   -2.2732    0.6726 H   0  0  0  0  0  0  0  0  0  0  0  0
   -2.6181   -1.7615    2.3583 H   0  0  0  0  0  0  0  0  0  0  0  0
   -0.2467   -2.1873    0.6102 H   0  0  0  0  0  0  0  0  0  0  0  0
   -1.1961   -1.6087   -0.8664 H   0  0  0  0  0  0  0  0  0  0  0  0
    0.1375    0.3314   -1.0813 H   0  0  0  0  0  0  0  0  0  0  0  0
    0.6824    0.8228    1.3430 H   0  0  0  0  0  0  0  0  0  0  0  0
    1.6497   -0.7320    1.3590 H   0  0  0  0  0  0  0  0  0  0  0  0
    2.0159    1.7499   -0.4084 H   0  0  0  0  0  0  0  0  0  0  0  0
    2.9624    1.3493    1.0559 H   0  0  0  0  0  0  0  0  0  0  0  0
    3.4612   -1.5631   -1.7538 H   0  0  0  0  0  0  0  0  0  0  0  0
    2.7031   -0.1577   -2.5172 H   0  0  0  0  0  0  0  0  0  0  0  0
    1.6135   -2.2601   -0.5687 H   0  0  0  0  0  0  0  0  0  0  0  0
    0.9095   -1.6029   -2.1307 H   0  0  0  0  0  0  0  0  0  0  0  0
    4.8740   -1.3715   -0.3382 H   0  0  0  0  0  0  0  0  0  0  0  0
    3.9381   -0.9390    1.1165 H   0  0  0  0  0  0  0  0  0  0  0  0
    4.9292    1.2813    1.2710 H   0  0  0  0  0  0  0  0  0  0  0  0
    6.7741    0.5473    2.3234 H   0  0  0  0  0  0  0  0  0  0  0  0
    6.2432   -1.0781    1.8449 H   0  0  0  0  0  0  0  0  0  0  0  0
    8.4381    0.6378    0.6257 H   0  0  0  0  0  0  0  0  0  0  0  0
    8.3931   -1.0534    1.1571 H   0  0  0  0  0  0  0  0  0  0  0  0
    7.1894   -1.7900   -0.7869 H   0  0  0  0  0  0  0  0  0  0  0  0
    8.5582   -0.6962   -1.2751 H   0  0  0  0  0  0  0  0  0  0  0  0
    7.1470    0.7524   -2.2913 H   0  0  0  0  0  0  0  0  0  0  0  0
    5.8132   -0.4192   -1.9512 H   0  0  0  0  0  0  0  0  0  0  0  0
    5.3329    1.8715   -1.0986 H   0  0  0  0  0  0  0  0  0  0  0  0
    6.8675    1.8169   -0.1401 H   0  0  0  0  0  0  0  0  0  0  0  0
   -2.3640    1.1078   -1.7162 H   0  0  0  0  0  0  0  0  0  0  0  0
   -7.7255    1.1152    2.8173 H   0  0  0  0  0  0  0  0  0  0  0  0
   -8.2734    1.1281    1.1231 H   0  0  0  0  0  0  0  0  0  0  0  0
   -7.3097    2.5364    1.8309 H   0  0  0  0  0  0  0  0  0  0  0  0
   -7.1610    0.3666   -2.8081 H   0  0  0  0  0  0  0  0  0  0  0  0
   -6.4995   -1.2856   -2.7957 H   0  0  0  0  0  0  0  0  0  0  0  0
   -5.7071   -0.0877   -3.8539 H   0  0  0  0  0  0  0  0  0  0  0  0
  1  2  1  0
  2  3  1  0
  3  4  1  0
  4  5  1  0
  1  6  1  0
  5  6  1  0
  5  7  1  0
  7  8  1  0
  4  9  1  0
  8  9  1  0
  8 10  1  0
 10 11  1  0
 11 12  1  0
 12 13  1  0
 13 14  1  0
 14 15  1  0
 11 16  1  0
 15 16  1  0
 14 17  1  0
 17 18  1  0
 18 19  1  0
 19 20  1  0
 20 21  1  0
 21 22  1  0
 18 23  1  0
 22 23  1  0
  7 24  1  0
  1 25  1  0
 25 26  1  0
  2 27  1  0
 27 28  1  0
 29 30  1  0
 30 31  1  0
 31 32  1  0
 32 33  1  0
 29 34  1  0
 33 34  1  0
 33 35  1  0
 35 36  1  0
 32 37  1  0
 36 37  1  0
 36 38  1  0
 38 39  1  0
 39 40  1  0
 40 41  1  0
 41 42  1  0
 42 43  1  0
 39 44  1  0
 43 44  1  0
 42 45  1  0
 45 46  1  0
 46 47  1  0
 47 48  1  0
 48 49  1  0
 49 50  1  0
 46 51  1  0
 50 51  1  0
 35 52  1  0
 29 53  1  0
 53 54  1  0
 30 55  1  0
 55 56  1  0
  1 57  1  0
  2 58  1  0
  3 59  1  0
  3 60  1  0
  4 61  1  0
  5 62  1  0
  6 63  1  0
  6 64  1  0
  7 65  1  0
  8 66  1  1
  9 67  1  0
  9 68  1  0
 10 69  1  0
 10 70  1  0
 11 71  1  0
 12 72  1  0
 12 73  1  0
 13 74  1  0
 13 75  1  0
 15 76  1  0
 15 77  1  0
 16 78  1  0
 16 79  1  0
 17 80  1  0
 17 81  1  0
 18 82  1  0
 19 83  1  0
 19 84  1  0
 20 85  1  0
 20 86  1  0
 21 87  1  0
 21 88  1  0
 22 89  1  0
 22 90  1  0
 23 91  1  0
 23 92  1  0
 24 93  1  0
 26 94  1  0
 26 95  1  0
 26 96  1  0
 28 97  1  0
 28 98  1  0
 28 99  1  0
 29100  1  0
 30101  1  0
 31102  1  0
 31103  1  0
 32104  1  0
 33105  1  0
 34106  1  0
 34107  1  0
 35108  1  0
 36109  1  1
 37110  1  0
 37111  1  0
 38112  1  0
 38113  1  0
 39114  1  0
 40115  1  0
 40116  1  0
 41117  1  0
 41118  1  0
 43119  1  0
 43120  1  0
 44121  1  0
 44122  1  0
 45123  1  0
 45124  1  0
 46125  1  0
 47126  1  0
 47127  1  0
 48128  1  0
 48129  1  0
 49130  1  0
 49131  1  0
 50132  1  0
 50133  1  0
 51134  1  0
 51135  1  0
 52136  1  0
 54137  1  0
 54138  1  0
 54139  1  0
 56140  1  0
 56141  1  0
 56142  1  0
M  END
>  <PDBID>  (1) 
4EY7

>  <PDB ID>  (1) 
4EY7

>  <Generic Name>  (1) 
Donepezil

>  <Brand Name>  (1) 
Accel-donepezil#Act Donepezil#Act Donepezil ODT#Ag-donepezil#Apo-donepezil#Aricept#Aricept ODT#Aricept Rdt#Auro-donepezil#Bio-donepezil#Dom-donepezil#Donepezil#Donepezil Hydrochloride#Donepezil Hydrochloride 10 mg#Donepezil Hydrochloride 10mg#Donepezil Hydrochloride 5 mg#Donepezil Hydrochloride ODT#Donepezil Hydrochloride Tablets#Donepezil Hydrochloride Tablets USP#Donepezil Hyrochloride 5mg#Ecl-donepezil#Ipg-donepezil#Jamp-donepezil#Jamp-donepezil Tablets#Mar-donepezil#Mint-donepezil#Mylan-donepezil#Namzaric#Nat-donepezil#PMS-donepezil#Priva-donepezil#Ran-donepezil#Riva-donepezil#Sandoz Donepezil#Sandoz Donepezil ODT#Septa Donepezil#Teva-donepezil#Van-donepezil#Alzepil#Davia#Depzil#Donecept#Donecil#Donep#Donepex#Donesyn#Dopezil#Eranz#Memac#Nomi-Nox#Pezale#Redumas#Zolpezil

>  <DrugBank ID>  (1) 
DB00843

>  <ATC Codes>  (1) 
N06DA02#N06DA52#N06DA53

>  <Ligand ID>  (1) 
E20

>  <Target Name>  (1) 
Acetylcholinesterase

>  <UniProt ID>  (1) 
P22303

>  <PDB ID.1>  (1) 
4EY7

>  <Seq. Identity>  (1) 
97%

$$$$
