PDB_DB04868_00
     RDKit          3D

 91 95  0  0  0  0  0  0  0  0999 V2000
   -1.8044   -0.9691   -1.4064 O   0  0  0  0  0  0  0  0  0  0  0  0
   -1.9577   -0.1715   -0.2636 C   0  0  1  0  0  0  0  0  0  0  0  0
   -2.8921   -0.7552    0.6554 N   0  0  0  0  0  0  0  0  0  0  0  0
   -3.6330   -1.8776    0.2174 C   0  0  2  0  0  0  0  0  0  0  0  0
   -4.5965   -1.4743   -0.8937 C   0  0  0  0  0  0  0  0  0  0  0  0
   -5.4757   -0.4122   -0.2214 C   0  0  0  0  0  0  0  0  0  0  0  0
   -6.2143    0.3844   -1.1309 N   0  0  0  0  0  0  0  0  0  0  0  0
   -7.1841   -0.2765   -1.9328 C   0  0  0  0  0  0  0  0  0  0  0  0
   -8.5166   -0.0213   -1.2570 C   0  0  0  0  0  0  0  0  0  0  0  0
   -9.5887    0.3880   -2.2632 C   0  0  0  0  0  0  0  0  0  0  0  0
   -8.2927    1.1211   -0.3718 N   0  0  0  0  0  0  0  0  0  0  0  0
   -6.9129    1.4758   -0.5062 C   0  0  0  0  0  0  0  0  0  0  0  0
   -6.3282   -1.1279    0.7930 C   0  0  0  0  0  0  0  0  0  0  0  0
   -4.3522   -2.5744    1.3374 C   0  0  0  0  0  0  0  0  0  0  0  0
   -5.5333   -1.7971    1.8559 C   0  0  0  0  0  0  0  0  0  0  0  0
   -5.1719   -0.8718    3.0075 C   0  0  0  0  0  0  0  0  0  0  0  0
   -6.3733   -0.4152    3.5681 F   0  0  0  0  0  0  0  0  0  0  0  0
   -4.5162    0.2672    2.5935 F   0  0  0  0  0  0  0  0  0  0  0  0
   -4.5171   -1.5626    3.9914 F   0  0  0  0  0  0  0  0  0  0  0  0
   -0.6181    0.0366    0.4165 C   0  0  1  0  0  0  0  0  0  0  0  0
    0.0455   -1.2140    0.8732 C   0  0  0  0  0  0  0  0  0  0  0  0
    1.1289   -0.8032    1.8505 C   0  0  0  0  0  0  0  0  0  0  0  0
    1.6952    0.5677    1.5883 C   0  0  0  0  0  0  0  0  0  0  0  0
    1.1143    1.6062    2.5365 C   0  0  0  0  0  0  0  0  0  0  0  0
    1.6500    1.0179    0.1709 C   0  0  2  0  0  0  0  0  0  0  0  0
    0.3450    0.7166   -0.5425 C   0  0  0  0  0  0  0  0  0  0  0  0
    2.7390    0.6216   -0.6551 N   0  0  0  0  0  0  0  0  0  0  0  0
    4.0168    1.1545   -0.2953 C   0  0  0  0  0  0  0  0  0  0  0  0
    4.1562    2.5613   -0.4181 N   0  0  0  0  0  0  0  0  0  0  0  0
    5.0558    3.0365   -1.4298 C   0  0  0  0  0  0  0  0  0  0  0  0
    6.4317    2.3946   -1.3318 C   0  0  0  0  0  0  0  0  0  0  0  0
    6.3369    1.0264   -0.7293 C   0  0  0  0  0  0  0  0  0  0  0  0
    5.0225    0.5058   -1.1439 N   0  0  0  0  0  0  0  0  0  0  0  0
    7.3727    0.0443   -1.0859 C   0  0  0  0  0  0  0  0  0  0  0  0
    8.7736    0.4597   -0.6984 C   0  0  0  0  0  0  0  0  0  0  0  0
    9.6370   -0.8048   -0.7722 C   0  0  0  0  0  0  0  0  0  0  0  0
    9.2054   -1.7609    0.3137 C   0  0  0  0  0  0  0  0  0  0  0  0
    7.8591   -1.4496    0.7768 N   0  0  0  0  0  0  0  0  0  0  0  0
    7.0106   -1.2704   -0.3797 C   0  0  0  0  0  0  0  0  0  0  0  0
   -1.0235   -1.5725   -1.3433 H   0  0  0  0  0  0  0  0  0  0  0  0
   -2.3517    0.8048   -0.5941 H   0  0  0  0  0  0  0  0  0  0  0  0
   -2.4046   -0.9908    1.5264 H   0  0  0  0  0  0  0  0  0  0  0  0
   -2.9357   -2.6166   -0.2314 H   0  0  0  0  0  0  0  0  0  0  0  0
   -5.2305   -2.3554   -1.1814 H   0  0  0  0  0  0  0  0  0  0  0  0
   -4.0522   -1.0474   -1.7384 H   0  0  0  0  0  0  0  0  0  0  0  0
   -4.7662    0.2536    0.3219 H   0  0  0  0  0  0  0  0  0  0  0  0
   -7.0079   -1.3224   -2.1644 H   0  0  0  0  0  0  0  0  0  0  0  0
   -7.2430    0.2733   -2.9162 H   0  0  0  0  0  0  0  0  0  0  0  0
   -8.8898   -0.8912   -0.6934 H   0  0  0  0  0  0  0  0  0  0  0  0
   -9.6615    1.4890   -2.3626 H   0  0  0  0  0  0  0  0  0  0  0  0
  -10.5646   -0.0712   -1.9916 H   0  0  0  0  0  0  0  0  0  0  0  0
   -9.3237   -0.0150   -3.2690 H   0  0  0  0  0  0  0  0  0  0  0  0
   -8.8580    1.9546   -0.6638 H   0  0  0  0  0  0  0  0  0  0  0  0
   -6.7348    2.3825   -1.1142 H   0  0  0  0  0  0  0  0  0  0  0  0
   -6.4247    1.6311    0.4905 H   0  0  0  0  0  0  0  0  0  0  0  0
   -6.9652   -0.3513    1.2849 H   0  0  0  0  0  0  0  0  0  0  0  0
   -6.9618   -1.9032    0.3060 H   0  0  0  0  0  0  0  0  0  0  0  0
   -4.6557   -3.5827    0.9895 H   0  0  0  0  0  0  0  0  0  0  0  0
   -3.6207   -2.7135    2.1578 H   0  0  0  0  0  0  0  0  0  0  0  0
   -6.2140   -2.5715    2.3263 H   0  0  0  0  0  0  0  0  0  0  0  0
   -0.8210    0.6886    1.2968 H   0  0  0  0  0  0  0  0  0  0  0  0
    0.5717   -1.7293    0.0278 H   0  0  0  0  0  0  0  0  0  0  0  0
   -0.6251   -1.9286    1.3791 H   0  0  0  0  0  0  0  0  0  0  0  0
    0.6219   -0.7351    2.8549 H   0  0  0  0  0  0  0  0  0  0  0  0
    1.9031   -1.5801    1.9570 H   0  0  0  0  0  0  0  0  0  0  0  0
    2.7809    0.4906    1.8973 H   0  0  0  0  0  0  0  0  0  0  0  0
    0.6263    2.4405    1.9914 H   0  0  0  0  0  0  0  0  0  0  0  0
    1.8955    2.0945    3.1674 H   0  0  0  0  0  0  0  0  0  0  0  0
    0.4395    1.1121    3.2683 H   0  0  0  0  0  0  0  0  0  0  0  0
    1.6948    2.1564    0.2094 H   0  0  0  0  0  0  0  0  0  0  0  0
    0.5117   -0.0118   -1.3830 H   0  0  0  0  0  0  0  0  0  0  0  0
   -0.1221    1.6107   -0.9957 H   0  0  0  0  0  0  0  0  0  0  0  0
    2.4882    0.8192   -1.6466 H   0  0  0  0  0  0  0  0  0  0  0  0
    4.3139    0.8918    0.7491 H   0  0  0  0  0  0  0  0  0  0  0  0
    4.2051    3.0848    0.4743 H   0  0  0  0  0  0  0  0  0  0  0  0
    4.6153    2.9001   -2.4355 H   0  0  0  0  0  0  0  0  0  0  0  0
    5.1931    4.1262   -1.2916 H   0  0  0  0  0  0  0  0  0  0  0  0
    6.8608    2.4080   -2.3515 H   0  0  0  0  0  0  0  0  0  0  0  0
    7.0574    3.0598   -0.7064 H   0  0  0  0  0  0  0  0  0  0  0  0
    6.2380    1.1556    0.3861 H   0  0  0  0  0  0  0  0  0  0  0  0
    4.8645    0.8660   -2.1093 H   0  0  0  0  0  0  0  0  0  0  0  0
    7.4031   -0.1973   -2.1663 H   0  0  0  0  0  0  0  0  0  0  0  0
    8.8324    0.8901    0.3061 H   0  0  0  0  0  0  0  0  0  0  0  0
    9.1556    1.1239   -1.4995 H   0  0  0  0  0  0  0  0  0  0  0  0
    9.3386   -1.2908   -1.7378 H   0  0  0  0  0  0  0  0  0  0  0  0
   10.7091   -0.5782   -0.7712 H   0  0  0  0  0  0  0  0  0  0  0  0
    9.8901   -1.6372    1.1759 H   0  0  0  0  0  0  0  0  0  0  0  0
    9.2305   -2.8142   -0.0497 H   0  0  0  0  0  0  0  0  0  0  0  0
    7.8516   -0.5815    1.3253 H   0  0  0  0  0  0  0  0  0  0  0  0
    7.1159   -2.1423   -1.0337 H   0  0  0  0  0  0  0  0  0  0  0  0
    5.9320   -1.2533   -0.0469 H   0  0  0  0  0  0  0  0  0  0  0  0
  1  2  1  0
  2  3  1  0
  3  4  1  0
  4  5  1  0
  5  6  1  0
  6  7  1  0
  7  8  1  0
  8  9  1  0
  9 10  1  0
  9 11  1  0
  7 12  1  0
 11 12  1  0
  6 13  1  0
  4 14  1  0
 13 15  1  0
 14 15  1  0
 15 16  1  0
 16 17  1  0
 16 18  1  0
 16 19  1  0
  2 20  1  0
 20 21  1  0
 21 22  1  0
 22 23  1  0
 23 24  1  0
 23 25  1  0
 20 26  1  0
 25 26  1  0
 25 27  1  0
 27 28  1  0
 28 29  1  0
 29 30  1  0
 30 31  1  0
 31 32  1  0
 28 33  1  0
 32 33  1  0
 32 34  1  0
 34 35  1  0
 35 36  1  0
 36 37  1  0
 37 38  1  0
 34 39  1  0
 38 39  1  0
  1 40  1  0
  2 41  1  6
  3 42  1  0
  4 43  1  6
  5 44  1  0
  5 45  1  0
  6 46  1  0
  8 47  1  0
  8 48  1  0
  9 49  1  0
 10 50  1  0
 10 51  1  0
 10 52  1  0
 11 53  1  0
 12 54  1  0
 12 55  1  0
 13 56  1  0
 13 57  1  0
 14 58  1  0
 14 59  1  0
 15 60  1  0
 20 61  1  1
 21 62  1  0
 21 63  1  0
 22 64  1  0
 22 65  1  0
 23 66  1  0
 24 67  1  0
 24 68  1  0
 24 69  1  0
 25 70  1  1
 26 71  1  0
 26 72  1  0
 27 73  1  0
 28 74  1  0
 29 75  1  0
 30 76  1  0
 30 77  1  0
 31 78  1  0
 31 79  1  0
 32 80  1  0
 33 81  1  0
 34 82  1  0
 35 83  1  0
 35 84  1  0
 36 85  1  0
 36 86  1  0
 37 87  1  0
 37 88  1  0
 38 89  1  0
 39 90  1  0
 39 91  1  0
M  END
>  <PDBID>  (1) 
5MO4

>  <PDB ID>  (1) 
5MO4

>  <Generic Name>  (1) 
Nilotinib

>  <Brand Name>  (1) 
Tasigna

>  <DrugBank ID>  (1) 
DB04868

>  <ATC Codes>  (1) 
L01XE08

>  <Ligand ID>  (1) 
NIL

>  <Target Name>  (1) 
Tyrosine-protein kinase ABL1

>  <UniProt ID>  (1) 
P00519

>  <PDB ID.1>  (1) 
5MO4

>  <Seq. Identity>  (1) 
97%

$$$$
