PDB_DB00966_03
     RDKit          3D

 99104  0  0  0  0  0  0  0  0999 V2000
   -0.9306   -1.7970    0.9560 C   0  0  0  0  0  0  0  0  0  0  0  0
   -0.0262   -2.8009    0.5862 N   0  0  0  0  0  0  0  0  0  0  0  0
   -2.2327   -2.5415    1.3659 C   0  0  0  0  0  0  0  0  0  0  0  0
   -1.4259   -0.9059   -0.1678 C   0  0  0  0  0  0  0  0  0  0  0  0
   -0.6095   -4.1011    1.0022 C   0  0  0  0  0  0  0  0  0  0  0  0
    1.2292   -2.6995    1.2587 C   0  0  0  0  0  0  0  0  0  0  0  0
   -1.6774   -3.7289    1.9113 N   0  0  0  0  0  0  0  0  0  0  0  0
   -2.9395   -1.6234    2.2908 C   0  0  0  0  0  0  0  0  0  0  0  0
   -2.3759    0.0592    0.4832 C   0  0  0  0  0  0  0  0  0  0  0  0
   -1.0377   -4.8906   -0.1832 C   0  0  0  0  0  0  0  0  0  0  0  0
    2.1272   -1.5749    0.9368 C   0  0  0  0  0  0  0  0  0  0  0  0
   -2.6560   -0.2011    1.9248 C   0  0  0  0  0  0  0  0  0  0  0  0
   -2.3782   -1.8513    3.7003 C   0  0  0  0  0  0  0  0  0  0  0  0
   -3.6570    0.2481   -0.2990 C   0  0  0  0  0  0  0  0  0  0  0  0
   -1.6321   -6.2325    0.1515 C   0  0  0  0  0  0  0  0  0  0  0  0
    2.5264   -1.4959   -0.5197 C   0  0  0  0  0  0  0  0  0  0  0  0
    1.7559   -0.2136    1.4189 C   0  0  0  0  0  0  0  0  0  0  0  0
   -3.4492    0.7563   -1.6195 N   0  0  0  0  0  0  0  0  0  0  0  0
   -4.4353    1.2479    0.4199 N   0  0  0  0  0  0  0  0  0  0  0  0
   -2.0341   -6.9902   -1.1015 C   0  0  0  0  0  0  0  0  0  0  0  0
    2.9203   -0.0741   -0.8701 C   0  0  0  0  0  0  0  0  0  0  0  0
    3.0311    0.6664    1.4550 C   0  0  0  0  0  0  0  0  0  0  0  0
   -4.6211    1.5791   -1.8508 C   0  0  0  0  0  0  0  0  0  0  0  0
   -3.5011   -0.3235   -2.5836 C   0  0  0  0  0  0  0  0  0  0  0  0
   -4.8255    2.2445   -0.5331 C   0  0  0  0  0  0  0  0  0  0  0  0
    3.8297    0.4297    0.2102 C   0  0  0  0  0  0  0  0  0  0  0  0
   -4.5011    2.4860   -3.0226 C   0  0  0  0  0  0  0  0  0  0  0  0
   -4.0571    3.5246   -0.3614 C   0  0  0  0  0  0  0  0  0  0  0  0
    4.8013    1.4558   -0.1787 C   0  0  1  0  0  0  0  0  0  0  0  0
   -3.8342    3.7951   -2.7633 C   0  0  0  0  0  0  0  0  0  0  0  0
   -4.4047    4.4470   -1.5264 C   0  0  0  0  0  0  0  0  0  0  0  0
    4.3882    2.7148   -0.7891 C   0  0  0  0  0  0  0  0  0  0  0  0
    5.7225    1.6674    1.0401 C   0  0  0  0  0  0  0  0  0  0  0  0
    5.6486    3.3647   -1.3843 C   0  0  0  0  0  0  0  0  0  0  0  0
    3.7104    3.7549    0.0088 C   0  0  0  0  0  0  0  0  0  0  0  0
    6.9229    2.4184    0.5780 C   0  0  0  0  0  0  0  0  0  0  0  0
    6.9073    2.7372   -0.8847 C   0  0  0  0  0  0  0  0  0  0  0  0
    4.4790    4.2084    1.0942 O   0  0  0  0  0  0  0  0  0  0  0  0
    3.6298    4.8974   -0.8446 O   0  0  0  0  0  0  0  0  0  0  0  0
   -0.6372   -1.1658    1.8011 H   0  0  0  0  0  0  0  0  0  0  0  0
   -2.7988   -2.8009    0.4490 H   0  0  0  0  0  0  0  0  0  0  0  0
   -2.0343   -1.5741   -0.8434 H   0  0  0  0  0  0  0  0  0  0  0  0
   -0.6004   -0.4736   -0.7188 H   0  0  0  0  0  0  0  0  0  0  0  0
    0.1129   -4.7015    1.5886 H   0  0  0  0  0  0  0  0  0  0  0  0
    1.7973   -3.6865    1.1684 H   0  0  0  0  0  0  0  0  0  0  0  0
    1.0832   -2.6588    2.3922 H   0  0  0  0  0  0  0  0  0  0  0  0
   -2.3853   -4.4822    1.9093 H   0  0  0  0  0  0  0  0  0  0  0  0
   -4.0271   -1.8339    2.3723 H   0  0  0  0  0  0  0  0  0  0  0  0
   -1.8596    1.0648    0.4401 H   0  0  0  0  0  0  0  0  0  0  0  0
   -1.8013   -4.3421   -0.7863 H   0  0  0  0  0  0  0  0  0  0  0  0
   -0.1563   -5.0863   -0.8280 H   0  0  0  0  0  0  0  0  0  0  0  0
    3.0832   -1.8191    1.5527 H   0  0  0  0  0  0  0  0  0  0  0  0
   -3.5941    0.3792    2.1739 H   0  0  0  0  0  0  0  0  0  0  0  0
   -1.8822    0.2397    2.5903 H   0  0  0  0  0  0  0  0  0  0  0  0
   -1.4436   -1.2544    3.7919 H   0  0  0  0  0  0  0  0  0  0  0  0
   -3.0840   -1.4855    4.4665 H   0  0  0  0  0  0  0  0  0  0  0  0
   -2.1565   -2.9277    3.8403 H   0  0  0  0  0  0  0  0  0  0  0  0
   -4.2722   -0.6632   -0.3539 H   0  0  0  0  0  0  0  0  0  0  0  0
   -2.5465   -6.0851    0.7599 H   0  0  0  0  0  0  0  0  0  0  0  0
   -0.9460   -6.8517    0.7725 H   0  0  0  0  0  0  0  0  0  0  0  0
    1.7418   -1.9016   -1.1700 H   0  0  0  0  0  0  0  0  0  0  0  0
    3.4480   -2.1240   -0.6913 H   0  0  0  0  0  0  0  0  0  0  0  0
    0.9719    0.3049    0.8610 H   0  0  0  0  0  0  0  0  0  0  0  0
    1.4347   -0.3344    2.4911 H   0  0  0  0  0  0  0  0  0  0  0  0
   -5.2484    0.8315    0.9214 H   0  0  0  0  0  0  0  0  0  0  0  0
   -2.9840   -6.6650   -1.5245 H   0  0  0  0  0  0  0  0  0  0  0  0
   -2.0584   -8.0776   -0.8508 H   0  0  0  0  0  0  0  0  0  0  0  0
   -1.1928   -6.8757   -1.8412 H   0  0  0  0  0  0  0  0  0  0  0  0
    3.3521   -0.0104   -1.8785 H   0  0  0  0  0  0  0  0  0  0  0  0
    1.9806    0.5159   -0.8963 H   0  0  0  0  0  0  0  0  0  0  0  0
    3.5960    0.2865    2.3422 H   0  0  0  0  0  0  0  0  0  0  0  0
    2.6940    1.6820    1.6336 H   0  0  0  0  0  0  0  0  0  0  0  0
   -5.5263    0.9284   -2.0303 H   0  0  0  0  0  0  0  0  0  0  0  0
   -4.0955   -0.0493   -3.4841 H   0  0  0  0  0  0  0  0  0  0  0  0
   -4.0076   -1.2093   -2.1530 H   0  0  0  0  0  0  0  0  0  0  0  0
   -2.4729   -0.5707   -2.9759 H   0  0  0  0  0  0  0  0  0  0  0  0
   -5.9106    2.4844   -0.3524 H   0  0  0  0  0  0  0  0  0  0  0  0
    4.4682   -0.4933    0.4662 H   0  0  0  0  0  0  0  0  0  0  0  0
   -5.4979    2.6807   -3.4684 H   0  0  0  0  0  0  0  0  0  0  0  0
   -3.9162    1.9552   -3.8078 H   0  0  0  0  0  0  0  0  0  0  0  0
   -2.9695    3.3674   -0.4094 H   0  0  0  0  0  0  0  0  0  0  0  0
   -4.3920    3.9962    0.5863 H   0  0  0  0  0  0  0  0  0  0  0  0
    5.5198    0.9768   -0.9220 H   0  0  0  0  0  0  0  0  0  0  0  0
   -2.7379    3.7137   -2.6159 H   0  0  0  0  0  0  0  0  0  0  0  0
   -4.0474    4.4630   -3.6297 H   0  0  0  0  0  0  0  0  0  0  0  0
   -3.9238    5.4259   -1.3360 H   0  0  0  0  0  0  0  0  0  0  0  0
   -5.5026    4.5954   -1.6034 H   0  0  0  0  0  0  0  0  0  0  0  0
    3.7442    2.4877   -1.6653 H   0  0  0  0  0  0  0  0  0  0  0  0
    5.1870    2.0967    1.8854 H   0  0  0  0  0  0  0  0  0  0  0  0
    6.0127    0.6221    1.3420 H   0  0  0  0  0  0  0  0  0  0  0  0
    5.6621    3.2797   -2.4983 H   0  0  0  0  0  0  0  0  0  0  0  0
    5.6926    4.4485   -1.1743 H   0  0  0  0  0  0  0  0  0  0  0  0
    2.6743    3.5888    0.2974 H   0  0  0  0  0  0  0  0  0  0  0  0
    7.8445    1.7893    0.7484 H   0  0  0  0  0  0  0  0  0  0  0  0
    7.0797    3.3277    1.1797 H   0  0  0  0  0  0  0  0  0  0  0  0
    7.7295    3.4987   -1.0442 H   0  0  0  0  0  0  0  0  0  0  0  0
    7.2477    1.8697   -1.5212 H   0  0  0  0  0  0  0  0  0  0  0  0
    3.9945    5.0049    1.4756 H   0  0  0  0  0  0  0  0  0  0  0  0
    4.1693    5.6411   -0.5340 H   0  0  0  0  0  0  0  0  0  0  0  0
  1  2  1  0
  1  3  1  0
  1  4  1  0
  2  5  1  0
  2  6  1  0
  3  7  1  0
  5  7  1  0
  3  8  1  0
  4  9  1  0
  5 10  1  0
  6 11  1  0
  8 12  1  0
  9 12  1  0
  8 13  1  0
  9 14  1  0
 10 15  1  0
 11 16  1  0
 11 17  1  0
 14 18  1  0
 14 19  1  0
 15 20  1  0
 16 21  1  0
 17 22  1  0
 18 23  1  0
 18 24  1  0
 19 25  1  0
 23 25  1  0
 21 26  1  0
 22 26  1  0
 23 27  1  0
 25 28  1  0
 26 29  1  0
 27 30  1  0
 28 31  1  0
 30 31  1  0
 29 32  1  0
 29 33  1  0
 32 34  1  0
 32 35  1  0
 33 36  1  0
 34 37  1  0
 36 37  1  0
 35 38  1  0
 35 39  1  0
  1 40  1  0
  3 41  1  0
  4 42  1  0
  4 43  1  0
  5 44  1  0
  6 45  1  0
  6 46  1  0
  7 47  1  0
  8 48  1  0
  9 49  1  0
 10 50  1  0
 10 51  1  0
 11 52  1  0
 12 53  1  0
 12 54  1  0
 13 55  1  0
 13 56  1  0
 13 57  1  0
 14 58  1  0
 15 59  1  0
 15 60  1  0
 16 61  1  0
 16 62  1  0
 17 63  1  0
 17 64  1  0
 19 65  1  0
 20 66  1  0
 20 67  1  0
 20 68  1  0
 21 69  1  0
 21 70  1  0
 22 71  1  0
 22 72  1  0
 23 73  1  0
 24 74  1  0
 24 75  1  0
 24 76  1  0
 25 77  1  0
 26 78  1  0
 27 79  1  0
 27 80  1  0
 28 81  1  0
 28 82  1  0
 29 83  1  6
 30 84  1  0
 30 85  1  0
 31 86  1  0
 31 87  1  0
 32 88  1  0
 33 89  1  0
 33 90  1  0
 34 91  1  0
 34 92  1  0
 35 93  1  0
 36 94  1  0
 36 95  1  0
 37 96  1  0
 37 97  1  0
 38 98  1  0
 39 99  1  0
M  END
>  <PDBID>  (1) 
3VN2

>  <PDB ID>  (1) 
3VN2

>  <Generic Name>  (1) 
Telmisartan

>  <Brand Name>  (1) 
Ach-telmisartan Hctz#Act Telmisartan#Act Telmisartan/hct#Apo-telmisartan#Apo-telmisartan/hctz#Auro-telmisartan#Auro-telmisartan Hctz#Mar-telmisartan#Micardis#Micardis 40mg Tab#Micardis 80mg Tab#Micardis Hct#Micardis Plus#Mylan-telmisartan#Mylan-telmisartan Hctz#Ntp-telmisartan#Ntp-telmisartan Hctz#PMS-telmisartan#PMS-telmisartan-hctz#Pendo-telmisartan#Pendo-telmisartan-hctz#Ran-telmisartan#Ran-telmisartan Hctz#Sandoz Telmisartan#Sandoz Telmisartan Hct#Septa-telmisartan#Telmisartan#Telmisartan Hctz#Telmisartan Tablets#Telmisartan and Amlodipine#Telmisartan and Hydrochlorothiazide#Telmisartan and Hydrochlorothiazide 40 Mg/12.5 mg#Telmisartan and Hydrochlorothiazide 80 Mg/12.5 mg#Telmisartan and Hydrochlorothiazide 80 Mg/25 mg#Telmisartan and Hydrochlorthiazide#Telmisartan-hctz#Telmisartan/hctz#Teva-telmisartan#Teva-telmisartan Hctz#Torrent-telmisartan#Torrent-telmisartan and Hydrochlorothiazide#Twynsta#Van-telmisartan#Van-telmisartan-hctz#Zinda-telmisartan#Zinda-telmisartan/ Hctz#Pritor

>  <DrugBank ID>  (1) 
DB00966

>  <ATC Codes>  (1) 
C09DB04#C09DA07#C09CA07

>  <Ligand ID>  (1) 
TLS

>  <Target Name>  (1) 
Peroxisome proliferator-activated receptor gamma

>  <UniProt ID>  (1) 
P37231

>  <PDB ID.1>  (1) 
3VN2

>  <Seq. Identity>  (1) 
95%

$$$$
