PDB_DB01261_05
     RDKit          3D

110114  0  0  0  0  0  0  0  0999 V2000
   -5.2482    1.4762   -0.8871 C   0  0  0  0  0  0  0  0  0  0  0  0
   -3.7566    1.0816   -0.7177 C   0  0  0  0  0  0  0  0  0  0  0  0
   -3.7005    0.3162    0.5558 C   0  0  0  0  0  0  0  0  0  0  0  0
   -4.4191   -1.0077    0.3523 C   0  0  0  0  0  0  0  0  0  0  0  0
   -5.8980   -0.6515    0.1136 C   0  0  0  0  0  0  0  0  0  0  0  0
   -5.9402    0.1364   -1.1763 C   0  0  0  0  0  0  0  0  0  0  0  0
   -6.4022    0.1135    1.1209 F   0  0  0  0  0  0  0  0  0  0  0  0
   -3.0681    2.2508   -0.7304 F   0  0  0  0  0  0  0  0  0  0  0  0
   -2.4439    0.2607    1.3003 C   0  0  0  0  0  0  0  0  0  0  0  0
   -1.2167   -0.2996    0.7364 C   0  0  2  0  0  0  0  0  0  0  0  0
   -0.6556    0.3460   -0.4977 C   0  0  0  0  0  0  0  0  0  0  0  0
    0.6319   -0.3373   -0.9517 C   0  0  1  0  0  0  0  0  0  0  0  0
    1.6717   -0.2889    0.0526 N   0  0  0  0  0  0  0  0  0  0  0  0
   -1.2392   -1.7491    0.5909 N   0  0  0  0  0  0  0  0  0  0  0  0
    0.3267   -1.6730   -1.1881 O   0  0  0  0  0  0  0  0  0  0  0  0
    2.0655    1.0600    0.3742 C   0  0  0  0  0  0  0  0  0  0  0  0
    3.4731    1.3144    0.6741 C   0  0  0  0  0  0  0  0  0  0  0  0
    4.3745    0.2287    0.8018 N   0  0  0  0  0  0  0  0  0  0  0  0
    3.8202   -1.0760    0.5836 C   0  0  0  0  0  0  0  0  0  0  0  0
    2.8393   -0.9239   -0.5715 C   0  0  0  0  0  0  0  0  0  0  0  0
    5.4446    0.2643   -0.1814 C   0  0  0  0  0  0  0  0  0  0  0  0
    5.8154   -1.0904   -0.4446 N   0  0  0  0  0  0  0  0  0  0  0  0
    4.9305   -1.9160    0.2436 N   0  0  0  0  0  0  0  0  0  0  0  0
    6.6188    1.0793    0.3251 C   0  0  0  0  0  0  0  0  0  0  0  0
    7.1082    0.5232    1.4845 F   0  0  0  0  0  0  0  0  0  0  0  0
    6.1262    2.3580    0.5840 F   0  0  0  0  0  0  0  0  0  0  0  0
    7.6209    1.1366   -0.6197 F   0  0  0  0  0  0  0  0  0  0  0  0
   -7.1995    0.3105   -1.6664 F   0  0  0  0  0  0  0  0  0  0  0  0
   -4.4117    2.1214    0.3694 C   0  0  0  0  0  0  0  0  0  0  0  0
   -3.1882    1.1699    0.4698 C   0  0  0  0  0  0  0  0  0  0  0  0
   -3.7604   -0.1820    0.6905 C   0  0  0  0  0  0  0  0  0  0  0  0
   -4.4709   -0.6317   -0.5794 C   0  0  0  0  0  0  0  0  0  0  0  0
   -5.6528    0.3364   -0.7439 C   0  0  0  0  0  0  0  0  0  0  0  0
   -5.0603    1.7087   -0.9592 C   0  0  0  0  0  0  0  0  0  0  0  0
   -6.4481    0.3385    0.3751 F   0  0  0  0  0  0  0  0  0  0  0  0
   -2.4428    1.6332    1.5038 F   0  0  0  0  0  0  0  0  0  0  0  0
   -2.9555   -1.2014    1.3639 C   0  0  0  0  0  0  0  0  0  0  0  0
   -1.6749   -1.6705    0.8379 C   0  0  2  0  0  0  0  0  0  0  0  0
   -0.5678   -0.6595    0.6838 C   0  0  0  0  0  0  0  0  0  0  0  0
    0.6749   -1.3198    0.1444 C   0  0  0  0  0  0  0  0  0  0  0  0
    1.7778   -0.5124   -0.0487 N   0  0  0  0  0  0  0  0  0  0  0  0
   -1.7882   -2.5056   -0.3524 N   0  0  0  0  0  0  0  0  0  0  0  0
    1.0069   -2.3409    1.0401 O   0  0  0  0  0  0  0  0  0  0  0  0
    1.7799    0.5533   -0.9470 C   0  0  0  0  0  0  0  0  0  0  0  0
    2.9639    1.4376   -0.8461 C   0  0  0  0  0  0  0  0  0  0  0  0
    4.0469    1.0078   -0.0608 N   0  0  0  0  0  0  0  0  0  0  0  0
    3.8563   -0.0241    0.8801 C   0  0  0  0  0  0  0  0  0  0  0  0
    3.0363   -1.1222    0.2325 C   0  0  0  0  0  0  0  0  0  0  0  0
    5.2283    0.6496   -0.7803 C   0  0  0  0  0  0  0  0  0  0  0  0
    5.8141   -0.4912   -0.0955 N   0  0  0  0  0  0  0  0  0  0  0  0
    5.1792   -0.5518    1.1522 N   0  0  0  0  0  0  0  0  0  0  0  0
    6.2399    1.7774   -0.8131 C   0  0  0  0  0  0  0  0  0  0  0  0
    6.6043    2.1036    0.4930 F   0  0  0  0  0  0  0  0  0  0  0  0
    5.6536    2.8908   -1.3605 F   0  0  0  0  0  0  0  0  0  0  0  0
    7.3919    1.3954   -1.4660 F   0  0  0  0  0  0  0  0  0  0  0  0
   -5.9763    2.6338   -1.3711 F   0  0  0  0  0  0  0  0  0  0  0  0
   -5.2771    2.1497   -1.7491 H   0  0  0  0  0  0  0  0  0  0  0  0
   -5.6324    1.9427    0.0332 H   0  0  0  0  0  0  0  0  0  0  0  0
   -3.5915    0.4294   -1.6160 H   0  0  0  0  0  0  0  0  0  0  0  0
   -4.4268    0.8754    1.2521 H   0  0  0  0  0  0  0  0  0  0  0  0
   -4.1157   -1.5428   -0.5474 H   0  0  0  0  0  0  0  0  0  0  0  0
   -4.3145   -1.5963    1.2853 H   0  0  0  0  0  0  0  0  0  0  0  0
   -6.4242   -1.6268   -0.0095 H   0  0  0  0  0  0  0  0  0  0  0  0
   -5.2915   -0.3392   -1.9689 H   0  0  0  0  0  0  0  0  0  0  0  0
   -2.2148    1.3086    1.6579 H   0  0  0  0  0  0  0  0  0  0  0  0
   -2.6536   -0.2839    2.2656 H   0  0  0  0  0  0  0  0  0  0  0  0
   -0.4068   -0.1393    1.5217 H   0  0  0  0  0  0  0  0  0  0  0  0
   -0.4363    1.4020   -0.2395 H   0  0  0  0  0  0  0  0  0  0  0  0
   -1.3025    0.3340   -1.3786 H   0  0  0  0  0  0  0  0  0  0  0  0
    0.9942    0.0788   -1.9047 H   0  0  0  0  0  0  0  0  0  0  0  0
   -1.7865   -1.9741   -0.2620 H   0  0  0  0  0  0  0  0  0  0  0  0
   -1.7232   -2.1800    1.4122 H   0  0  0  0  0  0  0  0  0  0  0  0
    0.7391   -2.3061   -0.5551 H   0  0  0  0  0  0  0  0  0  0  0  0
    1.4300    1.3732    1.2484 H   0  0  0  0  0  0  0  0  0  0  0  0
    1.6844    1.7016   -0.4729 H   0  0  0  0  0  0  0  0  0  0  0  0
    3.8902    1.9954   -0.1286 H   0  0  0  0  0  0  0  0  0  0  0  0
    3.5790    1.9428    1.6104 H   0  0  0  0  0  0  0  0  0  0  0  0
    3.2397   -1.4534    1.4391 H   0  0  0  0  0  0  0  0  0  0  0  0
    3.2886   -0.1889   -1.3027 H   0  0  0  0  0  0  0  0  0  0  0  0
    2.6191   -1.8454   -1.0961 H   0  0  0  0  0  0  0  0  0  0  0  0
    5.0986    0.7374   -1.1363 H   0  0  0  0  0  0  0  0  0  0  0  0
    6.7824   -1.3373   -0.1292 H   0  0  0  0  0  0  0  0  0  0  0  0
    4.5724   -2.7003   -0.3519 H   0  0  0  0  0  0  0  0  0  0  0  0
   -4.0017    3.1381    0.3013 H   0  0  0  0  0  0  0  0  0  0  0  0
   -5.0758    1.9576    1.2220 H   0  0  0  0  0  0  0  0  0  0  0  0
   -2.7301    1.2730   -0.5389 H   0  0  0  0  0  0  0  0  0  0  0  0
   -4.6459    0.0001    1.4029 H   0  0  0  0  0  0  0  0  0  0  0  0
   -3.8654   -0.5183   -1.4787 H   0  0  0  0  0  0  0  0  0  0  0  0
   -4.8596   -1.6382   -0.3852 H   0  0  0  0  0  0  0  0  0  0  0  0
   -6.2026   -0.0013   -1.6445 H   0  0  0  0  0  0  0  0  0  0  0  0
   -4.2057    1.6520   -1.6832 H   0  0  0  0  0  0  0  0  0  0  0  0
   -2.8062   -0.8677    2.4303 H   0  0  0  0  0  0  0  0  0  0  0  0
   -3.6354   -2.1054    1.4984 H   0  0  0  0  0  0  0  0  0  0  0  0
   -1.2687   -2.3973    1.6157 H   0  0  0  0  0  0  0  0  0  0  0  0
   -0.4187   -0.1916    1.6707 H   0  0  0  0  0  0  0  0  0  0  0  0
   -0.8012    0.1556   -0.0256 H   0  0  0  0  0  0  0  0  0  0  0  0
    0.3957   -1.8209   -0.8079 H   0  0  0  0  0  0  0  0  0  0  0  0
   -1.7355   -1.8457   -1.1752 H   0  0  0  0  0  0  0  0  0  0  0  0
   -2.7560   -2.9234   -0.4228 H   0  0  0  0  0  0  0  0  0  0  0  0
    0.5605   -3.1882    0.8588 H   0  0  0  0  0  0  0  0  0  0  0  0
    0.8700    1.1957   -0.7517 H   0  0  0  0  0  0  0  0  0  0  0  0
    1.6207    0.1697   -1.9800 H   0  0  0  0  0  0  0  0  0  0  0  0
    3.3508    1.6036   -1.8973 H   0  0  0  0  0  0  0  0  0  0  0  0
    2.6971    2.4878   -0.5156 H   0  0  0  0  0  0  0  0  0  0  0  0
    3.3236    0.2712    1.8109 H   0  0  0  0  0  0  0  0  0  0  0  0
    3.4944   -1.4136   -0.7511 H   0  0  0  0  0  0  0  0  0  0  0  0
    2.9134   -2.0065    0.8599 H   0  0  0  0  0  0  0  0  0  0  0  0
    5.0276    0.3825   -1.8383 H   0  0  0  0  0  0  0  0  0  0  0  0
    6.8276   -0.3733    0.0810 H   0  0  0  0  0  0  0  0  0  0  0  0
    5.0709   -1.5398    1.4698 H   0  0  0  0  0  0  0  0  0  0  0  0
  1  2  1  0
  2  3  1  0
  3  4  1  0
  4  5  1  0
  1  6  1  0
  5  6  1  0
  5  7  1  0
  2  8  1  0
  3  9  1  0
  9 10  1  0
 10 11  1  0
 11 12  1  0
 12 13  1  0
 10 14  1  0
 12 15  1  0
 13 16  1  0
 16 17  1  0
 17 18  1  0
 18 19  1  0
 13 20  1  0
 19 20  1  0
 18 21  1  0
 21 22  1  0
 19 23  1  0
 22 23  1  0
 21 24  1  0
 24 25  1  0
 24 26  1  0
 24 27  1  0
  6 28  1  0
 29 30  1  0
 30 31  1  0
 31 32  1  0
 32 33  1  0
 29 34  1  0
 33 34  1  0
 33 35  1  0
 30 36  1  0
 31 37  1  0
 37 38  1  0
 38 39  1  0
 39 40  1  0
 40 41  1  0
 38 42  1  0
 40 43  1  0
 41 44  1  0
 44 45  1  0
 45 46  1  0
 46 47  1  0
 41 48  1  0
 47 48  1  0
 46 49  1  0
 49 50  1  0
 47 51  1  0
 50 51  1  0
 49 52  1  0
 52 53  1  0
 52 54  1  0
 52 55  1  0
 34 56  1  0
  1 57  1  0
  1 58  1  0
  2 59  1  0
  3 60  1  0
  4 61  1  0
  4 62  1  0
  5 63  1  0
  6 64  1  0
  9 65  1  0
  9 66  1  0
 10 67  1  1
 11 68  1  0
 11 69  1  0
 12 70  1  6
 14 71  1  0
 14 72  1  0
 15 73  1  0
 16 74  1  0
 16 75  1  0
 17 76  1  0
 17 77  1  0
 19 78  1  0
 20 79  1  0
 20 80  1  0
 21 81  1  0
 22 82  1  0
 23 83  1  0
 29 84  1  0
 29 85  1  0
 30 86  1  0
 31 87  1  0
 32 88  1  0
 32 89  1  0
 33 90  1  0
 34 91  1  0
 37 92  1  0
 37 93  1  0
 38 94  1  1
 39 95  1  0
 39 96  1  0
 40 97  1  0
 42 98  1  0
 42 99  1  0
 43100  1  0
 44101  1  0
 44102  1  0
 45103  1  0
 45104  1  0
 47105  1  0
 48106  1  0
 48107  1  0
 49108  1  0
 50109  1  0
 51110  1  0
M  END
>  <PDBID>  (1) 
1X70

>  <PDB ID>  (1) 
1X70

>  <Generic Name>  (1) 
Sitagliptin

>  <Brand Name>  (1) 
Janumet#Janumet XR#Januvia#Xelevia

>  <DrugBank ID>  (1) 
DB01261

>  <ATC Codes>  (1) 
A10BD12#A10BH51#A10BH01#A10BD07

>  <Ligand ID>  (1) 
715

>  <Target Name>  (1) 
Dipeptidyl peptidase 4

>  <UniProt ID>  (1) 
P27487

>  <PDB ID.1>  (1) 
1X70

>  <Seq. Identity>  (1) 
100%

$$$$
