PDB_DB00814_04
     RDKit          3D

104109  0  0  0  0  0  0  0  0999 V2000
    6.2111    0.5165    0.7828 C   0  0  0  0  0  0  0  0  0  0  0  0
    4.9736    1.2700    0.3834 C   0  0  0  0  0  0  0  0  0  0  0  0
    3.4673    0.6115    1.1733 S   0  0  0  0  0  0  0  0  0  0  0  0
    4.6302    1.0155   -1.0599 C   0  0  0  0  0  0  0  0  0  0  0  0
    3.2695    1.3712   -1.2852 N   0  0  0  0  0  0  0  0  0  0  0  0
    2.4383    0.6486   -0.3515 C   0  0  0  0  0  0  0  0  0  0  0  0
    2.0746   -0.6488   -0.7803 N   0  0  0  0  0  0  0  0  0  0  0  0
    1.2770   -1.3149    0.2088 C   0  0  1  0  0  0  0  0  0  0  0  0
    2.0453   -1.3316    1.3866 O   0  0  0  0  0  0  0  0  0  0  0  0
   -0.0409   -0.6632    0.4537 C   0  0  1  0  0  0  0  0  0  0  0  0
   -0.8070   -0.5731   -0.8548 C   0  0  2  0  0  0  0  0  0  0  0  0
    0.0334   -0.1374   -1.8421 O   0  0  0  0  0  0  0  0  0  0  0  0
   -1.9622    0.3603   -0.6306 C   0  0  1  0  0  0  0  0  0  0  0  0
   -2.5743    0.8510   -1.9100 C   0  0  0  0  0  0  0  0  0  0  0  0
   -3.5960    1.9104   -1.5663 C   0  0  0  0  0  0  0  0  0  0  0  0
   -4.2787    1.6835   -0.2545 C   0  0  0  0  0  0  0  0  0  0  0  0
   -4.3352    0.2262    0.1394 C   0  0  0  0  0  0  0  0  0  0  0  0
   -3.0224   -0.4748    0.0906 C   0  0  2  0  0  0  0  0  0  0  0  0
   -2.3687   -0.8896    1.6476 S   0  0  0  0  0  0  0  0  0  0  0  0
   -3.3702   -2.1698    2.4374 O   0  0  0  0  0  0  0  0  0  0  0  0
   -2.6017    0.5793    2.7890 O   0  0  0  0  0  0  0  0  0  0  0  0
   -0.8004   -1.3592    1.4662 N   0  0  0  0  0  0  0  0  0  0  0  0
   -0.5183   -2.7531    1.5605 C   0  0  0  0  0  0  0  0  0  0  0  0
    5.5441    1.0252   -0.4252 C   0  0  0  0  0  0  0  0  0  0  0  0
    5.1484   -0.3149   -0.9749 C   0  0  0  0  0  0  0  0  0  0  0  0
    3.4014   -0.2737   -1.5564 S   0  0  0  0  0  0  0  0  0  0  0  0
    4.9692   -1.3439    0.1514 C   0  0  0  0  0  0  0  0  0  0  0  0
    3.7643   -0.9581    0.8536 N   0  0  0  0  0  0  0  0  0  0  0  0
    2.6602   -1.1084   -0.0948 C   0  0  1  0  0  0  0  0  0  0  0  0
    1.5541   -0.3896    0.3888 N   0  0  0  0  0  0  0  0  0  0  0  0
    0.4522   -0.1603   -0.4505 C   0  0  1  0  0  0  0  0  0  0  0  0
    0.0438   -1.3441   -0.9893 O   0  0  0  0  0  0  0  0  0  0  0  0
   -0.5878    0.6312    0.3329 C   0  0  2  0  0  0  0  0  0  0  0  0
   -1.1375   -0.2387    1.4472 C   0  0  2  0  0  0  0  0  0  0  0  0
   -0.3104   -1.2447    1.8677 O   0  0  0  0  0  0  0  0  0  0  0  0
   -2.1936   -0.8316    0.6134 C   0  0  1  0  0  0  0  0  0  0  0  0
   -3.3111   -1.5256    1.4344 C   0  0  0  0  0  0  0  0  0  0  0  0
   -4.3138   -1.9238    0.3738 C   0  0  0  0  0  0  0  0  0  0  0  0
   -4.6956   -0.8773   -0.5931 C   0  0  0  0  0  0  0  0  0  0  0  0
   -3.5463   -0.0082   -1.1119 C   0  0  0  0  0  0  0  0  0  0  0  0
   -2.7844    0.3860    0.0983 C   0  0  2  0  0  0  0  0  0  0  0  0
   -1.5893    1.6635   -0.3431 S   0  0  0  0  0  0  0  0  0  0  0  0
   -2.7027    3.1823   -0.6219 O   0  0  0  0  0  0  0  0  0  0  0  0
   -1.1154    2.3760   -1.9396 O   0  0  0  0  0  0  0  0  0  0  0  0
   -0.0208    1.7804    0.7658 N   0  0  0  0  0  0  0  0  0  0  0  0
    1.1408    2.3612    0.3114 C   0  0  0  0  0  0  0  0  0  0  0  0
    6.0410   -0.5502    0.9531 H   0  0  0  0  0  0  0  0  0  0  0  0
    6.6731    1.0445    1.6445 H   0  0  0  0  0  0  0  0  0  0  0  0
    6.9427    0.6287   -0.0666 H   0  0  0  0  0  0  0  0  0  0  0  0
    5.0056    2.3357    0.6246 H   0  0  0  0  0  0  0  0  0  0  0  0
    5.2582    1.7247   -1.6624 H   0  0  0  0  0  0  0  0  0  0  0  0
    4.9079   -0.0100   -1.3630 H   0  0  0  0  0  0  0  0  0  0  0  0
    3.0193    0.9792   -2.2402 H   0  0  0  0  0  0  0  0  0  0  0  0
    1.5935    1.2843   -0.1175 H   0  0  0  0  0  0  0  0  0  0  0  0
    2.8483   -1.2201   -1.1359 H   0  0  0  0  0  0  0  0  0  0  0  0
    1.1473   -2.3832   -0.0634 H   0  0  0  0  0  0  0  0  0  0  0  0
    1.6038   -0.8775    2.1345 H   0  0  0  0  0  0  0  0  0  0  0  0
    0.0778    0.3699    0.8254 H   0  0  0  0  0  0  0  0  0  0  0  0
   -1.2062   -1.5951   -1.0316 H   0  0  0  0  0  0  0  0  0  0  0  0
   -0.0751   -0.6650   -2.6494 H   0  0  0  0  0  0  0  0  0  0  0  0
   -1.6815    1.1913    0.0315 H   0  0  0  0  0  0  0  0  0  0  0  0
   -1.8230    1.2810   -2.6067 H   0  0  0  0  0  0  0  0  0  0  0  0
   -3.1156   -0.0098   -2.3612 H   0  0  0  0  0  0  0  0  0  0  0  0
   -4.3177    2.0740   -2.3986 H   0  0  0  0  0  0  0  0  0  0  0  0
   -3.0250    2.8683   -1.4862 H   0  0  0  0  0  0  0  0  0  0  0  0
   -5.3578    1.9910   -0.4019 H   0  0  0  0  0  0  0  0  0  0  0  0
   -3.9053    2.3184    0.5529 H   0  0  0  0  0  0  0  0  0  0  0  0
   -4.7157    0.1901    1.1828 H   0  0  0  0  0  0  0  0  0  0  0  0
   -5.0810   -0.3034   -0.5129 H   0  0  0  0  0  0  0  0  0  0  0  0
   -3.0795   -1.4188   -0.4957 H   0  0  0  0  0  0  0  0  0  0  0  0
   -4.2779   -1.8126    2.3850 H   0  0  0  0  0  0  0  0  0  0  0  0
   -2.1108    1.2667    2.2737 H   0  0  0  0  0  0  0  0  0  0  0  0
   -1.3437   -3.2046    2.1862 H   0  0  0  0  0  0  0  0  0  0  0  0
   -0.5548   -3.2741    0.6032 H   0  0  0  0  0  0  0  0  0  0  0  0
    0.4078   -2.9519    2.1434 H   0  0  0  0  0  0  0  0  0  0  0  0
    5.0454    1.8721   -0.9590 H   0  0  0  0  0  0  0  0  0  0  0  0
    5.2775    1.1342    0.6469 H   0  0  0  0  0  0  0  0  0  0  0  0
    6.6376    1.1673   -0.5084 H   0  0  0  0  0  0  0  0  0  0  0  0
    5.8173   -0.7014   -1.7423 H   0  0  0  0  0  0  0  0  0  0  0  0
    5.8069   -1.2054    0.8312 H   0  0  0  0  0  0  0  0  0  0  0  0
    4.9273   -2.3538   -0.2743 H   0  0  0  0  0  0  0  0  0  0  0  0
    3.6134   -1.6352    1.6038 H   0  0  0  0  0  0  0  0  0  0  0  0
    2.4728   -2.1752   -0.3270 H   0  0  0  0  0  0  0  0  0  0  0  0
    1.6127   -0.1072    1.3346 H   0  0  0  0  0  0  0  0  0  0  0  0
    0.7184    0.4713   -1.3622 H   0  0  0  0  0  0  0  0  0  0  0  0
   -0.1096   -1.3658   -1.9454 H   0  0  0  0  0  0  0  0  0  0  0  0
   -1.5933    0.3493    2.2551 H   0  0  0  0  0  0  0  0  0  0  0  0
   -0.5651   -2.1484    1.5250 H   0  0  0  0  0  0  0  0  0  0  0  0
   -1.9492   -1.6229   -0.0867 H   0  0  0  0  0  0  0  0  0  0  0  0
   -3.7104   -0.8002    2.1540 H   0  0  0  0  0  0  0  0  0  0  0  0
   -2.8587   -2.4116    1.8764 H   0  0  0  0  0  0  0  0  0  0  0  0
   -3.9294   -2.8510   -0.1206 H   0  0  0  0  0  0  0  0  0  0  0  0
   -5.2292   -2.2399    0.9164 H   0  0  0  0  0  0  0  0  0  0  0  0
   -5.2534   -1.3268   -1.4123 H   0  0  0  0  0  0  0  0  0  0  0  0
   -5.3929   -0.1509   -0.0906 H   0  0  0  0  0  0  0  0  0  0  0  0
   -4.0328    0.8531   -1.6199 H   0  0  0  0  0  0  0  0  0  0  0  0
   -2.9787   -0.6125   -1.8385 H   0  0  0  0  0  0  0  0  0  0  0  0
   -3.5287    0.6970    0.8338 H   0  0  0  0  0  0  0  0  0  0  0  0
   -1.7257    3.1423    1.2096 H   0  0  0  0  0  0  0  0  0  0  0  0
   -3.5952    2.9278   -0.7969 H   0  0  0  0  0  0  0  0  0  0  0  0
   -0.2718    2.2071   -2.2295 H   0  0  0  0  0  0  0  0  0  0  0  0
    2.0372    1.8417    0.0581 H   0  0  0  0  0  0  0  0  0  0  0  0
    1.4491    3.1231    1.0992 H   0  0  0  0  0  0  0  0  0  0  0  0
    0.9386    3.0590   -0.5684 H   0  0  0  0  0  0  0  0  0  0  0  0
  1  2  1  0
  2  3  1  0
  2  4  1  0
  4  5  1  0
  3  6  1  0
  5  6  1  0
  6  7  1  0
  7  8  1  0
  8  9  1  0
  8 10  1  0
 10 11  1  0
 11 12  1  0
 11 13  1  0
 13 14  1  0
 14 15  1  0
 15 16  1  0
 16 17  1  0
 13 18  1  0
 17 18  1  0
 18 19  1  0
 19 20  1  0
 19 21  1  0
 10 22  1  0
 19 22  1  0
 22 23  1  0
 24 25  1  0
 25 26  1  0
 25 27  1  0
 27 28  1  0
 26 29  1  0
 28 29  1  0
 29 30  1  0
 30 31  1  0
 31 32  1  0
 31 33  1  0
 33 34  1  0
 34 35  1  0
 34 36  1  0
 36 37  1  0
 37 38  1  0
 38 39  1  0
 39 40  1  0
 36 41  1  0
 40 41  1  0
 41 42  1  0
 42 33  1  0
 42 43  1  0
 42 44  1  0
 33 45  1  1
 42 45  1  0
 45 46  1  0
  1 47  1  0
  1 48  1  0
  1 49  1  0
  2 50  1  0
  4 51  1  0
  4 52  1  0
  5 53  1  0
  6 54  1  0
  7 55  1  0
  8 56  1  6
  9 57  1  0
 10 58  1  1
 11 59  1  6
 12 60  1  0
 13 61  1  1
 14 62  1  0
 14 63  1  0
 15 64  1  0
 15 65  1  0
 16 66  1  0
 16 67  1  0
 17 68  1  0
 17 69  1  0
 18 70  1  6
 20 71  1  0
 21 72  1  0
 23 73  1  0
 23 74  1  0
 23 75  1  0
 24 76  1  0
 24 77  1  0
 24 78  1  0
 25 79  1  0
 27 80  1  0
 27 81  1  0
 28 82  1  0
 29 83  1  6
 30 84  1  0
 31 85  1  6
 32 86  1  0
 34 87  1  1
 35 88  1  0
 36 89  1  6
 37 90  1  0
 37 91  1  0
 38 92  1  0
 38 93  1  0
 39 94  1  0
 39 95  1  0
 40 96  1  0
 40 97  1  0
 41 98  1  1
 42 99  1  0
 43100  1  0
 44101  1  0
 46102  1  0
 46103  1  0
 46104  1  0
M  END
>  <PDBID>  (1) 
4O1Z

>  <PDB ID>  (1) 
4O1Z

>  <Generic Name>  (1) 
Meloxicam

>  <Brand Name>  (1) 
Act Meloxicam#Apo-meloxicam#Auro-meloxicam#Ava-meloxicam#Comfort Pac With Meloxicam#Dom-meloxicam#Meloxicam#Mobic#Mobicox#Mylan-meloxicam#Nu-meloxicam#PHL-meloxicam#PMS-meloxicam#Ratio-meloxicam#Teva-meloxicam#Trepoxicam-7.5#Vivlodex#Achefree#Acticam#Aflamid#Afloxx#Aglan#Ainecox#Aldoron#Alentum#Algiflex#Aliviodol#Anaxicam#Anposel#Antrend#Aponip#Areloger#Aremil#Armex#Arrox#Arsitec#Artex#Arthrobic#Arthrox#Articam#Artipro#Artriclox#Artrifilm#Artriflam#Artrilom#Artrilox#Artrox#Aspicam#Atiflam#Atrozan#Auroxicam#Axius

>  <DrugBank ID>  (1) 
DB00814

>  <ATC Codes>  (1) 
M01AC56#M01AC06

>  <Ligand ID>  (1) 
MXM

>  <Target Name>  (1) 
Prostaglandin G/H synthase 2

>  <UniProt ID>  (1) 
P35354

>  <PDB ID.1>  (1) 
4O1Z

>  <Seq. Identity>  (1) 
61%

$$$$
