PDB_DB09063_01
     RDKit          3D

 94 97  0  0  0  0  0  0  0  0999 V2000
   -2.9920    1.9565   -3.0096 C   0  0  0  0  0  0  0  0  0  0  0  0
   -3.6602    2.2616   -1.6964 C   0  0  0  0  0  0  0  0  0  0  0  0
   -5.0849    2.6437   -2.0009 C   0  0  0  0  0  0  0  0  0  0  0  0
   -3.4752    1.2551   -0.8423 O   0  0  0  0  0  0  0  0  0  0  0  0
   -2.8731    1.3842    0.3434 C   0  0  0  0  0  0  0  0  0  0  0  0
   -3.9094    1.0786    1.4247 C   0  0  0  0  0  0  0  0  0  0  0  0
   -4.5377   -0.2816    1.2090 C   0  0  1  0  0  0  0  0  0  0  0  0
   -5.8370   -0.2453    0.4548 C   0  0  0  0  0  0  0  0  0  0  0  0
   -6.8339    0.5868    1.2350 C   0  0  0  0  0  0  0  0  0  0  0  0
   -8.2478    0.4463    0.7103 C   0  0  0  0  0  0  0  0  0  0  0  0
   -8.6334   -0.9126    0.4898 N   0  0  0  0  0  0  0  0  0  0  0  0
   -7.7000   -1.7642    1.1934 C   0  0  0  0  0  0  0  0  0  0  0  0
   -6.3773   -1.6578    0.4214 C   0  0  0  0  0  0  0  0  0  0  0  0
   -3.5375   -1.2551    0.6824 C   0  0  0  0  0  0  0  0  0  0  0  0
   -3.6406   -1.6237   -0.7510 C   0  0  0  0  0  0  0  0  0  0  0  0
   -2.1637   -0.7898    1.1242 C   0  0  0  0  0  0  0  0  0  0  0  0
   -1.6603    0.4567    0.5374 C   0  0  0  0  0  0  0  0  0  0  0  0
   -0.9402    0.4513   -0.6593 N   0  0  0  0  0  0  0  0  0  0  0  0
    0.3697   -0.1543   -0.7019 C   0  0  0  0  0  0  0  0  0  0  0  0
    0.2671   -1.5097   -0.3751 N   0  0  0  0  0  0  0  0  0  0  0  0
    1.2713   -2.0779    0.4412 C   0  0  0  0  0  0  0  0  0  0  0  0
    1.5219   -1.0817    1.5545 C   0  0  1  0  0  0  0  0  0  0  0  0
    2.5150   -1.7776    2.8436 Cl  0  0  0  0  0  0  0  0  0  0  0  0
    2.2448    0.0820    0.8642 C   0  0  0  0  0  0  0  0  0  0  0  0
    3.4996   -0.4370    0.4667 N   0  0  0  0  0  0  0  0  0  0  0  0
    4.4604    0.4144   -0.1250 C   0  0  2  0  0  0  0  0  0  0  0  0
    3.9634    0.8803   -1.4702 C   0  0  0  0  0  0  0  0  0  0  0  0
    3.7277   -0.2890   -2.3950 C   0  0  0  0  0  0  0  0  0  0  0  0
    4.8873   -1.2491   -2.4369 C   0  0  0  0  0  0  0  0  0  0  0  0
    5.3878   -1.6094   -1.0583 C   0  0  0  0  0  0  0  0  0  0  0  0
    5.7667   -0.3061   -0.3901 C   0  0  2  0  0  0  0  0  0  0  0  0
    6.7608   -0.4656    0.9809 S   0  0  0  0  0  0  0  0  0  0  0  0
    8.1477   -1.4161    0.0781 O   0  0  0  0  0  0  0  0  0  0  0  0
    6.3792   -1.1969    2.1138 O   0  0  0  0  0  0  0  0  0  0  0  0
    7.6235    1.0236    1.2138 C   0  0  0  0  0  0  0  0  0  0  0  0
    8.4532    1.3909   -0.0042 C   0  0  0  0  0  0  0  0  0  0  0  0
    8.5161    0.9624    2.4223 C   0  0  0  0  0  0  0  0  0  0  0  0
    1.4058    0.5934   -0.1289 N   0  0  0  0  0  0  0  0  0  0  0  0
   -2.3056    2.7616   -3.3417 H   0  0  0  0  0  0  0  0  0  0  0  0
   -3.7547    1.7728   -3.7963 H   0  0  0  0  0  0  0  0  0  0  0  0
   -2.4132    0.9878   -2.9709 H   0  0  0  0  0  0  0  0  0  0  0  0
   -3.1916    3.2037   -1.2888 H   0  0  0  0  0  0  0  0  0  0  0  0
   -5.0395    3.5541   -2.6359 H   0  0  0  0  0  0  0  0  0  0  0  0
   -5.5656    1.8606   -2.6216 H   0  0  0  0  0  0  0  0  0  0  0  0
   -5.6625    2.9244   -1.1013 H   0  0  0  0  0  0  0  0  0  0  0  0
   -2.5280    2.3967    0.5422 H   0  0  0  0  0  0  0  0  0  0  0  0
   -4.6135    1.9072    1.4224 H   0  0  0  0  0  0  0  0  0  0  0  0
   -3.3596    1.1194    2.3879 H   0  0  0  0  0  0  0  0  0  0  0  0
   -4.8210   -0.6216    2.2527 H   0  0  0  0  0  0  0  0  0  0  0  0
   -5.7443    0.1962   -0.5579 H   0  0  0  0  0  0  0  0  0  0  0  0
   -6.7765    0.3238    2.3254 H   0  0  0  0  0  0  0  0  0  0  0  0
   -6.6143    1.6723    1.1915 H   0  0  0  0  0  0  0  0  0  0  0  0
   -8.4161    1.1189   -0.1527 H   0  0  0  0  0  0  0  0  0  0  0  0
   -8.9160    0.8334    1.5349 H   0  0  0  0  0  0  0  0  0  0  0  0
   -8.4904   -1.1021   -0.5484 H   0  0  0  0  0  0  0  0  0  0  0  0
   -8.0539   -2.8136    1.0285 H   0  0  0  0  0  0  0  0  0  0  0  0
   -7.5884   -1.5448    2.2504 H   0  0  0  0  0  0  0  0  0  0  0  0
   -6.6649   -1.9767   -0.6213 H   0  0  0  0  0  0  0  0  0  0  0  0
   -5.6883   -2.3896    0.8993 H   0  0  0  0  0  0  0  0  0  0  0  0
   -3.6749   -2.2376    1.2450 H   0  0  0  0  0  0  0  0  0  0  0  0
   -3.6849   -2.7418   -0.9362 H   0  0  0  0  0  0  0  0  0  0  0  0
   -2.7218   -1.3274   -1.3396 H   0  0  0  0  0  0  0  0  0  0  0  0
   -4.4946   -1.2321   -1.3094 H   0  0  0  0  0  0  0  0  0  0  0  0
   -1.5165   -1.6749    1.1082 H   0  0  0  0  0  0  0  0  0  0  0  0
   -2.3014   -0.6105    2.2412 H   0  0  0  0  0  0  0  0  0  0  0  0
   -0.9926    0.9445    1.3253 H   0  0  0  0  0  0  0  0  0  0  0  0
   -0.9363    1.3943   -1.1305 H   0  0  0  0  0  0  0  0  0  0  0  0
    0.5876   -0.1484   -1.8288 H   0  0  0  0  0  0  0  0  0  0  0  0
   -0.2438   -2.1046   -1.0063 H   0  0  0  0  0  0  0  0  0  0  0  0
    0.8586   -2.9976    0.9273 H   0  0  0  0  0  0  0  0  0  0  0  0
    2.2002   -2.3430   -0.0600 H   0  0  0  0  0  0  0  0  0  0  0  0
    0.5867   -0.6906    1.9676 H   0  0  0  0  0  0  0  0  0  0  0  0
    2.3727    0.9122    1.6383 H   0  0  0  0  0  0  0  0  0  0  0  0
    3.8642   -1.0255    1.2511 H   0  0  0  0  0  0  0  0  0  0  0  0
    4.6580    1.3369    0.5027 H   0  0  0  0  0  0  0  0  0  0  0  0
    4.8297    1.4437   -1.9466 H   0  0  0  0  0  0  0  0  0  0  0  0
    3.0869    1.5143   -1.4636 H   0  0  0  0  0  0  0  0  0  0  0  0
    3.6057    0.1209   -3.4173 H   0  0  0  0  0  0  0  0  0  0  0  0
    2.7939   -0.8354   -2.1560 H   0  0  0  0  0  0  0  0  0  0  0  0
    4.5139   -2.1954   -2.8900 H   0  0  0  0  0  0  0  0  0  0  0  0
    5.7365   -0.9107   -3.0595 H   0  0  0  0  0  0  0  0  0  0  0  0
    4.5820   -2.0898   -0.4708 H   0  0  0  0  0  0  0  0  0  0  0  0
    6.2198   -2.3051   -1.1775 H   0  0  0  0  0  0  0  0  0  0  0  0
    6.3467    0.2693   -1.1752 H   0  0  0  0  0  0  0  0  0  0  0  0
    8.1884   -2.1894    0.6604 H   0  0  0  0  0  0  0  0  0  0  0  0
    6.3392   -1.0607    3.0761 H   0  0  0  0  0  0  0  0  0  0  0  0
    6.8917    1.8418    1.3636 H   0  0  0  0  0  0  0  0  0  0  0  0
    9.1196    0.5833   -0.3246 H   0  0  0  0  0  0  0  0  0  0  0  0
    9.0795    2.2750    0.2360 H   0  0  0  0  0  0  0  0  0  0  0  0
    7.7953    1.6884   -0.8507 H   0  0  0  0  0  0  0  0  0  0  0  0
    9.5970    0.8429    2.1295 H   0  0  0  0  0  0  0  0  0  0  0  0
    8.3891    1.8732    3.0375 H   0  0  0  0  0  0  0  0  0  0  0  0
    8.2637    0.1013    3.0819 H   0  0  0  0  0  0  0  0  0  0  0  0
    1.2035    1.6268   -0.0449 H   0  0  0  0  0  0  0  0  0  0  0  0
  1  2  1  0
  2  3  1  0
  2  4  1  0
  4  5  1  0
  5  6  1  0
  6  7  1  0
  7  8  1  0
  8  9  1  0
  9 10  1  0
 10 11  1  0
 11 12  1  0
  8 13  1  0
 12 13  1  0
  7 14  1  0
 14 15  1  0
 14 16  1  0
  5 17  1  0
 16 17  1  0
 17 18  1  0
 18 19  1  0
 19 20  1  0
 20 21  1  0
 21 22  1  0
 22 23  1  0
 22 24  1  0
 24 25  1  0
 25 26  1  0
 26 27  1  0
 27 28  1  0
 28 29  1  0
 29 30  1  0
 26 31  1  0
 30 31  1  0
 31 32  1  0
 32 33  1  0
 32 34  1  0
 32 35  1  0
 35 36  1  0
 35 37  1  0
 19 38  1  0
 24 38  1  0
  1 39  1  0
  1 40  1  0
  1 41  1  0
  2 42  1  0
  3 43  1  0
  3 44  1  0
  3 45  1  0
  5 46  1  0
  6 47  1  0
  6 48  1  0
  7 49  1  1
  8 50  1  0
  9 51  1  0
  9 52  1  0
 10 53  1  0
 10 54  1  0
 11 55  1  0
 12 56  1  0
 12 57  1  0
 13 58  1  0
 13 59  1  0
 14 60  1  0
 15 61  1  0
 15 62  1  0
 15 63  1  0
 16 64  1  0
 16 65  1  0
 17 66  1  0
 18 67  1  0
 19 68  1  0
 20 69  1  0
 21 70  1  0
 21 71  1  0
 22 72  1  1
 24 73  1  0
 25 74  1  0
 26 75  1  1
 27 76  1  0
 27 77  1  0
 28 78  1  0
 28 79  1  0
 29 80  1  0
 29 81  1  0
 30 82  1  0
 30 83  1  0
 31 84  1  6
 33 85  1  0
 34 86  1  0
 35 87  1  0
 36 88  1  0
 36 89  1  0
 36 90  1  0
 37 91  1  0
 37 92  1  0
 37 93  1  0
 38 94  1  0
M  END
>  <PDBID>  (1) 
4MKC

>  <PDB ID>  (1) 
4MKC

>  <Generic Name>  (1) 
Ceritinib

>  <Brand Name>  (1) 
Zykadia

>  <DrugBank ID>  (1) 
DB09063

>  <ATC Codes>  (1) 
L01XE28

>  <Ligand ID>  (1) 
4MK

>  <Target Name>  (1) 
ALK tyrosine kinase receptor

>  <UniProt ID>  (1) 
Q9UM73

>  <PDB ID.1>  (1) 
4MKC

>  <Seq. Identity>  (1) 
99%

$$$$
