PDB_DB06147_07
     RDKit          3D

 37 38  0  0  0  0  0  0  0  0999 V2000
    0.2094   -2.5333    1.4727 O   0  0  0  0  0  0  0  0  0  0  0  0
    0.5289   -1.3252    0.2943 S   0  0  0  0  0  0  0  0  0  0  0  0
    1.1766   -2.2075   -0.9440 O   0  0  0  0  0  0  0  0  0  0  0  0
   -0.9854   -0.8051   -0.1700 C   0  0  0  0  0  0  0  0  0  0  0  0
   -1.7901   -0.3138    1.0400 C   0  0  0  0  0  0  0  0  0  0  0  0
   -3.2353   -0.2810    0.5921 C   0  0  0  0  0  0  0  0  0  0  0  0
   -1.0155    0.3262   -1.1745 C   0  0  0  0  0  0  0  0  0  0  0  0
   -2.4287    0.4488   -1.6736 C   0  0  0  0  0  0  0  0  0  0  0  0
   -3.4029    0.6469   -0.5620 C   0  0  0  0  0  0  0  0  0  0  0  0
   -3.4027    2.0072   -0.0503 N   0  0  0  0  0  0  0  0  0  0  0  0
    1.5440   -0.2642    0.8023 N   0  0  0  0  0  0  0  0  0  0  0  0
    2.9282   -0.6130    0.8075 C   0  0  0  0  0  0  0  0  0  0  0  0
    3.9044    0.8099    1.4504 S   0  0  0  0  0  0  0  0  0  0  0  0
    4.4006    1.4838   -0.1894 C   0  0  0  0  0  0  0  0  0  0  0  0
    3.4957    0.6440   -1.0776 C   0  0  0  0  0  0  0  0  0  0  0  0
    3.4633   -0.6824   -0.5435 N   0  0  0  0  0  0  0  0  0  0  0  0
   -0.5896   -3.0024    1.1465 H   0  0  0  0  0  0  0  0  0  0  0  0
    1.1266   -1.6344   -1.7717 H   0  0  0  0  0  0  0  0  0  0  0  0
   -1.6006   -1.6333   -0.6015 H   0  0  0  0  0  0  0  0  0  0  0  0
   -1.6379   -0.9408    1.9213 H   0  0  0  0  0  0  0  0  0  0  0  0
   -1.4774    0.7116    1.2545 H   0  0  0  0  0  0  0  0  0  0  0  0
   -3.6188   -1.3052    0.4139 H   0  0  0  0  0  0  0  0  0  0  0  0
   -3.8264    0.1255    1.4471 H   0  0  0  0  0  0  0  0  0  0  0  0
   -0.3185    0.1757   -2.0048 H   0  0  0  0  0  0  0  0  0  0  0  0
   -0.7326    1.2970   -0.6883 H   0  0  0  0  0  0  0  0  0  0  0  0
   -2.6737   -0.5011   -2.1956 H   0  0  0  0  0  0  0  0  0  0  0  0
   -2.5647    1.2618   -2.4039 H   0  0  0  0  0  0  0  0  0  0  0  0
   -4.4264    0.4805   -0.9806 H   0  0  0  0  0  0  0  0  0  0  0  0
   -3.8097    1.9748    0.9278 H   0  0  0  0  0  0  0  0  0  0  0  0
   -4.0719    2.5944   -0.6073 H   0  0  0  0  0  0  0  0  0  0  0  0
    1.3011    0.2645    1.6625 H   0  0  0  0  0  0  0  0  0  0  0  0
    3.1782   -1.5352    1.3421 H   0  0  0  0  0  0  0  0  0  0  0  0
    4.0893    2.5307   -0.2246 H   0  0  0  0  0  0  0  0  0  0  0  0
    5.4566    1.2970   -0.3934 H   0  0  0  0  0  0  0  0  0  0  0  0
    2.4957    1.0700   -1.1709 H   0  0  0  0  0  0  0  0  0  0  0  0
    3.9578    0.6094   -2.0631 H   0  0  0  0  0  0  0  0  0  0  0  0
    4.3522   -1.1817   -0.6150 H   0  0  0  0  0  0  0  0  0  0  0  0
  2  1  1  0
  2  3  1  0
  2  4  1  0
  4  5  1  0
  5  6  1  0
  4  7  1  0
  7  8  1  0
  6  9  1  0
  8  9  1  0
  9 10  1  0
  2 11  1  0
 11 12  1  0
 12 13  1  0
 13 14  1  0
 14 15  1  0
 12 16  1  0
 15 16  1  0
  1 17  1  0
  3 18  1  0
  4 19  1  0
  5 20  1  0
  5 21  1  0
  6 22  1  0
  6 23  1  0
  7 24  1  0
  7 25  1  0
  8 26  1  0
  8 27  1  0
  9 28  1  0
 10 29  1  0
 10 30  1  0
 11 31  1  0
 12 32  1  0
 14 33  1  0
 14 34  1  0
 15 35  1  0
 15 36  1  0
 16 37  1  0
M  END
>  <PDBID>  (1) 
3TYE

>  <PDB ID>  (1) 
3TYE

>  <Generic Name>  (1) 
Sulfathiazole

>  <Brand Name>  (1) 
Norsulfazolum#Sulfatiazol

>  <DrugBank ID>  (1) 
DB06147

>  <ATC Codes>  (1) 
J01EB07#D06BA02

>  <Ligand ID>  (1) 
YTZ

>  <Target Name>  (1) 
Dihydropteroate synthetase

>  <UniProt ID>  (1) 
Q27738

>  <PDB ID.1>  (1) 
3TYE

>  <Seq. Identity>  (1) 
35%

$$$$
