PDB_DB00396_07
     RDKit          3D

118124  0  0  0  0  0  0  0  0999 V2000
    2.7679   -0.6809    1.5357 C   0  0  0  0  0  0  0  0  0  0  0  0
    4.2086   -0.3178    1.7113 C   0  0  0  0  0  0  0  0  0  0  0  0
    4.9773   -0.1843    0.4442 C   0  0  0  0  0  0  0  0  0  0  0  0
    6.1758    0.4645    0.6634 O   0  0  0  0  0  0  0  0  0  0  0  0
    4.2559    0.4885   -0.6700 C   0  0  0  0  0  0  0  0  0  0  0  0
    2.8938   -0.1187   -0.8078 C   0  0  2  0  0  0  0  0  0  0  0  0
    2.1950    0.2787   -2.0798 C   0  0  0  0  0  0  0  0  0  0  0  0
    0.8833   -0.5191   -2.1155 C   0  0  0  0  0  0  0  0  0  0  0  0
    0.0376    0.0501   -1.0014 C   0  0  2  0  0  0  0  0  0  0  0  0
    0.6833   -0.2551    0.3597 C   0  0  1  0  0  0  0  0  0  0  0  0
    2.1049    0.1527    0.4284 C   0  0  1  0  0  0  0  0  0  0  0  0
   -0.1722    0.4379    1.3872 C   0  0  0  0  0  0  0  0  0  0  0  0
   -1.5832   -0.0662    1.3830 C   0  0  0  0  0  0  0  0  0  0  0  0
   -2.2276    0.0510    0.0447 C   0  0  1  0  0  0  0  0  0  0  0  0
   -1.2807   -0.5999   -0.9626 C   0  0  1  0  0  0  0  0  0  0  0  0
   -2.0896   -0.6172   -2.1910 C   0  0  0  0  0  0  0  0  0  0  0  0
   -3.4628   -1.0532   -1.6574 C   0  0  0  0  0  0  0  0  0  0  0  0
   -3.4334   -0.7878   -0.1653 C   0  0  2  0  0  0  0  0  0  0  0  0
   -2.4774    1.5014   -0.2920 C   0  0  0  0  0  0  0  0  0  0  0  0
    2.2543    1.6074    0.8918 C   0  0  0  0  0  0  0  0  0  0  0  0
   -4.7272   -0.1984    0.2673 C   0  0  0  0  0  0  0  0  0  0  0  0
   -5.0540    0.9857   -0.3675 O   0  0  0  0  0  0  0  0  0  0  0  0
   -4.8385   -0.0711    1.7627 C   0  0  0  0  0  0  0  0  0  0  0  0
    2.7679   -0.6809    1.5357 C   0  0  0  0  0  0  0  0  0  0  0  0
    4.2086   -0.3178    1.7113 C   0  0  0  0  0  0  0  0  0  0  0  0
    4.9773   -0.1843    0.4442 C   0  0  0  0  0  0  0  0  0  0  0  0
    6.1758    0.4645    0.6634 O   0  0  0  0  0  0  0  0  0  0  0  0
    4.2559    0.4885   -0.6700 C   0  0  0  0  0  0  0  0  0  0  0  0
    2.8938   -0.1187   -0.8078 C   0  0  2  0  0  0  0  0  0  0  0  0
    2.1950    0.2787   -2.0798 C   0  0  0  0  0  0  0  0  0  0  0  0
    0.8833   -0.5191   -2.1155 C   0  0  0  0  0  0  0  0  0  0  0  0
    0.0376    0.0501   -1.0014 C   0  0  2  0  0  0  0  0  0  0  0  0
    0.6833   -0.2551    0.3597 C   0  0  1  0  0  0  0  0  0  0  0  0
    2.1049    0.1527    0.4284 C   0  0  1  0  0  0  0  0  0  0  0  0
   -0.1722    0.4379    1.3872 C   0  0  0  0  0  0  0  0  0  0  0  0
   -1.5832   -0.0662    1.3830 C   0  0  0  0  0  0  0  0  0  0  0  0
   -2.2276    0.0510    0.0447 C   0  0  1  0  0  0  0  0  0  0  0  0
   -1.2807   -0.5999   -0.9626 C   0  0  1  0  0  0  0  0  0  0  0  0
   -2.0896   -0.6172   -2.1910 C   0  0  0  0  0  0  0  0  0  0  0  0
   -3.4628   -1.0532   -1.6574 C   0  0  0  0  0  0  0  0  0  0  0  0
   -3.4334   -0.7878   -0.1653 C   0  0  2  0  0  0  0  0  0  0  0  0
   -2.4774    1.5014   -0.2920 C   0  0  0  0  0  0  0  0  0  0  0  0
    2.2543    1.6074    0.8918 C   0  0  0  0  0  0  0  0  0  0  0  0
   -4.7272   -0.1984    0.2673 C   0  0  0  0  0  0  0  0  0  0  0  0
   -5.0540    0.9857   -0.3675 O   0  0  0  0  0  0  0  0  0  0  0  0
   -4.8385   -0.0711    1.7627 C   0  0  0  0  0  0  0  0  0  0  0  0
    2.2177   -0.5181    2.4629 H   0  0  0  0  0  0  0  0  0  0  0  0
    2.6982   -1.7511    1.2357 H   0  0  0  0  0  0  0  0  0  0  0  0
    4.3478    0.5713    2.3944 H   0  0  0  0  0  0  0  0  0  0  0  0
    4.6796   -1.1657    2.2928 H   0  0  0  0  0  0  0  0  0  0  0  0
    5.2339   -1.2264    0.0939 H   0  0  0  0  0  0  0  0  0  0  0  0
    6.3341    0.7409    1.5816 H   0  0  0  0  0  0  0  0  0  0  0  0
    4.2478    1.5889   -0.6247 H   0  0  0  0  0  0  0  0  0  0  0  0
    4.8126    0.2380   -1.6208 H   0  0  0  0  0  0  0  0  0  0  0  0
    3.0429   -1.2316   -0.8665 H   0  0  0  0  0  0  0  0  0  0  0  0
    2.8049   -0.1127   -2.9216 H   0  0  0  0  0  0  0  0  0  0  0  0
    2.0011    1.3481   -2.1543 H   0  0  0  0  0  0  0  0  0  0  0  0
    0.3764   -0.3027   -3.0639 H   0  0  0  0  0  0  0  0  0  0  0  0
    1.1370   -1.5759   -1.9797 H   0  0  0  0  0  0  0  0  0  0  0  0
    0.0558    1.1364   -1.1023 H   0  0  0  0  0  0  0  0  0  0  0  0
    0.5781   -1.3529    0.5382 H   0  0  0  0  0  0  0  0  0  0  0  0
   -0.2163    1.5257    1.1208 H   0  0  0  0  0  0  0  0  0  0  0  0
    0.2739    0.2545    2.3728 H   0  0  0  0  0  0  0  0  0  0  0  0
   -2.1604    0.5989    2.0906 H   0  0  0  0  0  0  0  0  0  0  0  0
   -1.6772   -1.0857    1.8276 H   0  0  0  0  0  0  0  0  0  0  0  0
   -1.1478   -1.6508   -0.5950 H   0  0  0  0  0  0  0  0  0  0  0  0
   -1.6844   -1.3930   -2.8822 H   0  0  0  0  0  0  0  0  0  0  0  0
   -2.1374    0.3387   -2.7145 H   0  0  0  0  0  0  0  0  0  0  0  0
   -3.5604   -2.1519   -1.8322 H   0  0  0  0  0  0  0  0  0  0  0  0
   -4.2744   -0.5058   -2.1646 H   0  0  0  0  0  0  0  0  0  0  0  0
   -3.2925   -1.7407    0.3981 H   0  0  0  0  0  0  0  0  0  0  0  0
   -2.9571    1.6144   -1.2865 H   0  0  0  0  0  0  0  0  0  0  0  0
   -1.5582    2.0887   -0.3085 H   0  0  0  0  0  0  0  0  0  0  0  0
   -3.1050    1.9119    0.5267 H   0  0  0  0  0  0  0  0  0  0  0  0
    1.8908    2.3172    0.1489 H   0  0  0  0  0  0  0  0  0  0  0  0
    1.6807    1.6573    1.8583 H   0  0  0  0  0  0  0  0  0  0  0  0
    3.3032    1.8220    1.1676 H   0  0  0  0  0  0  0  0  0  0  0  0
   -5.5276   -0.9354   -0.0436 H   0  0  0  0  0  0  0  0  0  0  0  0
   -5.8002    0.9258   -0.9904 H   0  0  0  0  0  0  0  0  0  0  0  0
   -4.5403    0.9016    2.1592 H   0  0  0  0  0  0  0  0  0  0  0  0
   -4.2647   -0.9122    2.2443 H   0  0  0  0  0  0  0  0  0  0  0  0
   -5.9035   -0.2546    2.0678 H   0  0  0  0  0  0  0  0  0  0  0  0
    2.2177   -0.5181    2.4629 H   0  0  0  0  0  0  0  0  0  0  0  0
    2.6982   -1.7511    1.2357 H   0  0  0  0  0  0  0  0  0  0  0  0
    4.3478    0.5713    2.3944 H   0  0  0  0  0  0  0  0  0  0  0  0
    4.6796   -1.1657    2.2928 H   0  0  0  0  0  0  0  0  0  0  0  0
    5.2339   -1.2264    0.0939 H   0  0  0  0  0  0  0  0  0  0  0  0
    6.3341    0.7409    1.5816 H   0  0  0  0  0  0  0  0  0  0  0  0
    4.2478    1.5889   -0.6247 H   0  0  0  0  0  0  0  0  0  0  0  0
    4.8126    0.2380   -1.6208 H   0  0  0  0  0  0  0  0  0  0  0  0
    3.0429   -1.2316   -0.8665 H   0  0  0  0  0  0  0  0  0  0  0  0
    2.8049   -0.1127   -2.9216 H   0  0  0  0  0  0  0  0  0  0  0  0
    2.0011    1.3481   -2.1543 H   0  0  0  0  0  0  0  0  0  0  0  0
    0.3764   -0.3027   -3.0639 H   0  0  0  0  0  0  0  0  0  0  0  0
    1.1370   -1.5759   -1.9797 H   0  0  0  0  0  0  0  0  0  0  0  0
    0.0558    1.1364   -1.1023 H   0  0  0  0  0  0  0  0  0  0  0  0
    0.5781   -1.3529    0.5382 H   0  0  0  0  0  0  0  0  0  0  0  0
   -0.2163    1.5257    1.1208 H   0  0  0  0  0  0  0  0  0  0  0  0
    0.2739    0.2545    2.3728 H   0  0  0  0  0  0  0  0  0  0  0  0
   -2.1604    0.5989    2.0906 H   0  0  0  0  0  0  0  0  0  0  0  0
   -1.6772   -1.0857    1.8276 H   0  0  0  0  0  0  0  0  0  0  0  0
   -1.1478   -1.6508   -0.5950 H   0  0  0  0  0  0  0  0  0  0  0  0
   -1.6844   -1.3930   -2.8822 H   0  0  0  0  0  0  0  0  0  0  0  0
   -2.1374    0.3387   -2.7145 H   0  0  0  0  0  0  0  0  0  0  0  0
   -3.5604   -2.1519   -1.8322 H   0  0  0  0  0  0  0  0  0  0  0  0
   -4.2744   -0.5058   -2.1646 H   0  0  0  0  0  0  0  0  0  0  0  0
   -3.2925   -1.7407    0.3981 H   0  0  0  0  0  0  0  0  0  0  0  0
   -2.9571    1.6144   -1.2865 H   0  0  0  0  0  0  0  0  0  0  0  0
   -1.5582    2.0887   -0.3085 H   0  0  0  0  0  0  0  0  0  0  0  0
   -3.1050    1.9119    0.5267 H   0  0  0  0  0  0  0  0  0  0  0  0
    1.8908    2.3172    0.1489 H   0  0  0  0  0  0  0  0  0  0  0  0
    1.6807    1.6573    1.8583 H   0  0  0  0  0  0  0  0  0  0  0  0
    3.3032    1.8220    1.1676 H   0  0  0  0  0  0  0  0  0  0  0  0
   -5.5276   -0.9354   -0.0436 H   0  0  0  0  0  0  0  0  0  0  0  0
   -5.8002    0.9258   -0.9904 H   0  0  0  0  0  0  0  0  0  0  0  0
   -4.5403    0.9016    2.1592 H   0  0  0  0  0  0  0  0  0  0  0  0
   -4.2647   -0.9122    2.2443 H   0  0  0  0  0  0  0  0  0  0  0  0
   -5.9035   -0.2546    2.0678 H   0  0  0  0  0  0  0  0  0  0  0  0
  1  2  1  0
  2  3  1  0
  3  4  1  0
  3  5  1  0
  5  6  1  0
  6  7  1  0
  7  8  1  0
  8  9  1  0
  9 10  1  0
  1 11  1  0
  6 11  1  0
 10 11  1  0
 10 12  1  0
 12 13  1  0
 13 14  1  0
  9 15  1  0
 14 15  1  0
 15 16  1  0
 16 17  1  0
 14 18  1  0
 17 18  1  0
 14 19  1  6
 11 20  1  1
 18 21  1  0
 21 22  1  0
 21 23  1  0
 24 25  1  0
 25 26  1  0
 26 27  1  0
 26 28  1  0
 28 29  1  0
 29 30  1  0
 30 31  1  0
 31 32  1  0
 32 33  1  0
 24 34  1  0
 29 34  1  0
 33 34  1  0
 33 35  1  0
 35 36  1  0
 36 37  1  0
 32 38  1  0
 37 38  1  0
 38 39  1  0
 39 40  1  0
 37 41  1  0
 40 41  1  0
 37 42  1  6
 34 43  1  1
 41 44  1  0
 44 45  1  0
 44 46  1  0
  1 47  1  0
  1 48  1  0
  2 49  1  0
  2 50  1  0
  3 51  1  0
  4 52  1  0
  5 53  1  0
  5 54  1  0
  6 55  1  6
  7 56  1  0
  7 57  1  0
  8 58  1  0
  8 59  1  0
  9 60  1  6
 10 61  1  1
 12 62  1  0
 12 63  1  0
 13 64  1  0
 13 65  1  0
 15 66  1  1
 16 67  1  0
 16 68  1  0
 17 69  1  0
 17 70  1  0
 18 71  1  1
 19 72  1  0
 19 73  1  0
 19 74  1  0
 20 75  1  0
 20 76  1  0
 20 77  1  0
 21 78  1  0
 22 79  1  0
 23 80  1  0
 23 81  1  0
 23 82  1  0
 24 83  1  0
 24 84  1  0
 25 85  1  0
 25 86  1  0
 26 87  1  0
 27 88  1  0
 28 89  1  0
 28 90  1  0
 29 91  1  6
 30 92  1  0
 30 93  1  0
 31 94  1  0
 31 95  1  0
 32 96  1  6
 33 97  1  1
 35 98  1  0
 35 99  1  0
 36100  1  0
 36101  1  0
 38102  1  1
 39103  1  0
 39104  1  0
 40105  1  0
 40106  1  0
 41107  1  1
 42108  1  0
 42109  1  0
 42110  1  0
 43111  1  0
 43112  1  0
 43113  1  0
 44114  1  0
 45115  1  0
 46116  1  0
 46117  1  0
 46118  1  0
M  END
>  <PDBID>  (1) 
4FN9

>  <PDB ID>  (1) 
4FN9

>  <Generic Name>  (1) 
Progesterone

>  <Brand Name>  (1) 
Act Progesterone Injection#Crinone#Endometrin#Estrogel Propak#Gesterol In Oil-liq Im 50mg/ml#PMS-progesterone Inj 50mg/ml USP#Prochieve#Progesterone#Progesterone Inj 50mg/ml USP#Progesterone Injection USP#Prometrium#Teva-progesterone#Agolutin#Cyclogest#Gesterol#Gestone#Progestasert#Progestogel#Qi Ning#Relantan#Susten#Utrogestan#Utrogestran#Utrovin#Vasclor

>  <DrugBank ID>  (1) 
DB00396

>  <ATC Codes>  (1) 
G03DA04#G03FA04

>  <Ligand ID>  (1) 
STR

>  <Target Name>  (1) 
Estrogen receptor

>  <UniProt ID>  (1) 
P03372

>  <PDB ID.1>  (1) 
4FN9

>  <Seq. Identity>  (1) 
32%

$$$$
