PDB_DB00275_02
     RDKit          3D

 81 84  0  0  0  0  0  0  0  0999 V2000
    0.7214   -0.2830    1.7853 C   0  0  0  0  0  0  0  0  0  0  0  0
   -0.4370   -0.4555    0.9012 C   0  0  0  0  0  0  0  0  0  0  0  0
   -3.0636   -4.0772   -3.5098 O   0  0  0  0  0  0  0  0  0  0  0  0
   -0.7622    0.6858   -0.0325 C   0  0  0  0  0  0  0  0  0  0  0  0
    0.3590   -0.9539   -2.7113 O   0  0  0  0  0  0  0  0  0  0  0  0
   -2.1541    0.5612   -0.5706 C   0  0  0  0  0  0  0  0  0  0  0  0
   -0.7399   -0.1787   -4.5774 O   0  0  0  0  0  0  0  0  0  0  0  0
   -6.8754   -1.6679    0.5965 C   0  0  0  0  0  0  0  0  0  0  0  0
   -6.0543   -1.3452   -0.6304 C   0  0  0  0  0  0  0  0  0  0  0  0
   -4.5924   -1.0822   -0.2406 C   0  0  0  0  0  0  0  0  0  0  0  0
   -3.8751   -0.7774   -1.5214 C   0  0  0  0  0  0  0  0  0  0  0  0
   -3.9452   -1.8474   -2.4698 N   0  0  0  0  0  0  0  0  0  0  0  0
   -2.6627   -1.8613   -3.2028 C   0  0  0  0  0  0  0  0  0  0  0  0
   -2.0754   -3.1783   -2.9877 C   0  0  0  0  0  0  0  0  0  0  0  0
   -0.8337   -3.5315   -3.7463 C   0  0  0  0  0  0  0  0  0  0  0  0
   -1.8808   -3.6074   -1.5664 C   0  0  0  0  0  0  0  0  0  0  0  0
   -2.0494   -0.6213   -2.7028 C   0  0  0  0  0  0  0  0  0  0  0  0
   -0.7268   -0.2364   -3.1414 C   0  0  0  0  0  0  0  0  0  0  0  0
   -2.3886   -0.6334   -1.2960 N   0  0  0  0  0  0  0  0  0  0  0  0
   -0.6742    1.9409    0.8779 C   0  0  0  0  0  0  0  0  0  0  0  0
    0.8116    2.1458    1.0746 C   0  0  0  0  0  0  0  0  0  0  0  0
    1.3789    1.0317    1.9085 C   0  0  0  0  0  0  0  0  0  0  0  0
    2.9103    0.9744    1.8229 C   0  0  0  0  0  0  0  0  0  0  0  0
    3.4547    0.4517    0.5559 C   0  0  0  0  0  0  0  0  0  0  0  0
    3.8558    1.4454   -0.4838 C   0  0  0  0  0  0  0  0  0  0  0  0
    4.4010    2.7339    0.0406 C   0  0  0  0  0  0  0  0  0  0  0  0
    4.7159    2.6699    1.5201 C   0  0  0  0  0  0  0  0  0  0  0  0
    3.4810    2.2605    2.3111 C   0  0  0  0  0  0  0  0  0  0  0  0
    3.9518    2.1752    3.7713 C   0  0  0  0  0  0  0  0  0  0  0  0
    4.4906    3.4174    4.2243 N   0  0  0  0  0  0  0  0  0  0  0  0
    5.8048    3.1778    4.6593 N   0  0  0  0  0  0  0  0  0  0  0  0
    6.2083    1.9871    4.0535 N   0  0  0  0  0  0  0  0  0  0  0  0
    5.0488    1.2299    3.9048 N   0  0  0  0  0  0  0  0  0  0  0  0
    0.4440   -0.6962    2.8068 H   0  0  0  0  0  0  0  0  0  0  0  0
    1.5058   -1.0361    1.4591 H   0  0  0  0  0  0  0  0  0  0  0  0
   -1.3847   -0.6155    1.5016 H   0  0  0  0  0  0  0  0  0  0  0  0
   -0.3949   -1.3799    0.2568 H   0  0  0  0  0  0  0  0  0  0  0  0
   -2.6504   -4.9104   -3.8259 H   0  0  0  0  0  0  0  0  0  0  0  0
    0.0519    0.7881   -0.7292 H   0  0  0  0  0  0  0  0  0  0  0  0
    1.2043   -0.4689   -2.8835 H   0  0  0  0  0  0  0  0  0  0  0  0
   -2.4627    1.4710   -1.1441 H   0  0  0  0  0  0  0  0  0  0  0  0
   -2.8293    0.5467    0.3416 H   0  0  0  0  0  0  0  0  0  0  0  0
   -1.6335   -0.3442   -4.9131 H   0  0  0  0  0  0  0  0  0  0  0  0
   -6.8902   -2.7708    0.7048 H   0  0  0  0  0  0  0  0  0  0  0  0
   -6.3979   -1.2130    1.5105 H   0  0  0  0  0  0  0  0  0  0  0  0
   -7.8809   -1.2338    0.4385 H   0  0  0  0  0  0  0  0  0  0  0  0
   -6.4113   -0.4198   -1.1198 H   0  0  0  0  0  0  0  0  0  0  0  0
   -6.0527   -2.2115   -1.2926 H   0  0  0  0  0  0  0  0  0  0  0  0
   -4.6507   -0.1807    0.4073 H   0  0  0  0  0  0  0  0  0  0  0  0
   -4.1579   -1.9056    0.3258 H   0  0  0  0  0  0  0  0  0  0  0  0
   -4.1848    0.1662   -1.9894 H   0  0  0  0  0  0  0  0  0  0  0  0
   -4.1854   -2.7561   -2.0641 H   0  0  0  0  0  0  0  0  0  0  0  0
   -2.9550   -1.7429   -4.2595 H   0  0  0  0  0  0  0  0  0  0  0  0
   -0.8871   -4.5659   -4.2126 H   0  0  0  0  0  0  0  0  0  0  0  0
    0.0658   -3.6420   -3.0686 H   0  0  0  0  0  0  0  0  0  0  0  0
   -0.5692   -2.8851   -4.5775 H   0  0  0  0  0  0  0  0  0  0  0  0
   -0.7884   -3.6479   -1.2955 H   0  0  0  0  0  0  0  0  0  0  0  0
   -2.3652   -2.9819   -0.8241 H   0  0  0  0  0  0  0  0  0  0  0  0
   -2.2396   -4.6605   -1.3734 H   0  0  0  0  0  0  0  0  0  0  0  0
   -2.7438    0.2022   -3.1058 H   0  0  0  0  0  0  0  0  0  0  0  0
   -0.5455    0.8367   -2.9024 H   0  0  0  0  0  0  0  0  0  0  0  0
   -1.0716    1.6700    1.8881 H   0  0  0  0  0  0  0  0  0  0  0  0
   -1.1658    2.7975    0.4248 H   0  0  0  0  0  0  0  0  0  0  0  0
    1.2470    2.2671    0.0886 H   0  0  0  0  0  0  0  0  0  0  0  0
    0.8934    3.1559    1.5735 H   0  0  0  0  0  0  0  0  0  0  0  0
    1.2130    1.3837    2.9785 H   0  0  0  0  0  0  0  0  0  0  0  0
    3.1739    0.2083    2.6244 H   0  0  0  0  0  0  0  0  0  0  0  0
    2.7744   -0.2763    0.0825 H   0  0  0  0  0  0  0  0  0  0  0  0
    4.3813   -0.1542    0.7966 H   0  0  0  0  0  0  0  0  0  0  0  0
    4.6958    0.9747   -1.0808 H   0  0  0  0  0  0  0  0  0  0  0  0
    3.0713    1.5996   -1.2850 H   0  0  0  0  0  0  0  0  0  0  0  0
    5.3057    3.0932   -0.4755 H   0  0  0  0  0  0  0  0  0  0  0  0
    3.6243    3.5323   -0.1023 H   0  0  0  0  0  0  0  0  0  0  0  0
    4.9702    3.7069    1.8279 H   0  0  0  0  0  0  0  0  0  0  0  0
    5.5829    2.0361    1.7274 H   0  0  0  0  0  0  0  0  0  0  0  0
    2.7836    3.1215    2.2659 H   0  0  0  0  0  0  0  0  0  0  0  0
    3.1302    1.7901    4.4062 H   0  0  0  0  0  0  0  0  0  0  0  0
    3.9674    3.7150    5.0896 H   0  0  0  0  0  0  0  0  0  0  0  0
    5.8681    3.0795    5.6954 H   0  0  0  0  0  0  0  0  0  0  0  0
    6.8385    1.4642    4.7084 H   0  0  0  0  0  0  0  0  0  0  0  0
    4.9022    0.5422    4.6580 H   0  0  0  0  0  0  0  0  0  0  0  0
  1  2  1  0
  2  4  1  0
  4  6  1  0
  8  9  1  0
  9 10  1  0
 10 11  1  0
 11 12  1  0
 12 13  1  0
 14  3  1  0
 13 14  1  0
 14 15  1  0
 14 16  1  0
 13 17  1  0
  5 18  1  0
  7 18  1  0
 17 18  1  0
  6 19  1  0
 11 19  1  0
 17 19  1  0
  4 20  1  0
 20 21  1  0
  1 22  1  0
 21 22  1  0
 22 23  1  0
 23 24  1  0
 24 25  1  0
 25 26  1  0
 26 27  1  0
 23 28  1  0
 27 28  1  0
 28 29  1  0
 29 30  1  0
 30 31  1  0
 31 32  1  0
 29 33  1  0
 32 33  1  0
  1 34  1  0
  1 35  1  0
  2 36  1  0
  2 37  1  0
  3 38  1  0
  4 39  1  0
  5 40  1  0
  6 41  1  0
  6 42  1  0
  7 43  1  0
  8 44  1  0
  8 45  1  0
  8 46  1  0
  9 47  1  0
  9 48  1  0
 10 49  1  0
 10 50  1  0
 11 51  1  0
 12 52  1  0
 13 53  1  0
 15 54  1  0
 15 55  1  0
 15 56  1  0
 16 57  1  0
 16 58  1  0
 16 59  1  0
 17 60  1  0
 18 61  1  0
 20 62  1  0
 20 63  1  0
 21 64  1  0
 21 65  1  0
 22 66  1  0
 23 67  1  0
 24 68  1  0
 24 69  1  0
 25 70  1  0
 25 71  1  0
 26 72  1  0
 26 73  1  0
 27 74  1  0
 27 75  1  0
 28 76  1  0
 29 77  1  0
 30 78  1  0
 31 79  1  0
 32 80  1  0
 33 81  1  0
M  END
>  <PDBID>  (1) 
4ZUD

>  <PDB ID>  (1) 
4ZUD

>  <Generic Name>  (1) 
Olmesartan

>  <Brand Name>  (1) 
Amlodipine Besylate and Olmesartan Medoxomil#Amlodipine and Olmesartan Medoxomil#Azor#Benicar#Benicar Hct#Olmesartan Medoxmil and Hydrochlorothiazide#Olmesartan Medoxomil#Olmesartan Medoxomil / Amlodipine Besylate / Hydrochlorothiazide#Olmesartan Medoxomil and Hydrochlorothiazide#Olmesartan Medoxomil, Amlodipine and Hydrochlorothiazide#Olmesartan Medoxomil, Amlodipine and Hydrochlorothiazide 20/5/12.5 mg#Olmesartan Medoxomil, Amlodipine and Hydrochlorothiazide 40/10/12.5 mg#Olmesartan Medoxomil, Amlodipine and Hydrochlorothiazide 40/10/25 mg#Olmesartan Medoxomil, Amlodipine and Hydrochlorothiazide 40/5/12.5 mg#Olmesartan Medoxomil, Amlodipine and Hydrochlorothiazide 40/5/25 mg#Olmetec#Olmetec Plus#Tribenzor#Erastapex#Golme#Olmetec#WinBP

>  <DrugBank ID>  (1) 
DB00275

>  <ATC Codes>  (1) 
C09DA08#C09CA08#C09DX03#C09DB02

>  <Ligand ID>  (1) 
OLM

>  <Target Name>  (1) 
Type-1 angiotensin II receptor

>  <UniProt ID>  (1) 
P30556

>  <PDB ID.1>  (1) 
4ZUD

>  <Seq. Identity>  (1) 
87%

$$$$
