PDB_DB01201_02
     RDKit          3D

302312  0  0  0  0  0  0  0  0999 V2000
    2.3344   -0.5916    1.8474 C   0  0  0  0  0  0  0  0  0  0  0  0
    1.8220    0.6201    1.1054 C   0  0  0  0  0  0  0  0  0  0  0  0
    1.8050    0.4005   -0.3906 C   0  0  2  0  0  0  0  0  0  0  0  0
    1.2694   -0.9393   -0.7293 C   0  0  0  0  0  0  0  0  0  0  0  0
   -0.1748   -2.7269    0.1011 C   0  0  0  0  0  0  0  0  0  0  0  0
    0.6513   -3.9123   -0.3015 C   0  0  0  0  0  0  0  0  0  0  0  0
    1.9000   -4.0913    0.4754 C   0  0  0  0  0  0  0  0  0  0  0  0
    2.3896   -2.9892    1.3083 C   0  0  0  0  0  0  0  0  0  0  0  0
    1.5071   -1.8369    1.5926 C   0  0  0  0  0  0  0  0  0  0  0  0
    0.5612   -1.5248    0.4912 C   0  0  1  0  0  0  0  0  0  0  0  0
   -0.8718   -3.3981    1.3057 C   0  0  2  0  0  0  0  0  0  0  0  0
   -1.3120   -4.6423    0.5654 C   0  0  2  0  0  0  0  0  0  0  0  0
   -1.8927   -5.6963    1.4578 C   0  0  0  0  0  0  0  0  0  0  0  0
    1.8608   -5.3896    1.2961 C   0  0  0  0  0  0  0  0  0  0  0  0
    1.8669    2.6187    2.4143 C   0  0  0  0  0  0  0  0  0  0  0  0
    1.6076    3.9867    1.8618 C   0  0  0  0  0  0  0  0  0  0  0  0
    1.0005    4.0054    0.5001 C   0  0  0  0  0  0  0  0  0  0  0  0
   -0.3982    3.4959    0.4048 C   0  0  0  0  0  0  0  0  0  0  0  0
   -1.4624    4.5586    0.5352 C   0  0  0  0  0  0  0  0  0  0  0  0
   -2.7584    4.1173   -0.1579 C   0  0  1  0  0  0  0  0  0  0  0  0
   -3.0771    2.6928    0.1163 C   0  0  1  0  0  0  0  0  0  0  0  0
   -4.5876    2.3941    0.0493 C   0  0  2  0  0  0  0  0  0  0  0  0
   -4.7315    1.0154    0.6090 C   0  0  2  0  0  0  0  0  0  0  0  0
   -6.0177    0.3357    0.5025 C   0  0  2  0  0  0  0  0  0  0  0  0
   -6.3570   -0.4491   -0.7111 C   0  0  1  0  0  0  0  0  0  0  0  0
   -5.2728   -1.0234   -1.5143 C   0  0  1  0  0  0  0  0  0  0  0  0
   -5.0271   -2.5309   -1.2583 C   0  0  2  0  0  0  0  0  0  0  0  0
   -4.0462   -2.6099   -0.1106 C   0  0  0  0  0  0  0  0  0  0  0  0
   -3.4868   -3.9616    0.1553 C   0  0  0  0  0  0  0  0  0  0  0  0
    2.9262    4.7429    1.7946 C   0  0  0  0  0  0  0  0  0  0  0  0
   -3.8049    5.1095    0.2283 C   0  0  0  0  0  0  0  0  0  0  0  0
   -5.0814    2.6620   -1.3057 C   0  0  0  0  0  0  0  0  0  0  0  0
   -7.1112    1.3742    0.7678 C   0  0  0  0  0  0  0  0  0  0  0  0
   -5.5571   -0.9328   -3.0136 C   0  0  0  0  0  0  0  0  0  0  0  0
   -8.5034   -1.2740   -1.0138 C   0  0  0  0  0  0  0  0  0  0  0  0
   -9.0160   -2.3949   -1.8448 C   0  0  0  0  0  0  0  0  0  0  0  0
   -5.3091   -4.1533   -2.8701 C   0  0  0  0  0  0  0  0  0  0  0  0
    8.8239    0.8665   -0.0610 C   0  0  0  0  0  0  0  0  0  0  0  0
    7.1896    2.2277   -1.2049 C   0  0  0  0  0  0  0  0  0  0  0  0
    5.9159    1.8466   -0.4831 C   0  0  0  0  0  0  0  0  0  0  0  0
    6.0662    0.0826   -2.1466 C   0  0  0  0  0  0  0  0  0  0  0  0
    7.5661   -0.0244   -1.8544 C   0  0  0  0  0  0  0  0  0  0  0  0
    3.0766    0.8318   -1.0454 C   0  0  0  0  0  0  0  0  0  0  0  0
   10.2377    0.4194   -0.4284 C   0  0  0  0  0  0  0  0  0  0  0  0
    9.0898    2.0316    0.8277 C   0  0  0  0  0  0  0  0  0  0  0  0
   11.0981    1.6453   -0.3499 C   0  0  0  0  0  0  0  0  0  0  0  0
   10.2221    2.7551    0.1805 C   0  0  0  0  0  0  0  0  0  0  0  0
    2.5888    1.7552    1.4996 N   0  0  0  0  0  0  0  0  0  0  0  0
    4.2622    0.1623   -0.5558 N   0  0  0  0  0  0  0  0  0  0  0  0
    5.4276    0.6424   -1.0425 N   0  0  0  0  0  0  0  0  0  0  0  0
    8.1229    1.1509   -1.2707 N   0  0  0  0  0  0  0  0  0  0  0  0
    2.3094   -0.2804    3.2039 O   0  0  0  0  0  0  0  0  0  0  0  0
    2.7884   -3.5036    2.5703 O   0  0  0  0  0  0  0  0  0  0  0  0
   -0.1645   -5.0293   -0.1062 O   0  0  0  0  0  0  0  0  0  0  0  0
   -1.8606   -2.6435    1.8423 O   0  0  0  0  0  0  0  0  0  0  0  0
   -2.2318   -4.1996   -0.3971 O   0  0  0  0  0  0  0  0  0  0  0  0
   -4.5221   -3.1310   -2.3859 O   0  0  0  0  0  0  0  0  0  0  0  0
   -7.2628   -1.4745   -0.4321 O   0  0  0  0  0  0  0  0  0  0  0  0
   -9.4021   -1.0775    0.0553 O   0  0  0  0  0  0  0  0  0  0  0  0
   -4.4804    1.2049    2.0053 O   0  0  0  0  0  0  0  0  0  0  0  0
   -2.4560    1.7945   -0.7498 O   0  0  0  0  0  0  0  0  0  0  0  0
    0.7096    2.0350    2.8941 O   0  0  0  0  0  0  0  0  0  0  0  0
    2.2217   -1.7709   -1.2635 O   0  0  0  0  0  0  0  0  0  0  0  0
    2.1334   -0.2550    1.9556 C   0  0  0  0  0  0  0  0  0  0  0  0
    1.8474    0.8735    1.0205 C   0  0  0  0  0  0  0  0  0  0  0  0
    1.7788    0.5398   -0.4371 C   0  0  2  0  0  0  0  0  0  0  0  0
    1.0812   -0.7756   -0.6826 C   0  0  0  0  0  0  0  0  0  0  0  0
   -0.3315   -2.5410    0.2731 C   0  0  0  0  0  0  0  0  0  0  0  0
    0.4688   -3.7845    0.0512 C   0  0  0  0  0  0  0  0  0  0  0  0
    1.7213   -3.8842    0.8294 C   0  0  0  0  0  0  0  0  0  0  0  0
    2.3248   -2.6445    1.3515 C   0  0  0  0  0  0  0  0  0  0  0  0
    1.3947   -1.5263    1.6819 C   0  0  0  0  0  0  0  0  0  0  0  0
    0.4320   -1.3219    0.5578 C   0  0  0  0  0  0  0  0  0  0  0  0
   -1.2544   -2.9971    1.3781 C   0  0  2  0  0  0  0  0  0  0  0  0
   -1.5752   -4.3895    0.8144 C   0  0  2  0  0  0  0  0  0  0  0  0
   -1.9874   -5.3502    1.8864 C   0  0  0  0  0  0  0  0  0  0  0  0
    1.6111   -4.8792    1.9956 C   0  0  0  0  0  0  0  0  0  0  0  0
    2.2206    2.8119    2.4064 C   0  0  0  0  0  0  0  0  0  0  0  0
    0.8487    3.3646    2.2159 C   0  0  0  0  0  0  0  0  0  0  0  0
    0.5750    3.9396    0.8665 C   0  0  0  0  0  0  0  0  0  0  0  0
   -0.7929    3.5844    0.3239 C   0  0  0  0  0  0  0  0  0  0  0  0
   -1.9132    4.3659    0.9291 C   0  0  0  0  0  0  0  0  0  0  0  0
   -2.9995    4.6295   -0.0996 C   0  0  1  0  0  0  0  0  0  0  0  0
   -3.3185    3.4606   -0.9621 C   0  0  1  0  0  0  0  0  0  0  0  0
   -4.6329    2.7607   -0.5882 C   0  0  2  0  0  0  0  0  0  0  0  0
   -4.2853    1.3866   -0.1252 C   0  0  2  0  0  0  0  0  0  0  0  0
   -5.3787    0.4577    0.1933 C   0  0  2  0  0  0  0  0  0  0  0  0
   -5.7482   -0.5484   -0.8818 C   0  0  1  0  0  0  0  0  0  0  0  0
   -4.5646   -1.3296   -1.3828 C   0  0  1  0  0  0  0  0  0  0  0  0
   -4.7739   -2.8274   -1.3843 C   0  0  2  0  0  0  0  0  0  0  0  0
   -4.8883   -3.3470    0.0280 C   0  0  0  0  0  0  0  0  0  0  0  0
   -3.8576   -4.3624    0.3976 C   0  0  0  0  0  0  0  0  0  0  0  0
    0.7156    4.5285    3.2134 C   0  0  0  0  0  0  0  0  0  0  0  0
   -4.1898    5.2563    0.5847 C   0  0  0  0  0  0  0  0  0  0  0  0
   -5.5463    2.8617   -1.7548 C   0  0  0  0  0  0  0  0  0  0  0  0
   -6.6069    1.1517    0.6876 C   0  0  0  0  0  0  0  0  0  0  0  0
   -4.2485   -0.9385   -2.8147 C   0  0  0  0  0  0  0  0  0  0  0  0
   -7.9221   -1.4147   -0.8166 C   0  0  0  0  0  0  0  0  0  0  0  0
   -8.4237   -2.7237   -1.3746 C   0  0  0  0  0  0  0  0  0  0  0  0
   -3.9860   -4.1393   -3.1231 C   0  0  0  0  0  0  0  0  0  0  0  0
    9.1785    0.3156   -0.6589 C   0  0  0  0  0  0  0  0  0  0  0  0
    7.4009    1.3026   -2.0086 C   0  0  0  0  0  0  0  0  0  0  0  0
    6.0208    1.4570   -1.4181 C   0  0  0  0  0  0  0  0  0  0  0  0
    5.9523   -0.7892   -2.1224 C   0  0  0  0  0  0  0  0  0  0  0  0
    7.1902   -0.9431   -1.2606 C   0  0  0  0  0  0  0  0  0  0  0  0
    2.9953    0.7544   -1.2456 C   0  0  0  0  0  0  0  0  0  0  0  0
   10.3177    0.8977   -1.4787 C   0  0  0  0  0  0  0  0  0  0  0  0
    9.1375    1.1318    0.5733 C   0  0  0  0  0  0  0  0  0  0  0  0
   11.1888    1.6065   -0.4613 C   0  0  0  0  0  0  0  0  0  0  0  0
   10.1422    2.2790    0.4018 C   0  0  0  0  0  0  0  0  0  0  0  0
    2.7081    1.9824    1.3308 N   0  0  0  0  0  0  0  0  0  0  0  0
    4.1817    0.0667   -0.9005 N   0  0  0  0  0  0  0  0  0  0  0  0
    5.1931    0.3837   -1.8339 N   0  0  0  0  0  0  0  0  0  0  0  0
    8.0371    0.1864   -1.4422 N   0  0  0  0  0  0  0  0  0  0  0  0
    3.4812   -0.4627    2.2295 O   0  0  0  0  0  0  0  0  0  0  0  0
    3.0705   -2.9469    2.5067 O   0  0  0  0  0  0  0  0  0  0  0  0
   -0.4023   -4.8418    0.2488 O   0  0  0  0  0  0  0  0  0  0  0  0
   -2.3521   -2.1888    1.4852 O   0  0  0  0  0  0  0  0  0  0  0  0
   -2.6026   -4.1700   -0.1148 O   0  0  0  0  0  0  0  0  0  0  0  0
   -3.6588   -3.4066   -2.0041 O   0  0  0  0  0  0  0  0  0  0  0  0
   -6.6539   -1.4223   -0.3354 O   0  0  0  0  0  0  0  0  0  0  0  0
   -8.7957   -1.0708    0.2151 O   0  0  0  0  0  0  0  0  0  0  0  0
   -3.5381    1.5896    1.0689 O   0  0  0  0  0  0  0  0  0  0  0  0
   -3.3573    3.8707   -2.3167 O   0  0  0  0  0  0  0  0  0  0  0  0
    2.3194    2.2386    3.6574 O   0  0  0  0  0  0  0  0  0  0  0  0
    1.9173   -1.7066   -1.3140 O   0  0  0  0  0  0  0  0  0  0  0  0
    3.4005   -0.8084    1.6020 H   0  0  0  0  0  0  0  0  0  0  0  0
    0.7841    0.8059    1.4392 H   0  0  0  0  0  0  0  0  0  0  0  0
    1.0218    1.1426   -0.7649 H   0  0  0  0  0  0  0  0  0  0  0  0
    0.4477   -0.8890   -1.5115 H   0  0  0  0  0  0  0  0  0  0  0  0
   -0.9462   -2.5520   -0.6597 H   0  0  0  0  0  0  0  0  0  0  0  0
    0.8106   -3.8540   -1.4046 H   0  0  0  0  0  0  0  0  0  0  0  0
    2.7018   -4.3118   -0.2983 H   0  0  0  0  0  0  0  0  0  0  0  0
    3.3614   -2.5638    0.9042 H   0  0  0  0  0  0  0  0  0  0  0  0
    0.9110   -2.0478    2.5032 H   0  0  0  0  0  0  0  0  0  0  0  0
   -0.2040   -0.7621    0.7976 H   0  0  0  0  0  0  0  0  0  0  0  0
   -0.1235   -3.7384    2.0510 H   0  0  0  0  0  0  0  0  0  0  0  0
   -1.1885   -6.5557    1.4872 H   0  0  0  0  0  0  0  0  0  0  0  0
   -2.1294   -5.3471    2.4713 H   0  0  0  0  0  0  0  0  0  0  0  0
   -2.8053   -6.1018    0.9387 H   0  0  0  0  0  0  0  0  0  0  0  0
    1.0923   -6.0809    0.9425 H   0  0  0  0  0  0  0  0  0  0  0  0
    2.8298   -5.9538    1.2121 H   0  0  0  0  0  0  0  0  0  0  0  0
    1.7837   -5.1486    2.3768 H   0  0  0  0  0  0  0  0  0  0  0  0
    2.5433    2.7422    3.3082 H   0  0  0  0  0  0  0  0  0  0  0  0
    0.9486    4.5118    2.5520 H   0  0  0  0  0  0  0  0  0  0  0  0
    1.6568    3.5153   -0.2673 H   0  0  0  0  0  0  0  0  0  0  0  0
    0.9784    5.0856    0.1803 H   0  0  0  0  0  0  0  0  0  0  0  0
   -0.6513    2.6952    1.1085 H   0  0  0  0  0  0  0  0  0  0  0  0
   -0.5165    3.0766   -0.6336 H   0  0  0  0  0  0  0  0  0  0  0  0
   -1.6363    4.8431    1.5864 H   0  0  0  0  0  0  0  0  0  0  0  0
   -1.1270    5.4695    0.0018 H   0  0  0  0  0  0  0  0  0  0  0  0
   -2.5612    4.2431   -1.2399 H   0  0  0  0  0  0  0  0  0  0  0  0
   -2.7463    2.4519    1.1496 H   0  0  0  0  0  0  0  0  0  0  0  0
   -5.0276    3.1815    0.7300 H   0  0  0  0  0  0  0  0  0  0  0  0
   -3.8308    0.3912    0.3266 H   0  0  0  0  0  0  0  0  0  0  0  0
   -6.1107   -0.3868    1.3684 H   0  0  0  0  0  0  0  0  0  0  0  0
   -6.9535    0.2583   -1.3697 H   0  0  0  0  0  0  0  0  0  0  0  0
   -4.2756   -0.5682   -1.3984 H   0  0  0  0  0  0  0  0  0  0  0  0
   -5.9548   -3.0208   -0.9684 H   0  0  0  0  0  0  0  0  0  0  0  0
   -4.6065   -2.2003    0.7806 H   0  0  0  0  0  0  0  0  0  0  0  0
   -3.2310   -1.8777   -0.4009 H   0  0  0  0  0  0  0  0  0  0  0  0
   -3.4629   -4.1988    1.2605 H   0  0  0  0  0  0  0  0  0  0  0  0
   -4.1690   -4.7239   -0.2665 H   0  0  0  0  0  0  0  0  0  0  0  0
    3.7003    4.1376    1.2598 H   0  0  0  0  0  0  0  0  0  0  0  0
    3.3066    4.8962    2.8113 H   0  0  0  0  0  0  0  0  0  0  0  0
    2.7759    5.7149    1.3097 H   0  0  0  0  0  0  0  0  0  0  0  0
   -4.6353    5.2292   -0.4829 H   0  0  0  0  0  0  0  0  0  0  0  0
   -4.1656    4.9853    1.2810 H   0  0  0  0  0  0  0  0  0  0  0  0
   -3.2933    6.1193    0.2356 H   0  0  0  0  0  0  0  0  0  0  0  0
   -4.3256    3.3033   -1.8536 H   0  0  0  0  0  0  0  0  0  0  0  0
   -5.2704    1.8301   -1.9686 H   0  0  0  0  0  0  0  0  0  0  0  0
   -6.0176    3.2976   -1.3261 H   0  0  0  0  0  0  0  0  0  0  0  0
   -7.9777    0.9182    1.3092 H   0  0  0  0  0  0  0  0  0  0  0  0
   -7.5422    1.7492   -0.1926 H   0  0  0  0  0  0  0  0  0  0  0  0
   -6.7557    2.1905    1.4277 H   0  0  0  0  0  0  0  0  0  0  0  0
   -6.6435   -0.7330   -3.1925 H   0  0  0  0  0  0  0  0  0  0  0  0
   -5.0388   -0.0336   -3.4501 H   0  0  0  0  0  0  0  0  0  0  0  0
   -5.1713   -1.7814   -3.5806 H   0  0  0  0  0  0  0  0  0  0  0  0
   -8.5561   -0.3365   -1.6042 H   0  0  0  0  0  0  0  0  0  0  0  0
   -9.2379   -2.0506   -2.8968 H   0  0  0  0  0  0  0  0  0  0  0  0
   -8.2570   -3.2122   -1.8580 H   0  0  0  0  0  0  0  0  0  0  0  0
   -9.9423   -2.8540   -1.3991 H   0  0  0  0  0  0  0  0  0  0  0  0
   -5.4772   -4.9970   -2.1864 H   0  0  0  0  0  0  0  0  0  0  0  0
   -6.3437   -3.8136   -3.1591 H   0  0  0  0  0  0  0  0  0  0  0  0
   -4.8652   -4.4944   -3.8484 H   0  0  0  0  0  0  0  0  0  0  0  0
    8.3928    0.0062    0.5023 H   0  0  0  0  0  0  0  0  0  0  0  0
    7.5756    3.1618   -0.8058 H   0  0  0  0  0  0  0  0  0  0  0  0
    6.8714    2.4489   -2.2651 H   0  0  0  0  0  0  0  0  0  0  0  0
    6.1580    1.6374    0.5872 H   0  0  0  0  0  0  0  0  0  0  0  0
    5.2305    2.7015   -0.4869 H   0  0  0  0  0  0  0  0  0  0  0  0
    5.8932    0.5908   -3.1199 H   0  0  0  0  0  0  0  0  0  0  0  0
    5.7172   -0.9706   -2.2809 H   0  0  0  0  0  0  0  0  0  0  0  0
    8.0449   -0.3039   -2.8177 H   0  0  0  0  0  0  0  0  0  0  0  0
    7.6879   -0.9087   -1.1963 H   0  0  0  0  0  0  0  0  0  0  0  0
    3.1981    1.9183   -1.1674 H   0  0  0  0  0  0  0  0  0  0  0  0
    2.9880    0.4602   -2.1220 H   0  0  0  0  0  0  0  0  0  0  0  0
   10.2788   -0.1087   -1.3891 H   0  0  0  0  0  0  0  0  0  0  0  0
   10.6188   -0.2663    0.3854 H   0  0  0  0  0  0  0  0  0  0  0  0
    8.2259    2.6736    1.0600 H   0  0  0  0  0  0  0  0  0  0  0  0
    9.4862    1.6159    1.7915 H   0  0  0  0  0  0  0  0  0  0  0  0
   11.9517    1.5497    0.3529 H   0  0  0  0  0  0  0  0  0  0  0  0
   11.4898    1.8923   -1.3620 H   0  0  0  0  0  0  0  0  0  0  0  0
    9.9561    3.3952   -0.6717 H   0  0  0  0  0  0  0  0  0  0  0  0
   10.7747    3.3992    0.9074 H   0  0  0  0  0  0  0  0  0  0  0  0
    3.1479    2.2321    0.7993 H   0  0  0  0  0  0  0  0  0  0  0  0
    4.2262   -0.8567   -0.6455 H   0  0  0  0  0  0  0  0  0  0  0  0
    1.6042   -0.7305    3.6892 H   0  0  0  0  0  0  0  0  0  0  0  0
    3.4224   -2.8957    3.0216 H   0  0  0  0  0  0  0  0  0  0  0  0
   -1.6887   -2.4064    2.7788 H   0  0  0  0  0  0  0  0  0  0  0  0
  -10.3418   -1.2098   -0.2059 H   0  0  0  0  0  0  0  0  0  0  0  0
   -4.9248    2.0290    2.3084 H   0  0  0  0  0  0  0  0  0  0  0  0
   -2.5964    2.0926   -1.6785 H   0  0  0  0  0  0  0  0  0  0  0  0
    0.2647    2.6769    3.4906 H   0  0  0  0  0  0  0  0  0  0  0  0
    2.0850   -1.9899   -2.2205 H   0  0  0  0  0  0  0  0  0  0  0  0
    1.7238    0.0989    2.9648 H   0  0  0  0  0  0  0  0  0  0  0  0
    0.8053    1.2341    1.3188 H   0  0  0  0  0  0  0  0  0  0  0  0
    1.0534    1.3424   -0.8444 H   0  0  0  0  0  0  0  0  0  0  0  0
    0.2453   -0.6305   -1.4209 H   0  0  0  0  0  0  0  0  0  0  0  0
   -0.9800   -2.3660   -0.6211 H   0  0  0  0  0  0  0  0  0  0  0  0
    0.7110   -3.7980   -1.0541 H   0  0  0  0  0  0  0  0  0  0  0  0
    2.4930   -4.3839    0.1652 H   0  0  0  0  0  0  0  0  0  0  0  0
    3.0894   -2.2700    0.6127 H   0  0  0  0  0  0  0  0  0  0  0  0
    0.7855   -1.8819    2.5628 H   0  0  0  0  0  0  0  0  0  0  0  0
   -0.2940   -0.5297    0.8945 H   0  0  0  0  0  0  0  0  0  0  0  0
   -0.7852   -3.1440    2.3474 H   0  0  0  0  0  0  0  0  0  0  0  0
   -1.1243   -5.9888    2.2426 H   0  0  0  0  0  0  0  0  0  0  0  0
   -2.3249   -4.8340    2.8319 H   0  0  0  0  0  0  0  0  0  0  0  0
   -2.7427   -6.0951    1.5378 H   0  0  0  0  0  0  0  0  0  0  0  0
    1.1825   -5.8078    1.6220 H   0  0  0  0  0  0  0  0  0  0  0  0
    2.6725   -5.1287    2.2915 H   0  0  0  0  0  0  0  0  0  0  0  0
    1.1534   -4.4438    2.8803 H   0  0  0  0  0  0  0  0  0  0  0  0
    2.9162    3.7041    2.4291 H   0  0  0  0  0  0  0  0  0  0  0  0
    0.0568    2.6399    2.5629 H   0  0  0  0  0  0  0  0  0  0  0  0
    1.3407    3.6578    0.0958 H   0  0  0  0  0  0  0  0  0  0  0  0
    0.6073    5.0697    0.8615 H   0  0  0  0  0  0  0  0  0  0  0  0
   -1.0043    2.5149    0.4660 H   0  0  0  0  0  0  0  0  0  0  0  0
   -0.7609    3.8638   -0.7639 H   0  0  0  0  0  0  0  0  0  0  0  0
   -2.3277    3.9275    1.8583 H   0  0  0  0  0  0  0  0  0  0  0  0
   -1.5208    5.3812    1.2300 H   0  0  0  0  0  0  0  0  0  0  0  0
   -2.5749    5.4483   -0.7549 H   0  0  0  0  0  0  0  0  0  0  0  0
   -2.4623    2.7528   -0.9262 H   0  0  0  0  0  0  0  0  0  0  0  0
   -5.0216    3.3508    0.2641 H   0  0  0  0  0  0  0  0  0  0  0  0
   -3.5261    0.9818   -0.8245 H   0  0  0  0  0  0  0  0  0  0  0  0
   -5.0390   -0.1917    1.0579 H   0  0  0  0  0  0  0  0  0  0  0  0
   -6.2820    0.0220   -1.6682 H   0  0  0  0  0  0  0  0  0  0  0  0
   -3.6590   -1.1697   -0.7240 H   0  0  0  0  0  0  0  0  0  0  0  0
   -5.6370   -3.1081   -2.0074 H   0  0  0  0  0  0  0  0  0  0  0  0
   -5.8816   -3.8852    0.0827 H   0  0  0  0  0  0  0  0  0  0  0  0
   -4.9693   -2.5552    0.7971 H   0  0  0  0  0  0  0  0  0  0  0  0
   -3.8159   -4.3639    1.5269 H   0  0  0  0  0  0  0  0  0  0  0  0
   -4.1982   -5.3852    0.0635 H   0  0  0  0  0  0  0  0  0  0  0  0
    1.3418    4.3339    4.0943 H   0  0  0  0  0  0  0  0  0  0  0  0
   -0.3528    4.6911    3.4380 H   0  0  0  0  0  0  0  0  0  0  0  0
    1.1090    5.4389    2.7169 H   0  0  0  0  0  0  0  0  0  0  0  0
   -5.0428    5.3559   -0.0839 H   0  0  0  0  0  0  0  0  0  0  0  0
   -4.4234    4.7867    1.5731 H   0  0  0  0  0  0  0  0  0  0  0  0
   -3.8905    6.3125    0.8552 H   0  0  0  0  0  0  0  0  0  0  0  0
   -5.2894    3.8204   -2.3019 H   0  0  0  0  0  0  0  0  0  0  0  0
   -5.3755    2.0738   -2.5017 H   0  0  0  0  0  0  0  0  0  0  0  0
   -6.6169    3.0012   -1.4985 H   0  0  0  0  0  0  0  0  0  0  0  0
   -7.0871    0.6006    1.5504 H   0  0  0  0  0  0  0  0  0  0  0  0
   -7.4091    1.2618   -0.0688 H   0  0  0  0  0  0  0  0  0  0  0  0
   -6.4372    2.1681    1.0922 H   0  0  0  0  0  0  0  0  0  0  0  0
   -5.1195   -1.2272   -3.4255 H   0  0  0  0  0  0  0  0  0  0  0  0
   -4.0763    0.1232   -2.9727 H   0  0  0  0  0  0  0  0  0  0  0  0
   -3.3783   -1.5554   -3.1519 H   0  0  0  0  0  0  0  0  0  0  0  0
   -8.0919   -0.6587   -1.6320 H   0  0  0  0  0  0  0  0  0  0  0  0
   -8.2084   -2.7903   -2.4821 H   0  0  0  0  0  0  0  0  0  0  0  0
   -8.0750   -3.6120   -0.8378 H   0  0  0  0  0  0  0  0  0  0  0  0
   -9.5321   -2.7095   -1.3101 H   0  0  0  0  0  0  0  0  0  0  0  0
   -4.6813   -4.9564   -2.7800 H   0  0  0  0  0  0  0  0  0  0  0  0
   -4.5668   -3.5099   -3.8220 H   0  0  0  0  0  0  0  0  0  0  0  0
   -3.1195   -4.5309   -3.6583 H   0  0  0  0  0  0  0  0  0  0  0  0
    9.5147   -0.7195   -0.3497 H   0  0  0  0  0  0  0  0  0  0  0  0
    7.9782    2.2439   -1.9958 H   0  0  0  0  0  0  0  0  0  0  0  0
    7.2338    1.0847   -3.1056 H   0  0  0  0  0  0  0  0  0  0  0  0
    6.1357    1.3668   -0.3057 H   0  0  0  0  0  0  0  0  0  0  0  0
    5.6446    2.4617   -1.7029 H   0  0  0  0  0  0  0  0  0  0  0  0
    6.2844   -0.8471   -3.1938 H   0  0  0  0  0  0  0  0  0  0  0  0
    5.3351   -1.6985   -1.9623 H   0  0  0  0  0  0  0  0  0  0  0  0
    7.7353   -1.8356   -1.6894 H   0  0  0  0  0  0  0  0  0  0  0  0
    6.9693   -1.2094   -0.2197 H   0  0  0  0  0  0  0  0  0  0  0  0
    2.8124    0.5150   -2.3476 H   0  0  0  0  0  0  0  0  0  0  0  0
    3.2109    1.8546   -1.2782 H   0  0  0  0  0  0  0  0  0  0  0  0
    9.8903    1.5917   -2.2033 H   0  0  0  0  0  0  0  0  0  0  0  0
   10.8796    0.0789   -1.9726 H   0  0  0  0  0  0  0  0  0  0  0  0
    8.1970    1.5871    0.8583 H   0  0  0  0  0  0  0  0  0  0  0  0
    9.4952    0.5738    1.4892 H   0  0  0  0  0  0  0  0  0  0  0  0
   11.7477    0.8462    0.1342 H   0  0  0  0  0  0  0  0  0  0  0  0
   11.8518    2.3271   -0.9429 H   0  0  0  0  0  0  0  0  0  0  0  0
    9.7108    3.1159   -0.1656 H   0  0  0  0  0  0  0  0  0  0  0  0
   10.5431    2.6128    1.3785 H   0  0  0  0  0  0  0  0  0  0  0  0
    3.0014    2.5738    0.5553 H   0  0  0  0  0  0  0  0  0  0  0  0
    4.6005    0.4559    0.0065 H   0  0  0  0  0  0  0  0  0  0  0  0
    3.8183    0.0252    3.0012 H   0  0  0  0  0  0  0  0  0  0  0  0
    2.7392   -2.4526    3.2767 H   0  0  0  0  0  0  0  0  0  0  0  0
   -2.4372   -1.8364    2.4155 H   0  0  0  0  0  0  0  0  0  0  0  0
   -9.7119   -0.9127   -0.0762 H   0  0  0  0  0  0  0  0  0  0  0  0
   -4.0849    2.2656    1.5815 H   0  0  0  0  0  0  0  0  0  0  0  0
   -2.9931    4.7791   -2.4197 H   0  0  0  0  0  0  0  0  0  0  0  0
    1.4488    2.2358    4.1095 H   0  0  0  0  0  0  0  0  0  0  0  0
    1.8675   -1.6373   -2.3081 H   0  0  0  0  0  0  0  0  0  0  0  0
  1  2  1  0
  2  3  1  0
  3  4  1  0
  5  6  1  0
  6  7  1  0
  7  8  1  0
  1  9  1  0
  8  9  1  0
  4 10  1  0
  5 10  1  0
  9 10  1  0
  5 11  1  0
 11 12  1  0
 12 13  1  1
  7 14  1  0
 15 16  1  0
 16 17  1  0
 17 18  1  0
 18 19  1  0
 19 20  1  0
 20 21  1  0
 21 22  1  0
 22 23  1  0
 23 24  1  0
 24 25  1  0
 25 26  1  0
 26 27  1  0
 27 28  1  0
 28 29  1  0
 16 30  1  0
 20 31  1  0
 22 32  1  0
 24 33  1  0
 26 34  1  0
 35 36  1  0
 39 40  1  0
 41 42  1  0
  3 43  1  0
 38 44  1  0
 38 45  1  0
 44 46  1  0
 45 47  1  0
 46 47  1  0
  2 48  1  0
 15 48  1  0
 43 49  1  0
 40 50  1  0
 41 50  1  0
 49 50  1  0
 38 51  1  0
 39 51  1  0
 42 51  1  0
  1 52  1  0
  8 53  1  0
  6 54  1  0
 12 54  1  0
 11 55  1  0
 12 56  1  0
 29 56  1  0
 27 57  1  0
 37 57  1  0
 25 58  1  0
 35 58  1  0
 35 59  1  0
 23 60  1  0
 21 61  1  0
 15 62  1  0
  4 63  1  0
 64 65  1  0
 65 66  1  0
 66 67  1  0
 68 69  1  0
 69 70  1  0
 70 71  1  0
 64 72  1  0
 71 72  1  0
 67 73  1  0
 68 73  1  0
 72 73  1  0
 68 74  1  0
 74 75  1  0
 75 76  1  1
 70 77  1  0
 78 79  1  0
 79 80  1  0
 80 81  1  0
 81 82  1  0
 82 83  1  0
 83 84  1  0
 84 85  1  0
 85 86  1  0
 86 87  1  0
 87 88  1  0
 88 89  1  0
 89 90  1  0
 90 91  1  0
 91 92  1  0
 79 93  1  0
 83 94  1  0
 85 95  1  0
 87 96  1  0
 89 97  1  0
 98 99  1  0
102103  1  0
104105  1  0
 66106  1  0
101107  1  0
101108  1  0
107109  1  0
108110  1  0
109110  1  0
 65111  1  0
 78111  1  0
106112  1  0
103113  1  0
104113  1  0
112113  1  0
101114  1  0
102114  1  0
105114  1  0
 64115  1  0
 71116  1  0
 69117  1  0
 75117  1  0
 74118  1  0
 75119  1  0
 92119  1  0
 90120  1  0
100120  1  0
 88121  1  0
 98121  1  0
 98122  1  0
 86123  1  0
 84124  1  0
 78125  1  0
 67126  1  0
  1127  1  0
  2128  1  0
  3129  1  6
  4130  1  0
  5131  1  0
  6132  1  0
  7133  1  0
  8134  1  0
  9135  1  0
 10136  1  1
 11137  1  1
 13138  1  0
 13139  1  0
 13140  1  0
 14141  1  0
 14142  1  0
 14143  1  0
 15144  1  0
 16145  1  0
 17146  1  0
 17147  1  0
 18148  1  0
 18149  1  0
 19150  1  0
 19151  1  0
 20152  1  6
 21153  1  1
 22154  1  1
 23155  1  6
 24156  1  1
 25157  1  6
 26158  1  6
 27159  1  1
 28160  1  0
 28161  1  0
 29162  1  0
 29163  1  0
 30164  1  0
 30165  1  0
 30166  1  0
 31167  1  0
 31168  1  0
 31169  1  0
 32170  1  0
 32171  1  0
 32172  1  0
 33173  1  0
 33174  1  0
 33175  1  0
 34176  1  0
 34177  1  0
 34178  1  0
 35179  1  0
 36180  1  0
 36181  1  0
 36182  1  0
 37183  1  0
 37184  1  0
 37185  1  0
 38186  1  0
 39187  1  0
 39188  1  0
 40189  1  0
 40190  1  0
 41191  1  0
 41192  1  0
 42193  1  0
 42194  1  0
 43195  1  0
 43196  1  0
 44197  1  0
 44198  1  0
 45199  1  0
 45200  1  0
 46201  1  0
 46202  1  0
 47203  1  0
 47204  1  0
 48205  1  0
 49206  1  0
 52207  1  0
 53208  1  0
 55209  1  0
 59210  1  0
 60211  1  0
 61212  1  0
 62213  1  0
 63214  1  0
 64215  1  0
 65216  1  0
 66217  1  6
 67218  1  0
 68219  1  0
 69220  1  0
 70221  1  0
 71222  1  0
 72223  1  0
 73224  1  0
 74225  1  1
 76226  1  0
 76227  1  0
 76228  1  0
 77229  1  0
 77230  1  0
 77231  1  0
 78232  1  0
 79233  1  0
 80234  1  0
 80235  1  0
 81236  1  0
 81237  1  0
 82238  1  0
 82239  1  0
 83240  1  6
 84241  1  6
 85242  1  1
 86243  1  6
 87244  1  1
 88245  1  6
 89246  1  1
 90247  1  6
 91248  1  0
 91249  1  0
 92250  1  0
 92251  1  0
 93252  1  0
 93253  1  0
 93254  1  0
 94255  1  0
 94256  1  0
 94257  1  0
 95258  1  0
 95259  1  0
 95260  1  0
 96261  1  0
 96262  1  0
 96263  1  0
 97264  1  0
 97265  1  0
 97266  1  0
 98267  1  0
 99268  1  0
 99269  1  0
 99270  1  0
100271  1  0
100272  1  0
100273  1  0
101274  1  0
102275  1  0
102276  1  0
103277  1  0
103278  1  0
104279  1  0
104280  1  0
105281  1  0
105282  1  0
106283  1  0
106284  1  0
107285  1  0
107286  1  0
108287  1  0
108288  1  0
109289  1  0
109290  1  0
110291  1  0
110292  1  0
111293  1  0
112294  1  0
115295  1  0
116296  1  0
118297  1  0
122298  1  0
123299  1  0
124300  1  0
125301  1  0
126302  1  0
M  END
>  <PDBID>  (1) 
2A69

>  <PDB ID>  (1) 
2A69

>  <Generic Name>  (1) 
Rifapentine

>  <Brand Name>  (1) 
Priftin

>  <DrugBank ID>  (1) 
DB01201

>  <ATC Codes>  (1) 
J04AB05

>  <Ligand ID>  (1) 
RPT

>  <Target Name>  (1) 
DNA-directed RNA polymerase subunit beta'

>  <UniProt ID>  (1) 
P0A674

>  <PDB ID.1>  (1) 
2A69

>  <Seq. Identity>  (1) 
50%

$$$$
