PDB_DB09078_09
     RDKit          3D

 69 72  0  0  0  0  0  0  0  0999 V2000
    6.5208    2.0219    0.2284 C   0  0  0  0  0  0  0  0  0  0  0  0
    6.0977    0.8787   -0.4069 O   0  0  0  0  0  0  0  0  0  0  0  0
    4.8439    0.4199    0.0428 C   0  0  0  0  0  0  0  0  0  0  0  0
    5.0599   -0.9252    0.6498 C   0  0  0  0  0  0  0  0  0  0  0  0
    3.7203   -1.3586    1.2178 C   0  0  0  0  0  0  0  0  0  0  0  0
    3.2917   -0.4310    2.2671 N   0  0  0  0  0  0  0  0  0  0  0  0
    2.2530   -1.0539    3.0638 C   0  0  0  0  0  0  0  0  0  0  0  0
    1.5046   -2.0698    2.2525 C   0  0  0  0  0  0  0  0  0  0  0  0
    1.3468   -1.4703    0.8430 C   0  0  2  0  0  0  0  0  0  0  0  0
    2.6786   -1.5179    0.1393 C   0  0  0  0  0  0  0  0  0  0  0  0
    2.7922   -0.6408   -1.0195 C   0  0  0  0  0  0  0  0  0  0  0  0
    3.8291    0.4249   -1.0355 C   0  0  2  0  0  0  0  0  0  0  0  0
    4.5634    0.4821   -2.3866 C   0  0  2  0  0  0  0  0  0  0  0  0
    3.6185    0.4924   -3.4333 O   0  0  0  0  0  0  0  0  0  0  0  0
    5.3844   -0.6694   -2.6057 N   0  0  0  0  0  0  0  0  0  0  0  0
    0.7582   -0.2331    0.9193 O   0  0  0  0  0  0  0  0  0  0  0  0
   -0.5564   -0.2984    0.4052 C   0  0  1  0  0  0  0  0  0  0  0  0
   -1.5388    0.0155    1.5321 C   0  0  0  0  0  0  0  0  0  0  0  0
   -2.9448   -0.2163    0.9584 C   0  0  1  0  0  0  0  0  0  0  0  0
   -3.2601    0.7139   -0.1612 C   0  0  2  0  0  0  0  0  0  0  0  0
   -2.0044    1.5717   -0.3869 C   0  0  0  0  0  0  0  0  0  0  0  0
   -0.8159    0.7141   -0.6721 C   0  0  0  0  0  0  0  0  0  0  0  0
   -4.3892    1.5347   -0.0541 N   0  0  0  0  0  0  0  0  0  0  0  0
   -5.6916    0.9813   -0.0139 C   0  0  0  0  0  0  0  0  0  0  0  0
   -5.8436    0.1063    1.0600 O   0  0  0  0  0  0  0  0  0  0  0  0
   -6.0307    0.3719   -1.2586 N   0  0  0  0  0  0  0  0  0  0  0  0
   -7.3699   -0.0505   -1.4489 C   0  0  0  0  0  0  0  0  0  0  0  0
   -8.0962   -1.0673   -0.6960 C   0  0  0  0  0  0  0  0  0  0  0  0
   -8.4783    0.3850   -0.5243 C   0  0  0  0  0  0  0  0  0  0  0  0
   -2.9315   -1.8959    0.3631 Cl  0  0  0  0  0  0  0  0  0  0  0  0
    7.5231    2.2666   -0.2147 H   0  0  0  0  0  0  0  0  0  0  0  0
    5.8962    2.9100   -0.0262 H   0  0  0  0  0  0  0  0  0  0  0  0
    6.6703    1.9338    1.3177 H   0  0  0  0  0  0  0  0  0  0  0  0
    4.5456    1.1612    0.8429 H   0  0  0  0  0  0  0  0  0  0  0  0
    5.7721   -0.8745    1.4972 H   0  0  0  0  0  0  0  0  0  0  0  0
    5.3389   -1.6544   -0.1102 H   0  0  0  0  0  0  0  0  0  0  0  0
    3.9083   -2.3183    1.7446 H   0  0  0  0  0  0  0  0  0  0  0  0
    2.9115    0.4443    1.8834 H   0  0  0  0  0  0  0  0  0  0  0  0
    1.5334   -0.2584    3.4026 H   0  0  0  0  0  0  0  0  0  0  0  0
    2.6335   -1.5557    3.9638 H   0  0  0  0  0  0  0  0  0  0  0  0
    0.4842   -2.1858    2.6364 H   0  0  0  0  0  0  0  0  0  0  0  0
    2.0387   -3.0124    2.1413 H   0  0  0  0  0  0  0  0  0  0  0  0
    0.6296   -2.1627    0.3291 H   0  0  0  0  0  0  0  0  0  0  0  0
    2.7745   -2.6114   -0.1646 H   0  0  0  0  0  0  0  0  0  0  0  0
    3.0161   -1.2867   -1.9317 H   0  0  0  0  0  0  0  0  0  0  0  0
    1.7967   -0.2259   -1.2882 H   0  0  0  0  0  0  0  0  0  0  0  0
    3.3017    1.4125   -0.9808 H   0  0  0  0  0  0  0  0  0  0  0  0
    5.1672    1.3844   -2.5008 H   0  0  0  0  0  0  0  0  0  0  0  0
    3.5848    1.3638   -3.9001 H   0  0  0  0  0  0  0  0  0  0  0  0
    6.4042   -0.4564   -2.5426 H   0  0  0  0  0  0  0  0  0  0  0  0
    5.2602   -1.0968   -3.5609 H   0  0  0  0  0  0  0  0  0  0  0  0
   -0.8150   -1.2953    0.0410 H   0  0  0  0  0  0  0  0  0  0  0  0
   -1.4184    1.0376    1.9229 H   0  0  0  0  0  0  0  0  0  0  0  0
   -1.4246   -0.6771    2.3860 H   0  0  0  0  0  0  0  0  0  0  0  0
   -3.6765   -0.0776    1.7926 H   0  0  0  0  0  0  0  0  0  0  0  0
   -3.3518    0.1372   -1.1324 H   0  0  0  0  0  0  0  0  0  0  0  0
   -1.8712    2.3169    0.4015 H   0  0  0  0  0  0  0  0  0  0  0  0
   -2.2300    2.1538   -1.3236 H   0  0  0  0  0  0  0  0  0  0  0  0
   -0.9629    0.2312   -1.6715 H   0  0  0  0  0  0  0  0  0  0  0  0
    0.0794    1.3710   -0.7661 H   0  0  0  0  0  0  0  0  0  0  0  0
   -4.2941    2.2854    0.6624 H   0  0  0  0  0  0  0  0  0  0  0  0
   -6.4740    1.7979    0.1415 H   0  0  0  0  0  0  0  0  0  0  0  0
   -5.6602   -0.8035    0.7783 H   0  0  0  0  0  0  0  0  0  0  0  0
   -5.3913   -0.4179   -1.5229 H   0  0  0  0  0  0  0  0  0  0  0  0
   -7.7106    0.0392   -2.5403 H   0  0  0  0  0  0  0  0  0  0  0  0
   -8.8968   -1.6533   -1.2321 H   0  0  0  0  0  0  0  0  0  0  0  0
   -7.7552   -1.6053    0.1927 H   0  0  0  0  0  0  0  0  0  0  0  0
   -9.4481    0.7460   -0.9446 H   0  0  0  0  0  0  0  0  0  0  0  0
   -8.2012    0.8095    0.4373 H   0  0  0  0  0  0  0  0  0  0  0  0
  1  2  1  0
  2  3  1  0
  3  4  1  0
  4  5  1  0
  5  6  1  0
  6  7  1  0
  7  8  1  0
  8  9  1  0
  5 10  1  0
  9 10  1  0
 10 11  1  0
  3 12  1  0
 11 12  1  0
 12 13  1  0
 13 14  1  0
 13 15  1  0
  9 16  1  0
 16 17  1  0
 17 18  1  0
 18 19  1  0
 19 20  1  0
 20 21  1  0
 17 22  1  0
 21 22  1  0
 20 23  1  0
 23 24  1  0
 24 25  1  0
 24 26  1  0
 26 27  1  0
 27 28  1  0
 27 29  1  0
 28 29  1  0
 19 30  1  0
  1 31  1  0
  1 32  1  0
  1 33  1  0
  3 34  1  0
  4 35  1  0
  4 36  1  0
  5 37  1  0
  6 38  1  0
  7 39  1  0
  7 40  1  0
  8 41  1  0
  8 42  1  0
  9 43  1  6
 10 44  1  0
 11 45  1  0
 11 46  1  0
 12 47  1  1
 13 48  1  1
 14 49  1  0
 15 50  1  0
 15 51  1  0
 17 52  1  6
 18 53  1  0
 18 54  1  0
 19 55  1  1
 20 56  1  6
 21 57  1  0
 21 58  1  0
 22 59  1  0
 22 60  1  0
 23 61  1  0
 24 62  1  0
 25 63  1  0
 26 64  1  0
 27 65  1  0
 28 66  1  0
 28 67  1  0
 29 68  1  0
 29 69  1  0
M  END
>  <PDBID>  (1) 
3WZD

>  <PDB ID>  (1) 
3WZD

>  <Generic Name>  (1) 
Lenvatinib

>  <Brand Name>  (1) 
Lenvima

>  <DrugBank ID>  (1) 
DB09078

>  <ATC Codes>  (1) 
L01XE29

>  <Ligand ID>  (1) 
LEV

>  <Target Name>  (1) 
Vascular endothelial growth factor receptor 3

>  <UniProt ID>  (1) 
P35916

>  <PDB ID.1>  (1) 
3WZD

>  <Seq. Identity>  (1) 
67%

$$$$
