PDB_DB00877_09
     RDKit          3D

162165  0  0  0  0  0  0  0  0999 V2000
    2.4773   -2.1996   -1.0729 C   0  0  0  0  0  0  0  0  0  0  0  0
    3.5081   -1.4682   -0.5550 O   0  0  0  0  0  0  0  0  0  0  0  0
    1.2805   -1.7781   -0.4367 O   0  0  0  0  0  0  0  0  0  0  0  0
    2.7331   -3.6654   -0.6746 C   0  0  2  0  0  0  0  0  0  0  0  0
    4.1844   -3.9805   -0.6686 C   0  0  0  0  0  0  0  0  0  0  0  0
    4.6754   -4.4225   -1.9984 C   0  0  0  0  0  0  0  0  0  0  0  0
    3.6668   -4.4388   -3.0975 C   0  0  0  0  0  0  0  0  0  0  0  0
    2.3886   -5.0824   -2.6147 C   0  0  0  0  0  0  0  0  0  0  0  0
    1.9041   -4.5872   -1.3751 N   0  0  0  0  0  0  0  0  0  0  0  0
    1.5538   -5.7083   -0.5259 C   0  0  2  0  0  0  0  0  0  0  0  0
    1.5121   -6.9218   -1.1904 O   0  0  0  0  0  0  0  0  0  0  0  0
    0.3726   -5.4716    0.3491 C   0  0  0  0  0  0  0  0  0  0  0  0
    0.1491   -6.6140    1.1003 O   0  0  0  0  0  0  0  0  0  0  0  0
   -0.9117   -5.1593   -0.3932 C   0  0  1  0  0  0  0  0  0  0  0  0
   -1.7817   -4.6795    0.5646 O   0  0  0  0  0  0  0  0  0  0  0  0
   -0.5890   -4.0971   -1.2712 O   0  0  0  0  0  0  0  0  0  0  0  0
   -1.3774   -6.2885   -1.2183 C   0  0  1  0  0  0  0  0  0  0  0  0
   -2.8085   -6.6919   -1.0886 C   0  0  0  0  0  0  0  0  0  0  0  0
   -3.4817   -6.2092    0.1481 C   0  0  0  0  0  0  0  0  0  0  0  0
   -3.1103   -4.7221    0.2735 C   0  0  1  0  0  0  0  0  0  0  0  0
   -3.8714   -4.2277    1.4882 C   0  0  0  0  0  0  0  0  0  0  0  0
   -4.1924   -2.7519    1.4022 C   0  0  2  0  0  0  0  0  0  0  0  0
   -4.4778   -2.2440    2.6630 O   0  0  0  0  0  0  0  0  0  0  0  0
   -5.3672   -2.6118    0.4532 C   0  0  0  0  0  0  0  0  0  0  0  0
   -5.3359   -1.2558   -0.1746 C   0  0  0  0  0  0  0  0  0  0  0  0
   -5.9079   -0.1960    0.7255 C   0  0  0  0  0  0  0  0  0  0  0  0
   -7.1381    0.3720    0.0839 C   0  0  0  0  0  0  0  0  0  0  0  0
   -7.3561    1.8324    0.5027 C   0  0  0  0  0  0  0  0  0  0  0  0
   -6.4822    2.6644   -0.4069 C   0  0  0  0  0  0  0  0  0  0  0  0
   -6.3256    4.0820    0.0406 C   0  0  2  0  0  0  0  0  0  0  0  0
   -4.9633    4.3652    0.6215 C   0  0  0  0  0  0  0  0  0  0  0  0
   -4.1414    5.2989   -0.2436 C   0  0  2  0  0  0  0  0  0  0  0  0
   -2.8932    5.6396    0.5511 C   0  0  0  0  0  0  0  0  0  0  0  0
   -2.5070    4.6010    1.3933 O   0  0  0  0  0  0  0  0  0  0  0  0
   -1.7632    6.0940   -0.3448 C   0  0  2  0  0  0  0  0  0  0  0  0
   -2.2965    6.8215   -1.3759 O   0  0  0  0  0  0  0  0  0  0  0  0
   -0.8888    4.9520   -0.7792 C   0  0  2  0  0  0  0  0  0  0  0  0
   -1.6222    3.7767   -0.5608 O   0  0  0  0  0  0  0  0  0  0  0  0
    0.3788    4.8241    0.0462 C   0  0  0  0  0  0  0  0  0  0  0  0
    1.4707    4.1191   -0.6747 C   0  0  0  0  0  0  0  0  0  0  0  0
    1.4642    2.6185   -0.5348 C   0  0  2  0  0  0  0  0  0  0  0  0
    2.8195    2.1442    0.0241 C   0  0  0  0  0  0  0  0  0  0  0  0
    2.8458    2.6931    1.3175 O   0  0  0  0  0  0  0  0  0  0  0  0
    2.8925    0.6633    0.1834 C   0  0  0  0  0  0  0  0  0  0  0  0
    3.5165   -0.1125   -0.8732 C   0  0  1  0  0  0  0  0  0  0  0  0
    4.8294    0.2248   -1.4394 C   0  0  1  0  0  0  0  0  0  0  0  0
    6.0548   -0.0298   -0.6412 C   0  0  0  0  0  0  0  0  0  0  0  0
    6.2380    0.6540    0.6588 C   0  0  1  0  0  0  0  0  0  0  0  0
    7.6048    0.1357    1.1912 C   0  0  0  0  0  0  0  0  0  0  0  0
    7.6281    0.5248    2.6523 C   0  0  1  0  0  0  0  0  0  0  0  0
    8.5748   -0.1212    3.3942 O   0  0  0  0  0  0  0  0  0  0  0  0
    7.6546    2.0331    2.7482 C   0  0  2  0  0  0  0  0  0  0  0  0
    6.5440    2.5222    3.4580 O   0  0  0  0  0  0  0  0  0  0  0  0
    7.5628    2.6542    1.3562 C   0  0  0  0  0  0  0  0  0  0  0  0
    6.4039    2.1361    0.5611 C   0  0  0  0  0  0  0  0  0  0  0  0
   -1.1022   -6.0944   -2.7081 C   0  0  0  0  0  0  0  0  0  0  0  0
   -6.6718   -2.9249    1.1148 C   0  0  0  0  0  0  0  0  0  0  0  0
   -7.3620    4.5228    1.0346 C   0  0  0  0  0  0  0  0  0  0  0  0
   -4.8554    6.5966   -0.5350 C   0  0  0  0  0  0  0  0  0  0  0  0
    0.9128    6.2131    0.4260 C   0  0  0  0  0  0  0  0  0  0  0  0
    1.2284    2.0493   -1.9175 C   0  0  0  0  0  0  0  0  0  0  0  0
    5.0086   -0.6079   -2.7289 C   0  0  0  0  0  0  0  0  0  0  0  0
   -3.5976   -1.2701    3.0674 C   0  0  0  0  0  0  0  0  0  0  0  0
   -1.9385    8.1560   -1.3878 C   0  0  0  0  0  0  0  0  0  0  0  0
    8.0478   -0.9504    4.3782 C   0  0  0  0  0  0  0  0  0  0  0  0
   -1.3773   -3.6019   -1.5483 H   0  0  0  0  0  0  0  0  0  0  0  0
   -1.7648    3.2515   -1.3629 H   0  0  0  0  0  0  0  0  0  0  0  0
    6.0399    3.1955    2.9689 H   0  0  0  0  0  0  0  0  0  0  0  0
    2.2769   -2.0926   -2.1393 H   0  0  0  0  0  0  0  0  0  0  0  0
    0.5604   -1.5908   -1.0593 H   0  0  0  0  0  0  0  0  0  0  0  0
    2.4177   -3.6733    0.4230 H   0  0  0  0  0  0  0  0  0  0  0  0
    4.7342   -3.0632   -0.3348 H   0  0  0  0  0  0  0  0  0  0  0  0
    4.3683   -4.7564    0.1146 H   0  0  0  0  0  0  0  0  0  0  0  0
    5.1573   -5.4373   -1.8740 H   0  0  0  0  0  0  0  0  0  0  0  0
    5.5274   -3.7843   -2.3574 H   0  0  0  0  0  0  0  0  0  0  0  0
    4.0794   -5.1325   -3.8907 H   0  0  0  0  0  0  0  0  0  0  0  0
    3.5289   -3.4839   -3.6201 H   0  0  0  0  0  0  0  0  0  0  0  0
    1.6109   -5.0020   -3.3883 H   0  0  0  0  0  0  0  0  0  0  0  0
    2.6243   -6.1794   -2.5375 H   0  0  0  0  0  0  0  0  0  0  0  0
    2.4310   -5.8024    0.1849 H   0  0  0  0  0  0  0  0  0  0  0  0
    1.8253   -7.6790   -0.6362 H   0  0  0  0  0  0  0  0  0  0  0  0
    0.6085   -4.6406    1.0448 H   0  0  0  0  0  0  0  0  0  0  0  0
    0.2822   -6.4496    2.0684 H   0  0  0  0  0  0  0  0  0  0  0  0
   -0.7791   -7.2013   -0.9210 H   0  0  0  0  0  0  0  0  0  0  0  0
   -2.9418   -7.7924   -1.1654 H   0  0  0  0  0  0  0  0  0  0  0  0
   -3.3905   -6.2696   -1.9599 H   0  0  0  0  0  0  0  0  0  0  0  0
   -4.5578   -6.3479    0.0629 H   0  0  0  0  0  0  0  0  0  0  0  0
   -3.0182   -6.7089    1.0253 H   0  0  0  0  0  0  0  0  0  0  0  0
   -3.3870   -4.1731   -0.6399 H   0  0  0  0  0  0  0  0  0  0  0  0
   -3.3209   -4.4772    2.4220 H   0  0  0  0  0  0  0  0  0  0  0  0
   -4.8617   -4.7562    1.5842 H   0  0  0  0  0  0  0  0  0  0  0  0
   -3.2953   -2.2141    1.0372 H   0  0  0  0  0  0  0  0  0  0  0  0
   -5.2429   -3.3613   -0.3793 H   0  0  0  0  0  0  0  0  0  0  0  0
   -5.8938   -1.3274   -1.1450 H   0  0  0  0  0  0  0  0  0  0  0  0
   -4.2705   -1.0518   -0.4586 H   0  0  0  0  0  0  0  0  0  0  0  0
   -6.1798   -0.5793    1.7258 H   0  0  0  0  0  0  0  0  0  0  0  0
   -5.1308    0.5765    0.8789 H   0  0  0  0  0  0  0  0  0  0  0  0
   -7.1193    0.2793   -1.0186 H   0  0  0  0  0  0  0  0  0  0  0  0
   -8.0281   -0.1841    0.4441 H   0  0  0  0  0  0  0  0  0  0  0  0
   -8.4294    2.0354    0.3096 H   0  0  0  0  0  0  0  0  0  0  0  0
   -7.0648    1.8919    1.5558 H   0  0  0  0  0  0  0  0  0  0  0  0
   -6.9339    2.6010   -1.4206 H   0  0  0  0  0  0  0  0  0  0  0  0
   -5.4686    2.2043   -0.5101 H   0  0  0  0  0  0  0  0  0  0  0  0
   -6.4047    4.7251   -0.8805 H   0  0  0  0  0  0  0  0  0  0  0  0
   -5.0416    4.7673    1.6671 H   0  0  0  0  0  0  0  0  0  0  0  0
   -4.4012    3.4160    0.6926 H   0  0  0  0  0  0  0  0  0  0  0  0
   -3.9009    4.7377   -1.1772 H   0  0  0  0  0  0  0  0  0  0  0  0
   -3.1671    6.4991    1.2013 H   0  0  0  0  0  0  0  0  0  0  0  0
   -2.0475    4.9693    2.1900 H   0  0  0  0  0  0  0  0  0  0  0  0
   -1.1367    6.7787    0.2730 H   0  0  0  0  0  0  0  0  0  0  0  0
   -0.6098    4.9649   -1.8364 H   0  0  0  0  0  0  0  0  0  0  0  0
    0.0842    4.3556    0.9993 H   0  0  0  0  0  0  0  0  0  0  0  0
    2.4494    4.5048   -0.3000 H   0  0  0  0  0  0  0  0  0  0  0  0
    1.4265    4.4427   -1.7398 H   0  0  0  0  0  0  0  0  0  0  0  0
    0.6826    2.2399    0.1204 H   0  0  0  0  0  0  0  0  0  0  0  0
    3.6283    2.6185   -0.5242 H   0  0  0  0  0  0  0  0  0  0  0  0
    1.9756    2.5915    1.7637 H   0  0  0  0  0  0  0  0  0  0  0  0
    1.7918    0.3412    0.2231 H   0  0  0  0  0  0  0  0  0  0  0  0
    3.2438    0.4131    1.1972 H   0  0  0  0  0  0  0  0  0  0  0  0
    2.7557   -0.0939   -1.7666 H   0  0  0  0  0  0  0  0  0  0  0  0
    4.8904    1.2769   -1.8390 H   0  0  0  0  0  0  0  0  0  0  0  0
    6.9251    0.2321   -1.3352 H   0  0  0  0  0  0  0  0  0  0  0  0
    6.1390   -1.1377   -0.4310 H   0  0  0  0  0  0  0  0  0  0  0  0
    5.5334    0.3059    1.4222 H   0  0  0  0  0  0  0  0  0  0  0  0
    8.3873    0.5695    0.5793 H   0  0  0  0  0  0  0  0  0  0  0  0
    7.6057   -0.9805    1.1406 H   0  0  0  0  0  0  0  0  0  0  0  0
    6.6257    0.1975    3.0576 H   0  0  0  0  0  0  0  0  0  0  0  0
    8.5469    2.4325    3.2300 H   0  0  0  0  0  0  0  0  0  0  0  0
    7.4442    3.7652    1.5563 H   0  0  0  0  0  0  0  0  0  0  0  0
    8.4752    2.5704    0.7712 H   0  0  0  0  0  0  0  0  0  0  0  0
    5.5190    2.7221    0.8882 H   0  0  0  0  0  0  0  0  0  0  0  0
    6.5439    2.3769   -0.5238 H   0  0  0  0  0  0  0  0  0  0  0  0
   -2.0483   -6.1822   -3.3133 H   0  0  0  0  0  0  0  0  0  0  0  0
   -0.7360   -5.0687   -2.9196 H   0  0  0  0  0  0  0  0  0  0  0  0
   -0.4354   -6.8778   -3.1233 H   0  0  0  0  0  0  0  0  0  0  0  0
   -6.8099   -2.4828    2.1038 H   0  0  0  0  0  0  0  0  0  0  0  0
   -7.4842   -2.5226    0.4655 H   0  0  0  0  0  0  0  0  0  0  0  0
   -6.8703   -4.0342    1.1527 H   0  0  0  0  0  0  0  0  0  0  0  0
   -7.9909    3.7029    1.4180 H   0  0  0  0  0  0  0  0  0  0  0  0
   -8.0800    5.2693    0.5839 H   0  0  0  0  0  0  0  0  0  0  0  0
   -6.8885    4.9798    1.9525 H   0  0  0  0  0  0  0  0  0  0  0  0
   -5.9124    6.5967   -0.2350 H   0  0  0  0  0  0  0  0  0  0  0  0
   -4.3883    7.4647    0.0163 H   0  0  0  0  0  0  0  0  0  0  0  0
   -4.8213    6.7685   -1.6335 H   0  0  0  0  0  0  0  0  0  0  0  0
    0.5335    6.5359    1.4133 H   0  0  0  0  0  0  0  0  0  0  0  0
    0.7879    6.9400   -0.3780 H   0  0  0  0  0  0  0  0  0  0  0  0
    2.0303    6.1153    0.5702 H   0  0  0  0  0  0  0  0  0  0  0  0
    0.6919    1.0924   -1.9037 H   0  0  0  0  0  0  0  0  0  0  0  0
    2.1439    2.0833   -2.5204 H   0  0  0  0  0  0  0  0  0  0  0  0
    0.5203    2.7599   -2.4445 H   0  0  0  0  0  0  0  0  0  0  0  0
    6.0920   -0.7606   -2.9471 H   0  0  0  0  0  0  0  0  0  0  0  0
    4.5582   -1.6012   -2.5513 H   0  0  0  0  0  0  0  0  0  0  0  0
    4.4817   -0.1409   -3.5757 H   0  0  0  0  0  0  0  0  0  0  0  0
   -3.5567   -0.3785    2.4101 H   0  0  0  0  0  0  0  0  0  0  0  0
   -3.9698   -0.8876    4.0559 H   0  0  0  0  0  0  0  0  0  0  0  0
   -2.5711   -1.6435    3.2639 H   0  0  0  0  0  0  0  0  0  0  0  0
   -0.8576    8.3364   -1.4682 H   0  0  0  0  0  0  0  0  0  0  0  0
   -2.4305    8.7306   -0.5687 H   0  0  0  0  0  0  0  0  0  0  0  0
   -2.3837    8.5849   -2.3340 H   0  0  0  0  0  0  0  0  0  0  0  0
    7.4272   -0.4079    5.1066 H   0  0  0  0  0  0  0  0  0  0  0  0
    8.9039   -1.3868    4.9323 H   0  0  0  0  0  0  0  0  0  0  0  0
    7.5154   -1.8096    3.9027 H   0  0  0  0  0  0  0  0  0  0  0  0
  1  2  1  0
  1  3  1  0
  1  4  1  0
  4  5  1  0
  5  6  1  0
  6  7  1  0
  7  8  1  0
  4  9  1  0
  8  9  1  0
  9 10  1  0
 10 11  1  0
 10 12  1  0
 12 13  1  0
 12 14  1  0
 14 15  1  0
 14 16  1  6
 14 17  1  0
 17 18  1  0
 18 19  1  0
 15 20  1  0
 19 20  1  0
 20 21  1  0
 21 22  1  0
 22 23  1  0
 22 24  1  0
 24 25  1  0
 25 26  1  0
 26 27  1  0
 27 28  1  0
 28 29  1  0
 29 30  1  0
 30 31  1  0
 31 32  1  0
 32 33  1  0
 33 34  1  0
 33 35  1  0
 35 36  1  0
 35 37  1  0
 37 38  1  0
 37 39  1  0
 39 40  1  0
 40 41  1  0
 41 42  1  0
 42 43  1  0
 42 44  1  0
  2 45  1  0
 44 45  1  0
 45 46  1  0
 46 47  1  0
 47 48  1  0
 48 49  1  0
 49 50  1  0
 50 51  1  0
 50 52  1  0
 52 53  1  0
 52 54  1  0
 48 55  1  0
 54 55  1  0
 17 56  1  0
 24 57  1  0
 30 58  1  0
 32 59  1  0
 39 60  1  0
 41 61  1  0
 46 62  1  0
 23 63  1  0
 36 64  1  0
 51 65  1  0
 16 66  1  0
 38 67  1  0
 53 68  1  0
  1 69  1  0
  3 70  1  0
  4 71  1  1
  5 72  1  0
  5 73  1  0
  6 74  1  0
  6 75  1  0
  7 76  1  0
  7 77  1  0
  8 78  1  0
  8 79  1  0
 10 80  1  1
 11 81  1  0
 12 82  1  0
 13 83  1  0
 17 84  1  1
 18 85  1  0
 18 86  1  0
 19 87  1  0
 19 88  1  0
 20 89  1  6
 21 90  1  0
 21 91  1  0
 22 92  1  6
 24 93  1  0
 25 94  1  0
 25 95  1  0
 26 96  1  0
 26 97  1  0
 27 98  1  0
 27 99  1  0
 28100  1  0
 28101  1  0
 29102  1  0
 29103  1  0
 30104  1  6
 31105  1  0
 31106  1  0
 32107  1  6
 33108  1  0
 34109  1  0
 35110  1  1
 37111  1  6
 39112  1  0
 40113  1  0
 40114  1  0
 41115  1  1
 42116  1  0
 43117  1  0
 44118  1  0
 44119  1  0
 45120  1  6
 46121  1  6
 47122  1  0
 47123  1  0
 48124  1  1
 49125  1  0
 49126  1  0
 50127  1  1
 52128  1  1
 54129  1  0
 54130  1  0
 55131  1  0
 55132  1  0
 56133  1  0
 56134  1  0
 56135  1  0
 57136  1  0
 57137  1  0
 57138  1  0
 58139  1  0
 58140  1  0
 58141  1  0
 59142  1  0
 59143  1  0
 59144  1  0
 60145  1  0
 60146  1  0
 60147  1  0
 61148  1  0
 61149  1  0
 61150  1  0
 62151  1  0
 62152  1  0
 62153  1  0
 63154  1  0
 63155  1  0
 63156  1  0
 64157  1  0
 64158  1  0
 64159  1  0
 65160  1  0
 65161  1  0
 65162  1  0
M  END
>  <PDBID>  (1) 
1FKB

>  <PDB ID>  (1) 
1FKB

>  <Generic Name>  (1) 
Sirolimus

>  <Brand Name>  (1) 
Gd-sirolimus#Rapamune#Rapamune Oral Solution#Sirolimus

>  <DrugBank ID>  (1) 
DB00877

>  <ATC Codes>  (1) 
S01XA23#L04AA10

>  <Ligand ID>  (1) 
RAP

>  <Target Name>  (1) 
Peptidyl-prolyl cis-trans isomerase FKBP1A

>  <UniProt ID>  (1) 
P62942

>  <PDB ID.1>  (1) 
1FKB

>  <Seq. Identity>  (1) 
100%

$$$$
