PDB_DB08895_06
     RDKit          3D

114118  0  0  0  0  0  0  0  0999 V2000
   -0.0404   -1.1324   -0.2317 C   0  0  1  0  0  0  0  0  0  0  0  0
    0.7830   -0.0128    0.3424 C   0  0  0  0  0  0  0  0  0  0  0  0
    2.2601   -0.7525   -1.3994 C   0  0  0  0  0  0  0  0  0  0  0  0
    2.2727   -1.9851   -0.5358 C   0  0  0  0  0  0  0  0  0  0  0  0
    0.8925   -2.3533   -0.0080 C   0  0  1  0  0  0  0  0  0  0  0  0
    1.8380    0.3568   -0.6056 N   0  0  0  0  0  0  0  0  0  0  0  0
    2.2781    2.0324    0.8878 O   0  0  0  0  0  0  0  0  0  0  0  0
    2.8577    1.0026    0.1544 C   0  0  0  0  0  0  0  0  0  0  0  0
    3.9762    1.5825   -0.6454 C   0  0  0  0  0  0  0  0  0  0  0  0
    4.9116    2.3013    0.3065 C   0  0  0  0  0  0  0  0  0  0  0  0
    5.4776    1.3065    1.1978 N   0  0  0  0  0  0  0  0  0  0  0  0
    1.0745   -2.6568    1.4490 C   0  0  0  0  0  0  0  0  0  0  0  0
   -1.2892   -1.3495    0.3039 N   0  0  0  0  0  0  0  0  0  0  0  0
   -1.6497   -2.6188    0.8477 C   0  0  0  0  0  0  0  0  0  0  0  0
   -2.1874   -0.3335    0.6301 C   0  0  0  0  0  0  0  0  0  0  0  0
   -2.8576    0.4292   -0.4439 C   0  0  0  0  0  0  0  0  0  0  0  0
   -2.0709    1.4440   -1.1835 C   0  0  0  0  0  0  0  0  0  0  0  0
   -3.1915    2.3614   -1.7056 C   0  0  0  0  0  0  0  0  0  0  0  0
   -4.2025    2.3662   -0.6609 N   0  0  0  0  0  0  0  0  0  0  0  0
   -3.8711    1.3394    0.2756 C   0  0  0  0  0  0  0  0  0  0  0  0
   -4.9660    0.5593    0.7332 N   0  0  0  0  0  0  0  0  0  0  0  0
   -4.5277   -0.7945    0.9586 C   0  0  0  0  0  0  0  0  0  0  0  0
   -3.2031   -0.8799    1.5084 N   0  0  0  0  0  0  0  0  0  0  0  0
   -0.0404   -1.1324   -0.2317 C   0  0  1  0  0  0  0  0  0  0  0  0
    0.7830   -0.0128    0.3424 C   0  0  0  0  0  0  0  0  0  0  0  0
    2.2601   -0.7525   -1.3994 C   0  0  0  0  0  0  0  0  0  0  0  0
    2.2727   -1.9851   -0.5358 C   0  0  0  0  0  0  0  0  0  0  0  0
    0.8925   -2.3533   -0.0080 C   0  0  1  0  0  0  0  0  0  0  0  0
    1.8380    0.3568   -0.6056 N   0  0  0  0  0  0  0  0  0  0  0  0
    2.2781    2.0324    0.8878 O   0  0  0  0  0  0  0  0  0  0  0  0
    2.8577    1.0026    0.1544 C   0  0  0  0  0  0  0  0  0  0  0  0
    3.9762    1.5825   -0.6454 C   0  0  0  0  0  0  0  0  0  0  0  0
    4.9116    2.3013    0.3065 C   0  0  0  0  0  0  0  0  0  0  0  0
    5.4776    1.3065    1.1978 N   0  0  0  0  0  0  0  0  0  0  0  0
    1.0745   -2.6568    1.4490 C   0  0  0  0  0  0  0  0  0  0  0  0
   -1.2892   -1.3495    0.3039 N   0  0  0  0  0  0  0  0  0  0  0  0
   -1.6497   -2.6188    0.8477 C   0  0  0  0  0  0  0  0  0  0  0  0
   -2.1874   -0.3335    0.6301 C   0  0  0  0  0  0  0  0  0  0  0  0
   -2.8576    0.4292   -0.4439 C   0  0  0  0  0  0  0  0  0  0  0  0
   -2.0709    1.4440   -1.1835 C   0  0  0  0  0  0  0  0  0  0  0  0
   -3.1915    2.3614   -1.7056 C   0  0  0  0  0  0  0  0  0  0  0  0
   -4.2025    2.3662   -0.6609 N   0  0  0  0  0  0  0  0  0  0  0  0
   -3.8711    1.3394    0.2756 C   0  0  0  0  0  0  0  0  0  0  0  0
   -4.9660    0.5593    0.7332 N   0  0  0  0  0  0  0  0  0  0  0  0
   -4.5277   -0.7945    0.9586 C   0  0  0  0  0  0  0  0  0  0  0  0
   -3.2031   -0.8799    1.5084 N   0  0  0  0  0  0  0  0  0  0  0  0
   -0.0836   -1.0025   -1.3193 H   0  0  0  0  0  0  0  0  0  0  0  0
    1.2595   -0.3043    1.2878 H   0  0  0  0  0  0  0  0  0  0  0  0
    0.2149    0.9068    0.5362 H   0  0  0  0  0  0  0  0  0  0  0  0
    1.6730   -0.8911   -2.3373 H   0  0  0  0  0  0  0  0  0  0  0  0
    3.3078   -0.6093   -1.7423 H   0  0  0  0  0  0  0  0  0  0  0  0
    2.7381   -2.7913   -1.1054 H   0  0  0  0  0  0  0  0  0  0  0  0
    2.9901   -1.7515    0.3034 H   0  0  0  0  0  0  0  0  0  0  0  0
    0.5712   -3.2218   -0.6080 H   0  0  0  0  0  0  0  0  0  0  0  0
    1.9727    2.7256    0.2275 H   0  0  0  0  0  0  0  0  0  0  0  0
    3.2916    0.2467    0.8548 H   0  0  0  0  0  0  0  0  0  0  0  0
    4.6397    0.7684   -1.0858 H   0  0  0  0  0  0  0  0  0  0  0  0
    3.6644    2.2764   -1.4260 H   0  0  0  0  0  0  0  0  0  0  0  0
    5.7369    2.7655   -0.2524 H   0  0  0  0  0  0  0  0  0  0  0  0
    4.3518    3.0498    0.9184 H   0  0  0  0  0  0  0  0  0  0  0  0
    5.3964    0.3352    0.8147 H   0  0  0  0  0  0  0  0  0  0  0  0
    6.5272    1.4722    1.3155 H   0  0  0  0  0  0  0  0  0  0  0  0
    2.1610   -2.6709    1.7686 H   0  0  0  0  0  0  0  0  0  0  0  0
    0.5944   -1.9759    2.1496 H   0  0  0  0  0  0  0  0  0  0  0  0
    0.7276   -3.6890    1.7420 H   0  0  0  0  0  0  0  0  0  0  0  0
   -2.7517   -2.7430    0.5821 H   0  0  0  0  0  0  0  0  0  0  0  0
   -1.1893   -3.4956    0.3651 H   0  0  0  0  0  0  0  0  0  0  0  0
   -1.6416   -2.7084    1.9416 H   0  0  0  0  0  0  0  0  0  0  0  0
   -1.6921    0.4766    1.2880 H   0  0  0  0  0  0  0  0  0  0  0  0
   -3.3824   -0.2037   -1.1938 H   0  0  0  0  0  0  0  0  0  0  0  0
   -1.4828    1.0423   -2.0275 H   0  0  0  0  0  0  0  0  0  0  0  0
   -1.5065    2.0580   -0.4691 H   0  0  0  0  0  0  0  0  0  0  0  0
   -2.8055    3.3760   -1.9107 H   0  0  0  0  0  0  0  0  0  0  0  0
   -3.6280    1.8553   -2.5847 H   0  0  0  0  0  0  0  0  0  0  0  0
   -4.0936    3.2889   -0.1636 H   0  0  0  0  0  0  0  0  0  0  0  0
   -3.3424    1.7473    1.1799 H   0  0  0  0  0  0  0  0  0  0  0  0
   -5.7320    0.5684    0.0389 H   0  0  0  0  0  0  0  0  0  0  0  0
   -4.6366   -1.3342   -0.0032 H   0  0  0  0  0  0  0  0  0  0  0  0
   -5.1955   -1.3196    1.6795 H   0  0  0  0  0  0  0  0  0  0  0  0
   -3.2194   -0.4596    2.4630 H   0  0  0  0  0  0  0  0  0  0  0  0
   -0.0836   -1.0025   -1.3193 H   0  0  0  0  0  0  0  0  0  0  0  0
    1.2595   -0.3043    1.2878 H   0  0  0  0  0  0  0  0  0  0  0  0
    0.2149    0.9068    0.5362 H   0  0  0  0  0  0  0  0  0  0  0  0
    1.6730   -0.8911   -2.3373 H   0  0  0  0  0  0  0  0  0  0  0  0
    3.3078   -0.6093   -1.7423 H   0  0  0  0  0  0  0  0  0  0  0  0
    2.7381   -2.7913   -1.1054 H   0  0  0  0  0  0  0  0  0  0  0  0
    2.9901   -1.7515    0.3034 H   0  0  0  0  0  0  0  0  0  0  0  0
    0.5712   -3.2218   -0.6080 H   0  0  0  0  0  0  0  0  0  0  0  0
    1.9727    2.7256    0.2275 H   0  0  0  0  0  0  0  0  0  0  0  0
    3.2916    0.2467    0.8548 H   0  0  0  0  0  0  0  0  0  0  0  0
    4.6397    0.7684   -1.0858 H   0  0  0  0  0  0  0  0  0  0  0  0
    3.6644    2.2764   -1.4260 H   0  0  0  0  0  0  0  0  0  0  0  0
    5.7369    2.7655   -0.2524 H   0  0  0  0  0  0  0  0  0  0  0  0
    4.3518    3.0498    0.9184 H   0  0  0  0  0  0  0  0  0  0  0  0
    5.3964    0.3352    0.8147 H   0  0  0  0  0  0  0  0  0  0  0  0
    6.5272    1.4722    1.3155 H   0  0  0  0  0  0  0  0  0  0  0  0
    2.1610   -2.6709    1.7686 H   0  0  0  0  0  0  0  0  0  0  0  0
    0.5944   -1.9759    2.1496 H   0  0  0  0  0  0  0  0  0  0  0  0
    0.7276   -3.6890    1.7420 H   0  0  0  0  0  0  0  0  0  0  0  0
   -2.7517   -2.7430    0.5821 H   0  0  0  0  0  0  0  0  0  0  0  0
   -1.1893   -3.4956    0.3651 H   0  0  0  0  0  0  0  0  0  0  0  0
   -1.6416   -2.7084    1.9416 H   0  0  0  0  0  0  0  0  0  0  0  0
   -1.6921    0.4766    1.2880 H   0  0  0  0  0  0  0  0  0  0  0  0
   -3.3824   -0.2037   -1.1938 H   0  0  0  0  0  0  0  0  0  0  0  0
   -1.4828    1.0423   -2.0275 H   0  0  0  0  0  0  0  0  0  0  0  0
   -1.5065    2.0580   -0.4691 H   0  0  0  0  0  0  0  0  0  0  0  0
   -2.8055    3.3760   -1.9107 H   0  0  0  0  0  0  0  0  0  0  0  0
   -3.6280    1.8553   -2.5847 H   0  0  0  0  0  0  0  0  0  0  0  0
   -4.0936    3.2889   -0.1636 H   0  0  0  0  0  0  0  0  0  0  0  0
   -3.3424    1.7473    1.1799 H   0  0  0  0  0  0  0  0  0  0  0  0
   -5.7320    0.5684    0.0389 H   0  0  0  0  0  0  0  0  0  0  0  0
   -4.6366   -1.3342   -0.0032 H   0  0  0  0  0  0  0  0  0  0  0  0
   -5.1955   -1.3196    1.6795 H   0  0  0  0  0  0  0  0  0  0  0  0
   -3.2194   -0.4596    2.4630 H   0  0  0  0  0  0  0  0  0  0  0  0
  1  2  1  0
  3  4  1  0
  1  5  1  0
  4  5  1  0
  2  6  1  0
  3  6  1  0
  6  8  1  0
  7  8  1  0
  8  9  1  0
  9 10  1  0
 10 11  1  0
  5 12  1  0
  1 13  1  0
 13 14  1  0
 13 15  1  0
 15 16  1  0
 16 17  1  0
 17 18  1  0
 18 19  1  0
 16 20  1  0
 19 20  1  0
 20 21  1  0
 21 22  1  0
 15 23  1  0
 22 23  1  0
 24 25  1  0
 26 27  1  0
 24 28  1  0
 27 28  1  0
 25 29  1  0
 26 29  1  0
 29 31  1  0
 30 31  1  0
 31 32  1  0
 32 33  1  0
 33 34  1  0
 28 35  1  0
 24 36  1  0
 36 37  1  0
 36 38  1  0
 38 39  1  0
 39 40  1  0
 40 41  1  0
 41 42  1  0
 39 43  1  0
 42 43  1  0
 43 44  1  0
 44 45  1  0
 38 46  1  0
 45 46  1  0
  1 47  1  6
  2 48  1  0
  2 49  1  0
  3 50  1  0
  3 51  1  0
  4 52  1  0
  4 53  1  0
  5 54  1  6
  7 55  1  0
  8 56  1  0
  9 57  1  0
  9 58  1  0
 10 59  1  0
 10 60  1  0
 11 61  1  0
 11 62  1  0
 12 63  1  0
 12 64  1  0
 12 65  1  0
 14 66  1  0
 14 67  1  0
 14 68  1  0
 15 69  1  0
 16 70  1  0
 17 71  1  0
 17 72  1  0
 18 73  1  0
 18 74  1  0
 19 75  1  0
 20 76  1  0
 21 77  1  0
 22 78  1  0
 22 79  1  0
 23 80  1  0
 24 81  1  6
 25 82  1  0
 25 83  1  0
 26 84  1  0
 26 85  1  0
 27 86  1  0
 27 87  1  0
 28 88  1  6
 30 89  1  0
 31 90  1  0
 32 91  1  0
 32 92  1  0
 33 93  1  0
 33 94  1  0
 34 95  1  0
 34 96  1  0
 35 97  1  0
 35 98  1  0
 35 99  1  0
 37100  1  0
 37101  1  0
 37102  1  0
 38103  1  0
 39104  1  0
 40105  1  0
 40106  1  0
 41107  1  0
 41108  1  0
 42109  1  0
 43110  1  0
 44111  1  0
 45112  1  0
 45113  1  0
 46114  1  0
M  END
>  <PDBID>  (1) 
3FUP

>  <PDB ID>  (1) 
3FUP

>  <Generic Name>  (1) 
Tofacitinib

>  <Brand Name>  (1) 
Xeljanz#Xeljanz XR

>  <DrugBank ID>  (1) 
DB08895

>  <ATC Codes>  (1) 
L04AA29

>  <Ligand ID>  (1) 
MI1

>  <Target Name>  (1) 
Tyrosine-protein kinase JAK2

>  <UniProt ID>  (1) 
O60674

>  <PDB ID.1>  (1) 
3FUP

>  <Seq. Identity>  (1) 
100%

$$$$
