PDB_DB00220_04
     RDKit          3D

101104  0  0  0  0  0  0  0  0999 V2000
    3.0775    1.1682   -2.7853 C   0  0  2  0  0  0  0  0  0  0  0  0
    4.1026    0.0973   -2.4970 C   0  0  1  0  0  0  0  0  0  0  0  0
    5.4470    0.6610   -2.0833 C   0  0  0  0  0  0  0  0  0  0  0  0
    5.8966    1.8170   -2.9243 C   0  0  0  0  0  0  0  0  0  0  0  0
    4.8079    2.8345   -3.1533 C   0  0  0  0  0  0  0  0  0  0  0  0
    3.5958    2.1665   -3.7660 C   0  0  0  0  0  0  0  0  0  0  0  0
    2.0106    0.7921   -0.7120 N   0  0  0  0  0  0  0  0  0  0  0  0
    2.5655   -0.4839   -0.5518 C   0  0  1  0  0  0  0  0  0  0  0  0
    3.6324   -0.8990   -1.5083 C   0  0  0  0  0  0  0  0  0  0  0  0
    2.7485    1.7734   -1.4336 C   0  0  0  0  0  0  0  0  0  0  0  0
    3.0808   -0.6255    0.8965 C   0  0  1  0  0  0  0  0  0  0  0  0
    3.4081   -1.9994    1.0734 N   0  0  0  0  0  0  0  0  0  0  0  0
    4.1143   -2.2771    2.3054 C   0  0  0  0  0  0  0  0  0  0  0  0
    5.4504   -1.5432    2.3036 C   0  0  0  0  0  0  0  0  0  0  0  0
    3.3196   -1.9594    3.5261 C   0  0  0  0  0  0  0  0  0  0  0  0
    4.4215   -3.7666    2.3107 C   0  0  0  0  0  0  0  0  0  0  0  0
    4.0470    0.2835    1.2103 O   0  0  0  0  0  0  0  0  0  0  0  0
    0.6515    0.7920   -1.1889 C   0  0  0  0  0  0  0  0  0  0  0  0
   -0.3458    0.2562   -0.1973 C   0  0  2  0  0  0  0  0  0  0  0  0
   -1.7225    0.1709   -0.8172 C   0  0  1  0  0  0  0  0  0  0  0  0
   -0.3694    0.9836    0.9953 O   0  0  0  0  0  0  0  0  0  0  0  0
   -2.7017   -0.4793    0.0101 N   0  0  0  0  0  0  0  0  0  0  0  0
   -2.2073    1.5510   -1.2450 C   0  0  0  0  0  0  0  0  0  0  0  0
   -2.3785   -1.8430    0.2640 C   0  0  0  0  0  0  0  0  0  0  0  0
   -2.3680   -2.6086   -0.9043 O   0  0  0  0  0  0  0  0  0  0  0  0
   -3.4015   -2.5134    1.1721 C   0  0  0  0  0  0  0  0  0  0  0  0
   -4.7763   -2.5450    0.6259 C   0  0  0  0  0  0  0  0  0  0  0  0
   -5.0180   -3.7132   -0.3157 C   0  0  0  0  0  0  0  0  0  0  0  0
   -4.7420   -4.9770    0.4660 C   0  0  0  0  0  0  0  0  0  0  0  0
   -3.2681   -4.9893    0.8104 C   0  0  1  0  0  0  0  0  0  0  0  0
   -2.8760   -3.8318    1.6743 C   0  0  2  0  0  0  0  0  0  0  0  0
   -3.0232   -6.1574    1.5334 O   0  0  0  0  0  0  0  0  0  0  0  0
   -3.2020   -4.0113    3.1330 C   0  0  0  0  0  0  0  0  0  0  0  0
   -2.2912    2.6774    0.1419 S   0  0  0  0  0  0  0  0  0  0  0  0
   -2.8643    4.3306   -0.3228 C   0  0  0  0  0  0  0  0  0  0  0  0
   -4.2847    4.2408   -0.7525 C   0  0  0  0  0  0  0  0  0  0  0  0
   -5.1085    5.4730   -0.5542 C   0  0  0  0  0  0  0  0  0  0  0  0
   -4.8118    6.2314    0.7076 C   0  0  0  0  0  0  0  0  0  0  0  0
   -3.3110    6.5541    0.6533 C   0  0  0  0  0  0  0  0  0  0  0  0
   -2.6238    5.2203    0.8769 C   0  0  0  0  0  0  0  0  0  0  0  0
    2.5511   -2.5948    1.0323 H   0  0  0  0  0  0  0  0  0  0  0  0
   -1.0628    0.5504    1.5726 H   0  0  0  0  0  0  0  0  0  0  0  0
   -3.6288   -0.3786   -0.4329 H   0  0  0  0  0  0  0  0  0  0  0  0
   -3.6738   -6.8692    1.3584 H   0  0  0  0  0  0  0  0  0  0  0  0
    2.2060    0.6457   -3.2291 H   0  0  0  0  0  0  0  0  0  0  0  0
    4.3021   -0.3807   -3.5034 H   0  0  0  0  0  0  0  0  0  0  0  0
    5.5338    0.8802   -1.0230 H   0  0  0  0  0  0  0  0  0  0  0  0
    6.1870   -0.1716   -2.2821 H   0  0  0  0  0  0  0  0  0  0  0  0
    6.2549    1.4664   -3.9105 H   0  0  0  0  0  0  0  0  0  0  0  0
    6.7304    2.3218   -2.3914 H   0  0  0  0  0  0  0  0  0  0  0  0
    4.5403    3.3957   -2.2575 H   0  0  0  0  0  0  0  0  0  0  0  0
    5.1844    3.5715   -3.8920 H   0  0  0  0  0  0  0  0  0  0  0  0
    2.8223    2.9163   -3.9998 H   0  0  0  0  0  0  0  0  0  0  0  0
    3.9425    1.6106   -4.6614 H   0  0  0  0  0  0  0  0  0  0  0  0
    1.7661   -1.2484   -0.6228 H   0  0  0  0  0  0  0  0  0  0  0  0
    4.5278   -1.2402   -0.9179 H   0  0  0  0  0  0  0  0  0  0  0  0
    3.3508   -1.8348   -2.0792 H   0  0  0  0  0  0  0  0  0  0  0  0
    3.6857    2.0953   -0.9427 H   0  0  0  0  0  0  0  0  0  0  0  0
    2.1140    2.6772   -1.5532 H   0  0  0  0  0  0  0  0  0  0  0  0
    2.2047   -0.4148    1.5837 H   0  0  0  0  0  0  0  0  0  0  0  0
    5.3871   -0.6197    2.9319 H   0  0  0  0  0  0  0  0  0  0  0  0
    6.2184   -2.1865    2.7772 H   0  0  0  0  0  0  0  0  0  0  0  0
    5.8048   -1.3144    1.2915 H   0  0  0  0  0  0  0  0  0  0  0  0
    4.0459   -1.5569    4.2898 H   0  0  0  0  0  0  0  0  0  0  0  0
    2.9157   -2.8933    3.9790 H   0  0  0  0  0  0  0  0  0  0  0  0
    2.5547   -1.1933    3.4147 H   0  0  0  0  0  0  0  0  0  0  0  0
    4.9899   -4.0066    3.2382 H   0  0  0  0  0  0  0  0  0  0  0  0
    3.4658   -4.3505    2.3323 H   0  0  0  0  0  0  0  0  0  0  0  0
    4.9837   -4.0589    1.4007 H   0  0  0  0  0  0  0  0  0  0  0  0
    3.6342    1.1569    1.4296 H   0  0  0  0  0  0  0  0  0  0  0  0
    0.3362    1.8236   -1.5076 H   0  0  0  0  0  0  0  0  0  0  0  0
    0.5689    0.1663   -2.1256 H   0  0  0  0  0  0  0  0  0  0  0  0
   -0.0188   -0.7637    0.0800 H   0  0  0  0  0  0  0  0  0  0  0  0
   -1.6208   -0.4157   -1.7555 H   0  0  0  0  0  0  0  0  0  0  0  0
   -3.2357    1.4266   -1.6960 H   0  0  0  0  0  0  0  0  0  0  0  0
   -1.5687    1.8870   -2.0740 H   0  0  0  0  0  0  0  0  0  0  0  0
   -1.3751   -1.9957    0.7316 H   0  0  0  0  0  0  0  0  0  0  0  0
   -2.6622   -2.1459   -1.7033 H   0  0  0  0  0  0  0  0  0  0  0  0
   -3.4433   -1.8525    2.0965 H   0  0  0  0  0  0  0  0  0  0  0  0
   -5.0532   -1.5904    0.1945 H   0  0  0  0  0  0  0  0  0  0  0  0
   -5.4678   -2.7324    1.4961 H   0  0  0  0  0  0  0  0  0  0  0  0
   -4.4421   -3.6646   -1.2433 H   0  0  0  0  0  0  0  0  0  0  0  0
   -6.0969   -3.6801   -0.6215 H   0  0  0  0  0  0  0  0  0  0  0  0
   -5.3490   -4.9731    1.3906 H   0  0  0  0  0  0  0  0  0  0  0  0
   -4.9275   -5.8714   -0.1654 H   0  0  0  0  0  0  0  0  0  0  0  0
   -2.6738   -5.0484   -0.1084 H   0  0  0  0  0  0  0  0  0  0  0  0
   -1.7510   -3.7469    1.6174 H   0  0  0  0  0  0  0  0  0  0  0  0
   -2.4527   -4.6395    3.6748 H   0  0  0  0  0  0  0  0  0  0  0  0
   -4.1719   -4.5025    3.2540 H   0  0  0  0  0  0  0  0  0  0  0  0
   -3.1661   -3.0137    3.6373 H   0  0  0  0  0  0  0  0  0  0  0  0
   -2.2096    4.7303   -1.1508 H   0  0  0  0  0  0  0  0  0  0  0  0
   -4.7878    3.3558   -0.2982 H   0  0  0  0  0  0  0  0  0  0  0  0
   -4.2939    4.0205   -1.8621 H   0  0  0  0  0  0  0  0  0  0  0  0
   -6.1797    5.1579   -0.4898 H   0  0  0  0  0  0  0  0  0  0  0  0
   -5.0668    6.1852   -1.4044 H   0  0  0  0  0  0  0  0  0  0  0  0
   -4.9973    5.6193    1.6141 H   0  0  0  0  0  0  0  0  0  0  0  0
   -5.3582    7.1740    0.6978 H   0  0  0  0  0  0  0  0  0  0  0  0
   -3.0555    6.8691   -0.3872 H   0  0  0  0  0  0  0  0  0  0  0  0
   -3.0268    7.3102    1.3936 H   0  0  0  0  0  0  0  0  0  0  0  0
   -3.1225    4.7551    1.7752 H   0  0  0  0  0  0  0  0  0  0  0  0
   -1.5506    5.3296    1.0283 H   0  0  0  0  0  0  0  0  0  0  0  0
  1  2  1  0
  2  3  1  0
  3  4  1  0
  4  5  1  0
  1  6  1  0
  5  6  1  0
  7  8  1  0
  2  9  1  0
  8  9  1  0
  1 10  1  0
  7 10  1  0
  8 11  1  0
 11 12  1  0
 13 12  1  0
 13 14  1  0
 13 15  1  0
 13 16  1  0
 11 17  1  0
  7 18  1  0
 18 19  1  0
 19 20  1  0
 19 21  1  0
 20 22  1  0
 20 23  1  0
 22 24  1  0
 24 25  1  0
 24 26  1  0
 26 27  1  0
 27 28  1  0
 28 29  1  0
 29 30  1  0
 26 31  1  0
 30 31  1  0
 30 32  1  0
 31 33  1  0
 23 34  1  0
 34 35  1  0
 35 36  1  0
 36 37  1  0
 37 38  1  0
 38 39  1  0
 35 40  1  0
 39 40  1  0
 12 41  1  0
 21 42  1  0
 22 43  1  0
 32 44  1  0
  1 45  1  6
  2 46  1  6
  3 47  1  0
  3 48  1  0
  4 49  1  0
  4 50  1  0
  5 51  1  0
  5 52  1  0
  6 53  1  0
  6 54  1  0
  8 55  1  1
  9 56  1  0
  9 57  1  0
 10 58  1  0
 10 59  1  0
 11 60  1  1
 14 61  1  0
 14 62  1  0
 14 63  1  0
 15 64  1  0
 15 65  1  0
 15 66  1  0
 16 67  1  0
 16 68  1  0
 16 69  1  0
 17 70  1  0
 18 71  1  0
 18 72  1  0
 19 73  1  1
 20 74  1  6
 23 75  1  0
 23 76  1  0
 24 77  1  0
 25 78  1  0
 26 79  1  0
 27 80  1  0
 27 81  1  0
 28 82  1  0
 28 83  1  0
 29 84  1  0
 29 85  1  0
 30 86  1  6
 31 87  1  1
 33 88  1  0
 33 89  1  0
 33 90  1  0
 35 91  1  0
 36 92  1  0
 36 93  1  0
 37 94  1  0
 37 95  1  0
 38 96  1  0
 38 97  1  0
 39 98  1  0
 39 99  1  0
 40100  1  0
 40101  1  0
M  END
>  <PDBID>  (1) 
1OHR

>  <PDB ID>  (1) 
1OHR

>  <Generic Name>  (1) 
Nelfinavir

>  <Brand Name>  (1) 
Viracept#Viracept -250mg#Viracept -50mg

>  <DrugBank ID>  (1) 
DB00220

>  <ATC Codes>  (1) 
J05AE04

>  <Ligand ID>  (1) 
1UN

>  <Target Name>  (1) 
HIV-1 protease

>  <UniProt ID>  (1) 
O90777

>  <PDB ID.1>  (1) 
1OHR

>  <Seq. Identity>  (1) 
93%

$$$$
