PDB_DB08881_07
     RDKit          3D

 75 78  0  0  0  0  0  0  0  0999 V2000
   -6.8166    2.0561   -1.6115 C   0  0  0  0  0  0  0  0  0  0  0  0
   -2.0455   -2.6965    0.7600 C   0  0  0  0  0  0  0  0  0  0  0  0
    0.2802   -2.0322    1.3633 C   0  0  0  0  0  0  0  0  0  0  0  0
    2.0273   -1.3675   -0.3160 C   0  0  0  0  0  0  0  0  0  0  0  0
    3.4554   -0.8627   -0.3007 C   0  0  0  0  0  0  0  0  0  0  0  0
    4.3074   -1.9406    0.3357 C   0  0  0  0  0  0  0  0  0  0  0  0
    2.5648   -1.5653    2.0456 C   0  0  0  0  0  0  0  0  0  0  0  0
   -3.1028    1.2596   -0.0121 C   0  0  0  0  0  0  0  0  0  0  0  0
   -3.1583    1.4066    1.4726 C   0  0  0  0  0  0  0  0  0  0  0  0
   -3.4082    0.1354    2.0869 N   0  0  0  0  0  0  0  0  0  0  0  0
   -2.5079   -0.0790   -0.3558 C   0  0  0  0  0  0  0  0  0  0  0  0
   -2.6212   -2.1151    1.9333 N   0  0  0  0  0  0  0  0  0  0  0  0
   -0.8758   -1.7989    0.4132 C   0  0  0  0  0  0  0  0  0  0  0  0
   -1.4892   -0.4262    0.7038 C   0  0  0  0  0  0  0  0  0  0  0  0
   -2.2498   -0.7220    1.9767 C   0  0  0  0  0  0  0  0  0  0  0  0
   -4.4634    1.4624   -0.6343 C   0  0  0  0  0  0  0  0  0  0  0  0
    1.4598   -1.1654    1.0575 C   0  0  0  0  0  0  0  0  0  0  0  0
    3.4763   -2.6126    1.4183 C   0  0  0  0  0  0  0  0  0  0  0  0
    2.0317   -2.0506    3.2164 F   0  0  0  0  0  0  0  0  0  0  0  0
    1.2712   -0.6637   -1.2361 F   0  0  0  0  0  0  0  0  0  0  0  0
    3.9010   -0.5604   -1.6598 N   0  0  0  0  0  0  0  0  0  0  0  0
    5.5709    0.0043   -1.3990 S   0  0  0  0  0  0  0  0  0  0  0  0
    5.8494    0.3423   -3.2172 O   0  0  0  0  0  0  0  0  0  0  0  0
    6.5140   -0.7499   -0.9340 O   0  0  0  0  0  0  0  0  0  0  0  0
    5.2968    1.6474   -0.9461 C   0  0  0  0  0  0  0  0  0  0  0  0
    6.6390    2.3085   -0.6774 C   0  0  0  0  0  0  0  0  0  0  0  0
    6.4317    3.7408   -0.2807 C   0  0  0  0  0  0  0  0  0  0  0  0
   -5.4924    0.4935   -0.1557 C   0  0  0  0  0  0  0  0  0  0  0  0
   -6.8526    0.9946   -0.5608 C   0  0  0  0  0  0  0  0  0  0  0  0
   -5.7790    1.8404   -2.6618 C   0  0  0  0  0  0  0  0  0  0  0  0
   -4.4330    1.4644   -2.1252 C   0  0  0  0  0  0  0  0  0  0  0  0
   -8.4201    2.0442   -2.4262 Cl  0  0  0  0  0  0  0  0  0  0  0  0
    0.6110   -3.3828    1.4484 O   0  0  0  0  0  0  0  0  0  0  0  0
   -6.7126    3.0921   -1.1874 H   0  0  0  0  0  0  0  0  0  0  0  0
   -1.7240   -3.7368    0.9698 H   0  0  0  0  0  0  0  0  0  0  0  0
   -2.7310   -2.7483   -0.1028 H   0  0  0  0  0  0  0  0  0  0  0  0
   -0.0828   -1.7417    2.3789 H   0  0  0  0  0  0  0  0  0  0  0  0
    2.0596   -2.4272   -0.6270 H   0  0  0  0  0  0  0  0  0  0  0  0
    3.5661    0.0400    0.3406 H   0  0  0  0  0  0  0  0  0  0  0  0
    4.5639   -2.7091   -0.4024 H   0  0  0  0  0  0  0  0  0  0  0  0
    5.1998   -1.4994    0.8469 H   0  0  0  0  0  0  0  0  0  0  0  0
    3.2145   -0.6902    2.2665 H   0  0  0  0  0  0  0  0  0  0  0  0
   -2.4329    2.0342   -0.4577 H   0  0  0  0  0  0  0  0  0  0  0  0
   -3.8678    2.1921    1.7991 H   0  0  0  0  0  0  0  0  0  0  0  0
   -2.1505    1.7483    1.8216 H   0  0  0  0  0  0  0  0  0  0  0  0
   -3.6145    0.3270    3.1072 H   0  0  0  0  0  0  0  0  0  0  0  0
   -1.9971   -0.0507   -1.3543 H   0  0  0  0  0  0  0  0  0  0  0  0
   -3.3264   -0.8140   -0.3721 H   0  0  0  0  0  0  0  0  0  0  0  0
   -3.6486   -2.1738    1.8953 H   0  0  0  0  0  0  0  0  0  0  0  0
   -0.5953   -1.8570   -0.6428 H   0  0  0  0  0  0  0  0  0  0  0  0
   -0.7483    0.3616    0.7960 H   0  0  0  0  0  0  0  0  0  0  0  0
   -1.6188   -0.4990    2.8865 H   0  0  0  0  0  0  0  0  0  0  0  0
   -4.7994    2.4857   -0.3098 H   0  0  0  0  0  0  0  0  0  0  0  0
    1.1976   -0.1143    1.1714 H   0  0  0  0  0  0  0  0  0  0  0  0
    4.1562   -2.9512    2.2237 H   0  0  0  0  0  0  0  0  0  0  0  0
    2.9050   -3.4734    1.0131 H   0  0  0  0  0  0  0  0  0  0  0  0
    4.0464   -1.4363   -2.1864 H   0  0  0  0  0  0  0  0  0  0  0  0
    5.8039   -0.6066   -3.4739 H   0  0  0  0  0  0  0  0  0  0  0  0
    7.2700   -1.3445   -1.1971 H   0  0  0  0  0  0  0  0  0  0  0  0
    4.7796    2.2281   -1.7517 H   0  0  0  0  0  0  0  0  0  0  0  0
    4.6636    1.7116   -0.0607 H   0  0  0  0  0  0  0  0  0  0  0  0
    7.1537    1.7506    0.1268 H   0  0  0  0  0  0  0  0  0  0  0  0
    7.2141    2.2592   -1.6241 H   0  0  0  0  0  0  0  0  0  0  0  0
    7.4151    4.1327    0.0636 H   0  0  0  0  0  0  0  0  0  0  0  0
    6.0166    4.3159   -1.1123 H   0  0  0  0  0  0  0  0  0  0  0  0
    5.7369    3.7937    0.5936 H   0  0  0  0  0  0  0  0  0  0  0  0
   -5.3267   -0.4665   -0.7242 H   0  0  0  0  0  0  0  0  0  0  0  0
   -5.4761    0.2874    0.9190 H   0  0  0  0  0  0  0  0  0  0  0  0
   -7.5449    0.1527   -0.8332 H   0  0  0  0  0  0  0  0  0  0  0  0
   -7.3207    1.4534    0.3523 H   0  0  0  0  0  0  0  0  0  0  0  0
   -5.6721    2.8087   -3.2237 H   0  0  0  0  0  0  0  0  0  0  0  0
   -6.1696    1.1114   -3.4023 H   0  0  0  0  0  0  0  0  0  0  0  0
   -4.2282    0.4133   -2.4847 H   0  0  0  0  0  0  0  0  0  0  0  0
   -3.6288    2.0947   -2.5500 H   0  0  0  0  0  0  0  0  0  0  0  0
    0.4822   -3.8632    0.5968 H   0  0  0  0  0  0  0  0  0  0  0  0
  4  5  1  0
  5  6  1  0
  8  9  1  0
  9 10  1  0
  8 11  1  0
  2 12  1  0
  2 13  1  0
  3 13  1  0
 11 14  1  0
 13 14  1  0
 10 15  1  0
 12 15  1  0
 14 15  1  0
  8 16  1  0
  3 17  1  0
  4 17  1  0
  7 17  1  0
  6 18  1  0
  7 18  1  0
  7 19  1  0
  4 20  1  0
  5 21  1  0
 21 22  1  0
 22 23  1  0
 22 24  1  0
 22 25  1  0
 25 26  1  0
 26 27  1  0
 16 28  1  0
  1 29  1  0
 28 29  1  0
  1 30  1  0
 16 31  1  0
 30 31  1  0
  1 32  1  0
  3 33  1  0
  1 34  1  0
  2 35  1  0
  2 36  1  0
  3 37  1  0
  4 38  1  0
  5 39  1  0
  6 40  1  0
  6 41  1  0
  7 42  1  0
  8 43  1  0
  9 44  1  0
  9 45  1  0
 10 46  1  0
 11 47  1  0
 11 48  1  0
 12 49  1  0
 13 50  1  0
 14 51  1  0
 15 52  1  0
 16 53  1  0
 17 54  1  0
 18 55  1  0
 18 56  1  0
 21 57  1  0
 23 58  1  0
 24 59  1  0
 25 60  1  0
 25 61  1  0
 26 62  1  0
 26 63  1  0
 27 64  1  0
 27 65  1  0
 27 66  1  0
 28 67  1  0
 28 68  1  0
 29 69  1  0
 29 70  1  0
 30 71  1  0
 30 72  1  0
 31 73  1  0
 31 74  1  0
 33 75  1  0
M  END
>  <PDBID>  (1) 
3OG7

>  <PDB ID>  (1) 
3OG7

>  <Generic Name>  (1) 
Vemurafenib

>  <Brand Name>  (1) 
Zelboraf

>  <DrugBank ID>  (1) 
DB08881

>  <ATC Codes>  (1) 
L01XE15

>  <Ligand ID>  (1) 
32

>  <Target Name>  (1) 
Serine/threonine-protein kinase B-raf

>  <UniProt ID>  (1) 
P15056

>  <PDB ID.1>  (1) 
3OG7

>  <Seq. Identity>  (1) 
94%

$$$$
