PDB_DB09053_01
     RDKit          3D

 81 85  0  0  0  0  0  0  0  0999 V2000
   -1.6495    3.6364    1.9679 N   0  0  0  0  0  0  0  0  0  0  0  0
   -2.8987    3.6961    1.2551 C   0  0  0  0  0  0  0  0  0  0  0  0
   -3.2576    2.4376    0.6265 N   0  0  0  0  0  0  0  0  0  0  0  0
   -2.1683    2.0906   -0.2523 C   0  0  0  0  0  0  0  0  0  0  0  0
   -0.9553    1.8228    0.6215 C   0  0  0  0  0  0  0  0  0  0  0  0
   -0.5529    3.1769    1.0899 C   0  0  1  0  0  0  0  0  0  0  0  0
   -8.8167   -2.4028   -0.3573 C   0  0  0  0  0  0  0  0  0  0  0  0
   -0.4345    4.0771   -0.0480 N   0  0  0  0  0  0  0  0  0  0  0  0
   -6.0520   -2.9186   -0.8227 O   0  0  0  0  0  0  0  0  0  0  0  0
   -7.6686   -1.6288    0.2947 C   0  0  0  0  0  0  0  0  0  0  0  0
    8.9256   -1.3741   -0.0133 C   0  0  0  0  0  0  0  0  0  0  0  0
    8.5607    0.0822   -0.1036 C   0  0  0  0  0  0  0  0  0  0  0  0
    7.8684   -2.0498    0.8143 C   0  0  0  0  0  0  0  0  0  0  0  0
    7.1486    0.3762    0.3632 C   0  0  0  0  0  0  0  0  0  0  0  0
    6.5703   -1.9932    0.0290 C   0  0  0  0  0  0  0  0  0  0  0  0
    3.1837    1.1695    0.0510 C   0  0  0  0  0  0  0  0  0  0  0  0
    2.8661   -1.1781   -0.6217 C   0  0  0  0  0  0  0  0  0  0  0  0
    2.0463    0.7434    0.9610 C   0  0  0  0  0  0  0  0  0  0  0  0
    1.5190   -0.5960   -1.0046 C   0  0  0  0  0  0  0  0  0  0  0  0
   -3.5869   -1.9803    1.0698 C   0  0  0  0  0  0  0  0  0  0  0  0
   -2.6702   -1.3785    0.0154 C   0  0  0  0  0  0  0  0  0  0  0  0
   -4.8794   -1.2044    1.2014 C   0  0  0  0  0  0  0  0  0  0  0  0
   -4.5334   -0.1707   -0.9671 C   0  0  0  0  0  0  0  0  0  0  0  0
   -1.0471    0.3520   -1.1537 N   0  0  0  0  0  0  0  0  0  0  0  0
    4.9208   -0.3838    0.3251 O   0  0  0  0  0  0  0  0  0  0  0  0
   -6.4582   -1.6006   -0.5963 C   0  0  0  0  0  0  0  0  0  0  0  0
    6.1448   -0.5539   -0.2571 C   0  0  0  0  0  0  0  0  0  0  0  0
    3.8885   -0.0470   -0.5079 C   0  0  0  0  0  0  0  0  0  0  0  0
    0.9337    0.1990    0.1460 C   0  0  0  0  0  0  0  0  0  0  0  0
   -0.0964    1.1299   -0.3611 C   0  0  0  0  0  0  0  0  0  0  0  0
   -3.2022   -0.0087   -0.2704 C   0  0  2  0  0  0  0  0  0  0  0  0
   -2.3261    0.8791   -0.9557 N   0  0  0  0  0  0  0  0  0  0  0  0
   -5.4405   -0.7932   -0.0317 N   0  0  0  0  0  0  0  0  0  0  0  0
   -1.6886    2.9626    2.7648 H   0  0  0  0  0  0  0  0  0  0  0  0
   -2.8534    4.4759    0.4875 H   0  0  0  0  0  0  0  0  0  0  0  0
   -3.6689    3.9814    2.0018 H   0  0  0  0  0  0  0  0  0  0  0  0
   -4.1392    2.6154    0.0959 H   0  0  0  0  0  0  0  0  0  0  0  0
   -1.8941    2.9621   -0.9062 H   0  0  0  0  0  0  0  0  0  0  0  0
   -1.2132    1.1641    1.4781 H   0  0  0  0  0  0  0  0  0  0  0  0
    0.3377    3.2686    1.6923 H   0  0  0  0  0  0  0  0  0  0  0  0
   -9.0940   -1.9907   -1.3365 H   0  0  0  0  0  0  0  0  0  0  0  0
   -8.5426   -3.4792   -0.4639 H   0  0  0  0  0  0  0  0  0  0  0  0
   -9.6840   -2.2992    0.3169 H   0  0  0  0  0  0  0  0  0  0  0  0
   -0.2970    5.0515    0.3566 H   0  0  0  0  0  0  0  0  0  0  0  0
    0.4621    3.8397   -0.5228 H   0  0  0  0  0  0  0  0  0  0  0  0
   -5.4771   -2.9687   -1.6118 H   0  0  0  0  0  0  0  0  0  0  0  0
   -7.5133   -2.1007    1.2739 H   0  0  0  0  0  0  0  0  0  0  0  0
   -8.0483   -0.6015    0.5122 H   0  0  0  0  0  0  0  0  0  0  0  0
    8.8704   -1.8294   -1.0407 H   0  0  0  0  0  0  0  0  0  0  0  0
    9.9162   -1.5716    0.4323 H   0  0  0  0  0  0  0  0  0  0  0  0
    9.2481    0.6394    0.5604 H   0  0  0  0  0  0  0  0  0  0  0  0
    8.7245    0.4769   -1.1363 H   0  0  0  0  0  0  0  0  0  0  0  0
    7.7417   -1.6109    1.8207 H   0  0  0  0  0  0  0  0  0  0  0  0
    8.0662   -3.1420    0.9825 H   0  0  0  0  0  0  0  0  0  0  0  0
    7.0843    0.2841    1.4602 H   0  0  0  0  0  0  0  0  0  0  0  0
    6.9530    1.4344    0.1045 H   0  0  0  0  0  0  0  0  0  0  0  0
    5.8148   -2.5259    0.6732 H   0  0  0  0  0  0  0  0  0  0  0  0
    6.6593   -2.5893   -0.8875 H   0  0  0  0  0  0  0  0  0  0  0  0
    3.8379    1.8293    0.6506 H   0  0  0  0  0  0  0  0  0  0  0  0
    2.8346    1.7843   -0.8037 H   0  0  0  0  0  0  0  0  0  0  0  0
    3.1932   -1.8232   -1.4515 H   0  0  0  0  0  0  0  0  0  0  0  0
    2.7874   -1.7780    0.2834 H   0  0  0  0  0  0  0  0  0  0  0  0
    1.8046    1.4435    1.7516 H   0  0  0  0  0  0  0  0  0  0  0  0
    2.4805   -0.1568    1.5139 H   0  0  0  0  0  0  0  0  0  0  0  0
    1.5875   -0.0189   -1.9444 H   0  0  0  0  0  0  0  0  0  0  0  0
    0.8416   -1.4574   -1.1714 H   0  0  0  0  0  0  0  0  0  0  0  0
   -3.7979   -3.0529    0.8848 H   0  0  0  0  0  0  0  0  0  0  0  0
   -3.0546   -1.9085    2.0346 H   0  0  0  0  0  0  0  0  0  0  0  0
   -1.6189   -1.4646    0.2365 H   0  0  0  0  0  0  0  0  0  0  0  0
   -2.8965   -1.9846   -0.9220 H   0  0  0  0  0  0  0  0  0  0  0  0
   -4.8144   -0.3667    1.9206 H   0  0  0  0  0  0  0  0  0  0  0  0
   -5.5885   -1.9332    1.6914 H   0  0  0  0  0  0  0  0  0  0  0  0
   -4.3887   -0.7532   -1.9069 H   0  0  0  0  0  0  0  0  0  0  0  0
   -4.9801    0.8035   -1.2769 H   0  0  0  0  0  0  0  0  0  0  0  0
   -0.8539    0.4303   -2.1805 H   0  0  0  0  0  0  0  0  0  0  0  0
   -6.7655   -1.1558   -1.5741 H   0  0  0  0  0  0  0  0  0  0  0  0
    6.1224   -0.3918   -1.3741 H   0  0  0  0  0  0  0  0  0  0  0  0
    4.2845    0.0983   -1.5292 H   0  0  0  0  0  0  0  0  0  0  0  0
    0.3798   -0.5258    0.8394 H   0  0  0  0  0  0  0  0  0  0  0  0
    0.3757    1.8634   -1.0653 H   0  0  0  0  0  0  0  0  0  0  0  0
   -3.4174    0.4658    0.7487 H   0  0  0  0  0  0  0  0  0  0  0  0
  1  2  1  0
  2  3  1  0
  3  4  1  0
  4  5  1  0
  1  6  1  0
  5  6  1  0
  6  8  1  0
  7 10  1  0
 11 12  1  0
 11 13  1  0
 12 14  1  0
 13 15  1  0
 16 18  1  0
 17 19  1  0
 20 21  1  0
 20 22  1  0
  9 26  1  0
 10 26  1  0
 14 27  1  0
 15 27  1  0
 25 27  1  0
 16 28  1  0
 17 28  1  0
 25 28  1  0
 18 29  1  0
 19 29  1  0
  5 30  1  0
 24 30  1  0
 29 30  1  0
 21 31  1  0
 23 31  1  0
  4 32  1  0
 24 32  1  0
 31 32  1  0
 22 33  1  0
 23 33  1  0
 26 33  1  0
  1 34  1  0
  2 35  1  0
  2 36  1  0
  3 37  1  0
  4 38  1  0
  5 39  1  0
  6 40  1  1
  7 41  1  0
  7 42  1  0
  7 43  1  0
  8 44  1  0
  8 45  1  0
  9 46  1  0
 10 47  1  0
 10 48  1  0
 11 49  1  0
 11 50  1  0
 12 51  1  0
 12 52  1  0
 13 53  1  0
 13 54  1  0
 14 55  1  0
 14 56  1  0
 15 57  1  0
 15 58  1  0
 16 59  1  0
 16 60  1  0
 17 61  1  0
 17 62  1  0
 18 63  1  0
 18 64  1  0
 19 65  1  0
 19 66  1  0
 20 67  1  0
 20 68  1  0
 21 69  1  0
 21 70  1  0
 22 71  1  0
 22 72  1  0
 23 73  1  0
 23 74  1  0
 24 75  1  0
 26 76  1  0
 27 77  1  0
 28 78  1  0
 29 79  1  0
 30 80  1  0
 31 81  1  1
M  END
>  <PDBID>  (1) 
5P9I

>  <PDB ID>  (1) 
5P9I

>  <Generic Name>  (1) 
Ibrutinib

>  <Brand Name>  (1) 
Imbruvica

>  <DrugBank ID>  (1) 
DB09053

>  <ATC Codes>  (1) 
L01XE27

>  <Ligand ID>  (1) 
100000000

>  <Target Name>  (1) 
Tyrosine-protein kinase BTK

>  <UniProt ID>  (1) 
Q06187

>  <PDB ID.1>  (1) 
5P9I

>  <Seq. Identity>  (1) 
100%

$$$$
