PDB_DB01254_05
     RDKit          3D

154160  0  0  0  0  0  0  0  0999 V2000
    1.9865   -1.3593   -0.4975 C   0  0  0  0  0  0  0  0  0  0  0  0
    2.7967   -0.3630   -1.2580 C   0  0  0  0  0  0  0  0  0  0  0  0
    4.0026    0.1020   -0.5247 C   0  0  0  0  0  0  0  0  0  0  0  0
   -7.1431    0.8481    0.1708 N   0  0  0  0  0  0  0  0  0  0  0  0
    8.7161    0.6540   -0.4952 C   0  0  0  0  0  0  0  0  0  0  0  0
    7.8005    1.5718    0.2772 C   0  0  0  0  0  0  0  0  0  0  0  0
    6.4910    0.8777    0.6435 C   0  0  0  0  0  0  0  0  0  0  0  0
    6.5507    0.5215    2.0905 C   0  0  0  0  0  0  0  0  0  0  0  0
   -1.1995    0.5381   -0.9324 C   0  0  0  0  0  0  0  0  0  0  0  0
   -2.6872    0.7847   -0.7675 C   0  0  0  0  0  0  0  0  0  0  0  0
   -3.1373   -0.1567    0.3331 C   0  0  0  0  0  0  0  0  0  0  0  0
   -1.9584   -1.7617   -1.0741 C   0  0  0  0  0  0  0  0  0  0  0  0
   -2.6453   -2.0211   -2.4010 C   0  0  0  0  0  0  0  0  0  0  0  0
   -4.9573    1.2256    1.1501 C   0  0  0  0  0  0  0  0  0  0  0  0
   -5.4346   -0.8058   -0.0588 C   0  0  0  0  0  0  0  0  0  0  0  0
   -8.3981    0.1475    0.3791 C   0  0  0  0  0  0  0  0  0  0  0  0
   -9.4355    1.0293    1.0366 C   0  0  0  0  0  0  0  0  0  0  0  0
   -0.5712    0.8750    0.3190 N   0  0  0  0  0  0  0  0  0  0  0  0
    0.8334    0.5427    0.3633 C   0  0  1  0  0  0  0  0  0  0  0  0
    1.1708   -0.8087    0.4717 N   0  0  0  0  0  0  0  0  0  0  0  0
    1.6186    1.0462   -1.2397 S   0  0  0  0  0  0  0  0  0  0  0  0
    4.9664   -0.8757   -0.1629 N   0  0  0  0  0  0  0  0  0  0  0  0
    6.2983   -0.2852   -0.2759 C   0  0  2  0  0  0  0  0  0  0  0  0
    7.3421   -1.3242   -0.0055 C   0  0  0  0  0  0  0  0  0  0  0  0
    8.7181   -0.7329    0.1093 C   0  0  0  0  0  0  0  0  0  0  0  0
    7.3523   -2.4646   -1.3792 Cl  0  0  0  0  0  0  0  0  0  0  0  0
    3.5919    0.7424    0.6437 O   0  0  0  0  0  0  0  0  0  0  0  0
   -2.8105   -1.5243    0.0244 N   0  0  0  0  0  0  0  0  0  0  0  0
   -0.9322   -0.7875   -1.2983 N   0  0  0  0  0  0  0  0  0  0  0  0
   -4.5103   -0.0172    0.6611 N   0  0  0  0  0  0  0  0  0  0  0  0
   -6.4587    1.1487    1.3841 C   0  0  0  0  0  0  0  0  0  0  0  0
   -6.3787    0.1252   -0.7953 C   0  0  0  0  0  0  0  0  0  0  0  0
   -9.0477    1.5015    2.2802 O   0  0  0  0  0  0  0  0  0  0  0  0
    2.6141    0.6890   -0.1302 C   0  0  0  0  0  0  0  0  0  0  0  0
    3.0112   -0.4560   -0.9302 C   0  0  0  0  0  0  0  0  0  0  0  0
    4.0601   -1.4093   -0.6339 C   0  0  0  0  0  0  0  0  0  0  0  0
   -7.0207    0.5758    0.3438 N   0  0  0  0  0  0  0  0  0  0  0  0
    8.3576    0.8241   -0.5894 C   0  0  0  0  0  0  0  0  0  0  0  0
    7.1489    1.5698   -0.1365 C   0  0  0  0  0  0  0  0  0  0  0  0
    6.2443    0.7687    0.7966 C   0  0  0  0  0  0  0  0  0  0  0  0
    6.7505    0.9394    2.2493 C   0  0  0  0  0  0  0  0  0  0  0  0
   -1.2383    1.0211   -1.1526 C   0  0  0  0  0  0  0  0  0  0  0  0
   -2.3016    1.1085   -0.1213 C   0  0  0  0  0  0  0  0  0  0  0  0
   -2.9467   -0.1988    0.1829 C   0  0  2  0  0  0  0  0  0  0  0  0
   -2.1110   -1.1132   -1.9282 C   0  0  0  0  0  0  0  0  0  0  0  0
   -3.0722   -1.4598   -3.0735 C   0  0  0  0  0  0  0  0  0  0  0  0
   -4.8307    0.6695    1.4907 C   0  0  0  0  0  0  0  0  0  0  0  0
   -5.2488   -0.9646   -0.1799 C   0  0  0  0  0  0  0  0  0  0  0  0
   -8.4195    0.2031    0.4120 C   0  0  0  0  0  0  0  0  0  0  0  0
   -9.2841    1.1001    1.2125 C   0  0  0  0  0  0  0  0  0  0  0  0
    0.0525    0.9776   -0.5563 N   0  0  0  0  0  0  0  0  0  0  0  0
    0.4915   -0.1436    0.1593 C   0  0  2  0  0  0  0  0  0  0  0  0
    1.6930    0.2378    0.9117 N   0  0  0  0  0  0  0  0  0  0  0  0
    1.3599   -1.3543   -0.9495 S   0  0  0  0  0  0  0  0  0  0  0  0
    5.4018   -1.2557   -0.4680 N   0  0  0  0  0  0  0  0  0  0  0  0
    6.1814   -0.6721    0.4999 C   0  0  0  0  0  0  0  0  0  0  0  0
    7.5886   -1.2918    0.3829 C   0  0  0  0  0  0  0  0  0  0  0  0
    8.6888   -0.2979    0.3308 C   0  0  0  0  0  0  0  0  0  0  0  0
    7.6992   -2.3241   -1.0746 Cl  0  0  0  0  0  0  0  0  0  0  0  0
    3.5823   -2.2847    0.4478 O   0  0  0  0  0  0  0  0  0  0  0  0
   -2.6843   -1.2934   -0.6620 N   0  0  0  0  0  0  0  0  0  0  0  0
   -1.4585    0.1020   -2.2228 N   0  0  0  0  0  0  0  0  0  0  0  0
   -4.3358   -0.0798    0.4217 N   0  0  0  0  0  0  0  0  0  0  0  0
   -6.3314    0.4512    1.5725 C   0  0  0  0  0  0  0  0  0  0  0  0
   -6.4491   -0.2072   -0.7312 C   0  0  0  0  0  0  0  0  0  0  0  0
   -8.9674    1.2279    2.5432 O   0  0  0  0  0  0  0  0  0  0  0  0
    2.7418   -2.0201    0.0180 H   0  0  0  0  0  0  0  0  0  0  0  0
    1.4796   -2.1003   -1.1896 H   0  0  0  0  0  0  0  0  0  0  0  0
    2.9909   -0.6834   -2.2987 H   0  0  0  0  0  0  0  0  0  0  0  0
    4.5070    0.8516   -1.2123 H   0  0  0  0  0  0  0  0  0  0  0  0
    8.3345    0.5897   -1.5338 H   0  0  0  0  0  0  0  0  0  0  0  0
    9.7257    1.0876   -0.4439 H   0  0  0  0  0  0  0  0  0  0  0  0
    8.2349    1.9903    1.1891 H   0  0  0  0  0  0  0  0  0  0  0  0
    7.6044    2.4457   -0.4085 H   0  0  0  0  0  0  0  0  0  0  0  0
    5.7134    1.6656    0.5085 H   0  0  0  0  0  0  0  0  0  0  0  0
    6.2873   -0.5449    2.2444 H   0  0  0  0  0  0  0  0  0  0  0  0
    7.5165    0.8026    2.5649 H   0  0  0  0  0  0  0  0  0  0  0  0
    5.7823    1.1040    2.6826 H   0  0  0  0  0  0  0  0  0  0  0  0
   -0.8777    1.2534   -1.7467 H   0  0  0  0  0  0  0  0  0  0  0  0
   -3.2535    0.7251   -1.6886 H   0  0  0  0  0  0  0  0  0  0  0  0
   -2.7448    1.8349   -0.3576 H   0  0  0  0  0  0  0  0  0  0  0  0
   -2.5363    0.1257    1.2274 H   0  0  0  0  0  0  0  0  0  0  0  0
   -1.4012   -2.7326   -0.8623 H   0  0  0  0  0  0  0  0  0  0  0  0
   -1.8903   -1.8403   -3.2084 H   0  0  0  0  0  0  0  0  0  0  0  0
   -3.5668   -1.4616   -2.5587 H   0  0  0  0  0  0  0  0  0  0  0  0
   -2.9206   -3.1044   -2.5211 H   0  0  0  0  0  0  0  0  0  0  0  0
   -4.7531    2.0908    0.4933 H   0  0  0  0  0  0  0  0  0  0  0  0
   -4.5254    1.3815    2.1769 H   0  0  0  0  0  0  0  0  0  0  0  0
   -5.0112   -1.5993   -0.6651 H   0  0  0  0  0  0  0  0  0  0  0  0
   -6.0846   -1.3235    0.7095 H   0  0  0  0  0  0  0  0  0  0  0  0
   -8.2527   -0.7743    0.9787 H   0  0  0  0  0  0  0  0  0  0  0  0
   -8.7735   -0.1457   -0.6122 H   0  0  0  0  0  0  0  0  0  0  0  0
  -10.3442    0.3859    1.2355 H   0  0  0  0  0  0  0  0  0  0  0  0
   -9.7119    1.8215    0.3274 H   0  0  0  0  0  0  0  0  0  0  0  0
   -0.6197    1.9210    0.4241 H   0  0  0  0  0  0  0  0  0  0  0  0
    1.3680    1.1344    1.1337 H   0  0  0  0  0  0  0  0  0  0  0  0
    0.3867   -1.3961    0.7403 H   0  0  0  0  0  0  0  0  0  0  0  0
    4.9554   -1.7482   -0.7018 H   0  0  0  0  0  0  0  0  0  0  0  0
    6.3623    0.0752   -1.3187 H   0  0  0  0  0  0  0  0  0  0  0  0
    7.0874   -1.9384    0.8879 H   0  0  0  0  0  0  0  0  0  0  0  0
    9.0855   -0.7004    1.1719 H   0  0  0  0  0  0  0  0  0  0  0  0
    9.4646   -1.3371   -0.4415 H   0  0  0  0  0  0  0  0  0  0  0  0
    3.5042    0.0376    1.3302 H   0  0  0  0  0  0  0  0  0  0  0  0
   -2.5445   -2.0316    0.8999 H   0  0  0  0  0  0  0  0  0  0  0  0
   -0.6053   -0.8502   -2.3065 H   0  0  0  0  0  0  0  0  0  0  0  0
   -6.8395    2.0625    1.8885 H   0  0  0  0  0  0  0  0  0  0  0  0
   -6.6076    0.3072    2.1230 H   0  0  0  0  0  0  0  0  0  0  0  0
   -5.8756    0.7954   -1.5119 H   0  0  0  0  0  0  0  0  0  0  0  0
   -7.0461   -0.5442   -1.4028 H   0  0  0  0  0  0  0  0  0  0  0  0
   -8.8766    0.7277    2.8636 H   0  0  0  0  0  0  0  0  0  0  0  0
    1.9105    1.3212   -0.8128 H   0  0  0  0  0  0  0  0  0  0  0  0
    3.3256    1.4091    0.2313 H   0  0  0  0  0  0  0  0  0  0  0  0
    3.0592   -0.1459   -2.0611 H   0  0  0  0  0  0  0  0  0  0  0  0
    3.9474   -2.2127   -1.4969 H   0  0  0  0  0  0  0  0  0  0  0  0
    8.1998    0.4498   -1.6207 H   0  0  0  0  0  0  0  0  0  0  0  0
    9.2115    1.5526   -0.6126 H   0  0  0  0  0  0  0  0  0  0  0  0
    7.4404    2.4710    0.4535 H   0  0  0  0  0  0  0  0  0  0  0  0
    6.5811    1.9270   -1.0194 H   0  0  0  0  0  0  0  0  0  0  0  0
    5.2936    1.2593    0.7821 H   0  0  0  0  0  0  0  0  0  0  0  0
    7.0110   -0.0463    2.6924 H   0  0  0  0  0  0  0  0  0  0  0  0
    7.5654    1.6805    2.2806 H   0  0  0  0  0  0  0  0  0  0  0  0
    5.9301    1.3493    2.9048 H   0  0  0  0  0  0  0  0  0  0  0  0
   -1.2504    2.0572   -1.6721 H   0  0  0  0  0  0  0  0  0  0  0  0
   -3.0617    1.8500   -0.5156 H   0  0  0  0  0  0  0  0  0  0  0  0
   -1.8623    1.5359    0.8251 H   0  0  0  0  0  0  0  0  0  0  0  0
   -2.5129   -0.5110    1.2121 H   0  0  0  0  0  0  0  0  0  0  0  0
   -1.3208   -1.9325   -2.0208 H   0  0  0  0  0  0  0  0  0  0  0  0
   -2.5475   -1.4713   -4.0469 H   0  0  0  0  0  0  0  0  0  0  0  0
   -3.9498   -0.7897   -3.0264 H   0  0  0  0  0  0  0  0  0  0  0  0
   -3.4757   -2.5086   -2.9532 H   0  0  0  0  0  0  0  0  0  0  0  0
   -4.6645    1.7630    1.4405 H   0  0  0  0  0  0  0  0  0  0  0  0
   -4.4210    0.2630    2.4402 H   0  0  0  0  0  0  0  0  0  0  0  0
   -4.8445   -1.7133   -0.8763 H   0  0  0  0  0  0  0  0  0  0  0  0
   -5.6971   -1.5940    0.6577 H   0  0  0  0  0  0  0  0  0  0  0  0
   -8.5271   -0.8707    0.7570 H   0  0  0  0  0  0  0  0  0  0  0  0
   -8.7789    0.1980   -0.6514 H   0  0  0  0  0  0  0  0  0  0  0  0
  -10.3272    0.6508    1.1802 H   0  0  0  0  0  0  0  0  0  0  0  0
   -9.3836    2.0769    0.6882 H   0  0  0  0  0  0  0  0  0  0  0  0
    0.2222    1.8226    0.0692 H   0  0  0  0  0  0  0  0  0  0  0  0
   -0.2149   -0.6733    0.7977 H   0  0  0  0  0  0  0  0  0  0  0  0
    2.0625   -0.5669    1.4500 H   0  0  0  0  0  0  0  0  0  0  0  0
    5.9421   -1.3275   -1.4275 H   0  0  0  0  0  0  0  0  0  0  0  0
    5.8214   -1.1398    1.5255 H   0  0  0  0  0  0  0  0  0  0  0  0
    7.7800   -2.0004    1.2353 H   0  0  0  0  0  0  0  0  0  0  0  0
    9.0098    0.0466    1.3409 H   0  0  0  0  0  0  0  0  0  0  0  0
    9.5741   -0.8183   -0.1262 H   0  0  0  0  0  0  0  0  0  0  0  0
    2.6712   -2.5769    0.2128 H   0  0  0  0  0  0  0  0  0  0  0  0
   -2.4893   -2.1823   -0.1597 H   0  0  0  0  0  0  0  0  0  0  0  0
   -1.8968    0.5493   -3.0587 H   0  0  0  0  0  0  0  0  0  0  0  0
   -6.6975    1.2996    2.2361 H   0  0  0  0  0  0  0  0  0  0  0  0
   -6.5130   -0.5031    2.0975 H   0  0  0  0  0  0  0  0  0  0  0  0
   -6.1933    0.4185   -1.6157 H   0  0  0  0  0  0  0  0  0  0  0  0
   -7.1430   -1.0056   -1.1003 H   0  0  0  0  0  0  0  0  0  0  0  0
   -9.0116    0.3142    2.9458 H   0  0  0  0  0  0  0  0  0  0  0  0
  1  2  1  0
  2  3  1  0
  5  6  1  0
  6  7  1  0
  7  8  1  0
  9 10  1  0
 10 11  1  0
 12 13  1  0
  4 16  1  0
 16 17  1  0
  9 18  1  0
 18 19  1  0
  1 20  1  0
 19 20  1  0
  2 21  1  0
 19 21  1  0
  3 22  1  0
  7 23  1  0
 22 23  1  0
 23 24  1  0
  5 25  1  0
 24 25  1  0
 24 26  1  0
  3 27  1  0
 11 28  1  0
 12 28  1  0
  9 29  1  0
 12 29  1  0
 11 30  1  0
 14 30  1  0
 15 30  1  0
  4 31  1  0
 14 31  1  0
  4 32  1  0
 15 32  1  0
 17 33  1  0
 34 35  1  0
 35 36  1  0
 38 39  1  0
 39 40  1  0
 40 41  1  0
 42 43  1  0
 43 44  1  0
 45 46  1  0
 37 49  1  0
 49 50  1  0
 42 51  1  0
 51 52  1  0
 34 53  1  0
 52 53  1  0
 35 54  1  0
 52 54  1  0
 36 55  1  0
 40 56  1  0
 55 56  1  0
 56 57  1  0
 38 58  1  0
 57 58  1  0
 57 59  1  0
 36 60  1  0
 44 61  1  0
 45 61  1  0
 42 62  1  0
 45 62  1  0
 44 63  1  0
 47 63  1  0
 48 63  1  0
 37 64  1  0
 47 64  1  0
 37 65  1  0
 48 65  1  0
 50 66  1  0
  1 67  1  0
  1 68  1  0
  2 69  1  0
  3 70  1  0
  5 71  1  0
  5 72  1  0
  6 73  1  0
  6 74  1  0
  7 75  1  0
  8 76  1  0
  8 77  1  0
  8 78  1  0
  9 79  1  0
 10 80  1  0
 10 81  1  0
 11 82  1  0
 12 83  1  0
 13 84  1  0
 13 85  1  0
 13 86  1  0
 14 87  1  0
 14 88  1  0
 15 89  1  0
 15 90  1  0
 16 91  1  0
 16 92  1  0
 17 93  1  0
 17 94  1  0
 18 95  1  0
 19 96  1  1
 20 97  1  0
 22 98  1  0
 23 99  1  6
 24100  1  0
 25101  1  0
 25102  1  0
 27103  1  0
 28104  1  0
 29105  1  0
 31106  1  0
 31107  1  0
 32108  1  0
 32109  1  0
 33110  1  0
 34111  1  0
 34112  1  0
 35113  1  0
 36114  1  0
 38115  1  0
 38116  1  0
 39117  1  0
 39118  1  0
 40119  1  0
 41120  1  0
 41121  1  0
 41122  1  0
 42123  1  0
 43124  1  0
 43125  1  0
 44126  1  1
 45127  1  0
 46128  1  0
 46129  1  0
 46130  1  0
 47131  1  0
 47132  1  0
 48133  1  0
 48134  1  0
 49135  1  0
 49136  1  0
 50137  1  0
 50138  1  0
 51139  1  0
 52140  1  1
 53141  1  0
 55142  1  0
 56143  1  0
 57144  1  0
 58145  1  0
 58146  1  0
 60147  1  0
 61148  1  0
 62149  1  0
 64150  1  0
 64151  1  0
 65152  1  0
 65153  1  0
 66154  1  0
M  END
>  <PDBID>  (1) 
2GQG

>  <PDB ID>  (1) 
2GQG

>  <Generic Name>  (1) 
Dasatinib

>  <Brand Name>  (1) 
Sprycel

>  <DrugBank ID>  (1) 
DB01254

>  <ATC Codes>  (1) 
L01XE06

>  <Ligand ID>  (1) 
1N1

>  <Target Name>  (1) 
Tyrosine-protein kinase ABL1

>  <UniProt ID>  (1) 
P00519

>  <PDB ID.1>  (1) 
2GQG

>  <Seq. Identity>  (1) 
96%

$$$$
