PDB_DB00367_02
     RDKit          3D

118124  0  0  0  0  0  0  0  0999 V2000
   -3.2347    1.0159    0.9803 C   0  0  0  0  0  0  0  0  0  0  0  0
   -4.6592    0.6268    0.7969 C   0  0  0  0  0  0  0  0  0  0  0  0
   -4.9129   -0.7816    1.2461 C   0  0  1  0  0  0  0  0  0  0  0  0
   -4.1088   -1.7562    0.4560 C   0  0  0  0  0  0  0  0  0  0  0  0
   -2.7415   -1.2794    0.0828 C   0  0  1  0  0  0  0  0  0  0  0  0
   -2.6935   -1.0378   -1.3873 C   0  0  0  0  0  0  0  0  0  0  0  0
   -1.4656   -0.2953   -1.8477 C   0  0  0  0  0  0  0  0  0  0  0  0
   -0.4189   -0.4213   -0.7718 C   0  0  2  0  0  0  0  0  0  0  0  0
   -0.9552    0.3837    0.4137 C   0  0  1  0  0  0  0  0  0  0  0  0
   -2.2611   -0.1171    0.9109 C   0  0  1  0  0  0  0  0  0  0  0  0
    0.0596    0.4989    1.5214 C   0  0  0  0  0  0  0  0  0  0  0  0
    1.4021    0.9551    1.0610 C   0  0  0  0  0  0  0  0  0  0  0  0
    1.8791    0.0725   -0.0349 C   0  0  1  0  0  0  0  0  0  0  0  0
    0.8696    0.1712   -1.1381 C   0  0  1  0  0  0  0  0  0  0  0  0
    1.5854   -0.3790   -2.3057 C   0  0  0  0  0  0  0  0  0  0  0  0
    2.8926    0.4258   -2.2039 C   0  0  0  0  0  0  0  0  0  0  0  0
    3.1398    0.4772   -0.7082 C   0  0  1  0  0  0  0  0  0  0  0  0
    2.0439   -1.3188    0.5113 C   0  0  0  0  0  0  0  0  0  0  0  0
    3.0303   -1.3421    1.6222 C   0  0  0  0  0  0  0  0  0  0  0  0
    3.6327    1.8502   -0.3171 C   0  0  0  0  0  0  0  0  0  0  0  0
    4.9266    2.0784   -1.1090 C   0  0  0  0  0  0  0  0  0  0  0  0
   -4.6810   -0.8844    2.5981 O   0  0  0  0  0  0  0  0  0  0  0  0
    4.1703   -0.4536   -0.4743 O   0  0  0  0  0  0  0  0  0  0  0  0
   -3.2347    1.0159    0.9803 C   0  0  0  0  0  0  0  0  0  0  0  0
   -4.6592    0.6268    0.7969 C   0  0  0  0  0  0  0  0  0  0  0  0
   -4.9129   -0.7816    1.2461 C   0  0  1  0  0  0  0  0  0  0  0  0
   -4.1088   -1.7562    0.4560 C   0  0  0  0  0  0  0  0  0  0  0  0
   -2.7415   -1.2794    0.0828 C   0  0  1  0  0  0  0  0  0  0  0  0
   -2.6935   -1.0378   -1.3873 C   0  0  0  0  0  0  0  0  0  0  0  0
   -1.4656   -0.2953   -1.8477 C   0  0  0  0  0  0  0  0  0  0  0  0
   -0.4189   -0.4213   -0.7718 C   0  0  2  0  0  0  0  0  0  0  0  0
   -0.9552    0.3837    0.4137 C   0  0  1  0  0  0  0  0  0  0  0  0
   -2.2611   -0.1171    0.9109 C   0  0  1  0  0  0  0  0  0  0  0  0
    0.0596    0.4989    1.5214 C   0  0  0  0  0  0  0  0  0  0  0  0
    1.4021    0.9551    1.0610 C   0  0  0  0  0  0  0  0  0  0  0  0
    1.8791    0.0725   -0.0349 C   0  0  1  0  0  0  0  0  0  0  0  0
    0.8696    0.1712   -1.1381 C   0  0  1  0  0  0  0  0  0  0  0  0
    1.5854   -0.3790   -2.3057 C   0  0  0  0  0  0  0  0  0  0  0  0
    2.8926    0.4258   -2.2039 C   0  0  0  0  0  0  0  0  0  0  0  0
    3.1398    0.4772   -0.7082 C   0  0  1  0  0  0  0  0  0  0  0  0
    2.0439   -1.3188    0.5113 C   0  0  0  0  0  0  0  0  0  0  0  0
    3.0303   -1.3421    1.6222 C   0  0  0  0  0  0  0  0  0  0  0  0
    3.6327    1.8502   -0.3171 C   0  0  0  0  0  0  0  0  0  0  0  0
    4.9266    2.0784   -1.1090 C   0  0  0  0  0  0  0  0  0  0  0  0
   -4.6810   -0.8844    2.5981 O   0  0  0  0  0  0  0  0  0  0  0  0
    4.1703   -0.4536   -0.4743 O   0  0  0  0  0  0  0  0  0  0  0  0
   -3.0932    1.6022    1.9221 H   0  0  0  0  0  0  0  0  0  0  0  0
   -2.9708    1.7357    0.1586 H   0  0  0  0  0  0  0  0  0  0  0  0
   -5.0411    0.8230   -0.2362 H   0  0  0  0  0  0  0  0  0  0  0  0
   -5.2807    1.2948    1.4586 H   0  0  0  0  0  0  0  0  0  0  0  0
   -6.0138   -0.9735    1.0896 H   0  0  0  0  0  0  0  0  0  0  0  0
   -4.0967   -2.7211    1.0356 H   0  0  0  0  0  0  0  0  0  0  0  0
   -4.7097   -2.0081   -0.4661 H   0  0  0  0  0  0  0  0  0  0  0  0
   -2.0419   -2.1354    0.3187 H   0  0  0  0  0  0  0  0  0  0  0  0
   -2.6624   -2.0459   -1.8952 H   0  0  0  0  0  0  0  0  0  0  0  0
   -3.6319   -0.5683   -1.7635 H   0  0  0  0  0  0  0  0  0  0  0  0
   -1.7292    0.7869   -1.9386 H   0  0  0  0  0  0  0  0  0  0  0  0
   -1.0865   -0.6968   -2.8089 H   0  0  0  0  0  0  0  0  0  0  0  0
   -0.3101   -1.4864   -0.5400 H   0  0  0  0  0  0  0  0  0  0  0  0
   -1.0619    1.4315    0.0006 H   0  0  0  0  0  0  0  0  0  0  0  0
   -2.1532   -0.5124    1.9637 H   0  0  0  0  0  0  0  0  0  0  0  0
    0.0488   -0.4234    2.1055 H   0  0  0  0  0  0  0  0  0  0  0  0
   -0.3367    1.3010    2.2097 H   0  0  0  0  0  0  0  0  0  0  0  0
    1.2787    2.0122    0.6874 H   0  0  0  0  0  0  0  0  0  0  0  0
    2.0694    1.0177    1.9268 H   0  0  0  0  0  0  0  0  0  0  0  0
    0.7146    1.2760   -1.3201 H   0  0  0  0  0  0  0  0  0  0  0  0
    1.7787   -1.4647   -2.2150 H   0  0  0  0  0  0  0  0  0  0  0  0
    1.0304   -0.1198   -3.2291 H   0  0  0  0  0  0  0  0  0  0  0  0
    3.6833   -0.0821   -2.7600 H   0  0  0  0  0  0  0  0  0  0  0  0
    2.6866    1.4235   -2.6193 H   0  0  0  0  0  0  0  0  0  0  0  0
    1.0805   -1.7302    0.9297 H   0  0  0  0  0  0  0  0  0  0  0  0
    2.3397   -2.0354   -0.2743 H   0  0  0  0  0  0  0  0  0  0  0  0
    2.6030   -1.6229    2.6058 H   0  0  0  0  0  0  0  0  0  0  0  0
    3.5665   -0.3885    1.7825 H   0  0  0  0  0  0  0  0  0  0  0  0
    3.8084   -2.1002    1.4014 H   0  0  0  0  0  0  0  0  0  0  0  0
    3.9001    1.9312    0.7347 H   0  0  0  0  0  0  0  0  0  0  0  0
    2.8935    2.6134   -0.6365 H   0  0  0  0  0  0  0  0  0  0  0  0
    5.5617    1.1550   -1.0181 H   0  0  0  0  0  0  0  0  0  0  0  0
    4.6959    2.1955   -2.1787 H   0  0  0  0  0  0  0  0  0  0  0  0
    5.5134    2.9098   -0.7034 H   0  0  0  0  0  0  0  0  0  0  0  0
   -5.2118   -0.2154    3.0670 H   0  0  0  0  0  0  0  0  0  0  0  0
    4.6788   -0.6676   -1.2772 H   0  0  0  0  0  0  0  0  0  0  0  0
   -3.0932    1.6022    1.9221 H   0  0  0  0  0  0  0  0  0  0  0  0
   -2.9708    1.7357    0.1586 H   0  0  0  0  0  0  0  0  0  0  0  0
   -5.0411    0.8230   -0.2362 H   0  0  0  0  0  0  0  0  0  0  0  0
   -5.2807    1.2948    1.4586 H   0  0  0  0  0  0  0  0  0  0  0  0
   -6.0138   -0.9735    1.0896 H   0  0  0  0  0  0  0  0  0  0  0  0
   -4.0967   -2.7211    1.0356 H   0  0  0  0  0  0  0  0  0  0  0  0
   -4.7097   -2.0081   -0.4661 H   0  0  0  0  0  0  0  0  0  0  0  0
   -2.0419   -2.1354    0.3187 H   0  0  0  0  0  0  0  0  0  0  0  0
   -2.6624   -2.0459   -1.8952 H   0  0  0  0  0  0  0  0  0  0  0  0
   -3.6319   -0.5683   -1.7635 H   0  0  0  0  0  0  0  0  0  0  0  0
   -1.7292    0.7869   -1.9386 H   0  0  0  0  0  0  0  0  0  0  0  0
   -1.0865   -0.6968   -2.8089 H   0  0  0  0  0  0  0  0  0  0  0  0
   -0.3101   -1.4864   -0.5400 H   0  0  0  0  0  0  0  0  0  0  0  0
   -1.0619    1.4315    0.0006 H   0  0  0  0  0  0  0  0  0  0  0  0
   -2.1532   -0.5124    1.9637 H   0  0  0  0  0  0  0  0  0  0  0  0
    0.0488   -0.4234    2.1055 H   0  0  0  0  0  0  0  0  0  0  0  0
   -0.3367    1.3010    2.2097 H   0  0  0  0  0  0  0  0  0  0  0  0
    1.2787    2.0122    0.6874 H   0  0  0  0  0  0  0  0  0  0  0  0
    2.0694    1.0177    1.9268 H   0  0  0  0  0  0  0  0  0  0  0  0
    0.7146    1.2760   -1.3201 H   0  0  0  0  0  0  0  0  0  0  0  0
    1.7787   -1.4647   -2.2150 H   0  0  0  0  0  0  0  0  0  0  0  0
    1.0304   -0.1198   -3.2291 H   0  0  0  0  0  0  0  0  0  0  0  0
    3.6833   -0.0821   -2.7600 H   0  0  0  0  0  0  0  0  0  0  0  0
    2.6866    1.4235   -2.6193 H   0  0  0  0  0  0  0  0  0  0  0  0
    1.0805   -1.7302    0.9297 H   0  0  0  0  0  0  0  0  0  0  0  0
    2.3397   -2.0354   -0.2743 H   0  0  0  0  0  0  0  0  0  0  0  0
    2.6030   -1.6229    2.6058 H   0  0  0  0  0  0  0  0  0  0  0  0
    3.5665   -0.3885    1.7825 H   0  0  0  0  0  0  0  0  0  0  0  0
    3.8084   -2.1002    1.4014 H   0  0  0  0  0  0  0  0  0  0  0  0
    3.9001    1.9312    0.7347 H   0  0  0  0  0  0  0  0  0  0  0  0
    2.8935    2.6134   -0.6365 H   0  0  0  0  0  0  0  0  0  0  0  0
    5.5617    1.1550   -1.0181 H   0  0  0  0  0  0  0  0  0  0  0  0
    4.6959    2.1955   -2.1787 H   0  0  0  0  0  0  0  0  0  0  0  0
    5.5134    2.9098   -0.7034 H   0  0  0  0  0  0  0  0  0  0  0  0
   -5.2118   -0.2154    3.0670 H   0  0  0  0  0  0  0  0  0  0  0  0
    4.6788   -0.6676   -1.2772 H   0  0  0  0  0  0  0  0  0  0  0  0
  1  2  1  0
  2  3  1  0
  3  4  1  0
  4  5  1  0
  5  6  1  0
  6  7  1  0
  7  8  1  0
  8  9  1  0
  1 10  1  0
  5 10  1  0
  9 10  1  0
  9 11  1  0
 11 12  1  0
 12 13  1  0
  8 14  1  0
 13 14  1  0
 14 15  1  0
 15 16  1  0
 13 17  1  0
 16 17  1  0
 13 18  1  1
 18 19  1  0
 17 20  1  0
 20 21  1  0
  3 22  1  0
 17 23  1  6
 24 25  1  0
 25 26  1  0
 26 27  1  0
 27 28  1  0
 28 29  1  0
 29 30  1  0
 30 31  1  0
 31 32  1  0
 24 33  1  0
 28 33  1  0
 32 33  1  0
 32 34  1  0
 34 35  1  0
 35 36  1  0
 31 37  1  0
 36 37  1  0
 37 38  1  0
 38 39  1  0
 36 40  1  0
 39 40  1  0
 36 41  1  1
 41 42  1  0
 40 43  1  0
 43 44  1  0
 26 45  1  0
 40 46  1  6
  1 47  1  0
  1 48  1  0
  2 49  1  0
  2 50  1  0
  3 51  1  1
  4 52  1  0
  4 53  1  0
  5 54  1  6
  6 55  1  0
  6 56  1  0
  7 57  1  0
  7 58  1  0
  8 59  1  1
  9 60  1  6
 10 61  1  1
 11 62  1  0
 11 63  1  0
 12 64  1  0
 12 65  1  0
 14 66  1  6
 15 67  1  0
 15 68  1  0
 16 69  1  0
 16 70  1  0
 18 71  1  0
 18 72  1  0
 19 73  1  0
 19 74  1  0
 19 75  1  0
 20 76  1  0
 20 77  1  0
 21 78  1  0
 21 79  1  0
 21 80  1  0
 22 81  1  0
 23 82  1  0
 24 83  1  0
 24 84  1  0
 25 85  1  0
 25 86  1  0
 26 87  1  1
 27 88  1  0
 27 89  1  0
 28 90  1  6
 29 91  1  0
 29 92  1  0
 30 93  1  0
 30 94  1  0
 31 95  1  1
 32 96  1  6
 33 97  1  1
 34 98  1  0
 34 99  1  0
 35100  1  0
 35101  1  0
 37102  1  6
 38103  1  0
 38104  1  0
 39105  1  0
 39106  1  0
 41107  1  0
 41108  1  0
 42109  1  0
 42110  1  0
 42111  1  0
 43112  1  0
 43113  1  0
 44114  1  0
 44115  1  0
 44116  1  0
 45117  1  0
 46118  1  0
M  END
>  <PDBID>  (1) 
3D90

>  <PDB ID>  (1) 
3D90

>  <Generic Name>  (1) 
Levonorgestrel

>  <Brand Name>  (1) 
Afirmelle#Aftera#Afterpill#Alesse 21#Alesse 28#Altavera#Alysena 21#Alysena 28#Amethia#Amethyst#Athentia Next#Aubra#Aviane#Aviane 21#Aviane 28#Aviane 28 Day#Ayuna#Backup Plan#Backup Plan Onestep#Camrese#Camrese Lo#Chateal#Climara Pro#Contingency#Contingency One#Daysee#Delyla#Econtra Ez#Enpresse#Esme 21#Esme 28#Falessa#Fallback Solo#Falmina#Her Style#Indayo#Introvale#Jaydess#Jolessa#Kurvelo#Kyleena#Larissia#Lessina#Levonest#Levonorgestrel#Levonorgestrel Emergency Contraceptive#Levonorgestrel Tablets, 0.75mg#Levonorgestrel and Ethinyl Estradiol#Levonorgestrel and Ethinyl Estradiol Tablets, 0.1 Mg/0.02 mg#Levonorgestrel and Ethinyl Estradiol and Ethinyl Estradiol#Levora#Liletta#Lillow#Lutera#Lutera 21#Lutera 28#Marlissa#Min-ovral 21#Min-ovral 21 Tab#Min-ovral 28#Min-ovral 28 Tab#Mirena#Morning After#My Way#Myzilra#Next Choice#Next Choice One Dose#Norlevo#Norplant System Kit 36mg/implant#Opcicon One-step#Option 2#Orsythia#Ovima 21#Ovima 28#Plan B#Plan B One-step#Portia#Portia 21#Portia 28#Preven Emergency Contraceptive#Preven Tablets#Quasense#React#Seasonale#Seasonique#Setlakin#Skyla#Sronyx#Take Action#Teva-levonorgestrel#Triphasil 21#Triphasil 21 Tab#Triphasil 28#Triphasil 28 Tab#Triquilar 21#Triquilar 28#Trivora#Vienva Tm#Jadelle#Levonelle#Medonor#Microlut#Microval#Neogest#Norgeston#Norplant#Postinor

>  <DrugBank ID>  (1) 
DB00367

>  <ATC Codes>  (1) 
G03FA11#G03FB09#G03AC03#G03AB03#G03AA07#G03AD01

>  <Ligand ID>  (1) 
NOG

>  <Target Name>  (1) 
Estrogen receptor

>  <UniProt ID>  (1) 
P03372

>  <PDB ID.1>  (1) 
3D90

>  <Seq. Identity>  (1) 
31%

$$$$
