PDB_DB00159_01
     RDKit          3D

 64 63  0  0  0  0  0  0  0  0999 V2000
   -7.9913    2.4386    0.3346 C   0  0  0  0  0  0  0  0  0  0  0  0
   -9.3410    2.1406    0.1409 O   0  0  0  0  0  0  0  0  0  0  0  0
   -7.9204    3.4086    1.3255 O   0  0  0  0  0  0  0  0  0  0  0  0
   -7.2243    1.2229    0.8153 C   0  0  0  0  0  0  0  0  0  0  0  0
   -7.3095    0.0950   -0.1925 C   0  0  0  0  0  0  0  0  0  0  0  0
   -6.5685   -1.1138    0.2595 C   0  0  0  0  0  0  0  0  0  0  0  0
   -5.1125   -0.8025    0.4825 C   0  0  0  0  0  0  0  0  0  0  0  0
   -4.4981   -0.3240   -0.7821 C   0  0  0  0  0  0  0  0  0  0  0  0
   -3.0264    0.0219   -0.6769 C   0  0  0  0  0  0  0  0  0  0  0  0
   -2.2680   -1.1831   -0.2621 C   0  0  0  0  0  0  0  0  0  0  0  0
   -0.7541   -0.9460   -0.1291 C   0  0  0  0  0  0  0  0  0  0  0  0
   -0.1949   -0.5200   -1.4207 C   0  0  0  0  0  0  0  0  0  0  0  0
    1.2219   -0.1577   -1.5242 C   0  0  0  0  0  0  0  0  0  0  0  0
    2.3225   -1.0945   -1.2378 C   0  0  0  0  0  0  0  0  0  0  0  0
    2.4869   -1.6290    0.1245 C   0  0  0  0  0  0  0  0  0  0  0  0
    3.7262   -2.5266    0.1650 C   0  0  0  0  0  0  0  0  0  0  0  0
    4.9893   -1.8268   -0.1848 C   0  0  0  0  0  0  0  0  0  0  0  0
    5.3008   -0.6644    0.7361 C   0  0  0  0  0  0  0  0  0  0  0  0
    6.6125   -0.0491    0.2588 C   0  0  0  0  0  0  0  0  0  0  0  0
    7.0119    1.1276    1.1203 C   0  0  0  0  0  0  0  0  0  0  0  0
    8.3161    1.6600    0.5651 C   0  0  0  0  0  0  0  0  0  0  0  0
    8.8430    2.8370    1.3196 C   0  0  0  0  0  0  0  0  0  0  0  0
   -7.5963    2.7960   -0.6167 H   0  0  0  0  0  0  0  0  0  0  0  0
   -9.6165    2.2369   -0.8072 H   0  0  0  0  0  0  0  0  0  0  0  0
   -8.6243    3.2910    2.0079 H   0  0  0  0  0  0  0  0  0  0  0  0
   -7.5989    0.8906    1.7928 H   0  0  0  0  0  0  0  0  0  0  0  0
   -6.1779    1.5462    0.9233 H   0  0  0  0  0  0  0  0  0  0  0  0
   -7.0476    0.4503   -1.2051 H   0  0  0  0  0  0  0  0  0  0  0  0
   -8.4195   -0.1533   -0.2886 H   0  0  0  0  0  0  0  0  0  0  0  0
   -7.0261   -1.6098    1.1399 H   0  0  0  0  0  0  0  0  0  0  0  0
   -6.6017   -1.8637   -0.5811 H   0  0  0  0  0  0  0  0  0  0  0  0
   -4.9892   -0.0448    1.2844 H   0  0  0  0  0  0  0  0  0  0  0  0
   -4.5842   -1.7399    0.8293 H   0  0  0  0  0  0  0  0  0  0  0  0
   -4.5840   -1.1319   -1.5447 H   0  0  0  0  0  0  0  0  0  0  0  0
   -5.0681    0.5359   -1.1941 H   0  0  0  0  0  0  0  0  0  0  0  0
   -2.8995    0.8684    0.0521 H   0  0  0  0  0  0  0  0  0  0  0  0
   -2.7561    0.4522   -1.6593 H   0  0  0  0  0  0  0  0  0  0  0  0
   -2.6143   -1.4705    0.7612 H   0  0  0  0  0  0  0  0  0  0  0  0
   -2.4719   -2.0517   -0.9147 H   0  0  0  0  0  0  0  0  0  0  0  0
   -0.3873   -1.9924    0.1120 H   0  0  0  0  0  0  0  0  0  0  0  0
   -0.5603   -0.2592    0.7128 H   0  0  0  0  0  0  0  0  0  0  0  0
   -0.3430   -1.4094   -2.1327 H   0  0  0  0  0  0  0  0  0  0  0  0
   -0.7745    0.3503   -1.8596 H   0  0  0  0  0  0  0  0  0  0  0  0
    1.4228    0.8640   -1.0333 H   0  0  0  0  0  0  0  0  0  0  0  0
    1.3657    0.1515   -2.6340 H   0  0  0  0  0  0  0  0  0  0  0  0
    2.1704   -1.9816   -1.9343 H   0  0  0  0  0  0  0  0  0  0  0  0
    3.3065   -0.6693   -1.6252 H   0  0  0  0  0  0  0  0  0  0  0  0
    2.5523   -0.8415    0.9133 H   0  0  0  0  0  0  0  0  0  0  0  0
    1.6744   -2.3009    0.4366 H   0  0  0  0  0  0  0  0  0  0  0  0
    3.8278   -2.9998    1.1468 H   0  0  0  0  0  0  0  0  0  0  0  0
    3.5496   -3.3227   -0.5747 H   0  0  0  0  0  0  0  0  0  0  0  0
    5.8160   -2.5946   -0.0646 H   0  0  0  0  0  0  0  0  0  0  0  0
    5.0718   -1.5145   -1.2403 H   0  0  0  0  0  0  0  0  0  0  0  0
    5.4577   -0.9750    1.7687 H   0  0  0  0  0  0  0  0  0  0  0  0
    4.5222    0.1148    0.6945 H   0  0  0  0  0  0  0  0  0  0  0  0
    6.4412    0.2489   -0.7991 H   0  0  0  0  0  0  0  0  0  0  0  0
    7.3921   -0.8494    0.2711 H   0  0  0  0  0  0  0  0  0  0  0  0
    6.1947    1.8684    1.0642 H   0  0  0  0  0  0  0  0  0  0  0  0
    7.1124    0.7637    2.1536 H   0  0  0  0  0  0  0  0  0  0  0  0
    8.1385    1.9493   -0.4820 H   0  0  0  0  0  0  0  0  0  0  0  0
    9.0339    0.8236    0.5528 H   0  0  0  0  0  0  0  0  0  0  0  0
    8.7168    2.7868    2.4056 H   0  0  0  0  0  0  0  0  0  0  0  0
    8.4028    3.7904    0.9495 H   0  0  0  0  0  0  0  0  0  0  0  0
    9.9492    2.8817    1.1285 H   0  0  0  0  0  0  0  0  0  0  0  0
  1  2  1  0
  1  3  1  0
  1  4  1  0
  4  5  1  0
  5  6  1  0
  6  7  1  0
  7  8  1  0
  8  9  1  0
  9 10  1  0
 10 11  1  0
 11 12  1  0
 12 13  1  0
 13 14  1  0
 14 15  1  0
 15 16  1  0
 16 17  1  0
 17 18  1  0
 18 19  1  0
 19 20  1  0
 20 21  1  0
 21 22  1  0
  1 23  1  0
  2 24  1  0
  3 25  1  0
  4 26  1  0
  4 27  1  0
  5 28  1  0
  5 29  1  0
  6 30  1  0
  6 31  1  0
  7 32  1  0
  7 33  1  0
  8 34  1  0
  8 35  1  0
  9 36  1  0
  9 37  1  0
 10 38  1  0
 10 39  1  0
 11 40  1  0
 11 41  1  0
 12 42  1  0
 12 43  1  0
 13 44  1  0
 13 45  1  0
 14 46  1  0
 14 47  1  0
 15 48  1  0
 15 49  1  0
 16 50  1  0
 16 51  1  0
 17 52  1  0
 17 53  1  0
 18 54  1  0
 18 55  1  0
 19 56  1  0
 19 57  1  0
 20 58  1  0
 20 59  1  0
 21 60  1  0
 21 61  1  0
 22 62  1  0
 22 63  1  0
 22 64  1  0
M  END
>  <PDBID>  (1) 
1IGX

>  <PDB ID>  (1) 
1IGX

>  <Generic Name>  (1) 
Icosapent

>  <Brand Name>  (1) 
Animi-3#Animi-3 With Vitamin D#Citranatal Assure#Folcaps Care One#Folcaps Omega-3#Gesticare DHA#Herbalifeline#Natelle One#Prenate Essential#Se-tan DHA#Ultimatecare One Nf#Virt-PN Plus#Virt-bal DHA Plus#Vp-CH-pnv

>  <DrugBank ID>  (1) 
DB00159

>  <ATC Codes>  (1) 
nan

>  <Ligand ID>  (1) 
EPA

>  <Target Name>  (1) 
Prostaglandin G/H synthase 1

>  <UniProt ID>  (1) 
P23219

>  <PDB ID.1>  (1) 
1IGX

>  <Seq. Identity>  (1) 
89%

$$$$
