PDB_DB00154_06
     RDKit          3D

 64 63  0  0  0  0  0  0  0  0999 V2000
    6.1217    2.8697    0.8431 C   0  0  0  0  0  0  0  0  0  0  0  0
    5.4678    2.9441   -0.3595 O   0  0  0  0  0  0  0  0  0  0  0  0
    5.1831    3.0436    1.8558 O   0  0  0  0  0  0  0  0  0  0  0  0
    6.9909    1.6794    1.0430 C   0  0  0  0  0  0  0  0  0  0  0  0
    6.3301    0.3542    0.9810 C   0  0  0  0  0  0  0  0  0  0  0  0
    5.6508    0.0116   -0.2997 C   0  0  0  0  0  0  0  0  0  0  0  0
    5.0283   -1.3888   -0.1992 C   0  0  0  0  0  0  0  0  0  0  0  0
    4.3564   -1.6774   -1.5248 C   0  0  0  0  0  0  0  0  0  0  0  0
    3.7325   -3.0528   -1.4581 C   0  0  0  0  0  0  0  0  0  0  0  0
    2.7006   -3.1835   -0.3721 C   0  0  0  0  0  0  0  0  0  0  0  0
    1.5821   -2.1924   -0.6032 C   0  0  0  0  0  0  0  0  0  0  0  0
    0.5742   -2.3648    0.5095 C   0  0  0  0  0  0  0  0  0  0  0  0
   -0.5971   -1.4159    0.3814 C   0  0  0  0  0  0  0  0  0  0  0  0
   -1.3401   -1.6103   -0.8948 C   0  0  0  0  0  0  0  0  0  0  0  0
   -2.5192   -0.6805   -1.0722 C   0  0  0  0  0  0  0  0  0  0  0  0
   -3.4907   -0.8951    0.0303 C   0  0  0  0  0  0  0  0  0  0  0  0
   -4.7388   -0.0100   -0.0642 C   0  0  0  0  0  0  0  0  0  0  0  0
   -4.4223    1.4246   -0.0227 C   0  0  0  0  0  0  0  0  0  0  0  0
   -5.5279    2.3697   -0.1923 C   0  0  0  0  0  0  0  0  0  0  0  0
   -6.6857    2.4528    0.6881 C   0  0  0  0  0  0  0  0  0  0  0  0
   -7.6212    1.3090    0.7683 C   0  0  0  0  0  0  0  0  0  0  0  0
   -8.7556    1.7330    1.7436 C   0  0  0  0  0  0  0  0  0  0  0  0
    6.8009    3.7706    0.8952 H   0  0  0  0  0  0  0  0  0  0  0  0
    5.2622    3.8970   -0.5463 H   0  0  0  0  0  0  0  0  0  0  0  0
    5.1675    3.9480    2.2193 H   0  0  0  0  0  0  0  0  0  0  0  0
    7.7676    1.6961    0.2258 H   0  0  0  0  0  0  0  0  0  0  0  0
    7.5721    1.7574    1.9849 H   0  0  0  0  0  0  0  0  0  0  0  0
    5.6137    0.1639    1.8059 H   0  0  0  0  0  0  0  0  0  0  0  0
    7.1418   -0.4170    1.1317 H   0  0  0  0  0  0  0  0  0  0  0  0
    4.8432    0.7293   -0.5613 H   0  0  0  0  0  0  0  0  0  0  0  0
    6.3283   -0.0243   -1.1793 H   0  0  0  0  0  0  0  0  0  0  0  0
    5.7854   -2.1334    0.0594 H   0  0  0  0  0  0  0  0  0  0  0  0
    4.2766   -1.3402    0.5903 H   0  0  0  0  0  0  0  0  0  0  0  0
    5.0766   -1.6723   -2.3631 H   0  0  0  0  0  0  0  0  0  0  0  0
    3.5662   -0.9421   -1.7458 H   0  0  0  0  0  0  0  0  0  0  0  0
    4.5455   -3.7815   -1.2660 H   0  0  0  0  0  0  0  0  0  0  0  0
    3.2952   -3.2760   -2.4507 H   0  0  0  0  0  0  0  0  0  0  0  0
    3.1760   -3.0567    0.6150 H   0  0  0  0  0  0  0  0  0  0  0  0
    2.2521   -4.1928   -0.4686 H   0  0  0  0  0  0  0  0  0  0  0  0
    1.9351   -1.1521   -0.5496 H   0  0  0  0  0  0  0  0  0  0  0  0
    1.1713   -2.3886   -1.5936 H   0  0  0  0  0  0  0  0  0  0  0  0
    1.0758   -2.2048    1.4756 H   0  0  0  0  0  0  0  0  0  0  0  0
    0.1657   -3.4083    0.5435 H   0  0  0  0  0  0  0  0  0  0  0  0
   -1.2007   -1.5554    1.2926 H   0  0  0  0  0  0  0  0  0  0  0  0
   -0.2251   -0.3627    0.4189 H   0  0  0  0  0  0  0  0  0  0  0  0
   -0.6099   -1.4197   -1.7347 H   0  0  0  0  0  0  0  0  0  0  0  0
   -1.6270   -2.6629   -0.9776 H   0  0  0  0  0  0  0  0  0  0  0  0
   -2.1908    0.3782   -1.1063 H   0  0  0  0  0  0  0  0  0  0  0  0
   -3.0421   -0.9456   -2.0311 H   0  0  0  0  0  0  0  0  0  0  0  0
   -2.9900   -0.6764    1.0159 H   0  0  0  0  0  0  0  0  0  0  0  0
   -3.8137   -1.9539    0.0319 H   0  0  0  0  0  0  0  0  0  0  0  0
   -5.2749   -0.2522    0.9126 H   0  0  0  0  0  0  0  0  0  0  0  0
   -5.3882   -0.3330   -0.8789 H   0  0  0  0  0  0  0  0  0  0  0  0
   -3.6273    1.7240   -0.7687 H   0  0  0  0  0  0  0  0  0  0  0  0
   -3.9233    1.6520    0.9821 H   0  0  0  0  0  0  0  0  0  0  0  0
   -5.0905    3.4440   -0.2786 H   0  0  0  0  0  0  0  0  0  0  0  0
   -5.9104    2.2601   -1.2738 H   0  0  0  0  0  0  0  0  0  0  0  0
   -7.3092    3.3730    0.3942 H   0  0  0  0  0  0  0  0  0  0  0  0
   -6.3208    2.6703    1.7444 H   0  0  0  0  0  0  0  0  0  0  0  0
   -7.2848    0.3671    1.1585 H   0  0  0  0  0  0  0  0  0  0  0  0
   -8.1239    1.1955   -0.2210 H   0  0  0  0  0  0  0  0  0  0  0  0
   -8.2715    1.7952    2.7301 H   0  0  0  0  0  0  0  0  0  0  0  0
   -9.1226    2.7020    1.4038 H   0  0  0  0  0  0  0  0  0  0  0  0
   -9.4918    0.9082    1.6737 H   0  0  0  0  0  0  0  0  0  0  0  0
  1  2  1  0
  1  3  1  0
  1  4  1  0
  4  5  1  0
  5  6  1  0
  6  7  1  0
  7  8  1  0
  8  9  1  0
  9 10  1  0
 10 11  1  0
 11 12  1  0
 12 13  1  0
 13 14  1  0
 14 15  1  0
 15 16  1  0
 16 17  1  0
 17 18  1  0
 18 19  1  0
 19 20  1  0
 20 21  1  0
 21 22  1  0
  1 23  1  0
  2 24  1  0
  3 25  1  0
  4 26  1  0
  4 27  1  0
  5 28  1  0
  5 29  1  0
  6 30  1  0
  6 31  1  0
  7 32  1  0
  7 33  1  0
  8 34  1  0
  8 35  1  0
  9 36  1  0
  9 37  1  0
 10 38  1  0
 10 39  1  0
 11 40  1  0
 11 41  1  0
 12 42  1  0
 12 43  1  0
 13 44  1  0
 13 45  1  0
 14 46  1  0
 14 47  1  0
 15 48  1  0
 15 49  1  0
 16 50  1  0
 16 51  1  0
 17 52  1  0
 17 53  1  0
 18 54  1  0
 18 55  1  0
 19 56  1  0
 19 57  1  0
 20 58  1  0
 20 59  1  0
 21 60  1  0
 21 61  1  0
 22 62  1  0
 22 63  1  0
 22 64  1  0
M  END
>  <PDBID>  (1) 
1FE2

>  <PDB ID>  (1) 
1FE2

>  <Generic Name>  (1) 
Dihomo-gamma-linolenic acid

>  <Brand Name>  (1) 
Star GLA#Tona-lean 1000 CLA

>  <DrugBank ID>  (1) 
DB00154

>  <ATC Codes>  (1) 
nan

>  <Ligand ID>  (1) 
LAX

>  <Target Name>  (1) 
Prostaglandin G/H synthase 1

>  <UniProt ID>  (1) 
P23219

>  <PDB ID.1>  (1) 
1FE2

>  <Seq. Identity>  (1) 
89%

$$$$
