PDB_DB08954_00
     RDKit          3D

126130  0  0  0  0  0  0  0  0999 V2000
    6.6271    0.3353    0.0166 C   0  0  0  0  0  0  0  0  0  0  0  0
   -0.4851    0.6591    0.4170 N   0  0  0  0  0  0  0  0  0  0  0  0
   -3.2462    1.3406   -0.2035 O   0  0  0  0  0  0  0  0  0  0  0  0
   -5.9228   -0.0799    0.5650 C   0  0  0  0  0  0  0  0  0  0  0  0
   -7.5740    0.3146   -1.1219 O   0  0  0  0  0  0  0  0  0  0  0  0
   -5.7543   -1.0183   -1.6892 C   0  0  0  0  0  0  0  0  0  0  0  0
    4.0331   -0.5021   -0.8428 C   0  0  0  0  0  0  0  0  0  0  0  0
    4.8268    0.4241   -1.7015 C   0  0  0  0  0  0  0  0  0  0  0  0
    6.3279    0.2405   -1.4717 C   0  0  0  0  0  0  0  0  0  0  0  0
    3.2756    0.1703    0.2520 C   0  0  0  0  0  0  0  0  0  0  0  0
    2.2620    1.1853   -0.2193 C   0  0  0  0  0  0  0  0  0  0  0  0
    1.5703    1.7875    0.9757 C   0  0  0  0  0  0  0  0  0  0  0  0
    5.9232   -0.7886    0.7070 C   0  0  0  0  0  0  0  0  0  0  0  0
    4.9636   -1.5191   -0.1853 C   0  0  0  0  0  0  0  0  0  0  0  0
    0.4431    0.9238    1.4953 C   0  0  0  0  0  0  0  0  0  0  0  0
    0.2480   -0.2605   -0.4731 C   0  0  0  0  0  0  0  0  0  0  0  0
    1.2682    0.5938   -1.1952 C   0  0  0  0  0  0  0  0  0  0  0  0
   -1.6467   -0.1329    0.8729 C   0  0  2  0  0  0  0  0  0  0  0  0
   -2.7686    0.0546   -0.1144 C   0  0  1  0  0  0  0  0  0  0  0  0
   -3.7510   -1.0491   -0.2239 C   0  0  0  0  0  0  0  0  0  0  0  0
   -4.8534   -1.1266    0.7559 C   0  0  0  0  0  0  0  0  0  0  0  0
   -6.1800    0.1985   -0.8994 C   0  0  0  0  0  0  0  0  0  0  0  0
   -4.2597   -1.1021   -1.6618 C   0  0  0  0  0  0  0  0  0  0  0  0
   -1.9601    0.4386    2.2446 C   0  0  0  0  0  0  0  0  0  0  0  0
    6.6271    0.3353    0.0166 C   0  0  0  0  0  0  0  0  0  0  0  0
   -0.4851    0.6591    0.4170 N   0  0  0  0  0  0  0  0  0  0  0  0
   -3.2462    1.3406   -0.2035 O   0  0  0  0  0  0  0  0  0  0  0  0
   -5.9228   -0.0799    0.5650 C   0  0  0  0  0  0  0  0  0  0  0  0
   -7.5740    0.3146   -1.1219 O   0  0  0  0  0  0  0  0  0  0  0  0
   -5.7543   -1.0183   -1.6892 C   0  0  0  0  0  0  0  0  0  0  0  0
    4.0331   -0.5021   -0.8428 C   0  0  0  0  0  0  0  0  0  0  0  0
    4.8268    0.4241   -1.7015 C   0  0  0  0  0  0  0  0  0  0  0  0
    6.3279    0.2405   -1.4717 C   0  0  0  0  0  0  0  0  0  0  0  0
    3.2756    0.1703    0.2520 C   0  0  0  0  0  0  0  0  0  0  0  0
    2.2620    1.1853   -0.2193 C   0  0  0  0  0  0  0  0  0  0  0  0
    1.5703    1.7875    0.9757 C   0  0  0  0  0  0  0  0  0  0  0  0
    5.9232   -0.7886    0.7070 C   0  0  0  0  0  0  0  0  0  0  0  0
    4.9636   -1.5191   -0.1853 C   0  0  0  0  0  0  0  0  0  0  0  0
    0.4431    0.9238    1.4953 C   0  0  0  0  0  0  0  0  0  0  0  0
    0.2480   -0.2605   -0.4731 C   0  0  0  0  0  0  0  0  0  0  0  0
    1.2682    0.5938   -1.1952 C   0  0  0  0  0  0  0  0  0  0  0  0
   -1.6467   -0.1329    0.8729 C   0  0  2  0  0  0  0  0  0  0  0  0
   -2.7686    0.0546   -0.1144 C   0  0  1  0  0  0  0  0  0  0  0  0
   -3.7510   -1.0491   -0.2239 C   0  0  0  0  0  0  0  0  0  0  0  0
   -4.8534   -1.1266    0.7559 C   0  0  0  0  0  0  0  0  0  0  0  0
   -6.1800    0.1985   -0.8994 C   0  0  0  0  0  0  0  0  0  0  0  0
   -4.2597   -1.1021   -1.6618 C   0  0  0  0  0  0  0  0  0  0  0  0
   -1.9601    0.4386    2.2446 C   0  0  0  0  0  0  0  0  0  0  0  0
    6.3337    1.3295    0.3713 H   0  0  0  0  0  0  0  0  0  0  0  0
    7.7410    0.2426    0.1119 H   0  0  0  0  0  0  0  0  0  0  0  0
   -3.4067    1.7756    0.6606 H   0  0  0  0  0  0  0  0  0  0  0  0
   -6.8726   -0.4657    0.9900 H   0  0  0  0  0  0  0  0  0  0  0  0
   -5.6740    0.8353    1.1460 H   0  0  0  0  0  0  0  0  0  0  0  0
   -7.8410    1.2649   -1.1719 H   0  0  0  0  0  0  0  0  0  0  0  0
   -6.0618   -0.9200   -2.7678 H   0  0  0  0  0  0  0  0  0  0  0  0
   -6.2737   -1.8951   -1.2617 H   0  0  0  0  0  0  0  0  0  0  0  0
    3.3899   -1.1057   -1.5175 H   0  0  0  0  0  0  0  0  0  0  0  0
    4.5928    1.4965   -1.5674 H   0  0  0  0  0  0  0  0  0  0  0  0
    4.6804    0.2273   -2.7984 H   0  0  0  0  0  0  0  0  0  0  0  0
    6.8503    1.0486   -2.0119 H   0  0  0  0  0  0  0  0  0  0  0  0
    6.6653   -0.7228   -1.8716 H   0  0  0  0  0  0  0  0  0  0  0  0
    4.0342    0.7664    0.8408 H   0  0  0  0  0  0  0  0  0  0  0  0
    2.8605   -0.5449    0.9733 H   0  0  0  0  0  0  0  0  0  0  0  0
    2.8039    1.9884   -0.7408 H   0  0  0  0  0  0  0  0  0  0  0  0
    1.1880    2.8105    0.7689 H   0  0  0  0  0  0  0  0  0  0  0  0
    2.3089    1.8910    1.8017 H   0  0  0  0  0  0  0  0  0  0  0  0
    6.7007   -1.5439    1.0158 H   0  0  0  0  0  0  0  0  0  0  0  0
    5.4259   -0.4853    1.6543 H   0  0  0  0  0  0  0  0  0  0  0  0
    5.4532   -2.1610   -0.9258 H   0  0  0  0  0  0  0  0  0  0  0  0
    4.2895   -2.1218    0.4898 H   0  0  0  0  0  0  0  0  0  0  0  0
    0.0084    1.5003    2.3366 H   0  0  0  0  0  0  0  0  0  0  0  0
    0.8057   -0.0331    1.8822 H   0  0  0  0  0  0  0  0  0  0  0  0
    0.8035   -1.0074    0.1617 H   0  0  0  0  0  0  0  0  0  0  0  0
   -0.3688   -0.7639   -1.2009 H   0  0  0  0  0  0  0  0  0  0  0  0
    0.7302    1.4215   -1.6954 H   0  0  0  0  0  0  0  0  0  0  0  0
    1.7454   -0.0194   -1.9605 H   0  0  0  0  0  0  0  0  0  0  0  0
   -1.2980   -1.1688    0.9629 H   0  0  0  0  0  0  0  0  0  0  0  0
   -2.1936   -0.0320   -1.1383 H   0  0  0  0  0  0  0  0  0  0  0  0
   -3.1531   -2.0041   -0.0988 H   0  0  0  0  0  0  0  0  0  0  0  0
   -5.3824   -2.1164    0.5407 H   0  0  0  0  0  0  0  0  0  0  0  0
   -4.4982   -1.2310    1.7669 H   0  0  0  0  0  0  0  0  0  0  0  0
   -5.7543    1.1289   -1.2714 H   0  0  0  0  0  0  0  0  0  0  0  0
   -3.8619   -0.2509   -2.2368 H   0  0  0  0  0  0  0  0  0  0  0  0
   -3.9753   -2.0432   -2.1800 H   0  0  0  0  0  0  0  0  0  0  0  0
   -1.9643    1.5496    2.1002 H   0  0  0  0  0  0  0  0  0  0  0  0
   -2.9579    0.2021    2.6274 H   0  0  0  0  0  0  0  0  0  0  0  0
   -1.2407    0.0702    2.9751 H   0  0  0  0  0  0  0  0  0  0  0  0
    6.3337    1.3295    0.3713 H   0  0  0  0  0  0  0  0  0  0  0  0
    7.7410    0.2426    0.1119 H   0  0  0  0  0  0  0  0  0  0  0  0
   -3.4067    1.7756    0.6606 H   0  0  0  0  0  0  0  0  0  0  0  0
   -6.8726   -0.4657    0.9900 H   0  0  0  0  0  0  0  0  0  0  0  0
   -5.6740    0.8353    1.1460 H   0  0  0  0  0  0  0  0  0  0  0  0
   -7.8410    1.2649   -1.1719 H   0  0  0  0  0  0  0  0  0  0  0  0
   -6.0618   -0.9200   -2.7678 H   0  0  0  0  0  0  0  0  0  0  0  0
   -6.2737   -1.8951   -1.2617 H   0  0  0  0  0  0  0  0  0  0  0  0
    3.3899   -1.1057   -1.5175 H   0  0  0  0  0  0  0  0  0  0  0  0
    4.5928    1.4965   -1.5674 H   0  0  0  0  0  0  0  0  0  0  0  0
    4.6804    0.2273   -2.7984 H   0  0  0  0  0  0  0  0  0  0  0  0
    6.8503    1.0486   -2.0119 H   0  0  0  0  0  0  0  0  0  0  0  0
    6.6653   -0.7228   -1.8716 H   0  0  0  0  0  0  0  0  0  0  0  0
    4.0342    0.7664    0.8408 H   0  0  0  0  0  0  0  0  0  0  0  0
    2.8605   -0.5449    0.9733 H   0  0  0  0  0  0  0  0  0  0  0  0
    2.8039    1.9884   -0.7408 H   0  0  0  0  0  0  0  0  0  0  0  0
    1.1880    2.8105    0.7689 H   0  0  0  0  0  0  0  0  0  0  0  0
    2.3089    1.8910    1.8017 H   0  0  0  0  0  0  0  0  0  0  0  0
    6.7007   -1.5439    1.0158 H   0  0  0  0  0  0  0  0  0  0  0  0
    5.4259   -0.4853    1.6543 H   0  0  0  0  0  0  0  0  0  0  0  0
    5.4532   -2.1610   -0.9258 H   0  0  0  0  0  0  0  0  0  0  0  0
    4.2895   -2.1218    0.4898 H   0  0  0  0  0  0  0  0  0  0  0  0
    0.0084    1.5003    2.3366 H   0  0  0  0  0  0  0  0  0  0  0  0
    0.8057   -0.0331    1.8822 H   0  0  0  0  0  0  0  0  0  0  0  0
    0.8035   -1.0074    0.1617 H   0  0  0  0  0  0  0  0  0  0  0  0
   -0.3688   -0.7639   -1.2009 H   0  0  0  0  0  0  0  0  0  0  0  0
    0.7302    1.4215   -1.6954 H   0  0  0  0  0  0  0  0  0  0  0  0
    1.7454   -0.0194   -1.9605 H   0  0  0  0  0  0  0  0  0  0  0  0
   -1.2980   -1.1688    0.9629 H   0  0  0  0  0  0  0  0  0  0  0  0
   -2.1936   -0.0320   -1.1383 H   0  0  0  0  0  0  0  0  0  0  0  0
   -3.1531   -2.0041   -0.0988 H   0  0  0  0  0  0  0  0  0  0  0  0
   -5.3824   -2.1164    0.5407 H   0  0  0  0  0  0  0  0  0  0  0  0
   -4.4982   -1.2310    1.7669 H   0  0  0  0  0  0  0  0  0  0  0  0
   -5.7543    1.1289   -1.2714 H   0  0  0  0  0  0  0  0  0  0  0  0
   -3.8619   -0.2509   -2.2368 H   0  0  0  0  0  0  0  0  0  0  0  0
   -3.9753   -2.0432   -2.1800 H   0  0  0  0  0  0  0  0  0  0  0  0
   -1.9643    1.5496    2.1002 H   0  0  0  0  0  0  0  0  0  0  0  0
   -2.9579    0.2021    2.6274 H   0  0  0  0  0  0  0  0  0  0  0  0
   -1.2407    0.0702    2.9751 H   0  0  0  0  0  0  0  0  0  0  0  0
  7  8  1  0
  1  9  1  0
  8  9  1  0
  7 10  1  0
 10 11  1  0
 11 12  1  0
  1 13  1  0
  7 14  1  0
 13 14  1  0
  2 15  1  0
 12 15  1  0
  2 16  1  0
 11 17  1  0
 16 17  1  0
  2 18  1  0
  3 19  1  0
 18 19  1  0
 19 20  1  0
  4 21  1  0
 20 21  1  0
  4 22  1  0
  5 22  1  0
  6 22  1  0
  6 23  1  0
 20 23  1  0
 18 24  1  0
 31 32  1  0
 25 33  1  0
 32 33  1  0
 31 34  1  0
 34 35  1  0
 35 36  1  0
 25 37  1  0
 31 38  1  0
 37 38  1  0
 26 39  1  0
 36 39  1  0
 26 40  1  0
 35 41  1  0
 40 41  1  0
 26 42  1  0
 27 43  1  0
 42 43  1  0
 43 44  1  0
 28 45  1  0
 44 45  1  0
 28 46  1  0
 29 46  1  0
 30 46  1  0
 30 47  1  0
 44 47  1  0
 42 48  1  0
  1 49  1  0
  1 50  1  0
  3 51  1  0
  4 52  1  0
  4 53  1  0
  5 54  1  0
  6 55  1  0
  6 56  1  0
  7 57  1  0
  8 58  1  0
  8 59  1  0
  9 60  1  0
  9 61  1  0
 10 62  1  0
 10 63  1  0
 11 64  1  0
 12 65  1  0
 12 66  1  0
 13 67  1  0
 13 68  1  0
 14 69  1  0
 14 70  1  0
 15 71  1  0
 15 72  1  0
 16 73  1  0
 16 74  1  0
 17 75  1  0
 17 76  1  0
 18 77  1  1
 19 78  1  6
 20 79  1  0
 21 80  1  0
 21 81  1  0
 22 82  1  0
 23 83  1  0
 23 84  1  0
 24 85  1  0
 24 86  1  0
 24 87  1  0
 25 88  1  0
 25 89  1  0
 27 90  1  0
 28 91  1  0
 28 92  1  0
 29 93  1  0
 30 94  1  0
 30 95  1  0
 31 96  1  0
 32 97  1  0
 32 98  1  0
 33 99  1  0
 33100  1  0
 34101  1  0
 34102  1  0
 35103  1  0
 36104  1  0
 36105  1  0
 37106  1  0
 37107  1  0
 38108  1  0
 38109  1  0
 39110  1  0
 39111  1  0
 40112  1  0
 40113  1  0
 41114  1  0
 41115  1  0
 42116  1  1
 43117  1  6
 44118  1  0
 45119  1  0
 45120  1  0
 46121  1  0
 47122  1  0
 47123  1  0
 48124  1  0
 48125  1  0
 48126  1  0
M  END
>  <PDBID>  (1) 
4PE5

>  <PDB ID>  (1) 
4PE5

>  <Generic Name>  (1) 
Ifenprodil

>  <Brand Name>  (1) 
Cerocral#Furezanil#Iburonol#Linbulane#Technis#Vadilex#Vasculodil#Youajyl

>  <DrugBank ID>  (1) 
DB08954

>  <ATC Codes>  (1) 
C04AX28

>  <Ligand ID>  (1) 
QEL

>  <Target Name>  (1) 
Glutamate receptor ionotropic, NMDA 1

>  <UniProt ID>  (1) 
Q05586

>  <PDB ID.1>  (1) 
4PE5

>  <Seq. Identity>  (1) 
98%

$$$$
