PDB_DB01076_02
     RDKit          3D

408420  0  0  0  0  0  0  0  0999 V2000
   -2.9133    2.0049    1.0611 C   0  0  0  0  0  0  0  0  0  0  0  0
   -1.8171    1.1272    1.4005 C   0  0  0  0  0  0  0  0  0  0  0  0
   -1.1082    1.8082    2.5991 C   0  0  0  0  0  0  0  0  0  0  0  0
   -2.0438    1.7790    3.7817 C   0  0  0  0  0  0  0  0  0  0  0  0
   -3.2539    2.6010    3.4604 C   0  0  0  0  0  0  0  0  0  0  0  0
   -3.1384    3.1721    2.0612 C   0  0  0  0  0  0  0  0  0  0  0  0
   -1.4184    3.9949   -2.6530 C   0  0  0  0  0  0  0  0  0  0  0  0
   -0.9663    2.5763   -2.2482 C   0  0  0  0  0  0  0  0  0  0  0  0
   -0.1152    2.6120   -1.0603 C   0  0  0  0  0  0  0  0  0  0  0  0
   -0.3347    3.9024   -0.3199 C   0  0  0  0  0  0  0  0  0  0  0  0
    0.2497    5.0392   -1.1534 C   0  0  0  0  0  0  0  0  0  0  0  0
   -0.3341    5.0066   -2.5154 C   0  0  0  0  0  0  0  0  0  0  0  0
   -0.9450    6.2571   -2.7252 F   0  0  0  0  0  0  0  0  0  0  0  0
    0.1735    1.4861   -0.1962 C   0  0  0  0  0  0  0  0  0  0  0  0
   -3.9919   -2.5881    0.1959 C   0  0  0  0  0  0  0  0  0  0  0  0
   -4.8206   -2.9139    1.4192 C   0  0  0  0  0  0  0  0  0  0  0  0
   -5.9559   -3.8355    0.9923 C   0  0  0  0  0  0  0  0  0  0  0  0
   -5.4845   -4.7395   -0.1396 C   0  0  0  0  0  0  0  0  0  0  0  0
   -4.0288   -5.0699    0.1392 C   0  0  0  0  0  0  0  0  0  0  0  0
   -3.2165   -3.7940   -0.1687 C   0  0  0  0  0  0  0  0  0  0  0  0
    6.2535   -2.5195    2.2784 O   0  0  0  0  0  0  0  0  0  0  0  0
    7.2889   -2.7393    0.2652 O   0  0  0  0  0  0  0  0  0  0  0  0
    6.0748   -1.2857   -0.6625 O   0  0  0  0  0  0  0  0  0  0  0  0
    7.3321   -2.1340    1.5270 C   0  0  0  0  0  0  0  0  0  0  0  0
    7.2106   -0.6272    1.2428 C   0  0  0  0  0  0  0  0  0  0  0  0
    5.9019   -0.4546    0.4892 C   0  0  1  0  0  0  0  0  0  0  0  0
    5.7369    0.9689   -0.0591 C   0  0  0  0  0  0  0  0  0  0  0  0
    4.5643    1.0233   -0.9836 C   0  0  1  0  0  0  0  0  0  0  0  0
    3.2266    0.7057   -0.3414 C   0  0  0  0  0  0  0  0  0  0  0  0
    2.1475    0.7074   -1.4153 C   0  0  0  0  0  0  0  0  0  0  0  0
    0.8952    0.4871   -0.9348 N   0  0  0  0  0  0  0  0  0  0  0  0
   -0.7808    0.6209    0.5070 C   0  0  0  0  0  0  0  0  0  0  0  0
   -1.0387   -0.6074   -0.3060 C   0  0  0  0  0  0  0  0  0  0  0  0
   -2.3645   -1.0456   -0.6890 C   0  0  0  0  0  0  0  0  0  0  0  0
   -3.2087   -1.3726    0.4588 N   0  0  0  0  0  0  0  0  0  0  0  0
   -3.0799   -0.2861   -1.5938 O   0  0  0  0  0  0  0  0  0  0  0  0
    0.0289   -0.5243   -1.3694 C   0  0  0  0  0  0  0  0  0  0  0  0
    0.7424   -1.8498   -1.5672 C   0  0  0  0  0  0  0  0  0  0  0  0
   -0.1424   -2.9613   -2.0651 C   0  0  0  0  0  0  0  0  0  0  0  0
    1.3962   -2.3464   -0.3056 C   0  0  0  0  0  0  0  0  0  0  0  0
    4.4344    2.2776   -1.5864 O   0  0  0  0  0  0  0  0  0  0  0  0
   -2.9133    2.0049    1.0611 C   0  0  0  0  0  0  0  0  0  0  0  0
   -1.8171    1.1272    1.4005 C   0  0  0  0  0  0  0  0  0  0  0  0
   -1.1082    1.8082    2.5991 C   0  0  0  0  0  0  0  0  0  0  0  0
   -2.0438    1.7790    3.7817 C   0  0  0  0  0  0  0  0  0  0  0  0
   -3.2539    2.6010    3.4604 C   0  0  0  0  0  0  0  0  0  0  0  0
   -3.1384    3.1721    2.0612 C   0  0  0  0  0  0  0  0  0  0  0  0
   -1.4184    3.9949   -2.6530 C   0  0  0  0  0  0  0  0  0  0  0  0
   -0.9663    2.5763   -2.2482 C   0  0  0  0  0  0  0  0  0  0  0  0
   -0.1152    2.6120   -1.0603 C   0  0  0  0  0  0  0  0  0  0  0  0
   -0.3347    3.9024   -0.3199 C   0  0  0  0  0  0  0  0  0  0  0  0
    0.2497    5.0392   -1.1534 C   0  0  0  0  0  0  0  0  0  0  0  0
   -0.3341    5.0066   -2.5154 C   0  0  0  0  0  0  0  0  0  0  0  0
   -0.9450    6.2571   -2.7252 F   0  0  0  0  0  0  0  0  0  0  0  0
    0.1735    1.4861   -0.1962 C   0  0  0  0  0  0  0  0  0  0  0  0
   -3.9919   -2.5881    0.1959 C   0  0  0  0  0  0  0  0  0  0  0  0
   -4.8206   -2.9139    1.4192 C   0  0  0  0  0  0  0  0  0  0  0  0
   -5.9559   -3.8355    0.9923 C   0  0  0  0  0  0  0  0  0  0  0  0
   -5.4845   -4.7395   -0.1396 C   0  0  0  0  0  0  0  0  0  0  0  0
   -4.0288   -5.0699    0.1392 C   0  0  0  0  0  0  0  0  0  0  0  0
   -3.2165   -3.7940   -0.1687 C   0  0  0  0  0  0  0  0  0  0  0  0
    6.2535   -2.5195    2.2784 O   0  0  0  0  0  0  0  0  0  0  0  0
    7.2889   -2.7393    0.2652 O   0  0  0  0  0  0  0  0  0  0  0  0
    6.0748   -1.2857   -0.6625 O   0  0  0  0  0  0  0  0  0  0  0  0
    7.3321   -2.1340    1.5270 C   0  0  0  0  0  0  0  0  0  0  0  0
    7.2106   -0.6272    1.2428 C   0  0  0  0  0  0  0  0  0  0  0  0
    5.9019   -0.4546    0.4892 C   0  0  1  0  0  0  0  0  0  0  0  0
    5.7369    0.9689   -0.0591 C   0  0  0  0  0  0  0  0  0  0  0  0
    4.5643    1.0233   -0.9836 C   0  0  1  0  0  0  0  0  0  0  0  0
    3.2266    0.7057   -0.3414 C   0  0  0  0  0  0  0  0  0  0  0  0
    2.1475    0.7074   -1.4153 C   0  0  0  0  0  0  0  0  0  0  0  0
    0.8952    0.4871   -0.9348 N   0  0  0  0  0  0  0  0  0  0  0  0
   -0.7808    0.6209    0.5070 C   0  0  0  0  0  0  0  0  0  0  0  0
   -1.0387   -0.6074   -0.3060 C   0  0  0  0  0  0  0  0  0  0  0  0
   -2.3645   -1.0456   -0.6890 C   0  0  0  0  0  0  0  0  0  0  0  0
   -3.2087   -1.3726    0.4588 N   0  0  0  0  0  0  0  0  0  0  0  0
   -3.0799   -0.2861   -1.5938 O   0  0  0  0  0  0  0  0  0  0  0  0
    0.0289   -0.5243   -1.3694 C   0  0  0  0  0  0  0  0  0  0  0  0
    0.7424   -1.8498   -1.5672 C   0  0  0  0  0  0  0  0  0  0  0  0
   -0.1424   -2.9613   -2.0651 C   0  0  0  0  0  0  0  0  0  0  0  0
    1.3962   -2.3464   -0.3056 C   0  0  0  0  0  0  0  0  0  0  0  0
    4.4344    2.2776   -1.5864 O   0  0  0  0  0  0  0  0  0  0  0  0
   -2.9133    2.0049    1.0611 C   0  0  0  0  0  0  0  0  0  0  0  0
   -1.8171    1.1272    1.4005 C   0  0  0  0  0  0  0  0  0  0  0  0
   -1.1082    1.8082    2.5991 C   0  0  0  0  0  0  0  0  0  0  0  0
   -2.0438    1.7790    3.7817 C   0  0  0  0  0  0  0  0  0  0  0  0
   -3.2539    2.6010    3.4604 C   0  0  0  0  0  0  0  0  0  0  0  0
   -3.1384    3.1721    2.0612 C   0  0  0  0  0  0  0  0  0  0  0  0
   -1.4184    3.9949   -2.6530 C   0  0  0  0  0  0  0  0  0  0  0  0
   -0.9663    2.5763   -2.2482 C   0  0  0  0  0  0  0  0  0  0  0  0
   -0.1152    2.6120   -1.0603 C   0  0  0  0  0  0  0  0  0  0  0  0
   -0.3347    3.9024   -0.3199 C   0  0  0  0  0  0  0  0  0  0  0  0
    0.2497    5.0392   -1.1534 C   0  0  0  0  0  0  0  0  0  0  0  0
   -0.3341    5.0066   -2.5154 C   0  0  0  0  0  0  0  0  0  0  0  0
   -0.9450    6.2571   -2.7252 F   0  0  0  0  0  0  0  0  0  0  0  0
    0.1735    1.4861   -0.1962 C   0  0  0  0  0  0  0  0  0  0  0  0
   -3.9919   -2.5881    0.1959 C   0  0  0  0  0  0  0  0  0  0  0  0
   -4.8206   -2.9139    1.4192 C   0  0  0  0  0  0  0  0  0  0  0  0
   -5.9559   -3.8355    0.9923 C   0  0  0  0  0  0  0  0  0  0  0  0
   -5.4845   -4.7395   -0.1396 C   0  0  0  0  0  0  0  0  0  0  0  0
   -4.0288   -5.0699    0.1392 C   0  0  0  0  0  0  0  0  0  0  0  0
   -3.2165   -3.7940   -0.1687 C   0  0  0  0  0  0  0  0  0  0  0  0
    6.2535   -2.5195    2.2784 O   0  0  0  0  0  0  0  0  0  0  0  0
    7.2889   -2.7393    0.2652 O   0  0  0  0  0  0  0  0  0  0  0  0
    6.0748   -1.2857   -0.6625 O   0  0  0  0  0  0  0  0  0  0  0  0
    7.3321   -2.1340    1.5270 C   0  0  0  0  0  0  0  0  0  0  0  0
    7.2106   -0.6272    1.2428 C   0  0  0  0  0  0  0  0  0  0  0  0
    5.9019   -0.4546    0.4892 C   0  0  1  0  0  0  0  0  0  0  0  0
    5.7369    0.9689   -0.0591 C   0  0  0  0  0  0  0  0  0  0  0  0
    4.5643    1.0233   -0.9836 C   0  0  1  0  0  0  0  0  0  0  0  0
    3.2266    0.7057   -0.3414 C   0  0  0  0  0  0  0  0  0  0  0  0
    2.1475    0.7074   -1.4153 C   0  0  0  0  0  0  0  0  0  0  0  0
    0.8952    0.4871   -0.9348 N   0  0  0  0  0  0  0  0  0  0  0  0
   -0.7808    0.6209    0.5070 C   0  0  0  0  0  0  0  0  0  0  0  0
   -1.0387   -0.6074   -0.3060 C   0  0  0  0  0  0  0  0  0  0  0  0
   -2.3645   -1.0456   -0.6890 C   0  0  0  0  0  0  0  0  0  0  0  0
   -3.2087   -1.3726    0.4588 N   0  0  0  0  0  0  0  0  0  0  0  0
   -3.0799   -0.2861   -1.5938 O   0  0  0  0  0  0  0  0  0  0  0  0
    0.0289   -0.5243   -1.3694 C   0  0  0  0  0  0  0  0  0  0  0  0
    0.7424   -1.8498   -1.5672 C   0  0  0  0  0  0  0  0  0  0  0  0
   -0.1424   -2.9613   -2.0651 C   0  0  0  0  0  0  0  0  0  0  0  0
    1.3962   -2.3464   -0.3056 C   0  0  0  0  0  0  0  0  0  0  0  0
    4.4344    2.2776   -1.5864 O   0  0  0  0  0  0  0  0  0  0  0  0
   -2.9133    2.0049    1.0611 C   0  0  0  0  0  0  0  0  0  0  0  0
   -1.8171    1.1272    1.4005 C   0  0  0  0  0  0  0  0  0  0  0  0
   -1.1082    1.8082    2.5991 C   0  0  0  0  0  0  0  0  0  0  0  0
   -2.0438    1.7790    3.7817 C   0  0  0  0  0  0  0  0  0  0  0  0
   -3.2539    2.6010    3.4604 C   0  0  0  0  0  0  0  0  0  0  0  0
   -3.1384    3.1721    2.0612 C   0  0  0  0  0  0  0  0  0  0  0  0
   -1.4184    3.9949   -2.6530 C   0  0  0  0  0  0  0  0  0  0  0  0
   -0.9663    2.5763   -2.2482 C   0  0  0  0  0  0  0  0  0  0  0  0
   -0.1152    2.6120   -1.0603 C   0  0  0  0  0  0  0  0  0  0  0  0
   -0.3347    3.9024   -0.3199 C   0  0  0  0  0  0  0  0  0  0  0  0
    0.2497    5.0392   -1.1534 C   0  0  0  0  0  0  0  0  0  0  0  0
   -0.3341    5.0066   -2.5154 C   0  0  0  0  0  0  0  0  0  0  0  0
   -0.9450    6.2571   -2.7252 F   0  0  0  0  0  0  0  0  0  0  0  0
    0.1735    1.4861   -0.1962 C   0  0  0  0  0  0  0  0  0  0  0  0
   -3.9919   -2.5881    0.1959 C   0  0  0  0  0  0  0  0  0  0  0  0
   -4.8206   -2.9139    1.4192 C   0  0  0  0  0  0  0  0  0  0  0  0
   -5.9559   -3.8355    0.9923 C   0  0  0  0  0  0  0  0  0  0  0  0
   -5.4845   -4.7395   -0.1396 C   0  0  0  0  0  0  0  0  0  0  0  0
   -4.0288   -5.0699    0.1392 C   0  0  0  0  0  0  0  0  0  0  0  0
   -3.2165   -3.7940   -0.1687 C   0  0  0  0  0  0  0  0  0  0  0  0
    6.2535   -2.5195    2.2784 O   0  0  0  0  0  0  0  0  0  0  0  0
    7.2889   -2.7393    0.2652 O   0  0  0  0  0  0  0  0  0  0  0  0
    6.0748   -1.2857   -0.6625 O   0  0  0  0  0  0  0  0  0  0  0  0
    7.3321   -2.1340    1.5270 C   0  0  0  0  0  0  0  0  0  0  0  0
    7.2106   -0.6272    1.2428 C   0  0  0  0  0  0  0  0  0  0  0  0
    5.9019   -0.4546    0.4892 C   0  0  1  0  0  0  0  0  0  0  0  0
    5.7369    0.9689   -0.0591 C   0  0  0  0  0  0  0  0  0  0  0  0
    4.5643    1.0233   -0.9836 C   0  0  1  0  0  0  0  0  0  0  0  0
    3.2266    0.7057   -0.3414 C   0  0  0  0  0  0  0  0  0  0  0  0
    2.1475    0.7074   -1.4153 C   0  0  0  0  0  0  0  0  0  0  0  0
    0.8952    0.4871   -0.9348 N   0  0  0  0  0  0  0  0  0  0  0  0
   -0.7808    0.6209    0.5070 C   0  0  0  0  0  0  0  0  0  0  0  0
   -1.0387   -0.6074   -0.3060 C   0  0  0  0  0  0  0  0  0  0  0  0
   -2.3645   -1.0456   -0.6890 C   0  0  0  0  0  0  0  0  0  0  0  0
   -3.2087   -1.3726    0.4588 N   0  0  0  0  0  0  0  0  0  0  0  0
   -3.0799   -0.2861   -1.5938 O   0  0  0  0  0  0  0  0  0  0  0  0
    0.0289   -0.5243   -1.3694 C   0  0  0  0  0  0  0  0  0  0  0  0
    0.7424   -1.8498   -1.5672 C   0  0  0  0  0  0  0  0  0  0  0  0
   -0.1424   -2.9613   -2.0651 C   0  0  0  0  0  0  0  0  0  0  0  0
    1.3962   -2.3464   -0.3056 C   0  0  0  0  0  0  0  0  0  0  0  0
    4.4344    2.2776   -1.5864 O   0  0  0  0  0  0  0  0  0  0  0  0
   -3.9208    1.4739    1.1887 H   0  0  0  0  0  0  0  0  0  0  0  0
   -3.0200    2.4696    0.0987 H   0  0  0  0  0  0  0  0  0  0  0  0
   -2.2372    0.2134    1.9331 H   0  0  0  0  0  0  0  0  0  0  0  0
   -0.8134    2.8302    2.3865 H   0  0  0  0  0  0  0  0  0  0  0  0
   -0.2063    1.1937    2.8162 H   0  0  0  0  0  0  0  0  0  0  0  0
   -1.4984    2.2400    4.6590 H   0  0  0  0  0  0  0  0  0  0  0  0
   -2.3791    0.7827    4.0647 H   0  0  0  0  0  0  0  0  0  0  0  0
   -4.2133    2.0511    3.5902 H   0  0  0  0  0  0  0  0  0  0  0  0
   -3.3010    3.4638    4.1523 H   0  0  0  0  0  0  0  0  0  0  0  0
   -2.4200    3.9655    1.9724 H   0  0  0  0  0  0  0  0  0  0  0  0
   -4.1524    3.5750    1.7998 H   0  0  0  0  0  0  0  0  0  0  0  0
   -1.7634    3.9110   -3.7090 H   0  0  0  0  0  0  0  0  0  0  0  0
   -2.3356    4.2507   -2.0794 H   0  0  0  0  0  0  0  0  0  0  0  0
   -1.9378    2.0544   -2.1345 H   0  0  0  0  0  0  0  0  0  0  0  0
   -0.4711    2.1943   -3.1842 H   0  0  0  0  0  0  0  0  0  0  0  0
    0.9229    2.8352   -1.5388 H   0  0  0  0  0  0  0  0  0  0  0  0
    0.2840    3.9298    0.6282 H   0  0  0  0  0  0  0  0  0  0  0  0
   -1.3769    4.1038   -0.0712 H   0  0  0  0  0  0  0  0  0  0  0  0
    1.3392    4.8864   -1.2083 H   0  0  0  0  0  0  0  0  0  0  0  0
    0.1048    6.0124   -0.6328 H   0  0  0  0  0  0  0  0  0  0  0  0
    0.4153    4.9320   -3.3331 H   0  0  0  0  0  0  0  0  0  0  0  0
    0.9744    1.9123    0.5171 H   0  0  0  0  0  0  0  0  0  0  0  0
   -4.7097   -2.3223   -0.6239 H   0  0  0  0  0  0  0  0  0  0  0  0
   -4.1767   -3.5065    2.0917 H   0  0  0  0  0  0  0  0  0  0  0  0
   -5.2639   -2.0347    1.8912 H   0  0  0  0  0  0  0  0  0  0  0  0
   -6.3252   -4.4607    1.8105 H   0  0  0  0  0  0  0  0  0  0  0  0
   -6.8325   -3.2166    0.6502 H   0  0  0  0  0  0  0  0  0  0  0  0
   -6.0556   -5.6614   -0.2398 H   0  0  0  0  0  0  0  0  0  0  0  0
   -5.4902   -4.1619   -1.1035 H   0  0  0  0  0  0  0  0  0  0  0  0
   -3.7164   -5.8642   -0.5676 H   0  0  0  0  0  0  0  0  0  0  0  0
   -3.8498   -5.3933    1.1828 H   0  0  0  0  0  0  0  0  0  0  0  0
   -3.1100   -3.8421   -1.2944 H   0  0  0  0  0  0  0  0  0  0  0  0
   -2.2587   -3.9243    0.3591 H   0  0  0  0  0  0  0  0  0  0  0  0
    6.4444   -3.4168    2.6920 H   0  0  0  0  0  0  0  0  0  0  0  0
    7.9361   -3.4598    0.1470 H   0  0  0  0  0  0  0  0  0  0  0  0
    6.5608   -0.7325   -1.3066 H   0  0  0  0  0  0  0  0  0  0  0  0
    8.3077   -2.3511    2.0001 H   0  0  0  0  0  0  0  0  0  0  0  0
    7.2648   -0.0577    2.1781 H   0  0  0  0  0  0  0  0  0  0  0  0
    8.0900   -0.3662    0.6316 H   0  0  0  0  0  0  0  0  0  0  0  0
    5.0399   -0.7954    1.0352 H   0  0  0  0  0  0  0  0  0  0  0  0
    5.7214    1.6866    0.7581 H   0  0  0  0  0  0  0  0  0  0  0  0
    6.6533    1.1385   -0.6621 H   0  0  0  0  0  0  0  0  0  0  0  0
    4.7172    0.2291   -1.7613 H   0  0  0  0  0  0  0  0  0  0  0  0
    3.0546    1.5080    0.4257 H   0  0  0  0  0  0  0  0  0  0  0  0
    3.2835   -0.2444    0.2205 H   0  0  0  0  0  0  0  0  0  0  0  0
    2.4641   -0.1390   -2.0968 H   0  0  0  0  0  0  0  0  0  0  0  0
    2.3647    1.6729   -1.9709 H   0  0  0  0  0  0  0  0  0  0  0  0
   -0.0627    0.1765    1.2965 H   0  0  0  0  0  0  0  0  0  0  0  0
   -0.6877   -1.5534    0.2781 H   0  0  0  0  0  0  0  0  0  0  0  0
   -2.2733   -2.0155   -1.2046 H   0  0  0  0  0  0  0  0  0  0  0  0
   -3.9851   -0.6404    0.5437 H   0  0  0  0  0  0  0  0  0  0  0  0
   -3.7918   -0.8066   -2.0424 H   0  0  0  0  0  0  0  0  0  0  0  0
   -0.3817   -0.2642   -2.3603 H   0  0  0  0  0  0  0  0  0  0  0  0
    1.5070   -1.7128   -2.3497 H   0  0  0  0  0  0  0  0  0  0  0  0
    0.5144   -3.7225   -2.6422 H   0  0  0  0  0  0  0  0  0  0  0  0
   -0.5841   -3.5932   -1.2899 H   0  0  0  0  0  0  0  0  0  0  0  0
   -0.8288   -2.6233   -2.8662 H   0  0  0  0  0  0  0  0  0  0  0  0
    2.4608   -2.5489   -0.5304 H   0  0  0  0  0  0  0  0  0  0  0  0
    0.9750   -3.3408    0.0373 H   0  0  0  0  0  0  0  0  0  0  0  0
    1.3745   -1.6114    0.5246 H   0  0  0  0  0  0  0  0  0  0  0  0
    4.4998    2.2278   -2.5768 H   0  0  0  0  0  0  0  0  0  0  0  0
   -3.9208    1.4739    1.1887 H   0  0  0  0  0  0  0  0  0  0  0  0
   -3.0200    2.4696    0.0987 H   0  0  0  0  0  0  0  0  0  0  0  0
   -2.2372    0.2134    1.9331 H   0  0  0  0  0  0  0  0  0  0  0  0
   -0.8134    2.8302    2.3865 H   0  0  0  0  0  0  0  0  0  0  0  0
   -0.2063    1.1937    2.8162 H   0  0  0  0  0  0  0  0  0  0  0  0
   -1.4984    2.2400    4.6590 H   0  0  0  0  0  0  0  0  0  0  0  0
   -2.3791    0.7827    4.0647 H   0  0  0  0  0  0  0  0  0  0  0  0
   -4.2133    2.0511    3.5902 H   0  0  0  0  0  0  0  0  0  0  0  0
   -3.3010    3.4638    4.1523 H   0  0  0  0  0  0  0  0  0  0  0  0
   -2.4200    3.9655    1.9724 H   0  0  0  0  0  0  0  0  0  0  0  0
   -4.1524    3.5750    1.7998 H   0  0  0  0  0  0  0  0  0  0  0  0
   -1.7634    3.9110   -3.7090 H   0  0  0  0  0  0  0  0  0  0  0  0
   -2.3356    4.2507   -2.0794 H   0  0  0  0  0  0  0  0  0  0  0  0
   -1.9378    2.0544   -2.1345 H   0  0  0  0  0  0  0  0  0  0  0  0
   -0.4711    2.1943   -3.1842 H   0  0  0  0  0  0  0  0  0  0  0  0
    0.9229    2.8352   -1.5388 H   0  0  0  0  0  0  0  0  0  0  0  0
    0.2840    3.9298    0.6282 H   0  0  0  0  0  0  0  0  0  0  0  0
   -1.3769    4.1038   -0.0712 H   0  0  0  0  0  0  0  0  0  0  0  0
    1.3392    4.8864   -1.2083 H   0  0  0  0  0  0  0  0  0  0  0  0
    0.1048    6.0124   -0.6328 H   0  0  0  0  0  0  0  0  0  0  0  0
    0.4153    4.9320   -3.3331 H   0  0  0  0  0  0  0  0  0  0  0  0
    0.9744    1.9123    0.5171 H   0  0  0  0  0  0  0  0  0  0  0  0
   -4.7097   -2.3223   -0.6239 H   0  0  0  0  0  0  0  0  0  0  0  0
   -4.1767   -3.5065    2.0917 H   0  0  0  0  0  0  0  0  0  0  0  0
   -5.2639   -2.0347    1.8912 H   0  0  0  0  0  0  0  0  0  0  0  0
   -6.3252   -4.4607    1.8105 H   0  0  0  0  0  0  0  0  0  0  0  0
   -6.8325   -3.2166    0.6502 H   0  0  0  0  0  0  0  0  0  0  0  0
   -6.0556   -5.6614   -0.2398 H   0  0  0  0  0  0  0  0  0  0  0  0
   -5.4902   -4.1619   -1.1035 H   0  0  0  0  0  0  0  0  0  0  0  0
   -3.7164   -5.8642   -0.5676 H   0  0  0  0  0  0  0  0  0  0  0  0
   -3.8498   -5.3933    1.1828 H   0  0  0  0  0  0  0  0  0  0  0  0
   -3.1100   -3.8421   -1.2944 H   0  0  0  0  0  0  0  0  0  0  0  0
   -2.2587   -3.9243    0.3591 H   0  0  0  0  0  0  0  0  0  0  0  0
    6.4444   -3.4168    2.6920 H   0  0  0  0  0  0  0  0  0  0  0  0
    7.9361   -3.4598    0.1470 H   0  0  0  0  0  0  0  0  0  0  0  0
    6.5608   -0.7325   -1.3066 H   0  0  0  0  0  0  0  0  0  0  0  0
    8.3077   -2.3511    2.0001 H   0  0  0  0  0  0  0  0  0  0  0  0
    7.2648   -0.0577    2.1781 H   0  0  0  0  0  0  0  0  0  0  0  0
    8.0900   -0.3662    0.6316 H   0  0  0  0  0  0  0  0  0  0  0  0
    5.0399   -0.7954    1.0352 H   0  0  0  0  0  0  0  0  0  0  0  0
    5.7214    1.6866    0.7581 H   0  0  0  0  0  0  0  0  0  0  0  0
    6.6533    1.1385   -0.6621 H   0  0  0  0  0  0  0  0  0  0  0  0
    4.7172    0.2291   -1.7613 H   0  0  0  0  0  0  0  0  0  0  0  0
    3.0546    1.5080    0.4257 H   0  0  0  0  0  0  0  0  0  0  0  0
    3.2835   -0.2444    0.2205 H   0  0  0  0  0  0  0  0  0  0  0  0
    2.4641   -0.1390   -2.0968 H   0  0  0  0  0  0  0  0  0  0  0  0
    2.3647    1.6729   -1.9709 H   0  0  0  0  0  0  0  0  0  0  0  0
   -0.0627    0.1765    1.2965 H   0  0  0  0  0  0  0  0  0  0  0  0
   -0.6877   -1.5534    0.2781 H   0  0  0  0  0  0  0  0  0  0  0  0
   -2.2733   -2.0155   -1.2046 H   0  0  0  0  0  0  0  0  0  0  0  0
   -3.9851   -0.6404    0.5437 H   0  0  0  0  0  0  0  0  0  0  0  0
   -3.7918   -0.8066   -2.0424 H   0  0  0  0  0  0  0  0  0  0  0  0
   -0.3817   -0.2642   -2.3603 H   0  0  0  0  0  0  0  0  0  0  0  0
    1.5070   -1.7128   -2.3497 H   0  0  0  0  0  0  0  0  0  0  0  0
    0.5144   -3.7225   -2.6422 H   0  0  0  0  0  0  0  0  0  0  0  0
   -0.5841   -3.5932   -1.2899 H   0  0  0  0  0  0  0  0  0  0  0  0
   -0.8288   -2.6233   -2.8662 H   0  0  0  0  0  0  0  0  0  0  0  0
    2.4608   -2.5489   -0.5304 H   0  0  0  0  0  0  0  0  0  0  0  0
    0.9750   -3.3408    0.0373 H   0  0  0  0  0  0  0  0  0  0  0  0
    1.3745   -1.6114    0.5246 H   0  0  0  0  0  0  0  0  0  0  0  0
    4.4998    2.2278   -2.5768 H   0  0  0  0  0  0  0  0  0  0  0  0
   -3.9208    1.4739    1.1887 H   0  0  0  0  0  0  0  0  0  0  0  0
   -3.0200    2.4696    0.0987 H   0  0  0  0  0  0  0  0  0  0  0  0
   -2.2372    0.2134    1.9331 H   0  0  0  0  0  0  0  0  0  0  0  0
   -0.8134    2.8302    2.3865 H   0  0  0  0  0  0  0  0  0  0  0  0
   -0.2063    1.1937    2.8162 H   0  0  0  0  0  0  0  0  0  0  0  0
   -1.4984    2.2400    4.6590 H   0  0  0  0  0  0  0  0  0  0  0  0
   -2.3791    0.7827    4.0647 H   0  0  0  0  0  0  0  0  0  0  0  0
   -4.2133    2.0511    3.5902 H   0  0  0  0  0  0  0  0  0  0  0  0
   -3.3010    3.4638    4.1523 H   0  0  0  0  0  0  0  0  0  0  0  0
   -2.4200    3.9655    1.9724 H   0  0  0  0  0  0  0  0  0  0  0  0
   -4.1524    3.5750    1.7998 H   0  0  0  0  0  0  0  0  0  0  0  0
   -1.7634    3.9110   -3.7090 H   0  0  0  0  0  0  0  0  0  0  0  0
   -2.3356    4.2507   -2.0794 H   0  0  0  0  0  0  0  0  0  0  0  0
   -1.9378    2.0544   -2.1345 H   0  0  0  0  0  0  0  0  0  0  0  0
   -0.4711    2.1943   -3.1842 H   0  0  0  0  0  0  0  0  0  0  0  0
    0.9229    2.8352   -1.5388 H   0  0  0  0  0  0  0  0  0  0  0  0
    0.2840    3.9298    0.6282 H   0  0  0  0  0  0  0  0  0  0  0  0
   -1.3769    4.1038   -0.0712 H   0  0  0  0  0  0  0  0  0  0  0  0
    1.3392    4.8864   -1.2083 H   0  0  0  0  0  0  0  0  0  0  0  0
    0.1048    6.0124   -0.6328 H   0  0  0  0  0  0  0  0  0  0  0  0
    0.4153    4.9320   -3.3331 H   0  0  0  0  0  0  0  0  0  0  0  0
    0.9744    1.9123    0.5171 H   0  0  0  0  0  0  0  0  0  0  0  0
   -4.7097   -2.3223   -0.6239 H   0  0  0  0  0  0  0  0  0  0  0  0
   -4.1767   -3.5065    2.0917 H   0  0  0  0  0  0  0  0  0  0  0  0
   -5.2639   -2.0347    1.8912 H   0  0  0  0  0  0  0  0  0  0  0  0
   -6.3252   -4.4607    1.8105 H   0  0  0  0  0  0  0  0  0  0  0  0
   -6.8325   -3.2166    0.6502 H   0  0  0  0  0  0  0  0  0  0  0  0
   -6.0556   -5.6614   -0.2398 H   0  0  0  0  0  0  0  0  0  0  0  0
   -5.4902   -4.1619   -1.1035 H   0  0  0  0  0  0  0  0  0  0  0  0
   -3.7164   -5.8642   -0.5676 H   0  0  0  0  0  0  0  0  0  0  0  0
   -3.8498   -5.3933    1.1828 H   0  0  0  0  0  0  0  0  0  0  0  0
   -3.1100   -3.8421   -1.2944 H   0  0  0  0  0  0  0  0  0  0  0  0
   -2.2587   -3.9243    0.3591 H   0  0  0  0  0  0  0  0  0  0  0  0
    6.4444   -3.4168    2.6920 H   0  0  0  0  0  0  0  0  0  0  0  0
    7.9361   -3.4598    0.1470 H   0  0  0  0  0  0  0  0  0  0  0  0
    6.5608   -0.7325   -1.3066 H   0  0  0  0  0  0  0  0  0  0  0  0
    8.3077   -2.3511    2.0001 H   0  0  0  0  0  0  0  0  0  0  0  0
    7.2648   -0.0577    2.1781 H   0  0  0  0  0  0  0  0  0  0  0  0
    8.0900   -0.3662    0.6316 H   0  0  0  0  0  0  0  0  0  0  0  0
    5.0399   -0.7954    1.0352 H   0  0  0  0  0  0  0  0  0  0  0  0
    5.7214    1.6866    0.7581 H   0  0  0  0  0  0  0  0  0  0  0  0
    6.6533    1.1385   -0.6621 H   0  0  0  0  0  0  0  0  0  0  0  0
    4.7172    0.2291   -1.7613 H   0  0  0  0  0  0  0  0  0  0  0  0
    3.0546    1.5080    0.4257 H   0  0  0  0  0  0  0  0  0  0  0  0
    3.2835   -0.2444    0.2205 H   0  0  0  0  0  0  0  0  0  0  0  0
    2.4641   -0.1390   -2.0968 H   0  0  0  0  0  0  0  0  0  0  0  0
    2.3647    1.6729   -1.9709 H   0  0  0  0  0  0  0  0  0  0  0  0
   -0.0627    0.1765    1.2965 H   0  0  0  0  0  0  0  0  0  0  0  0
   -0.6877   -1.5534    0.2781 H   0  0  0  0  0  0  0  0  0  0  0  0
   -2.2733   -2.0155   -1.2046 H   0  0  0  0  0  0  0  0  0  0  0  0
   -3.9851   -0.6404    0.5437 H   0  0  0  0  0  0  0  0  0  0  0  0
   -3.7918   -0.8066   -2.0424 H   0  0  0  0  0  0  0  0  0  0  0  0
   -0.3817   -0.2642   -2.3603 H   0  0  0  0  0  0  0  0  0  0  0  0
    1.5070   -1.7128   -2.3497 H   0  0  0  0  0  0  0  0  0  0  0  0
    0.5144   -3.7225   -2.6422 H   0  0  0  0  0  0  0  0  0  0  0  0
   -0.5841   -3.5932   -1.2899 H   0  0  0  0  0  0  0  0  0  0  0  0
   -0.8288   -2.6233   -2.8662 H   0  0  0  0  0  0  0  0  0  0  0  0
    2.4608   -2.5489   -0.5304 H   0  0  0  0  0  0  0  0  0  0  0  0
    0.9750   -3.3408    0.0373 H   0  0  0  0  0  0  0  0  0  0  0  0
    1.3745   -1.6114    0.5246 H   0  0  0  0  0  0  0  0  0  0  0  0
    4.4998    2.2278   -2.5768 H   0  0  0  0  0  0  0  0  0  0  0  0
   -3.9208    1.4739    1.1887 H   0  0  0  0  0  0  0  0  0  0  0  0
   -3.0200    2.4696    0.0987 H   0  0  0  0  0  0  0  0  0  0  0  0
   -2.2372    0.2134    1.9331 H   0  0  0  0  0  0  0  0  0  0  0  0
   -0.8134    2.8302    2.3865 H   0  0  0  0  0  0  0  0  0  0  0  0
   -0.2063    1.1937    2.8162 H   0  0  0  0  0  0  0  0  0  0  0  0
   -1.4984    2.2400    4.6590 H   0  0  0  0  0  0  0  0  0  0  0  0
   -2.3791    0.7827    4.0647 H   0  0  0  0  0  0  0  0  0  0  0  0
   -4.2133    2.0511    3.5902 H   0  0  0  0  0  0  0  0  0  0  0  0
   -3.3010    3.4638    4.1523 H   0  0  0  0  0  0  0  0  0  0  0  0
   -2.4200    3.9655    1.9724 H   0  0  0  0  0  0  0  0  0  0  0  0
   -4.1524    3.5750    1.7998 H   0  0  0  0  0  0  0  0  0  0  0  0
   -1.7634    3.9110   -3.7090 H   0  0  0  0  0  0  0  0  0  0  0  0
   -2.3356    4.2507   -2.0794 H   0  0  0  0  0  0  0  0  0  0  0  0
   -1.9378    2.0544   -2.1345 H   0  0  0  0  0  0  0  0  0  0  0  0
   -0.4711    2.1943   -3.1842 H   0  0  0  0  0  0  0  0  0  0  0  0
    0.9229    2.8352   -1.5388 H   0  0  0  0  0  0  0  0  0  0  0  0
    0.2840    3.9298    0.6282 H   0  0  0  0  0  0  0  0  0  0  0  0
   -1.3769    4.1038   -0.0712 H   0  0  0  0  0  0  0  0  0  0  0  0
    1.3392    4.8864   -1.2083 H   0  0  0  0  0  0  0  0  0  0  0  0
    0.1048    6.0124   -0.6328 H   0  0  0  0  0  0  0  0  0  0  0  0
    0.4153    4.9320   -3.3331 H   0  0  0  0  0  0  0  0  0  0  0  0
    0.9744    1.9123    0.5171 H   0  0  0  0  0  0  0  0  0  0  0  0
   -4.7097   -2.3223   -0.6239 H   0  0  0  0  0  0  0  0  0  0  0  0
   -4.1767   -3.5065    2.0917 H   0  0  0  0  0  0  0  0  0  0  0  0
   -5.2639   -2.0347    1.8912 H   0  0  0  0  0  0  0  0  0  0  0  0
   -6.3252   -4.4607    1.8105 H   0  0  0  0  0  0  0  0  0  0  0  0
   -6.8325   -3.2166    0.6502 H   0  0  0  0  0  0  0  0  0  0  0  0
   -6.0556   -5.6614   -0.2398 H   0  0  0  0  0  0  0  0  0  0  0  0
   -5.4902   -4.1619   -1.1035 H   0  0  0  0  0  0  0  0  0  0  0  0
   -3.7164   -5.8642   -0.5676 H   0  0  0  0  0  0  0  0  0  0  0  0
   -3.8498   -5.3933    1.1828 H   0  0  0  0  0  0  0  0  0  0  0  0
   -3.1100   -3.8421   -1.2944 H   0  0  0  0  0  0  0  0  0  0  0  0
   -2.2587   -3.9243    0.3591 H   0  0  0  0  0  0  0  0  0  0  0  0
    6.4444   -3.4168    2.6920 H   0  0  0  0  0  0  0  0  0  0  0  0
    7.9361   -3.4598    0.1470 H   0  0  0  0  0  0  0  0  0  0  0  0
    6.5608   -0.7325   -1.3066 H   0  0  0  0  0  0  0  0  0  0  0  0
    8.3077   -2.3511    2.0001 H   0  0  0  0  0  0  0  0  0  0  0  0
    7.2648   -0.0577    2.1781 H   0  0  0  0  0  0  0  0  0  0  0  0
    8.0900   -0.3662    0.6316 H   0  0  0  0  0  0  0  0  0  0  0  0
    5.0399   -0.7954    1.0352 H   0  0  0  0  0  0  0  0  0  0  0  0
    5.7214    1.6866    0.7581 H   0  0  0  0  0  0  0  0  0  0  0  0
    6.6533    1.1385   -0.6621 H   0  0  0  0  0  0  0  0  0  0  0  0
    4.7172    0.2291   -1.7613 H   0  0  0  0  0  0  0  0  0  0  0  0
    3.0546    1.5080    0.4257 H   0  0  0  0  0  0  0  0  0  0  0  0
    3.2835   -0.2444    0.2205 H   0  0  0  0  0  0  0  0  0  0  0  0
    2.4641   -0.1390   -2.0968 H   0  0  0  0  0  0  0  0  0  0  0  0
    2.3647    1.6729   -1.9709 H   0  0  0  0  0  0  0  0  0  0  0  0
   -0.0627    0.1765    1.2965 H   0  0  0  0  0  0  0  0  0  0  0  0
   -0.6877   -1.5534    0.2781 H   0  0  0  0  0  0  0  0  0  0  0  0
   -2.2733   -2.0155   -1.2046 H   0  0  0  0  0  0  0  0  0  0  0  0
   -3.9851   -0.6404    0.5437 H   0  0  0  0  0  0  0  0  0  0  0  0
   -3.7918   -0.8066   -2.0424 H   0  0  0  0  0  0  0  0  0  0  0  0
   -0.3817   -0.2642   -2.3603 H   0  0  0  0  0  0  0  0  0  0  0  0
    1.5070   -1.7128   -2.3497 H   0  0  0  0  0  0  0  0  0  0  0  0
    0.5144   -3.7225   -2.6422 H   0  0  0  0  0  0  0  0  0  0  0  0
   -0.5841   -3.5932   -1.2899 H   0  0  0  0  0  0  0  0  0  0  0  0
   -0.8288   -2.6233   -2.8662 H   0  0  0  0  0  0  0  0  0  0  0  0
    2.4608   -2.5489   -0.5304 H   0  0  0  0  0  0  0  0  0  0  0  0
    0.9750   -3.3408    0.0373 H   0  0  0  0  0  0  0  0  0  0  0  0
    1.3745   -1.6114    0.5246 H   0  0  0  0  0  0  0  0  0  0  0  0
    4.4998    2.2278   -2.5768 H   0  0  0  0  0  0  0  0  0  0  0  0
  1  2  1  0
  2  3  1  0
  3  4  1  0
  4  5  1  0
  1  6  1  0
  5  6  1  0
  7  8  1  0
  8  9  1  0
  9 10  1  0
 10 11  1  0
  7 12  1  0
 11 12  1  0
 12 13  1  0
  9 14  1  0
 15 16  1  0
 16 17  1  0
 17 18  1  0
 18 19  1  0
 15 20  1  0
 19 20  1  0
 21 24  1  0
 22 24  1  0
 24 25  1  0
 23 26  1  0
 25 26  1  0
 26 27  1  0
 27 28  1  0
 28 29  1  0
 29 30  1  0
 14 31  1  0
 30 31  1  0
  2 32  1  0
 14 32  1  0
 32 33  1  0
 33 34  1  0
 15 35  1  0
 34 35  1  0
 34 36  1  0
 31 37  1  0
 33 37  1  0
 37 38  1  0
 38 39  1  0
 38 40  1  0
 28 41  1  0
 42 43  1  0
 43 44  1  0
 44 45  1  0
 45 46  1  0
 42 47  1  0
 46 47  1  0
 48 49  1  0
 49 50  1  0
 50 51  1  0
 51 52  1  0
 48 53  1  0
 52 53  1  0
 53 54  1  0
 50 55  1  0
 56 57  1  0
 57 58  1  0
 58 59  1  0
 59 60  1  0
 56 61  1  0
 60 61  1  0
 62 65  1  0
 63 65  1  0
 65 66  1  0
 64 67  1  0
 66 67  1  0
 67 68  1  0
 68 69  1  0
 69 70  1  0
 70 71  1  0
 55 72  1  0
 71 72  1  0
 43 73  1  0
 55 73  1  0
 73 74  1  0
 74 75  1  0
 56 76  1  0
 75 76  1  0
 75 77  1  0
 72 78  1  0
 74 78  1  0
 78 79  1  0
 79 80  1  0
 79 81  1  0
 69 82  1  0
 83 84  1  0
 84 85  1  0
 85 86  1  0
 86 87  1  0
 83 88  1  0
 87 88  1  0
 89 90  1  0
 90 91  1  0
 91 92  1  0
 92 93  1  0
 89 94  1  0
 93 94  1  0
 94 95  1  0
 91 96  1  0
 97 98  1  0
 98 99  1  0
 99100  1  0
100101  1  0
 97102  1  0
101102  1  0
103106  1  0
104106  1  0
106107  1  0
105108  1  0
107108  1  0
108109  1  0
109110  1  0
110111  1  0
111112  1  0
 96113  1  0
112113  1  0
 84114  1  0
 96114  1  0
114115  1  0
115116  1  0
 97117  1  0
116117  1  0
116118  1  0
113119  1  0
115119  1  0
119120  1  0
120121  1  0
120122  1  0
110123  1  0
124125  1  0
125126  1  0
126127  1  0
127128  1  0
124129  1  0
128129  1  0
130131  1  0
131132  1  0
132133  1  0
133134  1  0
130135  1  0
134135  1  0
135136  1  0
132137  1  0
138139  1  0
139140  1  0
140141  1  0
141142  1  0
138143  1  0
142143  1  0
144147  1  0
145147  1  0
147148  1  0
146149  1  0
148149  1  0
149150  1  0
150151  1  0
151152  1  0
152153  1  0
137154  1  0
153154  1  0
125155  1  0
137155  1  0
155156  1  0
156157  1  0
138158  1  0
157158  1  0
157159  1  0
154160  1  0
156160  1  0
160161  1  0
161162  1  0
161163  1  0
151164  1  0
  1165  1  0
  1166  1  0
  2167  1  0
  3168  1  0
  3169  1  0
  4170  1  0
  4171  1  0
  5172  1  0
  5173  1  0
  6174  1  0
  6175  1  0
  7176  1  0
  7177  1  0
  8178  1  0
  8179  1  0
  9180  1  0
 10181  1  0
 10182  1  0
 11183  1  0
 11184  1  0
 12185  1  0
 14186  1  0
 15187  1  0
 16188  1  0
 16189  1  0
 17190  1  0
 17191  1  0
 18192  1  0
 18193  1  0
 19194  1  0
 19195  1  0
 20196  1  0
 20197  1  0
 21198  1  0
 22199  1  0
 23200  1  0
 24201  1  0
 25202  1  0
 25203  1  0
 26204  1  1
 27205  1  0
 27206  1  0
 28207  1  6
 29208  1  0
 29209  1  0
 30210  1  0
 30211  1  0
 32212  1  0
 33213  1  0
 34214  1  0
 35215  1  0
 36216  1  0
 37217  1  0
 38218  1  0
 39219  1  0
 39220  1  0
 39221  1  0
 40222  1  0
 40223  1  0
 40224  1  0
 41225  1  0
 42226  1  0
 42227  1  0
 43228  1  0
 44229  1  0
 44230  1  0
 45231  1  0
 45232  1  0
 46233  1  0
 46234  1  0
 47235  1  0
 47236  1  0
 48237  1  0
 48238  1  0
 49239  1  0
 49240  1  0
 50241  1  0
 51242  1  0
 51243  1  0
 52244  1  0
 52245  1  0
 53246  1  0
 55247  1  0
 56248  1  0
 57249  1  0
 57250  1  0
 58251  1  0
 58252  1  0
 59253  1  0
 59254  1  0
 60255  1  0
 60256  1  0
 61257  1  0
 61258  1  0
 62259  1  0
 63260  1  0
 64261  1  0
 65262  1  0
 66263  1  0
 66264  1  0
 67265  1  1
 68266  1  0
 68267  1  0
 69268  1  6
 70269  1  0
 70270  1  0
 71271  1  0
 71272  1  0
 73273  1  0
 74274  1  0
 75275  1  0
 76276  1  0
 77277  1  0
 78278  1  0
 79279  1  0
 80280  1  0
 80281  1  0
 80282  1  0
 81283  1  0
 81284  1  0
 81285  1  0
 82286  1  0
 83287  1  0
 83288  1  0
 84289  1  0
 85290  1  0
 85291  1  0
 86292  1  0
 86293  1  0
 87294  1  0
 87295  1  0
 88296  1  0
 88297  1  0
 89298  1  0
 89299  1  0
 90300  1  0
 90301  1  0
 91302  1  0
 92303  1  0
 92304  1  0
 93305  1  0
 93306  1  0
 94307  1  0
 96308  1  0
 97309  1  0
 98310  1  0
 98311  1  0
 99312  1  0
 99313  1  0
100314  1  0
100315  1  0
101316  1  0
101317  1  0
102318  1  0
102319  1  0
103320  1  0
104321  1  0
105322  1  0
106323  1  0
107324  1  0
107325  1  0
108326  1  1
109327  1  0
109328  1  0
110329  1  6
111330  1  0
111331  1  0
112332  1  0
112333  1  0
114334  1  0
115335  1  0
116336  1  0
117337  1  0
118338  1  0
119339  1  0
120340  1  0
121341  1  0
121342  1  0
121343  1  0
122344  1  0
122345  1  0
122346  1  0
123347  1  0
124348  1  0
124349  1  0
125350  1  0
126351  1  0
126352  1  0
127353  1  0
127354  1  0
128355  1  0
128356  1  0
129357  1  0
129358  1  0
130359  1  0
130360  1  0
131361  1  0
131362  1  0
132363  1  0
133364  1  0
133365  1  0
134366  1  0
134367  1  0
135368  1  0
137369  1  0
138370  1  0
139371  1  0
139372  1  0
140373  1  0
140374  1  0
141375  1  0
141376  1  0
142377  1  0
142378  1  0
143379  1  0
143380  1  0
144381  1  0
145382  1  0
146383  1  0
147384  1  0
148385  1  0
148386  1  0
149387  1  1
150388  1  0
150389  1  0
151390  1  6
152391  1  0
152392  1  0
153393  1  0
153394  1  0
155395  1  0
156396  1  0
157397  1  0
158398  1  0
159399  1  0
160400  1  0
161401  1  0
162402  1  0
162403  1  0
162404  1  0
163405  1  0
163406  1  0
163407  1  0
164408  1  0
M  END
>  <PDBID>  (1) 
1HWK

>  <PDB ID>  (1) 
1HWK

>  <Generic Name>  (1) 
Atorvastatin

>  <Brand Name>  (1) 
Ach-atorvastatin Calcium#Act Atorvastatin#Amlodipine Besylate and Atorvastatin Calcium#Amlodipine Besylate/atorvastatin Calcium#Apo-amlodipine-atorvastatin#Apo-atorvastatin#Atorvastatin#Atorvastatin Calcium#Atorvastatin-10#Atorvastatin-20#Atorvastatin-40#Atorvastatin-80#Auro-atorvastatin#Ava-atorvastatin#Caduet#Dom-atorvastatin#Gd-amlodipine/atorvastatin#Gd-atorvastatin#Jamp-atorvastatin#Lipitor#Liptruzet#Mar-atorvastatin#Mylan-amlodipine/atorvastatin#Mylan-atorvastatin#Novo-atorvastatin#Ntp-atorvastatin#PMS-amlodipine-atorvastatin#PMS-atorvastatin#Pendo-amlodipine-atorvastatin#Q-gen Atorvastatin#Ran-atorvastatin#Ratio-atorvastatin#Rbx-atorvastatin#Reddy-atorvastatin#Riva-atorvastatin#Sandoz Atorvastatin#Atogal#Cardyl#Faboxim#Hipolixan#Lipotropic#Liprimar#Lowden#Normalip#Sincol#Sortis#Torvacard#Torvast#Totalip#Tulip#Vastina#Xanator#Xarator#Zurinel

>  <DrugBank ID>  (1) 
DB01076

>  <ATC Codes>  (1) 
C10AA05#C10BA05#C10BX06#C10BX11#C10BX03#C10BX08

>  <Ligand ID>  (1) 
117

>  <Target Name>  (1) 
3-hydroxy-3-methylglutaryl-coenzyme A reductase

>  <UniProt ID>  (1) 
P04035

>  <PDB ID.1>  (1) 
1HWK

>  <Seq. Identity>  (1) 
97%

$$$$
