PDB_DB00787_08
     RDKit          3D

 70 72  0  0  0  0  0  0  0  0999 V2000
    4.0475   -0.8697    0.1894 C   0  0  0  0  0  0  0  0  0  0  0  0
    5.4357   -0.8557    0.4575 O   0  0  0  0  0  0  0  0  0  0  0  0
    3.4204    0.3992    0.7034 C   0  0  0  0  0  0  0  0  0  0  0  0
    2.0737    0.4950    0.5019 O   0  0  0  0  0  0  0  0  0  0  0  0
    1.6915    0.4612   -0.8140 C   0  0  0  0  0  0  0  0  0  0  0  0
    0.2549    0.5866   -0.9663 N   0  0  0  0  0  0  0  0  0  0  0  0
   -0.2689    1.8004   -0.4362 C   0  0  0  0  0  0  0  0  0  0  0  0
   -1.3978    1.4269    0.4262 N   0  0  0  0  0  0  0  0  0  0  0  0
   -1.1033    0.0785    0.8305 C   0  0  0  0  0  0  0  0  0  0  0  0
   -2.2785   -0.6706    1.3574 C   0  0  0  0  0  0  0  0  0  0  0  0
   -3.0834    0.1541    2.1549 O   0  0  0  0  0  0  0  0  0  0  0  0
   -3.0614   -1.3364    0.3591 N   0  0  0  0  0  0  0  0  0  0  0  0
   -2.7442   -0.9538   -0.9788 C   0  0  0  0  0  0  0  0  0  0  0  0
   -3.2389    0.3852   -1.2833 N   0  0  0  0  0  0  0  0  0  0  0  0
   -1.3780   -1.0320   -1.3307 N   0  0  0  0  0  0  0  0  0  0  0  0
   -0.4534   -0.5226   -0.3603 C   0  0  0  0  0  0  0  0  0  0  0  0
    4.4865   -0.1579    0.5484 C   0  0  0  0  0  0  0  0  0  0  0  0
    4.4882   -0.2319   -0.8284 O   0  0  0  0  0  0  0  0  0  0  0  0
    3.2761    0.5398    1.0845 C   0  0  0  0  0  0  0  0  0  0  0  0
    2.0658   -0.0215    0.7975 O   0  0  0  0  0  0  0  0  0  0  0  0
    1.7213   -0.1315   -0.5062 C   0  0  0  0  0  0  0  0  0  0  0  0
    0.3886   -0.6952   -0.6954 N   0  0  0  0  0  0  0  0  0  0  0  0
    0.2664   -2.0098   -0.1403 C   0  0  0  0  0  0  0  0  0  0  0  0
   -1.1802   -2.1447   -0.0111 N   0  0  0  0  0  0  0  0  0  0  0  0
   -1.5068   -0.8453    0.5995 C   0  0  2  0  0  0  0  0  0  0  0  0
   -2.9739   -0.5586    0.5266 C   0  0  0  0  0  0  0  0  0  0  0  0
   -3.3827    0.3068    1.5184 O   0  0  0  0  0  0  0  0  0  0  0  0
   -3.3093   -0.0977   -0.7962 N   0  0  0  0  0  0  0  0  0  0  0  0
   -2.5584    1.0467   -1.2080 C   0  0  0  0  0  0  0  0  0  0  0  0
   -3.0712    2.2836   -0.5976 N   0  0  0  0  0  0  0  0  0  0  0  0
   -1.1712    0.9926   -1.0175 N   0  0  0  0  0  0  0  0  0  0  0  0
   -0.6315    0.1358   -0.0579 C   0  0  0  0  0  0  0  0  0  0  0  0
    3.6468   -1.7356    0.7746 H   0  0  0  0  0  0  0  0  0  0  0  0
    3.8529   -1.0858   -0.8620 H   0  0  0  0  0  0  0  0  0  0  0  0
    5.8519   -0.1803   -0.1356 H   0  0  0  0  0  0  0  0  0  0  0  0
    3.6633    0.5069    1.7995 H   0  0  0  0  0  0  0  0  0  0  0  0
    3.9326    1.2544    0.1733 H   0  0  0  0  0  0  0  0  0  0  0  0
    1.9793   -0.5330   -1.2605 H   0  0  0  0  0  0  0  0  0  0  0  0
    2.1925    1.2308   -1.4351 H   0  0  0  0  0  0  0  0  0  0  0  0
   -0.6918    2.4138   -1.2598 H   0  0  0  0  0  0  0  0  0  0  0  0
    0.4703    2.4006    0.1351 H   0  0  0  0  0  0  0  0  0  0  0  0
   -1.4064    2.1027    1.2246 H   0  0  0  0  0  0  0  0  0  0  0  0
   -0.3434    0.1576    1.6594 H   0  0  0  0  0  0  0  0  0  0  0  0
   -1.8750   -1.4777    2.0375 H   0  0  0  0  0  0  0  0  0  0  0  0
   -3.6701   -0.3830    2.7623 H   0  0  0  0  0  0  0  0  0  0  0  0
   -4.1007   -1.1598    0.4918 H   0  0  0  0  0  0  0  0  0  0  0  0
   -3.3140   -1.6508   -1.6607 H   0  0  0  0  0  0  0  0  0  0  0  0
   -4.2632    0.4698   -1.1054 H   0  0  0  0  0  0  0  0  0  0  0  0
   -3.0535    0.5573   -2.3101 H   0  0  0  0  0  0  0  0  0  0  0  0
   -1.0774   -1.9280   -1.7639 H   0  0  0  0  0  0  0  0  0  0  0  0
    0.2899   -1.3243   -0.0758 H   0  0  0  0  0  0  0  0  0  0  0  0
    5.4032    0.4291    0.8342 H   0  0  0  0  0  0  0  0  0  0  0  0
    4.6414   -1.1494    1.0310 H   0  0  0  0  0  0  0  0  0  0  0  0
    4.8851    0.5787   -1.1939 H   0  0  0  0  0  0  0  0  0  0  0  0
    3.3866    0.5873    2.2179 H   0  0  0  0  0  0  0  0  0  0  0  0
    3.3275    1.6251    0.7989 H   0  0  0  0  0  0  0  0  0  0  0  0
    2.3670   -0.7824   -1.1379 H   0  0  0  0  0  0  0  0  0  0  0  0
    1.7083    0.8673   -0.9856 H   0  0  0  0  0  0  0  0  0  0  0  0
    0.6880   -2.7529   -0.8403 H   0  0  0  0  0  0  0  0  0  0  0  0
    0.6916   -2.1061    0.8759 H   0  0  0  0  0  0  0  0  0  0  0  0
   -1.5550   -2.0602   -1.0030 H   0  0  0  0  0  0  0  0  0  0  0  0
   -1.2467   -0.9665    1.6799 H   0  0  0  0  0  0  0  0  0  0  0  0
   -3.5245   -1.5210    0.6856 H   0  0  0  0  0  0  0  0  0  0  0  0
   -2.9478    0.0483    2.3694 H   0  0  0  0  0  0  0  0  0  0  0  0
   -4.3228    0.1729   -0.7768 H   0  0  0  0  0  0  0  0  0  0  0  0
   -2.7625    1.1834   -2.3119 H   0  0  0  0  0  0  0  0  0  0  0  0
   -2.8804    2.3158    0.4169 H   0  0  0  0  0  0  0  0  0  0  0  0
   -4.0809    2.4196   -0.8259 H   0  0  0  0  0  0  0  0  0  0  0  0
   -0.5652    1.2839   -1.7894 H   0  0  0  0  0  0  0  0  0  0  0  0
   -0.1209    0.7516    0.7385 H   0  0  0  0  0  0  0  0  0  0  0  0
  1  2  1  0
  1  3  1  0
  3  4  1  0
  4  5  1  0
  5  6  1  0
  6  7  1  0
  7  8  1  0
  8  9  1  0
  9 10  1  0
 10 11  1  0
 10 12  1  0
 12 13  1  0
 13 14  1  0
 13 15  1  0
  6 16  1  0
  9 16  1  0
 15 16  1  0
 17 18  1  0
 17 19  1  0
 19 20  1  0
 20 21  1  0
 21 22  1  0
 22 23  1  0
 23 24  1  0
 24 25  1  0
 25 26  1  0
 26 27  1  0
 26 28  1  0
 28 29  1  0
 29 30  1  0
 29 31  1  0
 22 32  1  0
 25 32  1  0
 31 32  1  0
  1 33  1  0
  1 34  1  0
  2 35  1  0
  3 36  1  0
  3 37  1  0
  5 38  1  0
  5 39  1  0
  7 40  1  0
  7 41  1  0
  8 42  1  0
  9 43  1  0
 10 44  1  0
 11 45  1  0
 12 46  1  0
 13 47  1  0
 14 48  1  0
 14 49  1  0
 15 50  1  0
 16 51  1  0
 17 52  1  0
 17 53  1  0
 18 54  1  0
 19 55  1  0
 19 56  1  0
 21 57  1  0
 21 58  1  0
 23 59  1  0
 23 60  1  0
 24 61  1  0
 25 62  1  1
 26 63  1  0
 27 64  1  0
 28 65  1  0
 29 66  1  0
 30 67  1  0
 30 68  1  0
 31 69  1  0
 32 70  1  0
M  END
>  <PDBID>  (1) 
2KI5

>  <PDB ID>  (1) 
2KI5

>  <Generic Name>  (1) 
Aciclovir

>  <Brand Name>  (1) 
Acyclovir#Acyclovir Sodium#Acyclovir Sodium Injection#Acyclovir Sodium for Injection#Acyclovir-200#Acyclovir-400#Acyclovir-800#Alti-acyclovir - 400mg#Alti-acyclovir - 800mg#Alti-acyclovir - Tab 200mg#Apo-acyclovir - Tab 200mg#Apo-acyclovir - Tab 400mg#Apo-acyclovir - Tab 800mg#Mylan-acyclovir#Ntp-acyclovir#Nu-acyclovir - Tab 200mg#Nu-acyclovir - Tab 400mg#Nu-acyclovir - Tab 800mg#Ratio-acyclovir#Sitavig#Teva-acyclovir#Xerese#Zovirax#Zovirax 400#Zovirax 800#Zovirax Cap 200mg#Zovirax Tab 200mg#Zovir

>  <DrugBank ID>  (1) 
DB00787

>  <ATC Codes>  (1) 
S01AD03#D06BB03#J05AB01#D06BB53

>  <Ligand ID>  (1) 
AC2

>  <Target Name>  (1) 
Thymidine kinase

>  <UniProt ID>  (1) 
P03176

>  <PDB ID.1>  (1) 
2KI5

>  <Seq. Identity>  (1) 
100%

$$$$
