PDB_DB01104_02
     RDKit          3D

 49 51  0  0  0  0  0  0  0  0999 V2000
    5.8757    0.9222   -0.2912 Cl  0  0  0  0  0  0  0  0  0  0  0  0
    4.6908   -0.3743    0.0498 C   0  0  0  0  0  0  0  0  0  0  0  0
    4.0287   -0.7294   -1.2515 C   0  0  0  0  0  0  0  0  0  0  0  0
    5.0992   -0.4316   -2.6248 Cl  0  0  0  0  0  0  0  0  0  0  0  0
    3.7205    0.1419    1.0855 C   0  0  0  0  0  0  0  0  0  0  0  0
    2.3619   -0.5944    1.0042 C   0  0  0  0  0  0  0  0  0  0  0  0
    1.7915   -0.4838   -0.3660 C   0  0  0  0  0  0  0  0  0  0  0  0
    2.7577    0.1029   -1.3437 C   0  0  0  0  0  0  0  0  0  0  0  0
    0.4109    0.1369   -0.4420 C   0  0  1  0  0  0  0  0  0  0  0  0
   -0.5718   -0.6780    0.3823 C   0  0  0  0  0  0  0  0  0  0  0  0
   -0.7488   -1.9590   -0.3684 C   0  0  0  0  0  0  0  0  0  0  0  0
   -2.1190   -2.5024   -0.5061 C   0  0  0  0  0  0  0  0  0  0  0  0
   -2.9725   -2.1438    0.7074 C   0  0  0  0  0  0  0  0  0  0  0  0
   -3.1105   -0.6269    0.5952 C   0  0  0  0  0  0  0  0  0  0  0  0
   -1.8257    0.0892    0.6581 C   0  0  0  0  0  0  0  0  0  0  0  0
   -1.8785    1.4186   -0.0005 C   0  0  1  0  0  0  0  0  0  0  0  0
   -3.0353    2.1959    0.2803 N   0  0  0  0  0  0  0  0  0  0  0  0
   -4.1360    2.0724   -0.5985 C   0  0  0  0  0  0  0  0  0  0  0  0
   -0.6990    2.2495    0.3926 C   0  0  0  0  0  0  0  0  0  0  0  0
    0.5636    1.5453    0.0970 C   0  0  0  0  0  0  0  0  0  0  0  0
    5.2506   -1.2402    0.4835 H   0  0  0  0  0  0  0  0  0  0  0  0
    3.7819   -1.8133   -1.2044 H   0  0  0  0  0  0  0  0  0  0  0  0
    3.5636    1.2329    0.9710 H   0  0  0  0  0  0  0  0  0  0  0  0
    4.1033   -0.0371    2.1011 H   0  0  0  0  0  0  0  0  0  0  0  0
    1.7651   -0.1359    1.8027 H   0  0  0  0  0  0  0  0  0  0  0  0
    2.6026   -1.6332    1.3003 H   0  0  0  0  0  0  0  0  0  0  0  0
    1.6148   -1.5561   -0.7325 H   0  0  0  0  0  0  0  0  0  0  0  0
    2.9838    1.1616   -1.1513 H   0  0  0  0  0  0  0  0  0  0  0  0
    2.3630   -0.0148   -2.3954 H   0  0  0  0  0  0  0  0  0  0  0  0
    0.1282    0.1817   -1.5047 H   0  0  0  0  0  0  0  0  0  0  0  0
   -0.0568   -0.9183    1.3310 H   0  0  0  0  0  0  0  0  0  0  0  0
   -0.1156   -2.7870    0.0727 H   0  0  0  0  0  0  0  0  0  0  0  0
   -0.3359   -1.8763   -1.4276 H   0  0  0  0  0  0  0  0  0  0  0  0
   -2.6262   -2.0632   -1.3864 H   0  0  0  0  0  0  0  0  0  0  0  0
   -2.1501   -3.5991   -0.5873 H   0  0  0  0  0  0  0  0  0  0  0  0
   -2.4469   -2.4138    1.6546 H   0  0  0  0  0  0  0  0  0  0  0  0
   -3.9760   -2.5659    0.6202 H   0  0  0  0  0  0  0  0  0  0  0  0
   -3.8379   -0.3342    1.4080 H   0  0  0  0  0  0  0  0  0  0  0  0
   -3.6230   -0.4344   -0.3698 H   0  0  0  0  0  0  0  0  0  0  0  0
   -1.7494    0.3938    1.7856 H   0  0  0  0  0  0  0  0  0  0  0  0
   -1.8526    1.2565   -1.1569 H   0  0  0  0  0  0  0  0  0  0  0  0
   -2.9813    2.9632    0.9251 H   0  0  0  0  0  0  0  0  0  0  0  0
   -4.5432    3.1350   -0.8036 H   0  0  0  0  0  0  0  0  0  0  0  0
   -4.9676    1.4974   -0.2583 H   0  0  0  0  0  0  0  0  0  0  0  0
   -3.7494    1.7863   -1.6216 H   0  0  0  0  0  0  0  0  0  0  0  0
   -0.8604    2.4600    1.4781 H   0  0  0  0  0  0  0  0  0  0  0  0
   -0.7925    3.2620   -0.1064 H   0  0  0  0  0  0  0  0  0  0  0  0
    1.2223    1.6167    0.9891 H   0  0  0  0  0  0  0  0  0  0  0  0
    1.0821    2.1246   -0.7136 H   0  0  0  0  0  0  0  0  0  0  0  0
  1  2  1  0
  2  3  1  0
  3  4  1  0
  2  5  1  0
  5  6  1  0
  6  7  1  0
  3  8  1  0
  7  8  1  0
  7  9  1  0
  9 10  1  0
 10 11  1  0
 11 12  1  0
 12 13  1  0
 13 14  1  0
 10 15  1  0
 14 15  1  0
 15 16  1  0
 16 17  1  0
 17 18  1  0
 16 19  1  0
  9 20  1  0
 19 20  1  0
  2 21  1  0
  3 22  1  0
  5 23  1  0
  5 24  1  0
  6 25  1  0
  6 26  1  0
  7 27  1  0
  8 28  1  0
  8 29  1  0
  9 30  1  6
 10 31  1  0
 11 32  1  0
 11 33  1  0
 12 34  1  0
 12 35  1  0
 13 36  1  0
 13 37  1  0
 14 38  1  0
 14 39  1  0
 15 40  1  0
 16 41  1  6
 17 42  1  0
 18 43  1  0
 18 44  1  0
 18 45  1  0
 19 46  1  0
 19 47  1  0
 20 48  1  0
 20 49  1  0
M  END
>  <PDBID>  (1) 
6AWO

>  <PDB ID>  (1) 
6AWO

>  <Generic Name>  (1) 
Sertraline

>  <Brand Name>  (1) 
Act Sertraline#Apo-sertraline#Auro-sertraline#Bio-sertraline#Dom-sertraline#Gd-sertraline#Ipg-sertraline#Jamp-sertraline#Mar-sertraline#Mint-sertraline#Mylan-sertraline#Nu-sertraline Capsules#PHL-sertraline#PMS-sertraline#Priva-sertraline#Q-sertraline#Ran-sertraline#Ratio-sertraline#Riva-sertraline#Sandoz Sertraline#Sertraline#Sertraline Hydrochloride#Sertraline Hydrochloride Tablets#Sertraline-100#Sertraline-25#Sertraline-50#Teva-sertraline#Van-sertraline#Zoloft#Zoloft Cap 100mg#Zoloft Cap 50mg#Lustral

>  <DrugBank ID>  (1) 
DB01104

>  <ATC Codes>  (1) 
N06AB06

>  <Ligand ID>  (1) 
SRE

>  <Target Name>  (1) 
Sodium-dependent serotonin transporter

>  <UniProt ID>  (1) 
P31645

>  <PDB ID.1>  (1) 
6AWO

>  <Seq. Identity>  (1) 
99%

$$$$
