PDB_DB01601_05
     RDKit          3D

118121  0  0  0  0  0  0  0  0999 V2000
   -5.1696    3.3073    2.2879 C   0  0  0  0  0  0  0  0  0  0  0  0
   -5.5862    1.3292    0.7982 C   0  0  0  0  0  0  0  0  0  0  0  0
   -5.1197    2.1855   -0.2580 N   0  0  0  0  0  0  0  0  0  0  0  0
   -5.1016    3.5499   -0.0208 C   0  0  0  0  0  0  0  0  0  0  0  0
   -5.9402    3.8580    1.1602 N   0  0  0  0  0  0  0  0  0  0  0  0
    2.7094   -3.0534    1.8617 C   0  0  0  0  0  0  0  0  0  0  0  0
    3.6431   -4.2117    1.3785 C   0  0  0  0  0  0  0  0  0  0  0  0
    2.7932   -5.2021    0.6271 C   0  0  0  0  0  0  0  0  0  0  0  0
    2.0114   -6.0849    1.6129 C   0  0  0  0  0  0  0  0  0  0  0  0
    1.8420   -5.2086    2.8435 C   0  0  0  0  0  0  0  0  0  0  0  0
    1.4911   -3.7759    2.3456 C   0  0  0  0  0  0  0  0  0  0  0  0
   -5.8039    4.2307   -1.0430 O   0  0  0  0  0  0  0  0  0  0  0  0
   -4.4082    1.5579   -1.2817 C   0  0  2  0  0  0  0  0  0  0  0  0
   -3.0506    0.9612   -0.9097 C   0  0  0  0  0  0  0  0  0  0  0  0
   -2.8808    0.5787    0.4084 N   0  0  0  0  0  0  0  0  0  0  0  0
   -2.0152   -0.4578    0.8409 C   0  0  1  0  0  0  0  0  0  0  0  0
   -4.3512    2.1984   -2.6352 C   0  0  0  0  0  0  0  0  0  0  0  0
   -3.7544    3.5165   -2.8019 C   0  0  0  0  0  0  0  0  0  0  0  0
   -5.7810    2.2287   -3.1696 C   0  0  0  0  0  0  0  0  0  0  0  0
   -2.4142    0.3187   -1.9276 O   0  0  0  0  0  0  0  0  0  0  0  0
   -3.6759   -2.7429   -2.7343 C   0  0  0  0  0  0  0  0  0  0  0  0
   -2.6971   -3.8935   -2.8979 C   0  0  0  0  0  0  0  0  0  0  0  0
   -2.6360   -4.7711   -1.6944 C   0  0  0  0  0  0  0  0  0  0  0  0
   -2.5015   -4.1110   -0.3756 C   0  0  0  0  0  0  0  0  0  0  0  0
   -2.4307   -2.5603   -0.6607 C   0  0  0  0  0  0  0  0  0  0  0  0
   -3.8421   -2.3897   -1.2752 C   0  0  0  0  0  0  0  0  0  0  0  0
   -2.2563   -1.8625    0.6184 C   0  0  0  0  0  0  0  0  0  0  0  0
   -0.5529   -0.0137    0.5110 C   0  0  0  0  0  0  0  0  0  0  0  0
    0.3801   -1.0369    1.0222 C   0  0  1  0  0  0  0  0  0  0  0  0
    1.8470   -0.8786    0.7416 C   0  0  1  0  0  0  0  0  0  0  0  0
    2.5156    0.2621    1.1822 N   0  0  0  0  0  0  0  0  0  0  0  0
    2.3693    1.4862    0.5269 C   0  0  0  0  0  0  0  0  0  0  0  0
    2.9936    1.5319   -0.8636 C   0  0  0  0  0  0  0  0  0  0  0  0
    4.3307    1.2957   -0.8119 O   0  0  0  0  0  0  0  0  0  0  0  0
    5.1521    2.1875   -0.2077 C   0  0  0  0  0  0  0  0  0  0  0  0
    0.2397   -1.0098    2.4534 O   0  0  0  0  0  0  0  0  0  0  0  0
    2.6034   -2.1463    0.7267 C   0  0  0  0  0  0  0  0  0  0  0  0
    2.7936    2.5211    1.3575 O   0  0  0  0  0  0  0  0  0  0  0  0
    6.1526    2.8611   -1.1557 C   0  0  0  0  0  0  0  0  0  0  0  0
    6.6558    4.0685   -0.4132 C   0  0  0  0  0  0  0  0  0  0  0  0
    7.1194    3.8048    0.9804 C   0  0  0  0  0  0  0  0  0  0  0  0
    6.1506    3.0299    1.8337 C   0  0  0  0  0  0  0  0  0  0  0  0
    5.8286    1.7389    1.0525 C   0  0  0  0  0  0  0  0  0  0  0  0
    7.1420    1.0468    0.8776 C   0  0  0  0  0  0  0  0  0  0  0  0
    5.3408    3.3560   -2.3397 C   0  0  0  0  0  0  0  0  0  0  0  0
   -5.3932    1.8133    2.1879 C   0  0  0  0  0  0  0  0  0  0  0  0
   -5.5393    3.7143    3.2504 H   0  0  0  0  0  0  0  0  0  0  0  0
   -4.1106    3.5555    2.0807 H   0  0  0  0  0  0  0  0  0  0  0  0
   -5.1717    0.3183    0.6546 H   0  0  0  0  0  0  0  0  0  0  0  0
   -6.6977    1.1858    0.6048 H   0  0  0  0  0  0  0  0  0  0  0  0
   -4.1402    4.0185    0.2309 H   0  0  0  0  0  0  0  0  0  0  0  0
   -6.8379    3.3210    1.1366 H   0  0  0  0  0  0  0  0  0  0  0  0
    3.2508   -2.6593    2.7483 H   0  0  0  0  0  0  0  0  0  0  0  0
    4.3565   -3.7628    0.6773 H   0  0  0  0  0  0  0  0  0  0  0  0
    4.1721   -4.6631    2.2257 H   0  0  0  0  0  0  0  0  0  0  0  0
    2.0400   -4.6952    0.0339 H   0  0  0  0  0  0  0  0  0  0  0  0
    3.4042   -5.9137    0.0384 H   0  0  0  0  0  0  0  0  0  0  0  0
    0.9910   -6.2940    1.2407 H   0  0  0  0  0  0  0  0  0  0  0  0
    2.5434   -6.9907    1.8934 H   0  0  0  0  0  0  0  0  0  0  0  0
    0.9499   -5.5393    3.4103 H   0  0  0  0  0  0  0  0  0  0  0  0
    2.6997   -5.2046    3.5164 H   0  0  0  0  0  0  0  0  0  0  0  0
    0.7461   -3.9767    1.5590 H   0  0  0  0  0  0  0  0  0  0  0  0
    1.0477   -3.3226    3.2713 H   0  0  0  0  0  0  0  0  0  0  0  0
   -6.7528    3.9064   -0.9384 H   0  0  0  0  0  0  0  0  0  0  0  0
   -5.0486    0.6354   -1.5070 H   0  0  0  0  0  0  0  0  0  0  0  0
   -2.4285    1.9845   -0.9320 H   0  0  0  0  0  0  0  0  0  0  0  0
   -2.8337    1.4129    1.0896 H   0  0  0  0  0  0  0  0  0  0  0  0
   -1.9957   -0.3455    1.9665 H   0  0  0  0  0  0  0  0  0  0  0  0
   -3.8403    1.4160   -3.2891 H   0  0  0  0  0  0  0  0  0  0  0  0
   -2.9153    3.4139   -3.5734 H   0  0  0  0  0  0  0  0  0  0  0  0
   -4.4043    4.2775   -3.3270 H   0  0  0  0  0  0  0  0  0  0  0  0
   -3.2458    3.9919   -1.9546 H   0  0  0  0  0  0  0  0  0  0  0  0
   -6.0283    3.2461   -3.5843 H   0  0  0  0  0  0  0  0  0  0  0  0
   -5.9401    1.5352   -4.0224 H   0  0  0  0  0  0  0  0  0  0  0  0
   -6.5341    1.9772   -2.4237 H   0  0  0  0  0  0  0  0  0  0  0  0
   -1.9813    0.8355   -2.6134 H   0  0  0  0  0  0  0  0  0  0  0  0
   -3.2666   -1.8890   -3.3142 H   0  0  0  0  0  0  0  0  0  0  0  0
   -4.6393   -3.0310   -3.1752 H   0  0  0  0  0  0  0  0  0  0  0  0
   -1.6939   -3.5291   -3.2249 H   0  0  0  0  0  0  0  0  0  0  0  0
   -3.0768   -4.5103   -3.7394 H   0  0  0  0  0  0  0  0  0  0  0  0
   -3.5055   -5.4701   -1.7056 H   0  0  0  0  0  0  0  0  0  0  0  0
   -1.7301   -5.4357   -1.8292 H   0  0  0  0  0  0  0  0  0  0  0  0
   -1.5726   -4.3721    0.1766 H   0  0  0  0  0  0  0  0  0  0  0  0
   -3.4232   -4.2075    0.2492 H   0  0  0  0  0  0  0  0  0  0  0  0
   -1.7238   -2.4482   -1.4456 H   0  0  0  0  0  0  0  0  0  0  0  0
   -4.3134   -1.4615   -1.0850 H   0  0  0  0  0  0  0  0  0  0  0  0
   -4.5195   -3.1983   -0.8413 H   0  0  0  0  0  0  0  0  0  0  0  0
   -3.3047   -2.0500    1.1731 H   0  0  0  0  0  0  0  0  0  0  0  0
   -1.6693   -2.5971    1.2677 H   0  0  0  0  0  0  0  0  0  0  0  0
   -0.4762    0.8983    1.1871 H   0  0  0  0  0  0  0  0  0  0  0  0
   -0.4561    0.3254   -0.5011 H   0  0  0  0  0  0  0  0  0  0  0  0
    0.0400   -2.0177    0.6937 H   0  0  0  0  0  0  0  0  0  0  0  0
    1.7827   -0.6542   -0.4411 H   0  0  0  0  0  0  0  0  0  0  0  0
    2.7256    0.3092    2.2034 H   0  0  0  0  0  0  0  0  0  0  0  0
    1.2733    1.7221    0.3554 H   0  0  0  0  0  0  0  0  0  0  0  0
    2.7461    2.5726   -1.2259 H   0  0  0  0  0  0  0  0  0  0  0  0
    2.4884    0.7896   -1.4931 H   0  0  0  0  0  0  0  0  0  0  0  0
    4.5116    3.0670    0.1126 H   0  0  0  0  0  0  0  0  0  0  0  0
   -0.5314   -1.4846    2.7669 H   0  0  0  0  0  0  0  0  0  0  0  0
    3.6430   -1.9269    0.2780 H   0  0  0  0  0  0  0  0  0  0  0  0
    2.1549   -2.7596   -0.1341 H   0  0  0  0  0  0  0  0  0  0  0  0
    2.3444    3.3793    1.0725 H   0  0  0  0  0  0  0  0  0  0  0  0
    6.9296    2.2028   -1.5222 H   0  0  0  0  0  0  0  0  0  0  0  0
    7.5136    4.5044   -0.9628 H   0  0  0  0  0  0  0  0  0  0  0  0
    5.7993    4.7958   -0.3491 H   0  0  0  0  0  0  0  0  0  0  0  0
    7.2156    4.8163    1.4759 H   0  0  0  0  0  0  0  0  0  0  0  0
    8.1333    3.3634    1.0293 H   0  0  0  0  0  0  0  0  0  0  0  0
    5.2207    3.6166    1.9711 H   0  0  0  0  0  0  0  0  0  0  0  0
    6.6667    2.7855    2.7874 H   0  0  0  0  0  0  0  0  0  0  0  0
    5.1320    1.0924    1.6132 H   0  0  0  0  0  0  0  0  0  0  0  0
    7.8124    1.5367    0.1683 H   0  0  0  0  0  0  0  0  0  0  0  0
    7.6715    1.1611    1.8808 H   0  0  0  0  0  0  0  0  0  0  0  0
    7.0738   -0.0543    0.7271 H   0  0  0  0  0  0  0  0  0  0  0  0
    5.9976    3.6751   -3.1796 H   0  0  0  0  0  0  0  0  0  0  0  0
    4.6475    2.5751   -2.7286 H   0  0  0  0  0  0  0  0  0  0  0  0
    4.7249    4.2445   -2.0609 H   0  0  0  0  0  0  0  0  0  0  0  0
   -6.2908    1.5790    2.8122 H   0  0  0  0  0  0  0  0  0  0  0  0
   -4.5529    1.2931    2.7344 H   0  0  0  0  0  0  0  0  0  0  0  0
  2  3  1  0
  3  4  1  0
  1  5  1  0
  4  5  1  0
  6  7  1  0
  7  8  1  0
  8  9  1  0
  9 10  1  0
  6 11  1  0
 10 11  1  0
  4 12  1  0
  3 13  1  0
 13 14  1  0
 14 15  1  0
 15 16  1  0
 13 17  1  0
 17 18  1  0
 17 19  1  0
 14 20  1  0
 21 22  1  0
 22 23  1  0
 23 24  1  0
 24 25  1  0
 21 26  1  0
 25 26  1  0
 16 27  1  0
 25 27  1  0
 16 28  1  0
 28 29  1  0
 29 30  1  0
 30 31  1  0
 31 32  1  0
 32 33  1  0
 33 34  1  0
 34 35  1  0
 29 36  1  0
  6 37  1  0
 30 37  1  0
 32 38  1  0
 35 39  1  0
 39 40  1  0
 40 41  1  0
 41 42  1  0
 35 43  1  0
 42 43  1  0
 43 44  1  0
 39 45  1  0
  1 46  1  0
  2 46  1  0
  1 47  1  0
  1 48  1  0
  2 49  1  0
  2 50  1  0
  4 51  1  0
  5 52  1  0
  6 53  1  0
  7 54  1  0
  7 55  1  0
  8 56  1  0
  8 57  1  0
  9 58  1  0
  9 59  1  0
 10 60  1  0
 10 61  1  0
 11 62  1  0
 11 63  1  0
 12 64  1  0
 13 65  1  6
 14 66  1  0
 15 67  1  0
 16 68  1  1
 17 69  1  0
 18 70  1  0
 18 71  1  0
 18 72  1  0
 19 73  1  0
 19 74  1  0
 19 75  1  0
 20 76  1  0
 21 77  1  0
 21 78  1  0
 22 79  1  0
 22 80  1  0
 23 81  1  0
 23 82  1  0
 24 83  1  0
 24 84  1  0
 25 85  1  0
 26 86  1  0
 26 87  1  0
 27 88  1  0
 27 89  1  0
 28 90  1  0
 28 91  1  0
 29 92  1  6
 30 93  1  6
 31 94  1  0
 32 95  1  0
 33 96  1  0
 33 97  1  0
 35 98  1  0
 36 99  1  0
 37100  1  0
 37101  1  0
 38102  1  0
 39103  1  0
 40104  1  0
 40105  1  0
 41106  1  0
 41107  1  0
 42108  1  0
 42109  1  0
 43110  1  0
 44111  1  0
 44112  1  0
 44113  1  0
 45114  1  0
 45115  1  0
 45116  1  0
 46117  1  0
 46118  1  0
M  END
>  <PDBID>  (1) 
1MUI

>  <PDB ID>  (1) 
1MUI

>  <Generic Name>  (1) 
Lopinavir

>  <Brand Name>  (1) 
Kaletra#Lopinavir-ritonavir#Aluviran#Koletra

>  <DrugBank ID>  (1) 
DB01601

>  <ATC Codes>  (1) 
J05AR10

>  <Ligand ID>  (1) 
AB1

>  <Target Name>  (1) 
Pol polyprotein

>  <UniProt ID>  (1) 
Q72874

>  <PDB ID.1>  (1) 
1MUI

>  <Seq. Identity>  (1) 
99%

$$$$
