PDB_DB04854_00
     RDKit          3D

108110  0  0  0  0  0  0  0  0999 V2000
    3.2581   -1.4568   -0.7019 S   0  0  0  0  0  0  0  0  0  0  0  0
    2.1284   -0.8724    0.6045 C   0  0  0  0  0  0  0  0  0  0  0  0
    2.3945    0.5446    0.5937 N   0  0  0  0  0  0  0  0  0  0  0  0
    3.8354    0.6703    0.5453 C   0  0  0  0  0  0  0  0  0  0  0  0
    4.2587    0.0931   -0.8137 C   0  0  0  0  0  0  0  0  0  0  0  0
    0.7219   -1.2430    0.2010 C   0  0  0  0  0  0  0  0  0  0  0  0
   -0.3015   -0.7775    1.1790 C   0  0  0  0  0  0  0  0  0  0  0  0
   -1.6626   -1.0289    0.6290 C   0  0  0  0  0  0  0  0  0  0  0  0
   -1.8948   -0.0753   -0.5160 C   0  0  0  0  0  0  0  0  0  0  0  0
   -0.7409   -0.0407   -1.4858 C   0  0  0  0  0  0  0  0  0  0  0  0
    0.4125   -0.9096   -1.2024 C   0  0  0  0  0  0  0  0  0  0  0  0
   -1.9460   -2.4323    0.2240 C   0  0  0  0  0  0  0  0  0  0  0  0
   -1.8247   -3.3697    1.3242 N   0  0  0  0  0  0  0  0  0  0  0  0
   -2.0144    1.1726    0.0082 O   0  0  0  0  0  0  0  0  0  0  0  0
   -3.1266    1.8922   -0.0830 C   0  0  0  0  0  0  0  0  0  0  0  0
   -4.3691    1.4430    0.5796 C   0  0  0  0  0  0  0  0  0  0  0  0
   -5.4535    2.5063    0.3123 C   0  0  0  0  0  0  0  0  0  0  0  0
   -4.9627    0.1640    0.0683 C   0  0  0  0  0  0  0  0  0  0  0  0
    4.3290    2.0472    0.7661 C   0  0  0  0  0  0  0  0  0  0  0  0
    5.6898   -0.3195   -0.8300 C   0  0  0  0  0  0  0  0  0  0  0  0
    6.5415    0.7787   -0.9131 O   0  0  0  0  0  0  0  0  0  0  0  0
    5.8978   -1.2196   -1.8744 O   0  0  0  0  0  0  0  0  0  0  0  0
    3.2581   -1.4568   -0.7019 S   0  0  0  0  0  0  0  0  0  0  0  0
    2.1284   -0.8724    0.6045 C   0  0  0  0  0  0  0  0  0  0  0  0
    2.3945    0.5446    0.5937 N   0  0  0  0  0  0  0  0  0  0  0  0
    3.8354    0.6703    0.5453 C   0  0  0  0  0  0  0  0  0  0  0  0
    4.2587    0.0931   -0.8137 C   0  0  0  0  0  0  0  0  0  0  0  0
    0.7219   -1.2430    0.2010 C   0  0  0  0  0  0  0  0  0  0  0  0
   -0.3015   -0.7775    1.1790 C   0  0  0  0  0  0  0  0  0  0  0  0
   -1.6626   -1.0289    0.6290 C   0  0  0  0  0  0  0  0  0  0  0  0
   -1.8948   -0.0753   -0.5160 C   0  0  0  0  0  0  0  0  0  0  0  0
   -0.7409   -0.0407   -1.4858 C   0  0  0  0  0  0  0  0  0  0  0  0
    0.4125   -0.9096   -1.2024 C   0  0  0  0  0  0  0  0  0  0  0  0
   -1.9460   -2.4323    0.2240 C   0  0  0  0  0  0  0  0  0  0  0  0
   -1.8247   -3.3697    1.3242 N   0  0  0  0  0  0  0  0  0  0  0  0
   -2.0144    1.1726    0.0082 O   0  0  0  0  0  0  0  0  0  0  0  0
   -3.1266    1.8922   -0.0830 C   0  0  0  0  0  0  0  0  0  0  0  0
   -4.3691    1.4430    0.5796 C   0  0  0  0  0  0  0  0  0  0  0  0
   -5.4535    2.5063    0.3123 C   0  0  0  0  0  0  0  0  0  0  0  0
   -4.9627    0.1640    0.0683 C   0  0  0  0  0  0  0  0  0  0  0  0
    4.3290    2.0472    0.7661 C   0  0  0  0  0  0  0  0  0  0  0  0
    5.6898   -0.3195   -0.8300 C   0  0  0  0  0  0  0  0  0  0  0  0
    6.5415    0.7787   -0.9131 O   0  0  0  0  0  0  0  0  0  0  0  0
    5.8978   -1.2196   -1.8744 O   0  0  0  0  0  0  0  0  0  0  0  0
    2.3997   -1.3096    1.5887 H   0  0  0  0  0  0  0  0  0  0  0  0
    1.9417    0.9564   -0.2459 H   0  0  0  0  0  0  0  0  0  0  0  0
    4.2314   -0.0742    1.2957 H   0  0  0  0  0  0  0  0  0  0  0  0
    3.9379    0.7117   -1.6473 H   0  0  0  0  0  0  0  0  0  0  0  0
    0.7144   -2.3801    0.2704 H   0  0  0  0  0  0  0  0  0  0  0  0
   -0.1431   -1.2038    2.1886 H   0  0  0  0  0  0  0  0  0  0  0  0
   -0.2039    0.3337    1.3116 H   0  0  0  0  0  0  0  0  0  0  0  0
   -2.3746   -0.7874    1.4673 H   0  0  0  0  0  0  0  0  0  0  0  0
   -2.8187   -0.3891   -1.0210 H   0  0  0  0  0  0  0  0  0  0  0  0
   -0.4279    1.0251   -1.6870 H   0  0  0  0  0  0  0  0  0  0  0  0
   -1.1668   -0.3571   -2.4844 H   0  0  0  0  0  0  0  0  0  0  0  0
    1.3269   -0.3709   -1.6154 H   0  0  0  0  0  0  0  0  0  0  0  0
    0.4038   -1.8381   -1.8613 H   0  0  0  0  0  0  0  0  0  0  0  0
   -3.0318   -2.4832   -0.0713 H   0  0  0  0  0  0  0  0  0  0  0  0
   -1.4127   -2.7871   -0.6801 H   0  0  0  0  0  0  0  0  0  0  0  0
   -1.1969   -4.1677    1.1128 H   0  0  0  0  0  0  0  0  0  0  0  0
   -1.6302   -2.9041    2.2337 H   0  0  0  0  0  0  0  0  0  0  0  0
   -2.9012    2.9399    0.2942 H   0  0  0  0  0  0  0  0  0  0  0  0
   -3.3481    2.1166   -1.1926 H   0  0  0  0  0  0  0  0  0  0  0  0
   -4.2018    1.4128    1.6753 H   0  0  0  0  0  0  0  0  0  0  0  0
   -5.0732    3.5125    0.5165 H   0  0  0  0  0  0  0  0  0  0  0  0
   -5.7452    2.3746   -0.7440 H   0  0  0  0  0  0  0  0  0  0  0  0
   -6.3306    2.2326    0.9261 H   0  0  0  0  0  0  0  0  0  0  0  0
   -4.5444   -0.7438    0.4917 H   0  0  0  0  0  0  0  0  0  0  0  0
   -5.0403    0.2219   -1.0305 H   0  0  0  0  0  0  0  0  0  0  0  0
   -6.0449    0.1579    0.4299 H   0  0  0  0  0  0  0  0  0  0  0  0
    5.3503    2.0223    1.2143 H   0  0  0  0  0  0  0  0  0  0  0  0
    3.6588    2.5487    1.5017 H   0  0  0  0  0  0  0  0  0  0  0  0
    4.4060    2.6124   -0.1730 H   0  0  0  0  0  0  0  0  0  0  0  0
    5.8826   -0.8973    0.1104 H   0  0  0  0  0  0  0  0  0  0  0  0
    6.8138    0.9280   -1.8521 H   0  0  0  0  0  0  0  0  0  0  0  0
    5.3982   -0.9802   -2.6955 H   0  0  0  0  0  0  0  0  0  0  0  0
    2.3997   -1.3096    1.5887 H   0  0  0  0  0  0  0  0  0  0  0  0
    1.9417    0.9564   -0.2459 H   0  0  0  0  0  0  0  0  0  0  0  0
    4.2314   -0.0742    1.2957 H   0  0  0  0  0  0  0  0  0  0  0  0
    3.9379    0.7117   -1.6473 H   0  0  0  0  0  0  0  0  0  0  0  0
    0.7144   -2.3801    0.2704 H   0  0  0  0  0  0  0  0  0  0  0  0
   -0.1431   -1.2038    2.1886 H   0  0  0  0  0  0  0  0  0  0  0  0
   -0.2039    0.3337    1.3116 H   0  0  0  0  0  0  0  0  0  0  0  0
   -2.3746   -0.7874    1.4673 H   0  0  0  0  0  0  0  0  0  0  0  0
   -2.8187   -0.3891   -1.0210 H   0  0  0  0  0  0  0  0  0  0  0  0
   -0.4279    1.0251   -1.6870 H   0  0  0  0  0  0  0  0  0  0  0  0
   -1.1668   -0.3571   -2.4844 H   0  0  0  0  0  0  0  0  0  0  0  0
    1.3269   -0.3709   -1.6154 H   0  0  0  0  0  0  0  0  0  0  0  0
    0.4038   -1.8381   -1.8613 H   0  0  0  0  0  0  0  0  0  0  0  0
   -3.0318   -2.4832   -0.0713 H   0  0  0  0  0  0  0  0  0  0  0  0
   -1.4127   -2.7871   -0.6801 H   0  0  0  0  0  0  0  0  0  0  0  0
   -1.1969   -4.1677    1.1128 H   0  0  0  0  0  0  0  0  0  0  0  0
   -1.6302   -2.9041    2.2337 H   0  0  0  0  0  0  0  0  0  0  0  0
   -2.9012    2.9399    0.2942 H   0  0  0  0  0  0  0  0  0  0  0  0
   -3.3481    2.1166   -1.1926 H   0  0  0  0  0  0  0  0  0  0  0  0
   -4.2018    1.4128    1.6753 H   0  0  0  0  0  0  0  0  0  0  0  0
   -5.0732    3.5125    0.5165 H   0  0  0  0  0  0  0  0  0  0  0  0
   -5.7452    2.3746   -0.7440 H   0  0  0  0  0  0  0  0  0  0  0  0
   -6.3306    2.2326    0.9261 H   0  0  0  0  0  0  0  0  0  0  0  0
   -4.5444   -0.7438    0.4917 H   0  0  0  0  0  0  0  0  0  0  0  0
   -5.0403    0.2219   -1.0305 H   0  0  0  0  0  0  0  0  0  0  0  0
   -6.0449    0.1579    0.4299 H   0  0  0  0  0  0  0  0  0  0  0  0
    5.3503    2.0223    1.2143 H   0  0  0  0  0  0  0  0  0  0  0  0
    3.6588    2.5487    1.5017 H   0  0  0  0  0  0  0  0  0  0  0  0
    4.4060    2.6124   -0.1730 H   0  0  0  0  0  0  0  0  0  0  0  0
    5.8826   -0.8973    0.1104 H   0  0  0  0  0  0  0  0  0  0  0  0
    6.8138    0.9280   -1.8521 H   0  0  0  0  0  0  0  0  0  0  0  0
    5.3982   -0.9802   -2.6955 H   0  0  0  0  0  0  0  0  0  0  0  0
  1  2  1  0
  2  3  1  0
  3  4  1  0
  1  5  1  0
  4  5  1  0
  2  6  1  0
  6  7  1  0
  7  8  1  0
  8  9  1  0
  9 10  1  0
  6 11  1  0
 10 11  1  0
  8 12  1  0
 12 13  1  0
  9 14  1  0
 14 15  1  0
 15 16  1  0
 16 17  1  0
 16 18  1  0
  4 19  1  0
  5 20  1  0
 20 21  1  0
 20 22  1  0
 23 24  1  0
 24 25  1  0
 25 26  1  0
 23 27  1  0
 26 27  1  0
 24 28  1  0
 28 29  1  0
 29 30  1  0
 30 31  1  0
 31 32  1  0
 28 33  1  0
 32 33  1  0
 30 34  1  0
 34 35  1  0
 31 36  1  0
 36 37  1  0
 37 38  1  0
 38 39  1  0
 38 40  1  0
 26 41  1  0
 27 42  1  0
 42 43  1  0
 42 44  1  0
  2 45  1  0
  3 46  1  0
  4 47  1  0
  5 48  1  0
  6 49  1  0
  7 50  1  0
  7 51  1  0
  8 52  1  0
  9 53  1  0
 10 54  1  0
 10 55  1  0
 11 56  1  0
 11 57  1  0
 12 58  1  0
 12 59  1  0
 13 60  1  0
 13 61  1  0
 15 62  1  0
 15 63  1  0
 16 64  1  0
 17 65  1  0
 17 66  1  0
 17 67  1  0
 18 68  1  0
 18 69  1  0
 18 70  1  0
 19 71  1  0
 19 72  1  0
 19 73  1  0
 20 74  1  0
 21 75  1  0
 22 76  1  0
 24 77  1  0
 25 78  1  0
 26 79  1  0
 27 80  1  0
 28 81  1  0
 29 82  1  0
 29 83  1  0
 30 84  1  0
 31 85  1  0
 32 86  1  0
 32 87  1  0
 33 88  1  0
 33 89  1  0
 34 90  1  0
 34 91  1  0
 35 92  1  0
 35 93  1  0
 37 94  1  0
 37 95  1  0
 38 96  1  0
 39 97  1  0
 39 98  1  0
 39 99  1  0
 40100  1  0
 40101  1  0
 40102  1  0
 41103  1  0
 41104  1  0
 41105  1  0
 42106  1  0
 43107  1  0
 44108  1  0
M  END
>  <PDBID>  (1) 
1N5X

>  <PDB ID>  (1) 
1N5X

>  <Generic Name>  (1) 
Febuxostat

>  <Brand Name>  (1) 
Febuxostat#Uloric#Adenuric#Atenurix#Barif#Feburic

>  <DrugBank ID>  (1) 
DB04854

>  <ATC Codes>  (1) 
M04AA03

>  <Ligand ID>  (1) 
TEI

>  <Target Name>  (1) 
Xanthine dehydrogenase/oxidase

>  <UniProt ID>  (1) 
P47989

>  <PDB ID.1>  (1) 
1N5X

>  <Seq. Identity>  (1) 
85%

$$$$
