PDB_DB09026_02
     RDKit          3D

204204  0  0  0  0  0  0  0  0999 V2000
   -9.5942    1.2053   -2.2593 C   0  0  0  0  0  0  0  0  0  0  0  0
   -8.2888    1.6188   -1.9943 O   0  0  0  0  0  0  0  0  0  0  0  0
   -8.2588    2.9312   -1.5210 C   0  0  0  0  0  0  0  0  0  0  0  0
   -6.8438    3.3795   -1.2711 C   0  0  0  0  0  0  0  0  0  0  0  0
   -6.1384    2.5488   -0.2429 C   0  0  0  0  0  0  0  0  0  0  0  0
   -6.1018    1.2455   -0.6401 O   0  0  0  0  0  0  0  0  0  0  0  0
   -5.4010    0.3974    0.2031 C   0  0  0  0  0  0  0  0  0  0  0  0
   -4.1791   -0.1862   -0.4336 C   0  0  0  0  0  0  0  0  0  0  0  0
   -3.4790   -1.0649    0.6408 C   0  0  0  0  0  0  0  0  0  0  0  0
   -4.4254   -2.2282    0.7741 C   0  0  0  0  0  0  0  0  0  0  0  0
   -5.7325   -1.8185    1.3618 C   0  0  0  0  0  0  0  0  0  0  0  0
   -6.3484   -0.5897    0.7711 C   0  0  0  0  0  0  0  0  0  0  0  0
   -7.3313   -1.0232   -0.1151 O   0  0  0  0  0  0  0  0  0  0  0  0
   -8.6180   -0.7270    0.3149 C   0  0  0  0  0  0  0  0  0  0  0  0
   -2.1618   -1.3793    0.1084 C   0  0  0  0  0  0  0  0  0  0  0  0
   -1.1941   -2.2212    0.8915 C   0  0  2  0  0  0  0  0  0  0  0  0
   -0.7480   -1.7111    2.1914 C   0  0  0  0  0  0  0  0  0  0  0  0
    0.2074   -2.6426    2.9009 C   0  0  0  0  0  0  0  0  0  0  0  0
   -1.8643   -1.4300    3.1886 C   0  0  0  0  0  0  0  0  0  0  0  0
   -0.2257   -2.8313   -0.0567 C   0  0  0  0  0  0  0  0  0  0  0  0
    0.6114   -1.9807   -0.9153 C   0  0  2  0  0  0  0  0  0  0  0  0
    1.4085   -2.9338   -1.7452 N   0  0  0  0  0  0  0  0  0  0  0  0
    1.7301   -1.2204   -0.2056 C   0  0  1  0  0  0  0  0  0  0  0  0
    2.4704   -2.1533    0.5042 O   0  0  0  0  0  0  0  0  0  0  0  0
    2.5955   -0.5171   -1.2079 C   0  0  0  0  0  0  0  0  0  0  0  0
    3.7498    0.2695   -0.6498 C   0  0  1  0  0  0  0  0  0  0  0  0
    3.2575    1.3168    0.2882 C   0  0  0  0  0  0  0  0  0  0  0  0
    4.2802    2.1917    0.9194 C   0  0  0  0  0  0  0  0  0  0  0  0
    2.2771    2.2310   -0.4443 C   0  0  0  0  0  0  0  0  0  0  0  0
    4.8628   -0.5869   -0.2044 C   0  0  0  0  0  0  0  0  0  0  0  0
    5.2582   -1.3304   -1.3661 O   0  0  0  0  0  0  0  0  0  0  0  0
    6.0752    0.0672    0.2050 N   0  0  0  0  0  0  0  0  0  0  0  0
    6.7403    0.8015   -0.8081 C   0  0  0  0  0  0  0  0  0  0  0  0
    8.0261    1.3699   -0.2554 C   0  0  0  0  0  0  0  0  0  0  0  0
    8.9543    0.2743    0.2299 C   0  0  0  0  0  0  0  0  0  0  0  0
    7.7935    2.2949    0.9145 C   0  0  0  0  0  0  0  0  0  0  0  0
    8.6687    2.1872   -1.3557 C   0  0  1  0  0  0  0  0  0  0  0  0
    9.8609    2.7671   -0.9697 O   0  0  0  0  0  0  0  0  0  0  0  0
    8.8399    1.2951   -2.4899 N   0  0  0  0  0  0  0  0  0  0  0  0
  -10.2176    0.4567   -1.5508 C   0  0  0  0  0  0  0  0  0  0  0  0
   -8.9550   -0.0888   -1.4346 O   0  0  0  0  0  0  0  0  0  0  0  0
   -8.6558   -0.9071   -2.4838 C   0  0  0  0  0  0  0  0  0  0  0  0
   -7.3121   -1.5419   -2.4541 C   0  0  0  0  0  0  0  0  0  0  0  0
   -6.1458   -0.6333   -2.4215 C   0  0  0  0  0  0  0  0  0  0  0  0
   -5.9587    0.1640   -1.3334 O   0  0  0  0  0  0  0  0  0  0  0  0
   -5.6539   -0.5382   -0.1772 C   0  0  0  0  0  0  0  0  0  0  0  0
   -4.1776   -0.3046    0.1902 C   0  0  0  0  0  0  0  0  0  0  0  0
   -4.0277    0.8205    1.2019 C   0  0  2  0  0  0  0  0  0  0  0  0
   -5.2112    1.7750    0.8703 C   0  0  0  0  0  0  0  0  0  0  0  0
   -6.4557    1.1906    1.4316 C   0  0  0  0  0  0  0  0  0  0  0  0
   -6.5314   -0.2589    0.9842 C   0  0  0  0  0  0  0  0  0  0  0  0
   -6.1901   -1.1007    2.0672 O   0  0  0  0  0  0  0  0  0  0  0  0
   -7.2771   -1.8835    2.4288 C   0  0  0  0  0  0  0  0  0  0  0  0
   -2.8056    1.5910    0.9674 C   0  0  0  0  0  0  0  0  0  0  0  0
   -1.4541    0.8616    1.0706 C   0  0  2  0  0  0  0  0  0  0  0  0
   -1.1881    0.3842    2.4474 C   0  0  0  0  0  0  0  0  0  0  0  0
    0.1589   -0.3440    2.5008 C   0  0  0  0  0  0  0  0  0  0  0  0
   -2.1669   -0.5208    3.1129 C   0  0  0  0  0  0  0  0  0  0  0  0
   -0.4973    1.8330    0.4847 C   0  0  0  0  0  0  0  0  0  0  0  0
    0.9187    1.5441    0.2965 C   0  0  2  0  0  0  0  0  0  0  0  0
    1.4750    2.8386   -0.2705 N   0  0  0  0  0  0  0  0  0  0  0  0
    1.1412    0.6015   -0.8872 C   0  0  1  0  0  0  0  0  0  0  0  0
    0.3520    1.1848   -1.9253 O   0  0  0  0  0  0  0  0  0  0  0  0
    2.5305    0.6207   -1.3882 C   0  0  0  0  0  0  0  0  0  0  0  0
    3.6168    0.2231   -0.4450 C   0  0  1  0  0  0  0  0  0  0  0  0
    3.4739   -1.1915    0.0541 C   0  0  0  0  0  0  0  0  0  0  0  0
    3.5145   -2.1911   -1.0976 C   0  0  0  0  0  0  0  0  0  0  0  0
    4.6164   -1.5134    0.9835 C   0  0  0  0  0  0  0  0  0  0  0  0
    4.9268    0.4385   -1.1913 C   0  0  0  0  0  0  0  0  0  0  0  0
    4.9641    1.8129   -1.5379 O   0  0  0  0  0  0  0  0  0  0  0  0
    6.0779    0.2533   -0.3223 N   0  0  0  0  0  0  0  0  0  0  0  0
    7.2760    0.2585   -1.1476 C   0  0  0  0  0  0  0  0  0  0  0  0
    8.4465    0.0708   -0.2145 C   0  0  0  0  0  0  0  0  0  0  0  0
    8.3361   -1.2349    0.5328 C   0  0  0  0  0  0  0  0  0  0  0  0
    8.5290    1.1913    0.8003 C   0  0  0  0  0  0  0  0  0  0  0  0
    9.7651    0.0826   -0.9806 C   0  0  0  0  0  0  0  0  0  0  0  0
   10.8235   -0.0930   -0.0929 O   0  0  0  0  0  0  0  0  0  0  0  0
    9.7712   -0.9336   -1.9990 N   0  0  0  0  0  0  0  0  0  0  0  0
   -9.5348    0.1554   -2.6265 H   0  0  0  0  0  0  0  0  0  0  0  0
  -10.2228    1.1964   -1.3513 H   0  0  0  0  0  0  0  0  0  0  0  0
  -10.0954    1.8525   -3.0152 H   0  0  0  0  0  0  0  0  0  0  0  0
   -8.8064    2.9066   -0.5461 H   0  0  0  0  0  0  0  0  0  0  0  0
   -8.7795    3.5991   -2.2204 H   0  0  0  0  0  0  0  0  0  0  0  0
   -6.3118    3.2048   -2.2580 H   0  0  0  0  0  0  0  0  0  0  0  0
   -6.8197    4.4688   -1.0271 H   0  0  0  0  0  0  0  0  0  0  0  0
   -6.7677    2.5818    0.6961 H   0  0  0  0  0  0  0  0  0  0  0  0
   -5.1518    3.0100   -0.0588 H   0  0  0  0  0  0  0  0  0  0  0  0
   -5.0143    1.0816    1.0244 H   0  0  0  0  0  0  0  0  0  0  0  0
   -3.4390    0.6272   -0.5993 H   0  0  0  0  0  0  0  0  0  0  0  0
   -4.3613   -0.7632   -1.3436 H   0  0  0  0  0  0  0  0  0  0  0  0
   -3.5617   -0.4511    1.5471 H   0  0  0  0  0  0  0  0  0  0  0  0
   -4.0361   -3.0729    1.3725 H   0  0  0  0  0  0  0  0  0  0  0  0
   -4.5393   -2.6602   -0.2639 H   0  0  0  0  0  0  0  0  0  0  0  0
   -6.4096   -2.6928    1.2720 H   0  0  0  0  0  0  0  0  0  0  0  0
   -5.5932   -1.6655    2.4521 H   0  0  0  0  0  0  0  0  0  0  0  0
   -6.9216   -0.0833    1.5881 H   0  0  0  0  0  0  0  0  0  0  0  0
   -8.8560   -1.1912    1.2920 H   0  0  0  0  0  0  0  0  0  0  0  0
   -9.3763   -1.0212   -0.4321 H   0  0  0  0  0  0  0  0  0  0  0  0
   -8.6804    0.3700    0.4501 H   0  0  0  0  0  0  0  0  0  0  0  0
   -2.2586   -1.8754   -0.9049 H   0  0  0  0  0  0  0  0  0  0  0  0
   -1.6488   -0.4070   -0.1597 H   0  0  0  0  0  0  0  0  0  0  0  0
   -1.8527   -3.1417    1.1721 H   0  0  0  0  0  0  0  0  0  0  0  0
   -0.2155   -0.7294    2.1547 H   0  0  0  0  0  0  0  0  0  0  0  0
    0.9865   -2.0716    3.4766 H   0  0  0  0  0  0  0  0  0  0  0  0
   -0.3702   -3.2457    3.6456 H   0  0  0  0  0  0  0  0  0  0  0  0
    0.7166   -3.3275    2.2192 H   0  0  0  0  0  0  0  0  0  0  0  0
   -2.0610   -0.3360    3.3175 H   0  0  0  0  0  0  0  0  0  0  0  0
   -2.7364   -2.0609    3.0885 H   0  0  0  0  0  0  0  0  0  0  0  0
   -1.4374   -1.7032    4.2054 H   0  0  0  0  0  0  0  0  0  0  0  0
   -0.8882   -3.4676   -0.7662 H   0  0  0  0  0  0  0  0  0  0  0  0
    0.4304   -3.6301    0.3611 H   0  0  0  0  0  0  0  0  0  0  0  0
    0.0877   -1.3671   -1.6508 H   0  0  0  0  0  0  0  0  0  0  0  0
    1.5525   -2.5743   -2.6948 H   0  0  0  0  0  0  0  0  0  0  0  0
    0.9509   -3.8509   -1.8091 H   0  0  0  0  0  0  0  0  0  0  0  0
    1.3572   -0.4716    0.4868 H   0  0  0  0  0  0  0  0  0  0  0  0
    2.5506   -1.9477    1.4551 H   0  0  0  0  0  0  0  0  0  0  0  0
    3.0461   -1.2769   -1.9133 H   0  0  0  0  0  0  0  0  0  0  0  0
    2.0215    0.1632   -1.8696 H   0  0  0  0  0  0  0  0  0  0  0  0
    4.1399    0.8437   -1.5648 H   0  0  0  0  0  0  0  0  0  0  0  0
    2.6625    0.8819    1.1463 H   0  0  0  0  0  0  0  0  0  0  0  0
    4.7125    2.9423    0.2168 H   0  0  0  0  0  0  0  0  0  0  0  0
    5.0223    1.6812    1.5541 H   0  0  0  0  0  0  0  0  0  0  0  0
    3.7096    2.8433    1.6542 H   0  0  0  0  0  0  0  0  0  0  0  0
    2.3844    3.2965   -0.0862 H   0  0  0  0  0  0  0  0  0  0  0  0
    1.2443    1.8834   -0.3856 H   0  0  0  0  0  0  0  0  0  0  0  0
    2.5770    2.2167   -1.5134 H   0  0  0  0  0  0  0  0  0  0  0  0
    4.6237   -1.3374    0.5541 H   0  0  0  0  0  0  0  0  0  0  0  0
    5.0864   -2.2895   -1.2471 H   0  0  0  0  0  0  0  0  0  0  0  0
    6.6614   -0.4508    0.8547 H   0  0  0  0  0  0  0  0  0  0  0  0
    7.0323    0.1082   -1.6343 H   0  0  0  0  0  0  0  0  0  0  0  0
    6.1625    1.6667   -1.1986 H   0  0  0  0  0  0  0  0  0  0  0  0
    9.9794    0.6938    0.1925 H   0  0  0  0  0  0  0  0  0  0  0  0
    8.7514    0.0658    1.3132 H   0  0  0  0  0  0  0  0  0  0  0  0
    8.9005   -0.6403   -0.3805 H   0  0  0  0  0  0  0  0  0  0  0  0
    7.0379    3.0538    0.6420 H   0  0  0  0  0  0  0  0  0  0  0  0
    7.3979    1.7490    1.8003 H   0  0  0  0  0  0  0  0  0  0  0  0
    8.7230    2.8536    1.1594 H   0  0  0  0  0  0  0  0  0  0  0  0
    7.9690    2.9829   -1.6367 H   0  0  0  0  0  0  0  0  0  0  0  0
   10.5902    2.1171   -1.2145 H   0  0  0  0  0  0  0  0  0  0  0  0
    8.9804    0.3205   -2.1797 H   0  0  0  0  0  0  0  0  0  0  0  0
    7.9657    1.2988   -3.0685 H   0  0  0  0  0  0  0  0  0  0  0  0
  -11.0332   -0.2762   -1.5906 H   0  0  0  0  0  0  0  0  0  0  0  0
  -10.3047    1.1367   -2.4354 H   0  0  0  0  0  0  0  0  0  0  0  0
  -10.3998    1.0961   -0.6379 H   0  0  0  0  0  0  0  0  0  0  0  0
   -8.7179   -0.3138   -3.4481 H   0  0  0  0  0  0  0  0  0  0  0  0
   -9.4433   -1.7076   -2.5176 H   0  0  0  0  0  0  0  0  0  0  0  0
   -7.2684   -2.3348   -1.6463 H   0  0  0  0  0  0  0  0  0  0  0  0
   -7.2139   -2.1580   -3.3976 H   0  0  0  0  0  0  0  0  0  0  0  0
   -6.2232    0.0659   -3.3124 H   0  0  0  0  0  0  0  0  0  0  0  0
   -5.2265   -1.2315   -2.6360 H   0  0  0  0  0  0  0  0  0  0  0  0
   -5.6982   -1.6132   -0.4302 H   0  0  0  0  0  0  0  0  0  0  0  0
   -3.6794    0.0269   -0.7457 H   0  0  0  0  0  0  0  0  0  0  0  0
   -3.7482   -1.2396    0.5254 H   0  0  0  0  0  0  0  0  0  0  0  0
   -4.2454    0.4167    2.1763 H   0  0  0  0  0  0  0  0  0  0  0  0
   -5.2413    2.0321   -0.1833 H   0  0  0  0  0  0  0  0  0  0  0  0
   -5.0361    2.7469    1.4194 H   0  0  0  0  0  0  0  0  0  0  0  0
   -6.4270    1.2094    2.5304 H   0  0  0  0  0  0  0  0  0  0  0  0
   -7.3360    1.7741    1.1038 H   0  0  0  0  0  0  0  0  0  0  0  0
   -7.5736   -0.4849    0.7542 H   0  0  0  0  0  0  0  0  0  0  0  0
   -7.5902   -2.5197    1.5515 H   0  0  0  0  0  0  0  0  0  0  0  0
   -6.9928   -2.5094    3.2818 H   0  0  0  0  0  0  0  0  0  0  0  0
   -8.1791   -1.2637    2.6551 H   0  0  0  0  0  0  0  0  0  0  0  0
   -2.8884    2.0532   -0.0639 H   0  0  0  0  0  0  0  0  0  0  0  0
   -2.7595    2.4949    1.6333 H   0  0  0  0  0  0  0  0  0  0  0  0
   -1.5533   -0.0104    0.3921 H   0  0  0  0  0  0  0  0  0  0  0  0
   -1.1151    1.2815    3.1690 H   0  0  0  0  0  0  0  0  0  0  0  0
    0.9139    0.2636    3.0304 H   0  0  0  0  0  0  0  0  0  0  0  0
    0.0586   -1.2574    3.1866 H   0  0  0  0  0  0  0  0  0  0  0  0
    0.4806   -0.7563    1.5633 H   0  0  0  0  0  0  0  0  0  0  0  0
   -2.8185    0.0030    3.8581 H   0  0  0  0  0  0  0  0  0  0  0  0
   -2.6500   -1.2751    2.5078 H   0  0  0  0  0  0  0  0  0  0  0  0
   -1.5266   -1.1643    3.8373 H   0  0  0  0  0  0  0  0  0  0  0  0
   -0.6791    2.8284    1.0211 H   0  0  0  0  0  0  0  0  0  0  0  0
   -0.9197    2.0829   -0.5498 H   0  0  0  0  0  0  0  0  0  0  0  0
    1.5772    1.3005    1.0874 H   0  0  0  0  0  0  0  0  0  0  0  0
    1.2157    3.5331    0.4804 H   0  0  0  0  0  0  0  0  0  0  0  0
    0.8834    3.0586   -1.1277 H   0  0  0  0  0  0  0  0  0  0  0  0
    0.7040   -0.3529   -0.6925 H   0  0  0  0  0  0  0  0  0  0  0  0
    0.2669    0.5820   -2.6864 H   0  0  0  0  0  0  0  0  0  0  0  0
    2.5774   -0.0445   -2.2802 H   0  0  0  0  0  0  0  0  0  0  0  0
    2.7838    1.6383   -1.7641 H   0  0  0  0  0  0  0  0  0  0  0  0
    3.6202    0.9220    0.4127 H   0  0  0  0  0  0  0  0  0  0  0  0
    2.5126   -1.3669    0.5618 H   0  0  0  0  0  0  0  0  0  0  0  0
    4.2741   -3.0009   -0.8856 H   0  0  0  0  0  0  0  0  0  0  0  0
    2.5549   -2.7358   -1.2108 H   0  0  0  0  0  0  0  0  0  0  0  0
    3.7300   -1.7069   -2.0679 H   0  0  0  0  0  0  0  0  0  0  0  0
    5.5185   -1.9006    0.4437 H   0  0  0  0  0  0  0  0  0  0  0  0
    4.3219   -2.2913    1.7324 H   0  0  0  0  0  0  0  0  0  0  0  0
    4.9625   -0.6559    1.5913 H   0  0  0  0  0  0  0  0  0  0  0  0
    5.0201   -0.1287   -2.1103 H   0  0  0  0  0  0  0  0  0  0  0  0
    5.2749    2.3709   -0.7860 H   0  0  0  0  0  0  0  0  0  0  0  0
    6.1071    1.0304    0.3829 H   0  0  0  0  0  0  0  0  0  0  0  0
    7.2218   -0.6481   -1.7881 H   0  0  0  0  0  0  0  0  0  0  0  0
    7.3588    1.1782   -1.7447 H   0  0  0  0  0  0  0  0  0  0  0  0
    9.3147   -1.5193    0.9732 H   0  0  0  0  0  0  0  0  0  0  0  0
    7.6118   -1.1611    1.3937 H   0  0  0  0  0  0  0  0  0  0  0  0
    8.0318   -2.0804   -0.1303 H   0  0  0  0  0  0  0  0  0  0  0  0
    8.3074    2.1745    0.3374 H   0  0  0  0  0  0  0  0  0  0  0  0
    7.8661    0.9873    1.6809 H   0  0  0  0  0  0  0  0  0  0  0  0
    9.5638    1.2389    1.1847 H   0  0  0  0  0  0  0  0  0  0  0  0
    9.8816    1.0760   -1.4918 H   0  0  0  0  0  0  0  0  0  0  0  0
   11.3257   -0.9291   -0.3425 H   0  0  0  0  0  0  0  0  0  0  0  0
    9.0156   -1.6311   -1.8666 H   0  0  0  0  0  0  0  0  0  0  0  0
    9.7986   -0.5220   -2.9589 H   0  0  0  0  0  0  0  0  0  0  0  0
  1  2  1  0
  2  3  1  0
  3  4  1  0
  4  5  1  0
  5  6  1  0
  6  7  1  0
  7  8  1  0
  8  9  1  0
  9 10  1  0
 10 11  1  0
  7 12  1  0
 11 12  1  0
 12 13  1  0
 13 14  1  0
  9 15  1  0
 15 16  1  0
 16 17  1  0
 17 18  1  0
 17 19  1  0
 16 20  1  0
 20 21  1  0
 21 22  1  0
 21 23  1  0
 23 24  1  0
 23 25  1  0
 25 26  1  0
 26 27  1  0
 27 28  1  0
 27 29  1  0
 26 30  1  0
 30 31  1  0
 30 32  1  0
 32 33  1  0
 34 33  1  0
 34 35  1  0
 34 36  1  0
 34 37  1  0
 37 38  1  0
 37 39  1  0
 40 41  1  0
 41 42  1  0
 42 43  1  0
 43 44  1  0
 44 45  1  0
 45 46  1  0
 46 47  1  0
 47 48  1  0
 48 49  1  0
 49 50  1  0
 46 51  1  0
 50 51  1  0
 51 52  1  0
 52 53  1  0
 48 54  1  0
 54 55  1  0
 55 56  1  0
 56 57  1  0
 56 58  1  0
 55 59  1  0
 59 60  1  0
 60 61  1  0
 60 62  1  0
 62 63  1  0
 62 64  1  0
 64 65  1  0
 65 66  1  0
 66 67  1  0
 66 68  1  0
 65 69  1  0
 69 70  1  0
 69 71  1  0
 71 72  1  0
 73 72  1  0
 73 74  1  0
 73 75  1  0
 73 76  1  0
 76 77  1  0
 76 78  1  0
  1 79  1  0
  1 80  1  0
  1 81  1  0
  3 82  1  0
  3 83  1  0
  4 84  1  0
  4 85  1  0
  5 86  1  0
  5 87  1  0
  7 88  1  0
  8 89  1  0
  8 90  1  0
  9 91  1  0
 10 92  1  0
 10 93  1  0
 11 94  1  0
 11 95  1  0
 12 96  1  0
 14 97  1  0
 14 98  1  0
 14 99  1  0
 15100  1  0
 15101  1  0
 16102  1  1
 17103  1  0
 18104  1  0
 18105  1  0
 18106  1  0
 19107  1  0
 19108  1  0
 19109  1  0
 20110  1  0
 20111  1  0
 21112  1  6
 22113  1  0
 22114  1  0
 23115  1  1
 24116  1  0
 25117  1  0
 25118  1  0
 26119  1  6
 27120  1  0
 28121  1  0
 28122  1  0
 28123  1  0
 29124  1  0
 29125  1  0
 29126  1  0
 30127  1  0
 31128  1  0
 32129  1  0
 33130  1  0
 33131  1  0
 35132  1  0
 35133  1  0
 35134  1  0
 36135  1  0
 36136  1  0
 36137  1  0
 37138  1  6
 38139  1  0
 39140  1  0
 39141  1  0
 40142  1  0
 40143  1  0
 40144  1  0
 42145  1  0
 42146  1  0
 43147  1  0
 43148  1  0
 44149  1  0
 44150  1  0
 46151  1  0
 47152  1  0
 47153  1  0
 48154  1  1
 49155  1  0
 49156  1  0
 50157  1  0
 50158  1  0
 51159  1  0
 53160  1  0
 53161  1  0
 53162  1  0
 54163  1  0
 54164  1  0
 55165  1  6
 56166  1  0
 57167  1  0
 57168  1  0
 57169  1  0
 58170  1  0
 58171  1  0
 58172  1  0
 59173  1  0
 59174  1  0
 60175  1  1
 61176  1  0
 61177  1  0
 62178  1  1
 63179  1  0
 64180  1  0
 64181  1  0
 65182  1  1
 66183  1  0
 67184  1  0
 67185  1  0
 67186  1  0
 68187  1  0
 68188  1  0
 68189  1  0
 69190  1  0
 70191  1  0
 71192  1  0
 72193  1  0
 72194  1  0
 74195  1  0
 74196  1  0
 74197  1  0
 75198  1  0
 75199  1  0
 75200  1  0
 76201  1  0
 77202  1  0
 78203  1  0
 78204  1  0
M  END
>  <PDBID>  (1) 
2V0Z

>  <PDB ID>  (1) 
2V0Z

>  <Generic Name>  (1) 
Aliskiren

>  <Brand Name>  (1) 
Amturnide#Rasilez#Rasilez Hct#Sandoz Aliskiren#Tekamlo#Tekturna#Tekturna Hct

>  <DrugBank ID>  (1) 
DB09026

>  <ATC Codes>  (1) 
C09DX02#C09XA02#C09XA52#C09XA53#C09XA54

>  <Ligand ID>  (1) 
C41

>  <Target Name>  (1) 
Renin

>  <UniProt ID>  (1) 
P00797

>  <PDB ID.1>  (1) 
2V0Z

>  <Seq. Identity>  (1) 
100%

$$$$
