PDB_DB00224_02
     RDKit          3D

114118  0  0  0  0  0  0  0  0999 V2000
    3.4123    0.7962    0.4193 N   0  0  0  0  0  0  0  0  0  0  0  0
    3.5927   -0.0722   -0.6646 C   0  0  0  0  0  0  0  0  0  0  0  0
    3.0742   -1.4596   -0.4554 C   0  0  1  0  0  0  0  0  0  0  0  0
    4.1974   -2.3645    0.1225 C   0  0  0  0  0  0  0  0  0  0  0  0
    5.3192   -2.1544   -0.6556 O   0  0  0  0  0  0  0  0  0  0  0  0
    4.4277   -2.0288    1.5028 N   0  0  0  0  0  0  0  0  0  0  0  0
    5.1952   -3.0058    2.2354 C   0  0  0  0  0  0  0  0  0  0  0  0
    6.5803   -3.1691    1.6723 C   0  0  0  0  0  0  0  0  0  0  0  0
    4.4777   -4.3425    2.1784 C   0  0  0  0  0  0  0  0  0  0  0  0
    5.3329   -2.6297    3.6953 C   0  0  0  0  0  0  0  0  0  0  0  0
    1.8793   -1.6151    0.2955 N   0  0  0  0  0  0  0  0  0  0  0  0
    1.4150   -0.5657    1.0908 C   0  0  0  0  0  0  0  0  0  0  0  0
    2.2473    0.6361    1.1957 C   0  0  0  0  0  0  0  0  0  0  0  0
    0.9089   -2.3414   -0.4829 C   0  0  0  0  0  0  0  0  0  0  0  0
   -0.2115   -2.9949    0.2126 C   0  0  1  0  0  0  0  0  0  0  0  0
    0.3515   -3.8922    1.1716 O   0  0  0  0  0  0  0  0  0  0  0  0
   -1.2796   -2.1920    0.7616 C   0  0  0  0  0  0  0  0  0  0  0  0
   -2.0962   -1.3328   -0.1913 C   0  0  1  0  0  0  0  0  0  0  0  0
   -2.7771   -2.1596   -1.2251 C   0  0  0  0  0  0  0  0  0  0  0  0
   -3.5879   -1.3620   -2.1822 C   0  0  0  0  0  0  0  0  0  0  0  0
   -4.2514   -2.3202   -3.1992 C   0  0  0  0  0  0  0  0  0  0  0  0
   -3.3384   -2.5194   -4.3889 C   0  0  0  0  0  0  0  0  0  0  0  0
   -3.2448   -1.2517   -5.2331 C   0  0  0  0  0  0  0  0  0  0  0  0
   -3.5801   -0.1105   -4.2887 C   0  0  0  0  0  0  0  0  0  0  0  0
   -2.7685   -0.3994   -3.0117 C   0  0  0  0  0  0  0  0  0  0  0  0
   -3.0951   -0.6244    0.7495 C   0  0  2  0  0  0  0  0  0  0  0  0
   -3.8837   -1.5426    1.3998 O   0  0  0  0  0  0  0  0  0  0  0  0
   -3.7605    0.4833    0.1372 N   0  0  0  0  0  0  0  0  0  0  0  0
   -4.6249    1.1298    1.0689 C   0  0  2  0  0  0  0  0  0  0  0  0
   -5.7575    0.2641    1.5665 C   0  0  2  0  0  0  0  0  0  0  0  0
   -6.1441   -0.5788    0.5130 O   0  0  0  0  0  0  0  0  0  0  0  0
   -6.9194    1.2321    1.8577 C   0  0  0  0  0  0  0  0  0  0  0  0
   -6.3494    2.5887    1.6263 C   0  0  0  0  0  0  0  0  0  0  0  0
   -7.3321    3.6370    1.1978 C   0  0  0  0  0  0  0  0  0  0  0  0
   -6.5298    4.9241    1.0131 C   0  0  0  0  0  0  0  0  0  0  0  0
   -5.0412    4.6884    1.1191 C   0  0  0  0  0  0  0  0  0  0  0  0
   -4.5693    3.5256    0.2632 C   0  0  0  0  0  0  0  0  0  0  0  0
   -5.3815    2.2977    0.4682 C   0  0  0  0  0  0  0  0  0  0  0  0
    3.5719    2.1704    0.0736 C   0  0  0  0  0  0  0  0  0  0  0  0
    4.9119    2.6940   -0.2342 C   0  0  0  0  0  0  0  0  0  0  0  0
    5.6648    2.0856   -1.3809 C   0  0  0  0  0  0  0  0  0  0  0  0
    6.5377    3.1458   -1.9231 N   0  0  0  0  0  0  0  0  0  0  0  0
    7.1852    3.8717   -0.8626 C   0  0  0  0  0  0  0  0  0  0  0  0
    7.1997    3.1459    0.4608 C   0  0  0  0  0  0  0  0  0  0  0  0
    5.8020    2.8623    0.9841 C   0  0  0  0  0  0  0  0  0  0  0  0
    3.1389    0.3546   -1.6085 H   0  0  0  0  0  0  0  0  0  0  0  0
    4.6866   -0.2097   -0.8740 H   0  0  0  0  0  0  0  0  0  0  0  0
    2.9070   -1.8879   -1.4723 H   0  0  0  0  0  0  0  0  0  0  0  0
    3.8107   -3.3915    0.0182 H   0  0  0  0  0  0  0  0  0  0  0  0
    5.3325   -2.8336   -1.3708 H   0  0  0  0  0  0  0  0  0  0  0  0
    3.5573   -1.7679    2.0167 H   0  0  0  0  0  0  0  0  0  0  0  0
    7.0228   -2.1563    1.5467 H   0  0  0  0  0  0  0  0  0  0  0  0
    6.5060   -3.7077    0.6925 H   0  0  0  0  0  0  0  0  0  0  0  0
    7.1987   -3.7559    2.3874 H   0  0  0  0  0  0  0  0  0  0  0  0
    4.8270   -4.9918    1.3600 H   0  0  0  0  0  0  0  0  0  0  0  0
    4.6746   -4.8900    3.1397 H   0  0  0  0  0  0  0  0  0  0  0  0
    3.3828   -4.1524    2.1682 H   0  0  0  0  0  0  0  0  0  0  0  0
    4.6121   -3.1409    4.3569 H   0  0  0  0  0  0  0  0  0  0  0  0
    6.3600   -2.8123    4.0919 H   0  0  0  0  0  0  0  0  0  0  0  0
    5.1450   -1.5339    3.7979 H   0  0  0  0  0  0  0  0  0  0  0  0
    0.4279   -0.2220    0.6307 H   0  0  0  0  0  0  0  0  0  0  0  0
    1.0748   -0.9383    2.1084 H   0  0  0  0  0  0  0  0  0  0  0  0
    2.5901    0.6992    2.2905 H   0  0  0  0  0  0  0  0  0  0  0  0
    1.5869    1.5508    1.1123 H   0  0  0  0  0  0  0  0  0  0  0  0
    0.5414   -1.5917   -1.2564 H   0  0  0  0  0  0  0  0  0  0  0  0
    1.4953   -3.0800   -1.1180 H   0  0  0  0  0  0  0  0  0  0  0  0
   -0.6267   -3.7758   -0.5438 H   0  0  0  0  0  0  0  0  0  0  0  0
    0.0867   -3.6272    2.0828 H   0  0  0  0  0  0  0  0  0  0  0  0
   -1.0766   -1.6048    1.6683 H   0  0  0  0  0  0  0  0  0  0  0  0
   -2.0491   -2.9661    1.1912 H   0  0  0  0  0  0  0  0  0  0  0  0
   -1.4938   -0.5652   -0.6755 H   0  0  0  0  0  0  0  0  0  0  0  0
   -3.4339   -2.9472   -0.7891 H   0  0  0  0  0  0  0  0  0  0  0  0
   -1.9499   -2.6345   -1.8356 H   0  0  0  0  0  0  0  0  0  0  0  0
   -4.3868   -0.7438   -1.7168 H   0  0  0  0  0  0  0  0  0  0  0  0
   -4.3125   -3.3395   -2.7176 H   0  0  0  0  0  0  0  0  0  0  0  0
   -5.2262   -1.9356   -3.5157 H   0  0  0  0  0  0  0  0  0  0  0  0
   -2.3203   -2.8245   -4.0316 H   0  0  0  0  0  0  0  0  0  0  0  0
   -3.7353   -3.3178   -5.0179 H   0  0  0  0  0  0  0  0  0  0  0  0
   -2.2024   -1.1141   -5.6055 H   0  0  0  0  0  0  0  0  0  0  0  0
   -3.9415   -1.3403   -6.0707 H   0  0  0  0  0  0  0  0  0  0  0  0
   -4.6341   -0.0557   -4.0269 H   0  0  0  0  0  0  0  0  0  0  0  0
   -3.1734    0.8398   -4.6946 H   0  0  0  0  0  0  0  0  0  0  0  0
   -2.7161    0.5706   -2.4792 H   0  0  0  0  0  0  0  0  0  0  0  0
   -1.7742   -0.7901   -3.2774 H   0  0  0  0  0  0  0  0  0  0  0  0
   -2.4793   -0.1525    1.5937 H   0  0  0  0  0  0  0  0  0  0  0  0
   -3.5303   -1.9223    2.2236 H   0  0  0  0  0  0  0  0  0  0  0  0
   -3.0028    1.1338   -0.1903 H   0  0  0  0  0  0  0  0  0  0  0  0
   -4.0813    1.5456    1.9457 H   0  0  0  0  0  0  0  0  0  0  0  0
   -5.4485   -0.2593    2.4694 H   0  0  0  0  0  0  0  0  0  0  0  0
   -6.6116   -0.0064   -0.1325 H   0  0  0  0  0  0  0  0  0  0  0  0
   -7.7677    0.9981    1.1707 H   0  0  0  0  0  0  0  0  0  0  0  0
   -7.1705    1.1049    2.9242 H   0  0  0  0  0  0  0  0  0  0  0  0
   -5.7433    2.9147    2.4924 H   0  0  0  0  0  0  0  0  0  0  0  0
   -8.0570    3.7697    2.0546 H   0  0  0  0  0  0  0  0  0  0  0  0
   -7.8445    3.3305    0.2805 H   0  0  0  0  0  0  0  0  0  0  0  0
   -6.7804    5.6513    1.8204 H   0  0  0  0  0  0  0  0  0  0  0  0
   -6.7163    5.3714    0.0068 H   0  0  0  0  0  0  0  0  0  0  0  0
   -4.5641    5.6333    0.7254 H   0  0  0  0  0  0  0  0  0  0  0  0
   -4.7022    4.6246    2.1669 H   0  0  0  0  0  0  0  0  0  0  0  0
   -4.7227    3.8631   -0.8018 H   0  0  0  0  0  0  0  0  0  0  0  0
   -3.4907    3.3970    0.4555 H   0  0  0  0  0  0  0  0  0  0  0  0
   -5.9759    1.9919   -0.4065 H   0  0  0  0  0  0  0  0  0  0  0  0
    3.1118    2.8170    0.9008 H   0  0  0  0  0  0  0  0  0  0  0  0
    2.8770    2.4445   -0.7982 H   0  0  0  0  0  0  0  0  0  0  0  0
    4.7407    3.7801   -0.5714 H   0  0  0  0  0  0  0  0  0  0  0  0
    4.9412    1.7729   -2.1507 H   0  0  0  0  0  0  0  0  0  0  0  0
    6.3931    1.2984   -1.0826 H   0  0  0  0  0  0  0  0  0  0  0  0
    6.0245    3.7946   -2.5356 H   0  0  0  0  0  0  0  0  0  0  0  0
    6.8278    4.9068   -0.7667 H   0  0  0  0  0  0  0  0  0  0  0  0
    8.2712    3.9521   -1.1652 H   0  0  0  0  0  0  0  0  0  0  0  0
    7.8370    2.2471    0.3981 H   0  0  0  0  0  0  0  0  0  0  0  0
    7.7135    3.8324    1.1822 H   0  0  0  0  0  0  0  0  0  0  0  0
    5.8921    1.9414    1.5822 H   0  0  0  0  0  0  0  0  0  0  0  0
    5.3859    3.7050    1.5728 H   0  0  0  0  0  0  0  0  0  0  0  0
  1  2  1  0
  2  3  1  0
  3  4  1  0
  4  5  1  0
  4  6  1  0
  7  6  1  0
  7  8  1  0
  7  9  1  0
  7 10  1  0
  3 11  1  0
 11 12  1  0
  1 13  1  0
 12 13  1  0
 11 14  1  0
 14 15  1  0
 15 16  1  0
 15 17  1  0
 17 18  1  0
 18 19  1  0
 19 20  1  0
 20 21  1  0
 21 22  1  0
 22 23  1  0
 23 24  1  0
 20 25  1  0
 24 25  1  0
 18 26  1  0
 26 27  1  0
 26 28  1  0
 28 29  1  0
 29 30  1  0
 30 31  1  0
 30 32  1  0
 32 33  1  0
 33 34  1  0
 34 35  1  0
 35 36  1  0
 36 37  1  0
 29 38  1  0
 33 38  1  0
 37 38  1  0
  1 39  1  0
 39 40  1  0
 40 41  1  0
 41 42  1  0
 42 43  1  0
 43 44  1  0
 40 45  1  0
 44 45  1  0
  2 46  1  0
  2 47  1  0
  3 48  1  6
  4 49  1  0
  5 50  1  0
  6 51  1  0
  8 52  1  0
  8 53  1  0
  8 54  1  0
  9 55  1  0
  9 56  1  0
  9 57  1  0
 10 58  1  0
 10 59  1  0
 10 60  1  0
 12 61  1  0
 12 62  1  0
 13 63  1  0
 13 64  1  0
 14 65  1  0
 14 66  1  0
 15 67  1  6
 16 68  1  0
 17 69  1  0
 17 70  1  0
 18 71  1  6
 19 72  1  0
 19 73  1  0
 20 74  1  0
 21 75  1  0
 21 76  1  0
 22 77  1  0
 22 78  1  0
 23 79  1  0
 23 80  1  0
 24 81  1  0
 24 82  1  0
 25 83  1  0
 25 84  1  0
 26 85  1  1
 27 86  1  0
 28 87  1  0
 29 88  1  1
 30 89  1  1
 31 90  1  0
 32 91  1  0
 32 92  1  0
 33 93  1  0
 34 94  1  0
 34 95  1  0
 35 96  1  0
 35 97  1  0
 36 98  1  0
 36 99  1  0
 37100  1  0
 37101  1  0
 38102  1  0
 39103  1  0
 39104  1  0
 40105  1  0
 41106  1  0
 41107  1  0
 42108  1  0
 43109  1  0
 43110  1  0
 44111  1  0
 44112  1  0
 45113  1  0
 45114  1  0
M  END
>  <PDBID>  (1) 
1HSG

>  <PDB ID>  (1) 
1HSG

>  <Generic Name>  (1) 
Indinavir

>  <Brand Name>  (1) 
Crixivan

>  <DrugBank ID>  (1) 
DB00224

>  <ATC Codes>  (1) 
J05AE02

>  <Ligand ID>  (1) 
MK1

>  <Target Name>  (1) 
Pol polyprotein

>  <UniProt ID>  (1) 
Q72874

>  <PDB ID.1>  (1) 
1HSG

>  <Seq. Identity>  (1) 
99%

$$$$
