PDB_DB00373_00
     RDKit          3D

 49 50  0  0  0  0  0  0  0  0999 V2000
   -4.7851   -0.2366   -1.5131 C   0  0  0  0  0  0  0  0  0  0  0  0
   -6.1559    0.0769   -0.9365 C   0  0  0  0  0  0  0  0  0  0  0  0
   -6.4628   -0.9996   -0.0939 O   0  0  0  0  0  0  0  0  0  0  0  0
   -5.6952   -0.8973    1.0354 C   0  0  0  0  0  0  0  0  0  0  0  0
   -4.3841   -0.1661    0.8593 C   0  0  0  0  0  0  0  0  0  0  0  0
   -3.8215   -0.4391   -0.4370 N   0  0  0  0  0  0  0  0  0  0  0  0
   -2.6511    0.3310   -0.7602 C   0  0  0  0  0  0  0  0  0  0  0  0
   -2.9519    1.5077   -1.5498 N   0  0  0  0  0  0  0  0  0  0  0  0
   -3.0786    2.7268   -0.2523 S   0  0  0  0  0  0  0  0  0  0  0  0
   -2.1408    1.9157    0.9764 N   0  0  0  0  0  0  0  0  0  0  0  0
   -1.7767    0.6672    0.3569 C   0  0  0  0  0  0  0  0  0  0  0  0
   -0.4419    0.8265   -0.0957 O   0  0  0  0  0  0  0  0  0  0  0  0
    0.4082    0.0012    0.6456 C   0  0  0  0  0  0  0  0  0  0  0  0
    1.8485    0.2893    0.1262 C   0  0  1  0  0  0  0  0  0  0  0  0
    2.0913    1.6549    0.3294 O   0  0  0  0  0  0  0  0  0  0  0  0
    2.7572   -0.4750    1.0815 C   0  0  0  0  0  0  0  0  0  0  0  0
    4.0880   -0.1666    0.9673 N   0  0  0  0  0  0  0  0  0  0  0  0
    4.9552   -0.4448   -0.0680 C   0  0  0  0  0  0  0  0  0  0  0  0
    5.8776    0.7791   -0.2441 C   0  0  0  0  0  0  0  0  0  0  0  0
    5.8761   -1.6363    0.2781 C   0  0  0  0  0  0  0  0  0  0  0  0
    4.4127   -0.7280   -1.4327 C   0  0  0  0  0  0  0  0  0  0  0  0
   -4.5167    0.5604   -2.2068 H   0  0  0  0  0  0  0  0  0  0  0  0
   -4.8548   -1.1651   -2.1189 H   0  0  0  0  0  0  0  0  0  0  0  0
   -6.0767    0.9943   -0.3398 H   0  0  0  0  0  0  0  0  0  0  0  0
   -6.8620    0.1829   -1.7751 H   0  0  0  0  0  0  0  0  0  0  0  0
   -5.5083   -1.9614    1.4128 H   0  0  0  0  0  0  0  0  0  0  0  0
   -6.3047   -0.4350    1.8466 H   0  0  0  0  0  0  0  0  0  0  0  0
   -4.5689    0.8908    1.0762 H   0  0  0  0  0  0  0  0  0  0  0  0
   -3.7049   -0.5780    1.6321 H   0  0  0  0  0  0  0  0  0  0  0  0
   -2.0489   -0.3365   -1.4710 H   0  0  0  0  0  0  0  0  0  0  0  0
   -2.0823    1.7618   -2.0827 H   0  0  0  0  0  0  0  0  0  0  0  0
   -2.5499    1.8666    1.8989 H   0  0  0  0  0  0  0  0  0  0  0  0
   -1.8162   -0.0979    1.1571 H   0  0  0  0  0  0  0  0  0  0  0  0
    0.1989   -1.0484    0.3916 H   0  0  0  0  0  0  0  0  0  0  0  0
    0.3468    0.1688    1.7190 H   0  0  0  0  0  0  0  0  0  0  0  0
    1.9859    0.0067   -0.8849 H   0  0  0  0  0  0  0  0  0  0  0  0
    1.3478    2.0935    0.7919 H   0  0  0  0  0  0  0  0  0  0  0  0
    2.4872   -1.5643    0.9535 H   0  0  0  0  0  0  0  0  0  0  0  0
    2.3158   -0.2530    2.1143 H   0  0  0  0  0  0  0  0  0  0  0  0
    4.5771    0.0685    1.8308 H   0  0  0  0  0  0  0  0  0  0  0  0
    5.8623    1.1265   -1.2917 H   0  0  0  0  0  0  0  0  0  0  0  0
    6.8993    0.5272    0.0883 H   0  0  0  0  0  0  0  0  0  0  0  0
    5.5011    1.6362    0.3864 H   0  0  0  0  0  0  0  0  0  0  0  0
    6.3867   -1.9219   -0.6565 H   0  0  0  0  0  0  0  0  0  0  0  0
    6.6720   -1.2897    1.0067 H   0  0  0  0  0  0  0  0  0  0  0  0
    5.3135   -2.4762    0.6574 H   0  0  0  0  0  0  0  0  0  0  0  0
    4.0651    0.2325   -1.8584 H   0  0  0  0  0  0  0  0  0  0  0  0
    5.2890   -1.0635   -2.0504 H   0  0  0  0  0  0  0  0  0  0  0  0
    3.6769   -1.5250   -1.5003 H   0  0  0  0  0  0  0  0  0  0  0  0
  1  2  1  0
  2  3  1  0
  3  4  1  0
  4  5  1  0
  1  6  1  0
  5  6  1  0
  6  7  1  0
  7  8  1  0
  8  9  1  0
  9 10  1  0
  7 11  1  0
 10 11  1  0
 11 12  1  0
 12 13  1  0
 13 14  1  0
 14 15  1  0
 14 16  1  0
 16 17  1  0
 18 17  1  0
 18 19  1  0
 18 20  1  0
 18 21  1  0
  1 22  1  0
  1 23  1  0
  2 24  1  0
  2 25  1  0
  4 26  1  0
  4 27  1  0
  5 28  1  0
  5 29  1  0
  7 30  1  0
  8 31  1  0
 10 32  1  0
 11 33  1  0
 13 34  1  0
 13 35  1  0
 14 36  1  6
 15 37  1  0
 16 38  1  0
 16 39  1  0
 17 40  1  0
 19 41  1  0
 19 42  1  0
 19 43  1  0
 20 44  1  0
 20 45  1  0
 20 46  1  0
 21 47  1  0
 21 48  1  0
 21 49  1  0
M  END
>  <PDBID>  (1) 
3D4S

>  <PDB ID>  (1) 
3D4S

>  <Generic Name>  (1) 
Timolol

>  <Brand Name>  (1) 
Act Dorzotimolol#Act Latanoprost/timolol#Apo-brimonidine-timop#Apo-dorzo-timop#Apo-latanoprost-timop#Apo-timol Tablets 10mg#Apo-timol Tablets 20mg#Apo-timol Tablets 5mg#Apo-timop Gel#Apo-timop Liq 0.5%#Apo-timop Oph Soln 0.25%#Apo-travoprost-timop#Azarga#Beta-tim - 0.25% Liq#Beta-tim - 0.5% Liq#Betimol#Blocadren Tab 10mg#Blocadren Tab 20mg#Blocadren Tab 5mg#Combigan#Cosopt#Cosopt PF#Dom-timolol#Dorzolamide HCl /timolol Maleate#Dorzolamide HCl and Timolol Maleate#Dorzolamide Hydrochloride and Timolol Maleate#Dorzolamide Hydrochloride and Timolol Maleate Ophthalmic Solution#Dorzolamide Hydrochloride-timolol Maleate#Dorzolamide Hydrochloride-timolol Maleate Ophthalmic Solution Sterile Ophthalmic Solution#Duotrav Pq#Gd-latanoprost/timolol#Istalol#Jamp-dorzolamide/timolol#Jamp-latanoprost/timolol#Jamp-timolol#Med Timolol Liq Oph 0.25%#Med Timolol Liq Oph 0.5%#Med-dorzolamide-timolol#Med-latanoprost-timolol#Mint-dorzolamide/timolol#Mint-latanoprost/timolol#Mylan-dorzolamide/timolol#Mylan-latanoprost/timolol#Mylan-timolol#Novo-timol Liq 0.25%#Novo-timol Liq 0.5%#Nu-timolol Tab 10mg#Nu-timolol Tab 20mg#Nu-timolol Tab 5mg#Odan-timolol#PMS-dorzolamide-timolol#PMS-latanoprost-timolol#PMS-timolol#Ratio-timolol Maleate 0.25%#Ratio-timolol Maleate 0.5%#Rhoxal-timolol 0.25%#Rhoxal-timolol 0.5%#Riva-dorzolamide/timolol#Riva-latanoprost/timolol#Sandoz Dorzolamide/timolol#Sandoz Latanoprost/timolol#Sandoz Timolol#Sandoz Travoprost / Timolol Pq#T-LO  - Liq Oph 0.25%#T-LO - Liq Oph 0.5%#Teva-dorzotimol#Teva-latanoprost/timolol#Teva-timolol#Timolide Tab#Timolol Gfs#Timolol Maleate#Timolol Maleate-EX#Timolol Solution - 0.25%#Timolol Solution - 0.5%#Timolol-10 Tab 10mg#Timolol-20 Tab 20mg#Timolol-5 Tab 5mg#Timoptic#Timoptic-XE#Timpilo 2#Timpilo 4#Van-dorzolamide-timolol#Xalacom#Blocadren#Proflax#Tenopt#Timacar Depot#Timacor#Timoptol

>  <DrugBank ID>  (1) 
DB00373

>  <ATC Codes>  (1) 
S01ED51#S01ED01#C07DA06#C07BA06#C07AA06

>  <Ligand ID>  (1) 
TIM

>  <Target Name>  (1) 
Beta-1 adrenergic receptor

>  <UniProt ID>  (1) 
P08588

>  <PDB ID.1>  (1) 
3D4S

>  <Seq. Identity>  (1) 
67%

$$$$
