PDB_DB00773_06
     RDKit          3D

176188  0  0  0  0  0  0  0  0999 V2000
   -0.6358   -4.8209    1.6602 C   0  0  0  0  0  0  0  0  0  0  0  0
    0.4349   -4.0521    1.2850 O   0  0  0  0  0  0  0  0  0  0  0  0
   -1.5060   -2.9437    1.0512 C   0  0  0  0  0  0  0  0  0  0  0  0
   -1.5547   -3.8881    2.1029 O   0  0  0  0  0  0  0  0  0  0  0  0
   -2.0307   -1.6538    1.6296 C   0  0  0  0  0  0  0  0  0  0  0  0
    0.5836    0.9894   -2.9482 O   0  0  0  0  0  0  0  0  0  0  0  0
   -1.4754   -0.4640    0.8794 C   0  0  0  0  0  0  0  0  0  0  0  0
   -1.0156   -0.4691   -3.6171 O   0  0  0  0  0  0  0  0  0  0  0  0
   -1.7218   -0.5032   -0.5897 C   0  0  2  0  0  0  0  0  0  0  0  0
   -5.0410    2.9943   -1.4338 O   0  0  0  0  0  0  0  0  0  0  0  0
   -0.5248   -0.0437   -1.3013 C   0  0  1  0  0  0  0  0  0  0  0  0
   -6.8882    0.5271   -1.3181 O   0  0  0  0  0  0  0  0  0  0  0  0
   -0.6938    0.5035   -2.6792 C   0  0  1  0  0  0  0  0  0  0  0  0
   -6.2568   -1.2591    0.2208 O   0  0  0  0  0  0  0  0  0  0  0  0
    1.1390    1.4565   -1.7594 C   0  0  0  0  0  0  0  0  0  0  0  0
    2.0761    0.4010    0.5924 O   0  0  0  0  0  0  0  0  0  0  0  0
    0.1540    1.1419   -0.6541 C   0  0  2  0  0  0  0  0  0  0  0  0
    3.7005    1.8894    0.4521 O   0  0  0  0  0  0  0  0  0  0  0  0
    0.7472    0.7513    0.6398 C   0  0  1  0  0  0  0  0  0  0  0  0
    7.0801    2.1583   -0.5207 O   0  0  0  0  0  0  0  0  0  0  0  0
   -0.0223   -0.4031    1.2625 C   0  0  0  0  0  0  0  0  0  0  0  0
    6.7283    0.0757    0.3995 O   0  0  0  0  0  0  0  0  0  0  0  0
    0.6946   -1.7134    1.1729 C   0  0  0  0  0  0  0  0  0  0  0  0
    4.6748   -1.6239    1.6665 O   0  0  0  0  0  0  0  0  0  0  0  0
   -0.0776   -2.8727    0.6896 C   0  0  0  0  0  0  0  0  0  0  0  0
    4.1531    1.3181    3.3708 O   0  0  0  0  0  0  0  0  0  0  0  0
   -3.0429   -0.0041   -1.0550 C   0  0  0  0  0  0  0  0  0  0  0  0
   -3.4302    1.3782   -0.6689 C   0  0  0  0  0  0  0  0  0  0  0  0
   -4.8116    1.6290   -1.3010 C   0  0  0  0  0  0  0  0  0  0  0  0
   -5.8369    0.9379   -0.4704 C   0  0  0  0  0  0  0  0  0  0  0  0
   -5.2444   -0.3298    0.0996 C   0  0  0  0  0  0  0  0  0  0  0  0
   -4.2043   -0.9278   -0.8196 C   0  0  0  0  0  0  0  0  0  0  0  0
   -5.1848    3.4060   -2.7452 C   0  0  0  0  0  0  0  0  0  0  0  0
   -6.4426   -1.7024    1.5174 C   0  0  0  0  0  0  0  0  0  0  0  0
    2.9220    1.1871    1.3548 C   0  0  2  0  0  0  0  0  0  0  0  0
    5.0519    1.7790    0.6005 C   0  0  2  0  0  0  0  0  0  0  0  0
    5.7361    2.5141   -0.5274 C   0  0  0  0  0  0  0  0  0  0  0  0
    7.2629    0.7891   -0.6824 C   0  0  2  0  0  0  0  0  0  0  0  0
    5.3832    0.3008    0.5472 C   0  0  2  0  0  0  0  0  0  0  0  0
    4.9171   -0.2654    1.8672 C   0  0  1  0  0  0  0  0  0  0  0  0
    3.6879    0.4402    2.3906 C   0  0  1  0  0  0  0  0  0  0  0  0
    8.7527    0.5350   -0.6900 C   0  0  0  0  0  0  0  0  0  0  0  0
   -0.6358   -4.8209    1.6602 C   0  0  0  0  0  0  0  0  0  0  0  0
    0.4349   -4.0521    1.2850 O   0  0  0  0  0  0  0  0  0  0  0  0
   -1.5060   -2.9437    1.0512 C   0  0  0  0  0  0  0  0  0  0  0  0
   -1.5547   -3.8881    2.1029 O   0  0  0  0  0  0  0  0  0  0  0  0
   -2.0307   -1.6538    1.6296 C   0  0  0  0  0  0  0  0  0  0  0  0
    0.5836    0.9894   -2.9482 O   0  0  0  0  0  0  0  0  0  0  0  0
   -1.4754   -0.4640    0.8794 C   0  0  0  0  0  0  0  0  0  0  0  0
   -1.0156   -0.4691   -3.6171 O   0  0  0  0  0  0  0  0  0  0  0  0
   -1.7218   -0.5032   -0.5897 C   0  0  2  0  0  0  0  0  0  0  0  0
   -5.0410    2.9943   -1.4338 O   0  0  0  0  0  0  0  0  0  0  0  0
   -0.5248   -0.0437   -1.3013 C   0  0  1  0  0  0  0  0  0  0  0  0
   -6.8882    0.5271   -1.3181 O   0  0  0  0  0  0  0  0  0  0  0  0
   -0.6938    0.5035   -2.6792 C   0  0  1  0  0  0  0  0  0  0  0  0
   -6.2568   -1.2591    0.2208 O   0  0  0  0  0  0  0  0  0  0  0  0
    1.1390    1.4565   -1.7594 C   0  0  0  0  0  0  0  0  0  0  0  0
    2.0761    0.4010    0.5924 O   0  0  0  0  0  0  0  0  0  0  0  0
    0.1540    1.1419   -0.6541 C   0  0  2  0  0  0  0  0  0  0  0  0
    3.7005    1.8894    0.4521 O   0  0  0  0  0  0  0  0  0  0  0  0
    0.7472    0.7513    0.6398 C   0  0  1  0  0  0  0  0  0  0  0  0
    7.0801    2.1583   -0.5207 O   0  0  0  0  0  0  0  0  0  0  0  0
   -0.0223   -0.4031    1.2625 C   0  0  0  0  0  0  0  0  0  0  0  0
    6.7283    0.0757    0.3995 O   0  0  0  0  0  0  0  0  0  0  0  0
    0.6946   -1.7134    1.1729 C   0  0  0  0  0  0  0  0  0  0  0  0
    4.6748   -1.6239    1.6665 O   0  0  0  0  0  0  0  0  0  0  0  0
   -0.0776   -2.8727    0.6896 C   0  0  0  0  0  0  0  0  0  0  0  0
    4.1531    1.3181    3.3708 O   0  0  0  0  0  0  0  0  0  0  0  0
   -3.0429   -0.0041   -1.0550 C   0  0  0  0  0  0  0  0  0  0  0  0
   -3.4302    1.3782   -0.6689 C   0  0  0  0  0  0  0  0  0  0  0  0
   -4.8116    1.6290   -1.3010 C   0  0  0  0  0  0  0  0  0  0  0  0
   -5.8369    0.9379   -0.4704 C   0  0  0  0  0  0  0  0  0  0  0  0
   -5.2444   -0.3298    0.0996 C   0  0  0  0  0  0  0  0  0  0  0  0
   -4.2043   -0.9278   -0.8196 C   0  0  0  0  0  0  0  0  0  0  0  0
   -5.1848    3.4060   -2.7452 C   0  0  0  0  0  0  0  0  0  0  0  0
   -6.4426   -1.7024    1.5174 C   0  0  0  0  0  0  0  0  0  0  0  0
    2.9220    1.1871    1.3548 C   0  0  2  0  0  0  0  0  0  0  0  0
    5.0519    1.7790    0.6005 C   0  0  2  0  0  0  0  0  0  0  0  0
    5.7361    2.5141   -0.5274 C   0  0  0  0  0  0  0  0  0  0  0  0
    7.2629    0.7891   -0.6824 C   0  0  2  0  0  0  0  0  0  0  0  0
    5.3832    0.3008    0.5472 C   0  0  2  0  0  0  0  0  0  0  0  0
    4.9171   -0.2654    1.8672 C   0  0  1  0  0  0  0  0  0  0  0  0
    3.6879    0.4402    2.3906 C   0  0  1  0  0  0  0  0  0  0  0  0
    8.7527    0.5350   -0.6900 C   0  0  0  0  0  0  0  0  0  0  0  0
   -0.3128   -5.4647    2.5214 H   0  0  0  0  0  0  0  0  0  0  0  0
   -1.0722   -5.4163    0.8380 H   0  0  0  0  0  0  0  0  0  0  0  0
   -2.1279   -3.3662    0.2513 H   0  0  0  0  0  0  0  0  0  0  0  0
   -1.5572   -1.5936    2.6613 H   0  0  0  0  0  0  0  0  0  0  0  0
   -3.0990   -1.6464    1.7959 H   0  0  0  0  0  0  0  0  0  0  0  0
   -1.9592    0.4477    1.3016 H   0  0  0  0  0  0  0  0  0  0  0  0
   -0.1971   -0.9203   -3.8849 H   0  0  0  0  0  0  0  0  0  0  0  0
   -1.7910   -1.6279   -0.8222 H   0  0  0  0  0  0  0  0  0  0  0  0
    0.2374   -0.8508   -1.3684 H   0  0  0  0  0  0  0  0  0  0  0  0
   -7.4819   -0.0318   -0.7523 H   0  0  0  0  0  0  0  0  0  0  0  0
   -1.3635    1.3907   -2.7462 H   0  0  0  0  0  0  0  0  0  0  0  0
    2.1364    1.0067   -1.5828 H   0  0  0  0  0  0  0  0  0  0  0  0
    1.2446    2.5552   -1.8535 H   0  0  0  0  0  0  0  0  0  0  0  0
   -0.5083    2.0141   -0.5259 H   0  0  0  0  0  0  0  0  0  0  0  0
    0.6982    1.6601    1.3080 H   0  0  0  0  0  0  0  0  0  0  0  0
   -0.0589   -0.1569    2.3718 H   0  0  0  0  0  0  0  0  0  0  0  0
    1.1995   -1.9978    2.1455 H   0  0  0  0  0  0  0  0  0  0  0  0
    1.5776   -1.5814    0.4771 H   0  0  0  0  0  0  0  0  0  0  0  0
    4.8376   -2.1407    2.5095 H   0  0  0  0  0  0  0  0  0  0  0  0
    0.1174   -3.0425   -0.4121 H   0  0  0  0  0  0  0  0  0  0  0  0
    3.5623    2.1247    3.3727 H   0  0  0  0  0  0  0  0  0  0  0  0
   -2.9524    0.0322   -2.1985 H   0  0  0  0  0  0  0  0  0  0  0  0
   -3.5958    1.5065    0.4242 H   0  0  0  0  0  0  0  0  0  0  0  0
   -2.8110    2.1930   -1.0314 H   0  0  0  0  0  0  0  0  0  0  0  0
   -4.7990    1.1729   -2.3057 H   0  0  0  0  0  0  0  0  0  0  0  0
   -6.2403    1.5854    0.3355 H   0  0  0  0  0  0  0  0  0  0  0  0
   -4.7798   -0.1205    1.0765 H   0  0  0  0  0  0  0  0  0  0  0  0
   -4.7719   -1.1732   -1.7636 H   0  0  0  0  0  0  0  0  0  0  0  0
   -3.8872   -1.8862   -0.4208 H   0  0  0  0  0  0  0  0  0  0  0  0
   -5.3605    4.4963   -2.7445 H   0  0  0  0  0  0  0  0  0  0  0  0
   -4.2337    3.2377   -3.2897 H   0  0  0  0  0  0  0  0  0  0  0  0
   -6.0135    2.8436   -3.2432 H   0  0  0  0  0  0  0  0  0  0  0  0
   -7.2794   -2.4441    1.4915 H   0  0  0  0  0  0  0  0  0  0  0  0
   -5.5590   -2.2698    1.9032 H   0  0  0  0  0  0  0  0  0  0  0  0
   -6.7720   -0.9020    2.2097 H   0  0  0  0  0  0  0  0  0  0  0  0
    2.2975    1.9610    1.8687 H   0  0  0  0  0  0  0  0  0  0  0  0
    5.4035    2.1459    1.5860 H   0  0  0  0  0  0  0  0  0  0  0  0
    5.2726    2.2406   -1.4759 H   0  0  0  0  0  0  0  0  0  0  0  0
    5.7036    3.6007   -0.3048 H   0  0  0  0  0  0  0  0  0  0  0  0
    6.8438    0.4405   -1.6449 H   0  0  0  0  0  0  0  0  0  0  0  0
    4.8323   -0.1257   -0.3144 H   0  0  0  0  0  0  0  0  0  0  0  0
    5.7804   -0.1966    2.5611 H   0  0  0  0  0  0  0  0  0  0  0  0
    3.0881   -0.3289    2.9160 H   0  0  0  0  0  0  0  0  0  0  0  0
    9.3022    1.2212    0.0094 H   0  0  0  0  0  0  0  0  0  0  0  0
    9.0045   -0.4926   -0.3566 H   0  0  0  0  0  0  0  0  0  0  0  0
    9.2070    0.7377   -1.7011 H   0  0  0  0  0  0  0  0  0  0  0  0
   -0.3128   -5.4647    2.5214 H   0  0  0  0  0  0  0  0  0  0  0  0
   -1.0722   -5.4163    0.8380 H   0  0  0  0  0  0  0  0  0  0  0  0
   -2.1279   -3.3662    0.2513 H   0  0  0  0  0  0  0  0  0  0  0  0
   -1.5572   -1.5936    2.6613 H   0  0  0  0  0  0  0  0  0  0  0  0
   -3.0990   -1.6464    1.7959 H   0  0  0  0  0  0  0  0  0  0  0  0
   -1.9592    0.4477    1.3016 H   0  0  0  0  0  0  0  0  0  0  0  0
   -0.1971   -0.9203   -3.8849 H   0  0  0  0  0  0  0  0  0  0  0  0
   -1.7910   -1.6279   -0.8222 H   0  0  0  0  0  0  0  0  0  0  0  0
    0.2374   -0.8508   -1.3684 H   0  0  0  0  0  0  0  0  0  0  0  0
   -7.4819   -0.0318   -0.7523 H   0  0  0  0  0  0  0  0  0  0  0  0
   -1.3635    1.3907   -2.7462 H   0  0  0  0  0  0  0  0  0  0  0  0
    2.1364    1.0067   -1.5828 H   0  0  0  0  0  0  0  0  0  0  0  0
    1.2446    2.5552   -1.8535 H   0  0  0  0  0  0  0  0  0  0  0  0
   -0.5083    2.0141   -0.5259 H   0  0  0  0  0  0  0  0  0  0  0  0
    0.6982    1.6601    1.3080 H   0  0  0  0  0  0  0  0  0  0  0  0
   -0.0589   -0.1569    2.3718 H   0  0  0  0  0  0  0  0  0  0  0  0
    1.1995   -1.9978    2.1455 H   0  0  0  0  0  0  0  0  0  0  0  0
    1.5776   -1.5814    0.4771 H   0  0  0  0  0  0  0  0  0  0  0  0
    4.8376   -2.1407    2.5095 H   0  0  0  0  0  0  0  0  0  0  0  0
    0.1174   -3.0425   -0.4121 H   0  0  0  0  0  0  0  0  0  0  0  0
    3.5623    2.1247    3.3727 H   0  0  0  0  0  0  0  0  0  0  0  0
   -2.9524    0.0322   -2.1985 H   0  0  0  0  0  0  0  0  0  0  0  0
   -3.5958    1.5065    0.4242 H   0  0  0  0  0  0  0  0  0  0  0  0
   -2.8110    2.1930   -1.0314 H   0  0  0  0  0  0  0  0  0  0  0  0
   -4.7990    1.1729   -2.3057 H   0  0  0  0  0  0  0  0  0  0  0  0
   -6.2403    1.5854    0.3355 H   0  0  0  0  0  0  0  0  0  0  0  0
   -4.7798   -0.1205    1.0765 H   0  0  0  0  0  0  0  0  0  0  0  0
   -4.7719   -1.1732   -1.7636 H   0  0  0  0  0  0  0  0  0  0  0  0
   -3.8872   -1.8862   -0.4208 H   0  0  0  0  0  0  0  0  0  0  0  0
   -5.3605    4.4963   -2.7445 H   0  0  0  0  0  0  0  0  0  0  0  0
   -4.2337    3.2377   -3.2897 H   0  0  0  0  0  0  0  0  0  0  0  0
   -6.0135    2.8436   -3.2432 H   0  0  0  0  0  0  0  0  0  0  0  0
   -7.2794   -2.4441    1.4915 H   0  0  0  0  0  0  0  0  0  0  0  0
   -5.5590   -2.2698    1.9032 H   0  0  0  0  0  0  0  0  0  0  0  0
   -6.7720   -0.9020    2.2097 H   0  0  0  0  0  0  0  0  0  0  0  0
    2.2975    1.9610    1.8687 H   0  0  0  0  0  0  0  0  0  0  0  0
    5.4035    2.1459    1.5860 H   0  0  0  0  0  0  0  0  0  0  0  0
    5.2726    2.2406   -1.4759 H   0  0  0  0  0  0  0  0  0  0  0  0
    5.7036    3.6007   -0.3048 H   0  0  0  0  0  0  0  0  0  0  0  0
    6.8438    0.4405   -1.6449 H   0  0  0  0  0  0  0  0  0  0  0  0
    4.8323   -0.1257   -0.3144 H   0  0  0  0  0  0  0  0  0  0  0  0
    5.7804   -0.1966    2.5611 H   0  0  0  0  0  0  0  0  0  0  0  0
    3.0881   -0.3289    2.9160 H   0  0  0  0  0  0  0  0  0  0  0  0
    9.3022    1.2212    0.0094 H   0  0  0  0  0  0  0  0  0  0  0  0
    9.0045   -0.4926   -0.3566 H   0  0  0  0  0  0  0  0  0  0  0  0
    9.2070    0.7377   -1.7011 H   0  0  0  0  0  0  0  0  0  0  0  0
  1  2  1  0
  1  4  1  0
  3  4  1  0
  3  5  1  0
  5  7  1  0
  7  9  1  0
  9 11  1  0
  6 13  1  0
  8 13  1  0
 11 13  1  0
  6 15  1  0
 11 17  1  0
 15 17  1  0
 16 19  1  0
 17 19  1  0
  7 21  1  0
 19 21  1  0
 21 23  1  0
  2 25  1  0
  3 25  1  0
 23 25  1  0
  9 27  1  0
 27 28  1  0
 10 29  1  0
 28 29  1  0
 12 30  1  0
 29 30  1  0
 14 31  1  0
 30 31  1  0
 27 32  1  0
 31 32  1  0
 10 33  1  0
 14 34  1  0
 16 35  1  0
 18 35  1  0
 18 36  1  0
 20 37  1  0
 36 37  1  0
 20 38  1  0
 22 38  1  0
 22 39  1  0
 36 39  1  0
 24 40  1  0
 39 40  1  0
 26 41  1  0
 35 41  1  0
 40 41  1  0
 38 42  1  0
 43 44  1  0
 43 46  1  0
 45 46  1  0
 45 47  1  0
 47 49  1  0
 49 51  1  0
 51 53  1  0
 48 55  1  0
 50 55  1  0
 53 55  1  0
 48 57  1  0
 53 59  1  0
 57 59  1  0
 58 61  1  0
 59 61  1  0
 49 63  1  0
 61 63  1  0
 63 65  1  0
 44 67  1  0
 45 67  1  0
 65 67  1  0
 51 69  1  0
 69 70  1  0
 52 71  1  0
 70 71  1  0
 54 72  1  0
 71 72  1  0
 56 73  1  0
 72 73  1  0
 69 74  1  0
 73 74  1  0
 52 75  1  0
 56 76  1  0
 58 77  1  0
 60 77  1  0
 60 78  1  0
 62 79  1  0
 78 79  1  0
 62 80  1  0
 64 80  1  0
 64 81  1  0
 78 81  1  0
 66 82  1  0
 81 82  1  0
 68 83  1  0
 77 83  1  0
 82 83  1  0
 80 84  1  0
  1 85  1  0
  1 86  1  0
  3 87  1  0
  5 88  1  0
  5 89  1  0
  7 90  1  0
  8 91  1  0
  9 92  1  6
 11 93  1  6
 12 94  1  0
 13 95  1  1
 15 96  1  0
 15 97  1  0
 17 98  1  1
 19 99  1  1
 21100  1  0
 23101  1  0
 23102  1  0
 24103  1  0
 25104  1  0
 26105  1  0
 27106  1  0
 28107  1  0
 28108  1  0
 29109  1  0
 30110  1  0
 31111  1  0
 32112  1  0
 32113  1  0
 33114  1  0
 33115  1  0
 33116  1  0
 34117  1  0
 34118  1  0
 34119  1  0
 35120  1  1
 36121  1  1
 37122  1  0
 37123  1  0
 38124  1  6
 39125  1  6
 40126  1  1
 41127  1  1
 42128  1  0
 42129  1  0
 42130  1  0
 43131  1  0
 43132  1  0
 45133  1  0
 47134  1  0
 47135  1  0
 49136  1  0
 50137  1  0
 51138  1  6
 53139  1  6
 54140  1  0
 55141  1  1
 57142  1  0
 57143  1  0
 59144  1  1
 61145  1  1
 63146  1  0
 65147  1  0
 65148  1  0
 66149  1  0
 67150  1  0
 68151  1  0
 69152  1  0
 70153  1  0
 70154  1  0
 71155  1  0
 72156  1  0
 73157  1  0
 74158  1  0
 74159  1  0
 75160  1  0
 75161  1  0
 75162  1  0
 76163  1  0
 76164  1  0
 76165  1  0
 77166  1  1
 78167  1  1
 79168  1  0
 79169  1  0
 80170  1  6
 81171  1  6
 82172  1  1
 83173  1  1
 84174  1  0
 84175  1  0
 84176  1  0
M  END
>  <PDBID>  (1) 
5GWK

>  <PDB ID>  (1) 
5GWK

>  <Generic Name>  (1) 
Etoposide

>  <Brand Name>  (1) 
Dom-etoposide#Eposin#Etopophos#Etoposide#Etoposide - Liq IV 20mg/ml#Etoposide Injection#Etoposide Injection USP#Etoposide Injection, USP#PMS-etoposide#Toposar#Vepesid#Vepesid Inj 20mg/ml#Etopofos#Lastet#Nexvep#Vepesid K#Vépéside

>  <DrugBank ID>  (1) 
DB00773

>  <ATC Codes>  (1) 
L01CB01

>  <Ligand ID>  (1) 
EVP

>  <Target Name>  (1) 
DNA topoisomerase 2-alpha

>  <UniProt ID>  (1) 
P11388

>  <PDB ID.1>  (1) 
5GWK

>  <Seq. Identity>  (1) 
96%

$$$$
