PDB_DB01015_08
     RDKit          3D

 40 41  0  0  0  0  0  0  0  0999 V2000
    0.5548   -2.2643    0.9513 O   0  0  0  0  0  0  0  0  0  0  0  0
    0.1998   -1.0689    0.1764 S   0  0  0  0  0  0  0  0  0  0  0  0
    0.2275   -1.4671   -1.5199 O   0  0  0  0  0  0  0  0  0  0  0  0
   -1.4852   -0.5690    0.4244 C   0  0  0  0  0  0  0  0  0  0  0  0
   -2.4330   -1.6584    0.0511 C   0  0  0  0  0  0  0  0  0  0  0  0
   -3.6107   -1.0873   -0.7126 C   0  0  0  0  0  0  0  0  0  0  0  0
   -1.7027    0.7104   -0.3322 C   0  0  0  0  0  0  0  0  0  0  0  0
   -3.0813    1.2341   -0.0924 C   0  0  0  0  0  0  0  0  0  0  0  0
   -4.0977    0.1223    0.0960 C   0  0  0  0  0  0  0  0  0  0  0  0
   -5.4148    0.5422   -0.3292 N   0  0  0  0  0  0  0  0  0  0  0  0
    1.0660    0.3112    0.3023 N   0  0  0  0  0  0  0  0  0  0  0  0
    2.4860    0.1270    0.5238 C   0  0  0  0  0  0  0  0  0  0  0  0
    3.0396   -0.6097   -0.5701 N   0  0  0  0  0  0  0  0  0  0  0  0
    3.8095    0.2237   -1.2909 O   0  0  0  0  0  0  0  0  0  0  0  0
    4.3696    1.1351   -0.4051 C   0  0  0  0  0  0  0  0  0  0  0  0
    3.1819    1.4689    0.4738 C   0  0  0  0  0  0  0  0  0  0  0  0
    5.4869    0.4815    0.3557 C   0  0  0  0  0  0  0  0  0  0  0  0
    0.6265   -3.1901    0.6527 H   0  0  0  0  0  0  0  0  0  0  0  0
    0.3445   -0.6163   -1.9971 H   0  0  0  0  0  0  0  0  0  0  0  0
   -1.6055   -0.3507    1.5044 H   0  0  0  0  0  0  0  0  0  0  0  0
   -1.9628   -2.5000   -0.4993 H   0  0  0  0  0  0  0  0  0  0  0  0
   -2.8780   -2.1348    0.9737 H   0  0  0  0  0  0  0  0  0  0  0  0
   -4.4426   -1.8388   -0.7752 H   0  0  0  0  0  0  0  0  0  0  0  0
   -3.3463   -0.8150   -1.7408 H   0  0  0  0  0  0  0  0  0  0  0  0
   -0.9883    1.4621    0.1082 H   0  0  0  0  0  0  0  0  0  0  0  0
   -1.4276    0.6422   -1.4000 H   0  0  0  0  0  0  0  0  0  0  0  0
   -3.4346    1.8325   -0.9590 H   0  0  0  0  0  0  0  0  0  0  0  0
   -3.1218    1.9108    0.7920 H   0  0  0  0  0  0  0  0  0  0  0  0
   -4.0977   -0.2126    1.1616 H   0  0  0  0  0  0  0  0  0  0  0  0
   -5.3400    1.5305   -0.6582 H   0  0  0  0  0  0  0  0  0  0  0  0
   -6.0797    0.4798    0.4821 H   0  0  0  0  0  0  0  0  0  0  0  0
    0.9095    0.9919   -0.4741 H   0  0  0  0  0  0  0  0  0  0  0  0
    2.6139   -0.3846    1.5020 H   0  0  0  0  0  0  0  0  0  0  0  0
    3.5317   -1.4652   -0.2579 H   0  0  0  0  0  0  0  0  0  0  0  0
    4.7035    2.0334   -0.9592 H   0  0  0  0  0  0  0  0  0  0  0  0
    3.4752    1.8406    1.4675 H   0  0  0  0  0  0  0  0  0  0  0  0
    2.5650    2.2443   -0.0284 H   0  0  0  0  0  0  0  0  0  0  0  0
    6.3880    0.5117   -0.3010 H   0  0  0  0  0  0  0  0  0  0  0  0
    5.7411    0.9860    1.2994 H   0  0  0  0  0  0  0  0  0  0  0  0
    5.2299   -0.5895    0.4905 H   0  0  0  0  0  0  0  0  0  0  0  0
  2  1  1  0
  2  3  1  0
  2  4  1  0
  4  5  1  0
  5  6  1  0
  4  7  1  0
  7  8  1  0
  6  9  1  0
  8  9  1  0
  9 10  1  0
  2 11  1  0
 11 12  1  0
 12 13  1  0
 13 14  1  0
 14 15  1  0
 12 16  1  0
 15 16  1  0
 15 17  1  0
  1 18  1  0
  3 19  1  0
  4 20  1  0
  5 21  1  0
  5 22  1  0
  6 23  1  0
  6 24  1  0
  7 25  1  0
  7 26  1  0
  8 27  1  0
  8 28  1  0
  9 29  1  0
 10 30  1  0
 10 31  1  0
 11 32  1  0
 12 33  1  0
 13 34  1  0
 15 35  1  0
 16 36  1  0
 16 37  1  0
 17 38  1  0
 17 39  1  0
 17 40  1  0
M  END
>  <PDBID>  (1) 
3TZF

>  <PDB ID>  (1) 
3TZF

>  <Generic Name>  (1) 
Sulfamethoxazole

>  <Brand Name>  (1) 
Apo Sulfamethoxazole Tab 500mg#Apo Sulfatrim DS Tab#Apo Sulfatrim Pediatric#Apo Sulfatrim Tab#Apo-sulfatrim Oral Suspension#Bactrim#Bactrim DS#Bactrim DS Roche Tab#Bactrim Roche Inj#Bactrim Roche Suspension Paediatric#Bactrim Roche Tab#Nu-cotrimox Sus 40/8mg/ml#Nu-cotrimox Tab 400/80mg#Nu-cotrimox-DS Tab 800/160mg#Protrin Df Tab#Protrin Tab#Riva-sep DS#Roubac Tab 160/800#Roubac Tab 80/400#Septra#Septra DS Tablets#Septra Injection#Septra Pediatric Suspension#Sulfamethoxazole Tab 500mg#Sulfamethoxazole and Trimethoprim#Sulfamethoxazole and Trimethoprim (double Strength)#Sulfamethoxazole and Trimethoprim DS#Sulfamethoxazole and Trimethoprim Double Strength#Sulfamethoxazole and Trimethoprim Tablets#Sulfatrim#Teva-trimel#Teva-trimel DS#Trisulfa DS Tab#Trisulfa S Suspension#Trisulfa Tab#Gantanol#Sinomin#Urobak

>  <DrugBank ID>  (1) 
DB01015

>  <ATC Codes>  (1) 
J01EE01#J01EC01

>  <Ligand ID>  (1) 
08D

>  <Target Name>  (1) 
Dihydropteroate synthase

>  <UniProt ID>  (1) 
P0AC13

>  <PDB ID.1>  (1) 
3TZF

>  <Seq. Identity>  (1) 
75%

$$$$
