PDB_DB00884_07
     RDKit          3D

 38 38  0  0  0  0  0  0  0  0999 V2000
   -3.9797    0.9837   -0.1783 O   0  0  0  0  0  0  0  0  0  0  0  0
   -2.4740    1.3685   -0.7638 P   0  0  0  0  0  0  0  0  0  0  0  0
   -2.2685    2.7583   -1.6745 O   0  0  0  0  0  0  0  0  0  0  0  0
   -2.2479    2.2077    0.4956 O   0  0  0  0  0  0  0  0  0  0  0  0
   -1.1916    0.2036   -0.5504 C   0  0  0  0  0  0  0  0  0  0  0  0
   -0.4656   -0.0214   -1.7704 O   0  0  0  0  0  0  0  0  0  0  0  0
   -1.7692   -1.2832    0.1486 P   0  0  0  0  0  0  0  0  0  0  0  0
   -3.1670   -0.8576    0.6267 O   0  0  0  0  0  0  0  0  0  0  0  0
   -2.4845   -2.3994   -0.8559 O   0  0  0  0  0  0  0  0  0  0  0  0
   -1.3968   -1.6016    1.7504 O   0  0  0  0  0  0  0  0  0  0  0  0
   -0.0995    0.7319    0.3472 C   0  0  0  0  0  0  0  0  0  0  0  0
    1.0640   -0.2041    0.5558 C   0  0  1  0  0  0  0  0  0  0  0  0
    1.7715   -0.5683   -0.7104 C   0  0  0  0  0  0  0  0  0  0  0  0
    3.2165   -0.9590   -0.5135 C   0  0  0  0  0  0  0  0  0  0  0  0
    3.8731    0.1062    0.3109 C   0  0  0  0  0  0  0  0  0  0  0  0
    3.2731   -0.0437    1.6465 N   0  0  0  0  0  0  0  0  0  0  0  0
    1.9492    0.4741    1.5752 C   0  0  0  0  0  0  0  0  0  0  0  0
   -0.8300   -0.8538   -2.1813 H   0  0  0  0  0  0  0  0  0  0  0  0
    0.3303    1.6687   -0.0632 H   0  0  0  0  0  0  0  0  0  0  0  0
   -0.4960    0.9025    1.3949 H   0  0  0  0  0  0  0  0  0  0  0  0
    1.3105   -1.4357   -1.2254 H   0  0  0  0  0  0  0  0  0  0  0  0
    3.2538   -1.9071    0.0910 H   0  0  0  0  0  0  0  0  0  0  0  0
    3.5873    1.0887   -0.1020 H   0  0  0  0  0  0  0  0  0  0  0  0
    1.4841    0.3688    2.5860 H   0  0  0  0  0  0  0  0  0  0  0  0
    3.8295    0.5891    2.2620 H   0  0  0  0  0  0  0  0  0  0  0  0
   -4.5862    1.7063   -0.3683 H   0  0  0  0  0  0  0  0  0  0  0  0
   -2.8985    0.8998   -1.8843 H   0  0  0  0  0  0  0  0  0  0  0  0
   -1.3242    2.8510   -1.7925 H   0  0  0  0  0  0  0  0  0  0  0  0
   -1.3703    2.5571    0.6535 H   0  0  0  0  0  0  0  0  0  0  0  0
   -0.7027   -1.9947   -0.0696 H   0  0  0  0  0  0  0  0  0  0  0  0
   -3.8205   -1.4292    1.0567 H   0  0  0  0  0  0  0  0  0  0  0  0
   -2.7761   -3.1594   -0.3443 H   0  0  0  0  0  0  0  0  0  0  0  0
   -1.7750   -2.4397    2.0205 H   0  0  0  0  0  0  0  0  0  0  0  0
    0.7155   -1.1295    1.0371 H   0  0  0  0  0  0  0  0  0  0  0  0
    1.7956    0.3531   -1.3506 H   0  0  0  0  0  0  0  0  0  0  0  0
    3.6883   -1.0814   -1.4884 H   0  0  0  0  0  0  0  0  0  0  0  0
    4.9716   -0.0166    0.3572 H   0  0  0  0  0  0  0  0  0  0  0  0
    2.0099    1.5664    1.3829 H   0  0  0  0  0  0  0  0  0  0  0  0
  1  2  1  0
  2  3  1  0
  2  4  1  0
  2  5  1  0
  5  6  1  0
  5  7  1  0
  7  8  1  0
  7  9  1  0
  7 10  1  0
  5 11  1  0
 11 12  1  0
 12 13  1  0
 13 14  1  0
 14 15  1  0
 15 16  1  0
 12 17  1  0
 16 17  1  0
 18  6  1  0
 11 19  1  0
 11 20  1  0
 13 21  1  0
 14 22  1  0
 15 23  1  0
 17 24  1  0
 25 16  1  0
  1 26  1  0
  2 27  1  0
  3 28  1  0
  4 29  1  0
  7 30  1  0
  8 31  1  0
  9 32  1  0
 10 33  1  0
 12 34  1  1
 13 35  1  0
 14 36  1  0
 15 37  1  0
 17 38  1  0
M  END
>  <PDBID>  (1) 
5CG5

>  <PDB ID>  (1) 
5CG5

>  <Generic Name>  (1) 
Risedronate

>  <Brand Name>  (1) 
Actonel#Actonel Dr#Actonel Plus Calcium#Actonel Sachet Kit#Apo-risedronate#Atelvia#Auro-risedronate#Dom-risedronate#Jamp-risedronate#Mylan-risedronate#Ntp-risedronate#PHL-risedronate#PMS-risedronate#PMS-risedronate Plus Calcium#Pendo-risedronate#Q-risedronate#Ratio-risedronate#Risedronate#Risedronate Sodium#Risedronate-35#Riva-risedronate#Sandoz Risedronate#Teva-risedronate#Benet

>  <DrugBank ID>  (1) 
DB00884

>  <ATC Codes>  (1) 
M05BB02#M05BA07#M05BB04#M05BB07

>  <Ligand ID>  (1) 
RIS

>  <Target Name>  (1) 
Farnesyl pyrophosphate synthase

>  <UniProt ID>  (1) 
P14324

>  <PDB ID.1>  (1) 
5CG5

>  <Seq. Identity>  (1) 
100%

$$$$
