PDB_DB00317_05
     RDKit          3D

 71 74  0  0  0  0  0  0  0  0999 V2000
   -6.1322    0.2993   -0.4614 C   0  0  0  0  0  0  0  0  0  0  0  0
   -7.6042    0.2069   -0.6605 C   0  0  0  0  0  0  0  0  0  0  0  0
   -8.2199    0.8462    0.4130 O   0  0  0  0  0  0  0  0  0  0  0  0
   -8.0424    0.0402    1.5148 C   0  0  0  0  0  0  0  0  0  0  0  0
   -6.6443   -0.3474    1.8085 C   0  0  0  0  0  0  0  0  0  0  0  0
   -5.6601   -0.0243    0.8527 N   0  0  0  0  0  0  0  0  0  0  0  0
   -4.6470    0.8989    1.3261 C   0  0  0  0  0  0  0  0  0  0  0  0
   -3.4336    0.6338    0.4193 C   0  0  0  0  0  0  0  0  0  0  0  0
   -2.2756    1.5097    0.7372 C   0  0  0  0  0  0  0  0  0  0  0  0
   -1.1865    1.3039   -0.0523 O   0  0  0  0  0  0  0  0  0  0  0  0
   -0.5976    0.0449    0.0251 C   0  0  0  0  0  0  0  0  0  0  0  0
   -0.7887   -0.6187   -1.3013 C   0  0  0  0  0  0  0  0  0  0  0  0
    0.2624   -1.6946   -1.5555 C   0  0  0  0  0  0  0  0  0  0  0  0
   -0.6804    0.2763   -2.3557 O   0  0  0  0  0  0  0  0  0  0  0  0
   -1.7574    0.2928   -3.2133 C   0  0  0  0  0  0  0  0  0  0  0  0
    0.7951    0.2304    0.4915 C   0  0  0  0  0  0  0  0  0  0  0  0
    1.8728   -0.5531   -0.1582 C   0  0  0  0  0  0  0  0  0  0  0  0
    1.5790   -0.9043   -1.6008 C   0  0  0  0  0  0  0  0  0  0  0  0
    1.5027    0.2045   -2.4599 N   0  0  0  0  0  0  0  0  0  0  0  0
    1.9833    1.4571   -2.0885 C   0  0  0  0  0  0  0  0  0  0  0  0
    2.5593    1.6036   -0.7914 N   0  0  0  0  0  0  0  0  0  0  0  0
    3.0959    0.3775   -0.2871 C   0  0  0  0  0  0  0  0  0  0  0  0
    3.8949    0.4526    0.8665 N   0  0  0  0  0  0  0  0  0  0  0  0
    4.5313   -0.7596    1.2633 C   0  0  0  0  0  0  0  0  0  0  0  0
    5.3694   -0.4608    2.5057 C   0  0  0  0  0  0  0  0  0  0  0  0
    6.4926    0.4854    2.2254 C   0  0  0  0  0  0  0  0  0  0  0  0
    7.5987    0.4264    3.6341 Cl  0  0  0  0  0  0  0  0  0  0  0  0
    7.3081    0.1514    1.0127 C   0  0  0  0  0  0  0  0  0  0  0  0
    8.0349    1.2964    0.6768 F   0  0  0  0  0  0  0  0  0  0  0  0
    6.4362   -0.2014   -0.1924 C   0  0  0  0  0  0  0  0  0  0  0  0
    5.5033   -1.2893    0.2343 C   0  0  0  0  0  0  0  0  0  0  0  0
   -5.7998    1.3107   -0.8020 H   0  0  0  0  0  0  0  0  0  0  0  0
   -5.6393   -0.4160   -1.1759 H   0  0  0  0  0  0  0  0  0  0  0  0
   -7.8911   -0.8522   -0.7620 H   0  0  0  0  0  0  0  0  0  0  0  0
   -7.9068    0.7407   -1.5779 H   0  0  0  0  0  0  0  0  0  0  0  0
   -8.4852    0.5818    2.3874 H   0  0  0  0  0  0  0  0  0  0  0  0
   -8.7225   -0.8471    1.3597 H   0  0  0  0  0  0  0  0  0  0  0  0
   -6.3347    0.0476    2.8198 H   0  0  0  0  0  0  0  0  0  0  0  0
   -6.6279   -1.4656    1.9482 H   0  0  0  0  0  0  0  0  0  0  0  0
   -4.3914    0.6103    2.3471 H   0  0  0  0  0  0  0  0  0  0  0  0
   -4.9491    1.9520    1.2822 H   0  0  0  0  0  0  0  0  0  0  0  0
   -3.8014    0.9003   -0.5961 H   0  0  0  0  0  0  0  0  0  0  0  0
   -3.1881   -0.4149    0.5517 H   0  0  0  0  0  0  0  0  0  0  0  0
   -2.5740    2.5892    0.6022 H   0  0  0  0  0  0  0  0  0  0  0  0
   -2.0079    1.4503    1.8338 H   0  0  0  0  0  0  0  0  0  0  0  0
   -1.2035   -0.5056    0.7975 H   0  0  0  0  0  0  0  0  0  0  0  0
   -1.7548   -1.1789   -1.2987 H   0  0  0  0  0  0  0  0  0  0  0  0
    0.0228   -2.1652   -2.5100 H   0  0  0  0  0  0  0  0  0  0  0  0
    0.2603   -2.3917   -0.7199 H   0  0  0  0  0  0  0  0  0  0  0  0
   -2.6581    0.5794   -2.6407 H   0  0  0  0  0  0  0  0  0  0  0  0
   -1.6186    1.0509   -4.0140 H   0  0  0  0  0  0  0  0  0  0  0  0
   -1.9767   -0.7062   -3.6518 H   0  0  0  0  0  0  0  0  0  0  0  0
    1.0622    1.3228    0.5288 H   0  0  0  0  0  0  0  0  0  0  0  0
    0.8240   -0.0547    1.5918 H   0  0  0  0  0  0  0  0  0  0  0  0
    2.1450   -1.4651    0.4064 H   0  0  0  0  0  0  0  0  0  0  0  0
    2.3649   -1.6661   -1.8803 H   0  0  0  0  0  0  0  0  0  0  0  0
    1.6973   -0.1008   -3.4433 H   0  0  0  0  0  0  0  0  0  0  0  0
    2.7719    1.7842   -2.8308 H   0  0  0  0  0  0  0  0  0  0  0  0
    1.1937    2.2270   -2.1966 H   0  0  0  0  0  0  0  0  0  0  0  0
    3.1873    2.4102   -0.7389 H   0  0  0  0  0  0  0  0  0  0  0  0
    3.7411   -0.0318   -1.1235 H   0  0  0  0  0  0  0  0  0  0  0  0
    4.4285    1.3099    1.0098 H   0  0  0  0  0  0  0  0  0  0  0  0
    3.8305   -1.5598    1.5438 H   0  0  0  0  0  0  0  0  0  0  0  0
    5.7741   -1.3935    2.9427 H   0  0  0  0  0  0  0  0  0  0  0  0
    4.6852    0.0202    3.2330 H   0  0  0  0  0  0  0  0  0  0  0  0
    6.1450    1.5416    2.1690 H   0  0  0  0  0  0  0  0  0  0  0  0
    8.0341   -0.6444    1.1882 H   0  0  0  0  0  0  0  0  0  0  0  0
    5.9569    0.6870   -0.6101 H   0  0  0  0  0  0  0  0  0  0  0  0
    7.1563   -0.6446   -0.9359 H   0  0  0  0  0  0  0  0  0  0  0  0
    4.9906   -1.7940   -0.6078 H   0  0  0  0  0  0  0  0  0  0  0  0
    6.1090   -2.0700    0.7441 H   0  0  0  0  0  0  0  0  0  0  0  0
  1  2  1  0
  2  3  1  0
  3  4  1  0
  4  5  1  0
  1  6  1  0
  5  6  1  0
  6  7  1  0
  7  8  1  0
  8  9  1  0
  9 10  1  0
 10 11  1  0
 11 12  1  0
 12 13  1  0
 12 14  1  0
 14 15  1  0
 11 16  1  0
 16 17  1  0
 13 18  1  0
 17 18  1  0
 18 19  1  0
 19 20  1  0
 20 21  1  0
 17 22  1  0
 21 22  1  0
 22 23  1  0
 23 24  1  0
 24 25  1  0
 25 26  1  0
 26 27  1  0
 26 28  1  0
 28 29  1  0
 28 30  1  0
 24 31  1  0
 30 31  1  0
  1 32  1  0
  1 33  1  0
  2 34  1  0
  2 35  1  0
  4 36  1  0
  4 37  1  0
  5 38  1  0
  5 39  1  0
  7 40  1  0
  7 41  1  0
  8 42  1  0
  8 43  1  0
  9 44  1  0
  9 45  1  0
 11 46  1  0
 12 47  1  0
 13 48  1  0
 13 49  1  0
 15 50  1  0
 15 51  1  0
 15 52  1  0
 16 53  1  0
 16 54  1  0
 17 55  1  0
 18 56  1  0
 19 57  1  0
 20 58  1  0
 20 59  1  0
 21 60  1  0
 22 61  1  0
 23 62  1  0
 24 63  1  0
 25 64  1  0
 25 65  1  0
 26 66  1  0
 28 67  1  0
 30 68  1  0
 30 69  1  0
 31 70  1  0
 31 71  1  0
M  END
>  <PDBID>  (1) 
4WKQ

>  <PDB ID>  (1) 
4WKQ

>  <Generic Name>  (1) 
Gefitinib

>  <Brand Name>  (1) 
Iressa

>  <DrugBank ID>  (1) 
DB00317

>  <ATC Codes>  (1) 
L01XE02

>  <Ligand ID>  (1) 
IRE

>  <Target Name>  (1) 
Epidermal growth factor receptor

>  <UniProt ID>  (1) 
P00533

>  <PDB ID.1>  (1) 
4WKQ

>  <Seq. Identity>  (1) 
96%

$$$$
