PDB_DB00307_07
     RDKit          3D

 70 72  0  0  0  0  0  0  0  0999 V2000
    6.3971   -0.3174   -0.4146 O   0  0  0  0  0  0  0  0  0  0  0  0
    5.2179   -0.7714   -0.9705 C   0  0  0  0  0  0  0  0  0  0  0  0
    5.6051   -1.5718   -2.0732 O   0  0  0  0  0  0  0  0  0  0  0  0
    4.4312    0.4064   -1.4901 C   0  0  0  0  0  0  0  0  0  0  0  0
    3.1304    0.0648   -2.1161 C   0  0  0  0  0  0  0  0  0  0  0  0
    4.2476    1.5178   -0.5156 C   0  0  0  0  0  0  0  0  0  0  0  0
    2.7453    1.7225   -0.2598 C   0  0  0  0  0  0  0  0  0  0  0  0
    2.2138    0.3794    0.1640 C   0  0  0  0  0  0  0  0  0  0  0  0
    2.0544   -0.3803   -1.1054 C   0  0  0  0  0  0  0  0  0  0  0  0
    1.0748    0.4262    1.1172 C   0  0  0  0  0  0  0  0  0  0  0  0
    1.5521    1.1306    2.3523 C   0  0  0  0  0  0  0  0  0  0  0  0
    0.3308   -0.8152    1.3389 C   0  0  1  0  0  0  0  0  0  0  0  0
   -0.7860   -0.7010    2.3854 C   0  0  0  0  0  0  0  0  0  0  0  0
   -0.3379   -0.7385    3.7964 C   0  0  0  0  0  0  0  0  0  0  0  0
   -1.8079    0.3079    2.0150 C   0  0  0  0  0  0  0  0  0  0  0  0
   -0.4504   -1.3777    0.1666 C   0  0  0  0  0  0  0  0  0  0  0  0
   -1.5204   -0.4441   -0.3163 C   0  0  0  0  0  0  0  0  0  0  0  0
   -2.3218   -1.1550   -1.3792 C   0  0  0  0  0  0  0  0  0  0  0  0
   -3.2142   -2.2368   -0.8620 C   0  0  0  0  0  0  0  0  0  0  0  0
   -1.4566   -1.7281   -2.4517 C   0  0  0  0  0  0  0  0  0  0  0  0
   -3.2484   -0.1078   -2.0166 C   0  0  0  0  0  0  0  0  0  0  0  0
   -4.1132    0.5659   -1.0024 C   0  0  0  0  0  0  0  0  0  0  0  0
   -3.3476    1.0863    0.2028 C   0  0  0  0  0  0  0  0  0  0  0  0
   -2.5049   -0.0225    0.7455 C   0  0  0  0  0  0  0  0  0  0  0  0
   -4.4116    1.4444    1.2486 C   0  0  0  0  0  0  0  0  0  0  0  0
   -2.5921    2.2965   -0.2259 C   0  0  0  0  0  0  0  0  0  0  0  0
    7.0167   -0.0926   -1.1411 H   0  0  0  0  0  0  0  0  0  0  0  0
    4.6386   -1.4580   -0.3264 H   0  0  0  0  0  0  0  0  0  0  0  0
    6.2331   -2.2769   -1.7196 H   0  0  0  0  0  0  0  0  0  0  0  0
    5.0669    0.8224   -2.3299 H   0  0  0  0  0  0  0  0  0  0  0  0
    3.3425   -0.7961   -2.8266 H   0  0  0  0  0  0  0  0  0  0  0  0
    2.7897    0.8772   -2.7645 H   0  0  0  0  0  0  0  0  0  0  0  0
    4.7674    1.3344    0.4427 H   0  0  0  0  0  0  0  0  0  0  0  0
    4.6196    2.4925   -0.8932 H   0  0  0  0  0  0  0  0  0  0  0  0
    2.2870    2.0629   -1.2362 H   0  0  0  0  0  0  0  0  0  0  0  0
    2.6739    2.5511    0.4044 H   0  0  0  0  0  0  0  0  0  0  0  0
    3.0717   -0.0624    0.7921 H   0  0  0  0  0  0  0  0  0  0  0  0
    2.2483   -1.4623   -1.0074 H   0  0  0  0  0  0  0  0  0  0  0  0
    1.1288   -0.0699   -1.5825 H   0  0  0  0  0  0  0  0  0  0  0  0
    0.3271    1.1536    0.6365 H   0  0  0  0  0  0  0  0  0  0  0  0
    2.3521    0.5926    2.8976 H   0  0  0  0  0  0  0  0  0  0  0  0
    0.7579    1.3377    3.0891 H   0  0  0  0  0  0  0  0  0  0  0  0
    1.9416    2.1267    2.0877 H   0  0  0  0  0  0  0  0  0  0  0  0
    0.9873   -1.6063    1.7013 H   0  0  0  0  0  0  0  0  0  0  0  0
   -1.3244   -1.6893    2.2390 H   0  0  0  0  0  0  0  0  0  0  0  0
    0.7685   -0.8700    3.9418 H   0  0  0  0  0  0  0  0  0  0  0  0
   -0.7431    0.1049    4.4327 H   0  0  0  0  0  0  0  0  0  0  0  0
   -0.7345   -1.6356    4.3773 H   0  0  0  0  0  0  0  0  0  0  0  0
   -2.5863    0.2828    2.8333 H   0  0  0  0  0  0  0  0  0  0  0  0
   -1.4682    1.3487    1.9734 H   0  0  0  0  0  0  0  0  0  0  0  0
   -1.0349   -2.2539    0.6457 H   0  0  0  0  0  0  0  0  0  0  0  0
    0.0621   -1.8279   -0.6370 H   0  0  0  0  0  0  0  0  0  0  0  0
   -1.0644    0.4399   -0.7620 H   0  0  0  0  0  0  0  0  0  0  0  0
   -3.2738   -3.0919   -1.5982 H   0  0  0  0  0  0  0  0  0  0  0  0
   -4.2888   -1.9104   -0.7591 H   0  0  0  0  0  0  0  0  0  0  0  0
   -2.9407   -2.6814    0.0901 H   0  0  0  0  0  0  0  0  0  0  0  0
   -1.0566   -2.7146   -2.0737 H   0  0  0  0  0  0  0  0  0  0  0  0
   -0.6549   -1.0637   -2.8023 H   0  0  0  0  0  0  0  0  0  0  0  0
   -2.1360   -2.0279   -3.3085 H   0  0  0  0  0  0  0  0  0  0  0  0
   -2.6696    0.6290   -2.5939 H   0  0  0  0  0  0  0  0  0  0  0  0
   -3.8948   -0.6640   -2.7078 H   0  0  0  0  0  0  0  0  0  0  0  0
   -4.5197    1.4933   -1.5049 H   0  0  0  0  0  0  0  0  0  0  0  0
   -5.0006   -0.0037   -0.6923 H   0  0  0  0  0  0  0  0  0  0  0  0
   -3.2157   -0.8678    0.9774 H   0  0  0  0  0  0  0  0  0  0  0  0
   -4.1580    2.4028    1.7318 H   0  0  0  0  0  0  0  0  0  0  0  0
   -5.4119    1.5538    0.7852 H   0  0  0  0  0  0  0  0  0  0  0  0
   -4.4897    0.6088    1.9733 H   0  0  0  0  0  0  0  0  0  0  0  0
   -1.6445    2.4717    0.2799 H   0  0  0  0  0  0  0  0  0  0  0  0
   -2.3623    2.2832   -1.3324 H   0  0  0  0  0  0  0  0  0  0  0  0
   -3.2949    3.1753   -0.1191 H   0  0  0  0  0  0  0  0  0  0  0  0
  1  2  1  0
  2  3  1  0
  2  4  1  0
  4  5  1  0
  4  6  1  0
  6  7  1  0
  7  8  1  0
  5  9  1  0
  8  9  1  0
  8 10  1  0
 10 11  1  0
 10 12  1  0
 12 13  1  0
 13 14  1  0
 13 15  1  0
 12 16  1  0
 16 17  1  0
 17 18  1  0
 18 19  1  0
 18 20  1  0
 18 21  1  0
 21 22  1  0
 22 23  1  0
 15 24  1  0
 17 24  1  0
 23 24  1  0
 23 25  1  0
 23 26  1  0
  1 27  1  0
  2 28  1  0
  3 29  1  0
  4 30  1  0
  5 31  1  0
  5 32  1  0
  6 33  1  0
  6 34  1  0
  7 35  1  0
  7 36  1  0
  8 37  1  0
  9 38  1  0
  9 39  1  0
 10 40  1  0
 11 41  1  0
 11 42  1  0
 11 43  1  0
 12 44  1  1
 13 45  1  0
 14 46  1  0
 14 47  1  0
 14 48  1  0
 15 49  1  0
 15 50  1  0
 16 51  1  0
 16 52  1  0
 17 53  1  0
 19 54  1  0
 19 55  1  0
 19 56  1  0
 20 57  1  0
 20 58  1  0
 20 59  1  0
 21 60  1  0
 21 61  1  0
 22 62  1  0
 22 63  1  0
 24 64  1  0
 25 65  1  0
 25 66  1  0
 25 67  1  0
 26 68  1  0
 26 69  1  0
 26 70  1  0
M  END
>  <PDBID>  (1) 
3H0A

>  <PDB ID>  (1) 
3H0A

>  <Generic Name>  (1) 
Bexarotene

>  <Brand Name>  (1) 
Bexarotene#Targretin

>  <DrugBank ID>  (1) 
DB00307

>  <ATC Codes>  (1) 
L01XX25

>  <Ligand ID>  (1) 
9RA

>  <Target Name>  (1) 
Retinoic acid receptor RXR-beta

>  <UniProt ID>  (1) 
P28702

>  <PDB ID.1>  (1) 
3H0A

>  <Seq. Identity>  (1) 
87%

$$$$
