PDB_DB00773_04
     RDKit          3D

176188  0  0  0  0  0  0  0  0999 V2000
   -1.5346   -5.8390   -0.0925 C   0  0  0  0  0  0  0  0  0  0  0  0
   -0.2594   -5.3891   -0.4140 O   0  0  0  0  0  0  0  0  0  0  0  0
   -1.2268   -3.9823    1.1312 C   0  0  0  0  0  0  0  0  0  0  0  0
   -1.9132   -5.2155    1.0688 O   0  0  0  0  0  0  0  0  0  0  0  0
   -2.1369   -2.8077    0.9898 C   0  0  0  0  0  0  0  0  0  0  0  0
   -0.1291    0.4255    3.7792 O   0  0  0  0  0  0  0  0  0  0  0  0
   -1.6986   -1.6661    0.2006 C   0  0  0  0  0  0  0  0  0  0  0  0
   -2.3462    0.5774    3.8705 O   0  0  0  0  0  0  0  0  0  0  0  0
   -1.9620   -0.2684    0.7027 C   0  0  2  0  0  0  0  0  0  0  0  0
   -3.1186    1.2768   -1.7748 O   0  0  0  0  0  0  0  0  0  0  0  0
   -1.0846    0.1182    1.8021 C   0  0  1  0  0  0  0  0  0  0  0  0
   -5.2573    3.0241   -1.5827 O   0  0  0  0  0  0  0  0  0  0  0  0
   -1.3586   -0.0342    3.2152 C   0  0  1  0  0  0  0  0  0  0  0  0
   -4.3341    3.6509    0.9597 O   0  0  0  0  0  0  0  0  0  0  0  0
    0.8965    0.0428    2.8825 C   0  0  0  0  0  0  0  0  0  0  0  0
    1.5524   -0.1880    0.0181 O   0  0  0  0  0  0  0  0  0  0  0  0
    0.1699   -0.7913    1.8919 C   0  0  2  0  0  0  0  0  0  0  0  0
    3.7336    0.1730    0.5926 O   0  0  0  0  0  0  0  0  0  0  0  0
    0.7603   -1.1561    0.6336 C   0  0  1  0  0  0  0  0  0  0  0  0
    5.7840    2.7207    0.2160 O   0  0  0  0  0  0  0  0  0  0  0  0
   -0.2816   -1.6798   -0.3276 C   0  0  0  0  0  0  0  0  0  0  0  0
    5.6626    1.8235   -1.9105 O   0  0  0  0  0  0  0  0  0  0  0  0
    0.0006   -3.0452   -0.8516 C   0  0  0  0  0  0  0  0  0  0  0  0
    2.5260    1.3989   -2.6046 O   0  0  0  0  0  0  0  0  0  0  0  0
   -0.1386   -4.1218    0.1605 C   0  0  0  0  0  0  0  0  0  0  0  0
    4.3012   -1.5658   -1.7624 O   0  0  0  0  0  0  0  0  0  0  0  0
   -3.4248    0.0568    0.8953 C   0  0  0  0  0  0  0  0  0  0  0  0
   -4.3051   -0.2049   -0.2602 C   0  0  0  0  0  0  0  0  0  0  0  0
   -4.3447    0.8315   -1.3463 C   0  0  0  0  0  0  0  0  0  0  0  0
   -5.0277    2.0295   -0.6574 C   0  0  0  0  0  0  0  0  0  0  0  0
   -3.9682    2.4859    0.2870 C   0  0  0  0  0  0  0  0  0  0  0  0
   -3.5027    1.5087    1.3029 C   0  0  0  0  0  0  0  0  0  0  0  0
   -3.0602    1.0935   -3.1580 C   0  0  0  0  0  0  0  0  0  0  0  0
   -3.5297    4.7322    0.6126 C   0  0  0  0  0  0  0  0  0  0  0  0
    2.8706   -0.5951   -0.1767 C   0  0  2  0  0  0  0  0  0  0  0  0
    4.8581    0.5855   -0.0722 C   0  0  2  0  0  0  0  0  0  0  0  0
    5.6190    1.5207    0.8750 C   0  0  0  0  0  0  0  0  0  0  0  0
    6.3870    2.6099   -1.0191 C   0  0  2  0  0  0  0  0  0  0  0  0
    4.5053    1.4195   -1.2820 C   0  0  2  0  0  0  0  0  0  0  0  0
    3.6437    0.6540   -2.2267 C   0  0  1  0  0  0  0  0  0  0  0  0
    3.2499   -0.6619   -1.6237 C   0  0  1  0  0  0  0  0  0  0  0  0
    7.7873    2.0904   -0.9794 C   0  0  0  0  0  0  0  0  0  0  0  0
   -1.5346   -5.8390   -0.0925 C   0  0  0  0  0  0  0  0  0  0  0  0
   -0.2594   -5.3891   -0.4140 O   0  0  0  0  0  0  0  0  0  0  0  0
   -1.2268   -3.9823    1.1312 C   0  0  0  0  0  0  0  0  0  0  0  0
   -1.9132   -5.2155    1.0688 O   0  0  0  0  0  0  0  0  0  0  0  0
   -2.1369   -2.8077    0.9898 C   0  0  0  0  0  0  0  0  0  0  0  0
   -0.1291    0.4255    3.7792 O   0  0  0  0  0  0  0  0  0  0  0  0
   -1.6986   -1.6661    0.2006 C   0  0  0  0  0  0  0  0  0  0  0  0
   -2.3462    0.5774    3.8705 O   0  0  0  0  0  0  0  0  0  0  0  0
   -1.9620   -0.2684    0.7027 C   0  0  2  0  0  0  0  0  0  0  0  0
   -3.1186    1.2768   -1.7748 O   0  0  0  0  0  0  0  0  0  0  0  0
   -1.0846    0.1182    1.8021 C   0  0  1  0  0  0  0  0  0  0  0  0
   -5.2573    3.0241   -1.5827 O   0  0  0  0  0  0  0  0  0  0  0  0
   -1.3586   -0.0342    3.2152 C   0  0  1  0  0  0  0  0  0  0  0  0
   -4.3341    3.6509    0.9597 O   0  0  0  0  0  0  0  0  0  0  0  0
    0.8965    0.0428    2.8825 C   0  0  0  0  0  0  0  0  0  0  0  0
    1.5524   -0.1880    0.0181 O   0  0  0  0  0  0  0  0  0  0  0  0
    0.1699   -0.7913    1.8919 C   0  0  2  0  0  0  0  0  0  0  0  0
    3.7336    0.1730    0.5926 O   0  0  0  0  0  0  0  0  0  0  0  0
    0.7603   -1.1561    0.6336 C   0  0  1  0  0  0  0  0  0  0  0  0
    5.7840    2.7207    0.2160 O   0  0  0  0  0  0  0  0  0  0  0  0
   -0.2816   -1.6798   -0.3276 C   0  0  0  0  0  0  0  0  0  0  0  0
    5.6626    1.8235   -1.9105 O   0  0  0  0  0  0  0  0  0  0  0  0
    0.0006   -3.0452   -0.8516 C   0  0  0  0  0  0  0  0  0  0  0  0
    2.5260    1.3989   -2.6046 O   0  0  0  0  0  0  0  0  0  0  0  0
   -0.1386   -4.1218    0.1605 C   0  0  0  0  0  0  0  0  0  0  0  0
    4.3012   -1.5658   -1.7624 O   0  0  0  0  0  0  0  0  0  0  0  0
   -3.4248    0.0568    0.8953 C   0  0  0  0  0  0  0  0  0  0  0  0
   -4.3051   -0.2049   -0.2602 C   0  0  0  0  0  0  0  0  0  0  0  0
   -4.3447    0.8315   -1.3463 C   0  0  0  0  0  0  0  0  0  0  0  0
   -5.0277    2.0295   -0.6574 C   0  0  0  0  0  0  0  0  0  0  0  0
   -3.9682    2.4859    0.2870 C   0  0  0  0  0  0  0  0  0  0  0  0
   -3.5027    1.5087    1.3029 C   0  0  0  0  0  0  0  0  0  0  0  0
   -3.0602    1.0935   -3.1580 C   0  0  0  0  0  0  0  0  0  0  0  0
   -3.5297    4.7322    0.6126 C   0  0  0  0  0  0  0  0  0  0  0  0
    2.8706   -0.5951   -0.1767 C   0  0  2  0  0  0  0  0  0  0  0  0
    4.8581    0.5855   -0.0722 C   0  0  2  0  0  0  0  0  0  0  0  0
    5.6190    1.5207    0.8750 C   0  0  0  0  0  0  0  0  0  0  0  0
    6.3870    2.6099   -1.0191 C   0  0  2  0  0  0  0  0  0  0  0  0
    4.5053    1.4195   -1.2820 C   0  0  2  0  0  0  0  0  0  0  0  0
    3.6437    0.6540   -2.2267 C   0  0  1  0  0  0  0  0  0  0  0  0
    3.2499   -0.6619   -1.6237 C   0  0  1  0  0  0  0  0  0  0  0  0
    7.7873    2.0904   -0.9794 C   0  0  0  0  0  0  0  0  0  0  0  0
   -1.5619   -6.9361    0.0721 H   0  0  0  0  0  0  0  0  0  0  0  0
   -2.2496   -5.5558   -0.8938 H   0  0  0  0  0  0  0  0  0  0  0  0
   -0.8420   -3.9764    2.1976 H   0  0  0  0  0  0  0  0  0  0  0  0
   -2.5047   -2.4894    2.0127 H   0  0  0  0  0  0  0  0  0  0  0  0
   -3.0949   -3.2724    0.5748 H   0  0  0  0  0  0  0  0  0  0  0  0
   -2.3067   -1.7133   -0.7717 H   0  0  0  0  0  0  0  0  0  0  0  0
   -2.1419    1.5198    4.0922 H   0  0  0  0  0  0  0  0  0  0  0  0
   -1.6921    0.3620   -0.1775 H   0  0  0  0  0  0  0  0  0  0  0  0
   -0.6219    1.1436    1.6372 H   0  0  0  0  0  0  0  0  0  0  0  0
   -6.2108    3.0213   -1.9134 H   0  0  0  0  0  0  0  0  0  0  0  0
   -1.3575   -1.1215    3.5437 H   0  0  0  0  0  0  0  0  0  0  0  0
    1.7108   -0.4849    3.4130 H   0  0  0  0  0  0  0  0  0  0  0  0
    1.2750    0.9823    2.4387 H   0  0  0  0  0  0  0  0  0  0  0  0
   -0.0788   -1.7284    2.4822 H   0  0  0  0  0  0  0  0  0  0  0  0
    1.4387   -2.0444    0.8152 H   0  0  0  0  0  0  0  0  0  0  0  0
   -0.2745   -0.9969   -1.2369 H   0  0  0  0  0  0  0  0  0  0  0  0
   -0.7421   -3.2424   -1.6648 H   0  0  0  0  0  0  0  0  0  0  0  0
    0.9949   -3.0969   -1.3583 H   0  0  0  0  0  0  0  0  0  0  0  0
    2.6881    1.9360   -3.4167 H   0  0  0  0  0  0  0  0  0  0  0  0
    0.8424   -4.1616    0.7236 H   0  0  0  0  0  0  0  0  0  0  0  0
    4.0413   -2.4785   -1.4803 H   0  0  0  0  0  0  0  0  0  0  0  0
   -3.7685   -0.5530    1.7526 H   0  0  0  0  0  0  0  0  0  0  0  0
   -5.3631   -0.2063    0.1637 H   0  0  0  0  0  0  0  0  0  0  0  0
   -4.2305   -1.1795   -0.7475 H   0  0  0  0  0  0  0  0  0  0  0  0
   -4.9752    0.4464   -2.1651 H   0  0  0  0  0  0  0  0  0  0  0  0
   -5.9380    1.6502   -0.1914 H   0  0  0  0  0  0  0  0  0  0  0  0
   -3.0907    2.7779   -0.3671 H   0  0  0  0  0  0  0  0  0  0  0  0
   -4.2208    1.6084    2.1706 H   0  0  0  0  0  0  0  0  0  0  0  0
   -2.4803    1.8998    1.5762 H   0  0  0  0  0  0  0  0  0  0  0  0
   -2.0962    1.4292   -3.5923 H   0  0  0  0  0  0  0  0  0  0  0  0
   -3.8597    1.6589   -3.6905 H   0  0  0  0  0  0  0  0  0  0  0  0
   -3.2379    0.0161   -3.4363 H   0  0  0  0  0  0  0  0  0  0  0  0
   -3.6708    4.8594   -0.5012 H   0  0  0  0  0  0  0  0  0  0  0  0
   -2.4619    4.4732    0.7406 H   0  0  0  0  0  0  0  0  0  0  0  0
   -3.8398    5.6672    1.0727 H   0  0  0  0  0  0  0  0  0  0  0  0
    2.9431   -1.6288    0.2265 H   0  0  0  0  0  0  0  0  0  0  0  0
    5.5497   -0.2437   -0.3012 H   0  0  0  0  0  0  0  0  0  0  0  0
    5.0416    1.7264    1.7983 H   0  0  0  0  0  0  0  0  0  0  0  0
    6.5782    1.0726    1.2083 H   0  0  0  0  0  0  0  0  0  0  0  0
    6.4180    3.6314   -1.4597 H   0  0  0  0  0  0  0  0  0  0  0  0
    3.9067    2.2783   -0.9001 H   0  0  0  0  0  0  0  0  0  0  0  0
    4.2112    0.4695   -3.1627 H   0  0  0  0  0  0  0  0  0  0  0  0
    2.3885   -1.1090   -2.1678 H   0  0  0  0  0  0  0  0  0  0  0  0
    8.3012    2.4473   -1.9195 H   0  0  0  0  0  0  0  0  0  0  0  0
    8.3646    2.5241   -0.1433 H   0  0  0  0  0  0  0  0  0  0  0  0
    7.8541    0.9800   -1.0190 H   0  0  0  0  0  0  0  0  0  0  0  0
   -1.5619   -6.9361    0.0721 H   0  0  0  0  0  0  0  0  0  0  0  0
   -2.2496   -5.5558   -0.8938 H   0  0  0  0  0  0  0  0  0  0  0  0
   -0.8420   -3.9764    2.1976 H   0  0  0  0  0  0  0  0  0  0  0  0
   -2.5047   -2.4894    2.0127 H   0  0  0  0  0  0  0  0  0  0  0  0
   -3.0949   -3.2724    0.5748 H   0  0  0  0  0  0  0  0  0  0  0  0
   -2.3067   -1.7133   -0.7717 H   0  0  0  0  0  0  0  0  0  0  0  0
   -2.1419    1.5198    4.0922 H   0  0  0  0  0  0  0  0  0  0  0  0
   -1.6921    0.3620   -0.1775 H   0  0  0  0  0  0  0  0  0  0  0  0
   -0.6219    1.1436    1.6372 H   0  0  0  0  0  0  0  0  0  0  0  0
   -6.2108    3.0213   -1.9134 H   0  0  0  0  0  0  0  0  0  0  0  0
   -1.3575   -1.1215    3.5437 H   0  0  0  0  0  0  0  0  0  0  0  0
    1.7108   -0.4849    3.4130 H   0  0  0  0  0  0  0  0  0  0  0  0
    1.2750    0.9823    2.4387 H   0  0  0  0  0  0  0  0  0  0  0  0
   -0.0788   -1.7284    2.4822 H   0  0  0  0  0  0  0  0  0  0  0  0
    1.4387   -2.0444    0.8152 H   0  0  0  0  0  0  0  0  0  0  0  0
   -0.2745   -0.9969   -1.2369 H   0  0  0  0  0  0  0  0  0  0  0  0
   -0.7421   -3.2424   -1.6648 H   0  0  0  0  0  0  0  0  0  0  0  0
    0.9949   -3.0969   -1.3583 H   0  0  0  0  0  0  0  0  0  0  0  0
    2.6881    1.9360   -3.4167 H   0  0  0  0  0  0  0  0  0  0  0  0
    0.8424   -4.1616    0.7236 H   0  0  0  0  0  0  0  0  0  0  0  0
    4.0413   -2.4785   -1.4803 H   0  0  0  0  0  0  0  0  0  0  0  0
   -3.7685   -0.5530    1.7526 H   0  0  0  0  0  0  0  0  0  0  0  0
   -5.3631   -0.2063    0.1637 H   0  0  0  0  0  0  0  0  0  0  0  0
   -4.2305   -1.1795   -0.7475 H   0  0  0  0  0  0  0  0  0  0  0  0
   -4.9752    0.4464   -2.1651 H   0  0  0  0  0  0  0  0  0  0  0  0
   -5.9380    1.6502   -0.1914 H   0  0  0  0  0  0  0  0  0  0  0  0
   -3.0907    2.7779   -0.3671 H   0  0  0  0  0  0  0  0  0  0  0  0
   -4.2208    1.6084    2.1706 H   0  0  0  0  0  0  0  0  0  0  0  0
   -2.4803    1.8998    1.5762 H   0  0  0  0  0  0  0  0  0  0  0  0
   -2.0962    1.4292   -3.5923 H   0  0  0  0  0  0  0  0  0  0  0  0
   -3.8597    1.6589   -3.6905 H   0  0  0  0  0  0  0  0  0  0  0  0
   -3.2379    0.0161   -3.4363 H   0  0  0  0  0  0  0  0  0  0  0  0
   -3.6708    4.8594   -0.5012 H   0  0  0  0  0  0  0  0  0  0  0  0
   -2.4619    4.4732    0.7406 H   0  0  0  0  0  0  0  0  0  0  0  0
   -3.8398    5.6672    1.0727 H   0  0  0  0  0  0  0  0  0  0  0  0
    2.9431   -1.6288    0.2265 H   0  0  0  0  0  0  0  0  0  0  0  0
    5.5497   -0.2437   -0.3012 H   0  0  0  0  0  0  0  0  0  0  0  0
    5.0416    1.7264    1.7983 H   0  0  0  0  0  0  0  0  0  0  0  0
    6.5782    1.0726    1.2083 H   0  0  0  0  0  0  0  0  0  0  0  0
    6.4180    3.6314   -1.4597 H   0  0  0  0  0  0  0  0  0  0  0  0
    3.9067    2.2783   -0.9001 H   0  0  0  0  0  0  0  0  0  0  0  0
    4.2112    0.4695   -3.1627 H   0  0  0  0  0  0  0  0  0  0  0  0
    2.3885   -1.1090   -2.1678 H   0  0  0  0  0  0  0  0  0  0  0  0
    8.3012    2.4473   -1.9195 H   0  0  0  0  0  0  0  0  0  0  0  0
    8.3646    2.5241   -0.1433 H   0  0  0  0  0  0  0  0  0  0  0  0
    7.8541    0.9800   -1.0190 H   0  0  0  0  0  0  0  0  0  0  0  0
  1  2  1  0
  1  4  1  0
  3  4  1  0
  3  5  1  0
  5  7  1  0
  7  9  1  0
  9 11  1  0
  6 13  1  0
  8 13  1  0
 11 13  1  0
  6 15  1  0
 11 17  1  0
 15 17  1  0
 16 19  1  0
 17 19  1  0
  7 21  1  0
 19 21  1  0
 21 23  1  0
  2 25  1  0
  3 25  1  0
 23 25  1  0
  9 27  1  0
 27 28  1  0
 10 29  1  0
 28 29  1  0
 12 30  1  0
 29 30  1  0
 14 31  1  0
 30 31  1  0
 27 32  1  0
 31 32  1  0
 10 33  1  0
 14 34  1  0
 16 35  1  0
 18 35  1  0
 18 36  1  0
 20 37  1  0
 36 37  1  0
 20 38  1  0
 22 38  1  0
 22 39  1  0
 36 39  1  0
 24 40  1  0
 39 40  1  0
 26 41  1  0
 35 41  1  0
 40 41  1  0
 38 42  1  0
 43 44  1  0
 43 46  1  0
 45 46  1  0
 45 47  1  0
 47 49  1  0
 49 51  1  0
 51 53  1  0
 48 55  1  0
 50 55  1  0
 53 55  1  0
 48 57  1  0
 53 59  1  0
 57 59  1  0
 58 61  1  0
 59 61  1  0
 49 63  1  0
 61 63  1  0
 63 65  1  0
 44 67  1  0
 45 67  1  0
 65 67  1  0
 51 69  1  0
 69 70  1  0
 52 71  1  0
 70 71  1  0
 54 72  1  0
 71 72  1  0
 56 73  1  0
 72 73  1  0
 69 74  1  0
 73 74  1  0
 52 75  1  0
 56 76  1  0
 58 77  1  0
 60 77  1  0
 60 78  1  0
 62 79  1  0
 78 79  1  0
 62 80  1  0
 64 80  1  0
 64 81  1  0
 78 81  1  0
 66 82  1  0
 81 82  1  0
 68 83  1  0
 77 83  1  0
 82 83  1  0
 80 84  1  0
  1 85  1  0
  1 86  1  0
  3 87  1  0
  5 88  1  0
  5 89  1  0
  7 90  1  0
  8 91  1  0
  9 92  1  6
 11 93  1  1
 12 94  1  0
 13 95  1  6
 15 96  1  0
 15 97  1  0
 17 98  1  1
 19 99  1  1
 21100  1  0
 23101  1  0
 23102  1  0
 24103  1  0
 25104  1  0
 26105  1  0
 27106  1  0
 28107  1  0
 28108  1  0
 29109  1  0
 30110  1  0
 31111  1  0
 32112  1  0
 32113  1  0
 33114  1  0
 33115  1  0
 33116  1  0
 34117  1  0
 34118  1  0
 34119  1  0
 35120  1  1
 36121  1  6
 37122  1  0
 37123  1  0
 38124  1  6
 39125  1  1
 40126  1  6
 41127  1  6
 42128  1  0
 42129  1  0
 42130  1  0
 43131  1  0
 43132  1  0
 45133  1  0
 47134  1  0
 47135  1  0
 49136  1  0
 50137  1  0
 51138  1  6
 53139  1  1
 54140  1  0
 55141  1  6
 57142  1  0
 57143  1  0
 59144  1  1
 61145  1  1
 63146  1  0
 65147  1  0
 65148  1  0
 66149  1  0
 67150  1  0
 68151  1  0
 69152  1  0
 70153  1  0
 70154  1  0
 71155  1  0
 72156  1  0
 73157  1  0
 74158  1  0
 74159  1  0
 75160  1  0
 75161  1  0
 75162  1  0
 76163  1  0
 76164  1  0
 76165  1  0
 77166  1  1
 78167  1  6
 79168  1  0
 79169  1  0
 80170  1  6
 81171  1  1
 82172  1  6
 83173  1  6
 84174  1  0
 84175  1  0
 84176  1  0
M  END
>  <PDBID>  (1) 
5GWK

>  <PDB ID>  (1) 
5GWK

>  <Generic Name>  (1) 
Etoposide

>  <Brand Name>  (1) 
Dom-etoposide#Eposin#Etopophos#Etoposide#Etoposide - Liq IV 20mg/ml#Etoposide Injection#Etoposide Injection USP#Etoposide Injection, USP#PMS-etoposide#Toposar#Vepesid#Vepesid Inj 20mg/ml#Etopofos#Lastet#Nexvep#Vepesid K#Vépéside

>  <DrugBank ID>  (1) 
DB00773

>  <ATC Codes>  (1) 
L01CB01

>  <Ligand ID>  (1) 
EVP

>  <Target Name>  (1) 
DNA topoisomerase 2-alpha

>  <UniProt ID>  (1) 
P11388

>  <PDB ID.1>  (1) 
5GWK

>  <Seq. Identity>  (1) 
96%

$$$$
