PDB_DB01394_01
     RDKit          3D

 70 72  0  0  0  0  0  0  0  0999 V2000
    4.6714   -3.5716    0.6172 O   0  0  0  0  0  0  0  0  0  0  0  0
    3.4594   -3.4536   -0.1111 C   0  0  0  0  0  0  0  0  0  0  0  0
    3.8632   -3.6001   -1.5612 C   0  0  0  0  0  0  0  0  0  0  0  0
    2.9749   -2.1525    0.1662 N   0  0  0  0  0  0  0  0  0  0  0  0
    1.7551   -1.7983   -0.5893 C   0  0  2  0  0  0  0  0  0  0  0  0
    1.4506   -0.3987   -0.1599 C   0  0  0  0  0  0  0  0  0  0  0  0
    2.8058    0.3145   -0.3428 C   0  0  0  0  0  0  0  0  0  0  0  0
    0.7971   -2.8605   -0.2189 C   0  0  0  0  0  0  0  0  0  0  0  0
   -0.6073   -2.6740   -0.6777 C   0  0  0  0  0  0  0  0  0  0  0  0
   -1.0831   -1.3816   -0.0581 C   0  0  2  0  0  0  0  0  0  0  0  0
   -2.5393   -1.6264    0.2444 C   0  0  0  0  0  0  0  0  0  0  0  0
   -3.2166   -0.4797    0.8707 C   0  0  0  0  0  0  0  0  0  0  0  0
   -3.0207    0.7123    0.0324 C   0  0  0  0  0  0  0  0  0  0  0  0
   -2.0511    0.6894   -1.0883 C   0  0  0  0  0  0  0  0  0  0  0  0
   -2.8475    0.4212   -2.2466 O   0  0  0  0  0  0  0  0  0  0  0  0
   -3.0017    1.5052   -3.0579 C   0  0  0  0  0  0  0  0  0  0  0  0
   -2.7095    1.7552    0.9237 O   0  0  0  0  0  0  0  0  0  0  0  0
   -3.6586    2.7204    1.0246 C   0  0  0  0  0  0  0  0  0  0  0  0
   -4.5990   -0.7894    0.9108 O   0  0  0  0  0  0  0  0  0  0  0  0
   -5.0369   -0.8773    2.2301 C   0  0  0  0  0  0  0  0  0  0  0  0
   -0.9093   -0.2487   -1.0529 C   0  0  1  0  0  0  0  0  0  0  0  0
    0.4791    0.3321   -1.0625 C   0  0  0  0  0  0  0  0  0  0  0  0
    0.4221    1.7845   -0.8718 C   0  0  0  0  0  0  0  0  0  0  0  0
    1.6456    2.6019   -0.6990 C   0  0  0  0  0  0  0  0  0  0  0  0
    2.1450    2.4774    0.7197 C   0  0  1  0  0  0  0  0  0  0  0  0
    3.0499    1.2943    0.7857 C   0  0  0  0  0  0  0  0  0  0  0  0
    2.7512    0.5969    1.9741 O   0  0  0  0  0  0  0  0  0  0  0  0
    2.7434    3.6111    1.2085 O   0  0  0  0  0  0  0  0  0  0  0  0
    2.0923    4.1797    2.2796 C   0  0  0  0  0  0  0  0  0  0  0  0
    4.5176   -4.0108    1.4911 H   0  0  0  0  0  0  0  0  0  0  0  0
    2.8444   -4.2945    0.2621 H   0  0  0  0  0  0  0  0  0  0  0  0
    4.6741   -4.3837   -1.6077 H   0  0  0  0  0  0  0  0  0  0  0  0
    3.0472   -3.9107   -2.2104 H   0  0  0  0  0  0  0  0  0  0  0  0
    4.3543   -2.6536   -1.8536 H   0  0  0  0  0  0  0  0  0  0  0  0
    2.7668   -2.0281    1.1629 H   0  0  0  0  0  0  0  0  0  0  0  0
    2.0471   -1.7946   -1.6586 H   0  0  0  0  0  0  0  0  0  0  0  0
    1.2342   -0.3085    0.9092 H   0  0  0  0  0  0  0  0  0  0  0  0
    2.9480    0.6983   -1.3487 H   0  0  0  0  0  0  0  0  0  0  0  0
    3.6711   -0.4070   -0.2232 H   0  0  0  0  0  0  0  0  0  0  0  0
    0.8369   -3.0267    0.8763 H   0  0  0  0  0  0  0  0  0  0  0  0
    1.1552   -3.7979   -0.7401 H   0  0  0  0  0  0  0  0  0  0  0  0
   -1.1955   -3.5478   -0.3838 H   0  0  0  0  0  0  0  0  0  0  0  0
   -0.6359   -2.5934   -1.7858 H   0  0  0  0  0  0  0  0  0  0  0  0
   -0.6023   -1.1622    0.9151 H   0  0  0  0  0  0  0  0  0  0  0  0
   -3.0698   -1.8742   -0.7125 H   0  0  0  0  0  0  0  0  0  0  0  0
   -2.6028   -2.5125    0.8862 H   0  0  0  0  0  0  0  0  0  0  0  0
   -2.8267   -0.3827    1.9127 H   0  0  0  0  0  0  0  0  0  0  0  0
   -4.0423    1.0174   -0.3594 H   0  0  0  0  0  0  0  0  0  0  0  0
   -1.7877    1.7602   -1.2098 H   0  0  0  0  0  0  0  0  0  0  0  0
   -2.0721    1.9298   -3.4675 H   0  0  0  0  0  0  0  0  0  0  0  0
   -3.6131    1.1834   -3.9264 H   0  0  0  0  0  0  0  0  0  0  0  0
   -3.6285    2.2839   -2.5382 H   0  0  0  0  0  0  0  0  0  0  0  0
   -3.8935    3.2503    0.0700 H   0  0  0  0  0  0  0  0  0  0  0  0
   -4.6213    2.4075    1.4580 H   0  0  0  0  0  0  0  0  0  0  0  0
   -3.2589    3.5090    1.7010 H   0  0  0  0  0  0  0  0  0  0  0  0
   -4.5234   -1.6445    2.8142 H   0  0  0  0  0  0  0  0  0  0  0  0
   -6.1327   -1.0068    2.2010 H   0  0  0  0  0  0  0  0  0  0  0  0
   -4.8070    0.1240    2.6950 H   0  0  0  0  0  0  0  0  0  0  0  0
   -0.9644   -0.8043   -2.0530 H   0  0  0  0  0  0  0  0  0  0  0  0
    0.9840    0.2047   -2.0832 H   0  0  0  0  0  0  0  0  0  0  0  0
    0.0041    2.2008   -1.8484 H   0  0  0  0  0  0  0  0  0  0  0  0
   -0.1942    2.0255    0.0055 H   0  0  0  0  0  0  0  0  0  0  0  0
    1.2639    3.6809   -0.7176 H   0  0  0  0  0  0  0  0  0  0  0  0
    2.3879    2.6054   -1.4802 H   0  0  0  0  0  0  0  0  0  0  0  0
    1.2336    2.2943    1.3493 H   0  0  0  0  0  0  0  0  0  0  0  0
    4.1039    1.5579    0.8245 H   0  0  0  0  0  0  0  0  0  0  0  0
    2.7924    1.1616    2.7674 H   0  0  0  0  0  0  0  0  0  0  0  0
    1.0470    4.4676    1.9848 H   0  0  0  0  0  0  0  0  0  0  0  0
    2.1117    3.5675    3.1989 H   0  0  0  0  0  0  0  0  0  0  0  0
    2.6214    5.1308    2.5337 H   0  0  0  0  0  0  0  0  0  0  0  0
  1  2  1  0
  2  3  1  0
  2  4  1  0
  4  5  1  0
  5  6  1  0
  6  7  1  0
  5  8  1  0
  8  9  1  0
  9 10  1  0
 10 11  1  0
 11 12  1  0
 12 13  1  0
 13 14  1  0
 14 15  1  0
 15 16  1  0
 13 17  1  0
 17 18  1  0
 12 19  1  0
 19 20  1  0
 10 21  1  0
 14 21  1  0
  6 22  1  0
 21 22  1  0
 22 23  1  0
 23 24  1  0
 24 25  1  0
  7 26  1  0
 25 26  1  0
 26 27  1  0
 25 28  1  0
 28 29  1  0
  1 30  1  0
  2 31  1  0
  3 32  1  0
  3 33  1  0
  3 34  1  0
  4 35  1  0
  5 36  1  6
  6 37  1  0
  7 38  1  0
  7 39  1  0
  8 40  1  0
  8 41  1  0
  9 42  1  0
  9 43  1  0
 10 44  1  1
 11 45  1  0
 11 46  1  0
 12 47  1  0
 13 48  1  0
 14 49  1  0
 16 50  1  0
 16 51  1  0
 16 52  1  0
 18 53  1  0
 18 54  1  0
 18 55  1  0
 20 56  1  0
 20 57  1  0
 20 58  1  0
 21 59  1  6
 22 60  1  0
 23 61  1  0
 23 62  1  0
 24 63  1  0
 24 64  1  0
 25 65  1  1
 26 66  1  0
 27 67  1  0
 29 68  1  0
 29 69  1  0
 29 70  1  0
M  END
>  <PDBID>  (1) 
5EYP

>  <PDB ID>  (1) 
5EYP

>  <Generic Name>  (1) 
Colchicine

>  <Brand Name>  (1) 
Colchicine#Colchicine Tab 0.6mg#Colchicine Tab 1mg#Colcrys#Euro-colchicine#Jamp-colchicine#Mitigare#PMS-colchicine#Probenecid and Colchicine#Verban Ont

>  <DrugBank ID>  (1) 
DB01394

>  <ATC Codes>  (1) 
M04AC01

>  <Ligand ID>  (1) 
LOC

>  <Target Name>  (1) 
Tubulin beta-1 chain

>  <UniProt ID>  (1) 
Q9H4B7

>  <PDB ID.1>  (1) 
5EYP

>  <Seq. Identity>  (1) 
78%

$$$$
