PDB_DB00224_06
     RDKit          3D

114118  0  0  0  0  0  0  0  0999 V2000
   -4.2683    0.7963    0.7037 N   0  0  0  0  0  0  0  0  0  0  0  0
   -4.3399   -0.6276    0.8768 C   0  0  0  0  0  0  0  0  0  0  0  0
   -3.4229   -1.4909    0.1262 C   0  0  1  0  0  0  0  0  0  0  0  0
   -3.9480   -1.8021   -1.2270 C   0  0  0  0  0  0  0  0  0  0  0  0
   -5.2894   -2.1687   -1.0956 O   0  0  0  0  0  0  0  0  0  0  0  0
   -3.3403   -3.0065   -1.8015 N   0  0  0  0  0  0  0  0  0  0  0  0
   -3.8784   -3.2426   -3.1272 C   0  0  0  0  0  0  0  0  0  0  0  0
   -3.0485   -4.3079   -3.8544 C   0  0  0  0  0  0  0  0  0  0  0  0
   -5.2986   -3.7646   -3.0568 C   0  0  0  0  0  0  0  0  0  0  0  0
   -3.8735   -2.0130   -4.0014 C   0  0  0  0  0  0  0  0  0  0  0  0
   -2.0609   -1.0714    0.2005 N   0  0  0  0  0  0  0  0  0  0  0  0
   -1.8530    0.2792    0.5396 C   0  0  0  0  0  0  0  0  0  0  0  0
   -2.9540    1.2645    0.4241 C   0  0  0  0  0  0  0  0  0  0  0  0
   -1.1939   -2.0125    0.7989 C   0  0  0  0  0  0  0  0  0  0  0  0
    0.2581   -1.9155    0.7604 C   0  0  1  0  0  0  0  0  0  0  0  0
    0.7226   -1.9158   -0.5952 O   0  0  0  0  0  0  0  0  0  0  0  0
    1.0051   -0.8936    1.4984 C   0  0  0  0  0  0  0  0  0  0  0  0
    2.4990   -0.9495    1.3739 C   0  0  1  0  0  0  0  0  0  0  0  0
    3.1326   -2.2223    1.8372 C   0  0  0  0  0  0  0  0  0  0  0  0
    2.8904   -2.5324    3.2987 C   0  0  0  0  0  0  0  0  0  0  0  0
    3.4284   -1.4829    4.2110 C   0  0  0  0  0  0  0  0  0  0  0  0
    4.0282   -1.9955    5.4949 C   0  0  0  0  0  0  0  0  0  0  0  0
    5.0263   -3.0864    5.2952 C   0  0  0  0  0  0  0  0  0  0  0  0
    4.9351   -3.7689    3.9476 C   0  0  0  0  0  0  0  0  0  0  0  0
    3.4512   -3.8759    3.6251 C   0  0  0  0  0  0  0  0  0  0  0  0
    3.0575   -0.4659    0.0561 C   0  0  2  0  0  0  0  0  0  0  0  0
    4.4742   -0.6049    0.1703 O   0  0  0  0  0  0  0  0  0  0  0  0
    2.7871    0.9196   -0.0764 N   0  0  0  0  0  0  0  0  0  0  0  0
    3.2534    1.5834   -1.2178 C   0  0  2  0  0  0  0  0  0  0  0  0
    2.7091    1.1192   -2.5313 C   0  0  2  0  0  0  0  0  0  0  0  0
    3.2663   -0.0935   -2.9499 O   0  0  0  0  0  0  0  0  0  0  0  0
    3.3715    2.1773   -3.4352 C   0  0  0  0  0  0  0  0  0  0  0  0
    4.7415    2.3743   -2.8246 C   0  0  0  0  0  0  0  0  0  0  0  0
    4.9722    3.8380   -2.6397 C   0  0  0  0  0  0  0  0  0  0  0  0
    6.2803    4.1480   -1.9548 C   0  0  0  0  0  0  0  0  0  0  0  0
    6.7313    3.0145   -1.0709 C   0  0  0  0  0  0  0  0  0  0  0  0
    5.4787    2.4226   -0.4323 C   0  0  0  0  0  0  0  0  0  0  0  0
    4.7153    1.6403   -1.4728 C   0  0  0  0  0  0  0  0  0  0  0  0
   -5.2441    1.2870   -0.2305 C   0  0  0  0  0  0  0  0  0  0  0  0
   -5.5625    2.7206   -0.2511 C   0  0  0  0  0  0  0  0  0  0  0  0
   -4.5155    3.7267   -0.5184 C   0  0  0  0  0  0  0  0  0  0  0  0
   -5.2407    5.0360   -0.5603 N   0  0  0  0  0  0  0  0  0  0  0  0
   -5.5459    5.4898    0.7589 C   0  0  0  0  0  0  0  0  0  0  0  0
   -5.7399    4.3271    1.6895 C   0  0  0  0  0  0  0  0  0  0  0  0
   -6.3325    3.1296    1.0108 C   0  0  0  0  0  0  0  0  0  0  0  0
   -5.4041   -0.9025    0.6297 H   0  0  0  0  0  0  0  0  0  0  0  0
   -4.2782   -0.8248    1.9798 H   0  0  0  0  0  0  0  0  0  0  0  0
   -3.4361   -2.5019    0.6762 H   0  0  0  0  0  0  0  0  0  0  0  0
   -3.8159   -0.9543   -1.8931 H   0  0  0  0  0  0  0  0  0  0  0  0
   -5.4670   -2.7101   -0.2956 H   0  0  0  0  0  0  0  0  0  0  0  0
   -3.5914   -3.8519   -1.2305 H   0  0  0  0  0  0  0  0  0  0  0  0
   -3.5309   -4.4471   -4.8436 H   0  0  0  0  0  0  0  0  0  0  0  0
   -2.0349   -3.9068   -4.0306 H   0  0  0  0  0  0  0  0  0  0  0  0
   -3.0322   -5.2622   -3.2880 H   0  0  0  0  0  0  0  0  0  0  0  0
   -6.0444   -2.9503   -3.1640 H   0  0  0  0  0  0  0  0  0  0  0  0
   -5.5004   -4.3192   -2.1193 H   0  0  0  0  0  0  0  0  0  0  0  0
   -5.4579   -4.4301   -3.9440 H   0  0  0  0  0  0  0  0  0  0  0  0
   -4.7789   -1.3738   -3.8075 H   0  0  0  0  0  0  0  0  0  0  0  0
   -2.9337   -1.4367   -3.9141 H   0  0  0  0  0  0  0  0  0  0  0  0
   -3.9684   -2.3232   -5.0625 H   0  0  0  0  0  0  0  0  0  0  0  0
   -1.4889    0.3462    1.6111 H   0  0  0  0  0  0  0  0  0  0  0  0
   -1.0540    0.6618   -0.1786 H   0  0  0  0  0  0  0  0  0  0  0  0
   -2.6640    2.1184    1.1228 H   0  0  0  0  0  0  0  0  0  0  0  0
   -2.9801    1.7667   -0.5806 H   0  0  0  0  0  0  0  0  0  0  0  0
   -1.5036   -2.1163    1.8685 H   0  0  0  0  0  0  0  0  0  0  0  0
   -1.4868   -3.0207    0.3655 H   0  0  0  0  0  0  0  0  0  0  0  0
    0.7109   -2.9241    1.1193 H   0  0  0  0  0  0  0  0  0  0  0  0
   -0.0588   -1.6149   -1.1557 H   0  0  0  0  0  0  0  0  0  0  0  0
    0.7429    0.1337    1.1038 H   0  0  0  0  0  0  0  0  0  0  0  0
    0.7662   -0.9676    2.5806 H   0  0  0  0  0  0  0  0  0  0  0  0
    2.8586   -0.1750    2.1416 H   0  0  0  0  0  0  0  0  0  0  0  0
    4.2328   -2.2332    1.6708 H   0  0  0  0  0  0  0  0  0  0  0  0
    2.7081   -3.0614    1.2517 H   0  0  0  0  0  0  0  0  0  0  0  0
    1.7744   -2.5927    3.4733 H   0  0  0  0  0  0  0  0  0  0  0  0
    2.6165   -0.7557    4.5232 H   0  0  0  0  0  0  0  0  0  0  0  0
    4.1925   -0.8306    3.7359 H   0  0  0  0  0  0  0  0  0  0  0  0
    3.2612   -2.2201    6.2660 H   0  0  0  0  0  0  0  0  0  0  0  0
    4.6065   -1.1156    5.9153 H   0  0  0  0  0  0  0  0  0  0  0  0
    4.8519   -3.8314    6.1283 H   0  0  0  0  0  0  0  0  0  0  0  0
    6.0781   -2.7678    5.4242 H   0  0  0  0  0  0  0  0  0  0  0  0
    5.5026   -3.2608    3.1704 H   0  0  0  0  0  0  0  0  0  0  0  0
    5.3092   -4.8129    4.0834 H   0  0  0  0  0  0  0  0  0  0  0  0
    2.9676   -4.2979    4.5290 H   0  0  0  0  0  0  0  0  0  0  0  0
    3.2495   -4.6040    2.8123 H   0  0  0  0  0  0  0  0  0  0  0  0
    2.8207   -1.0804   -0.8080 H   0  0  0  0  0  0  0  0  0  0  0  0
    4.7829   -0.3046    1.0525 H   0  0  0  0  0  0  0  0  0  0  0  0
    3.0887    1.4220    0.7808 H   0  0  0  0  0  0  0  0  0  0  0  0
    2.9130    2.6609   -1.1231 H   0  0  0  0  0  0  0  0  0  0  0  0
    1.6242    1.1425   -2.6292 H   0  0  0  0  0  0  0  0  0  0  0  0
    4.0889    0.0122   -3.4805 H   0  0  0  0  0  0  0  0  0  0  0  0
    3.4397    1.7844   -4.4704 H   0  0  0  0  0  0  0  0  0  0  0  0
    2.7361    3.0582   -3.3957 H   0  0  0  0  0  0  0  0  0  0  0  0
    5.5473    1.9268   -3.4763 H   0  0  0  0  0  0  0  0  0  0  0  0
    4.0939    4.2531   -2.0996 H   0  0  0  0  0  0  0  0  0  0  0  0
    5.0050    4.3126   -3.6299 H   0  0  0  0  0  0  0  0  0  0  0  0
    7.0869    4.3864   -2.6603 H   0  0  0  0  0  0  0  0  0  0  0  0
    6.1211    5.0378   -1.3130 H   0  0  0  0  0  0  0  0  0  0  0  0
    7.2539    2.2376   -1.6829 H   0  0  0  0  0  0  0  0  0  0  0  0
    7.3859    3.3971   -0.2725 H   0  0  0  0  0  0  0  0  0  0  0  0
    4.8646    3.2837   -0.0766 H   0  0  0  0  0  0  0  0  0  0  0  0
    5.8319    1.7808    0.3985 H   0  0  0  0  0  0  0  0  0  0  0  0
    5.2046    0.6580   -1.6138 H   0  0  0  0  0  0  0  0  0  0  0  0
   -6.1990    0.7216   -0.1959 H   0  0  0  0  0  0  0  0  0  0  0  0
   -4.8299    1.0353   -1.2571 H   0  0  0  0  0  0  0  0  0  0  0  0
   -6.3571    2.9160   -1.0771 H   0  0  0  0  0  0  0  0  0  0  0  0
   -4.1284    3.6081   -1.5489 H   0  0  0  0  0  0  0  0  0  0  0  0
   -3.7490    3.8875    0.2351 H   0  0  0  0  0  0  0  0  0  0  0  0
   -4.6472    5.6615   -1.1181 H   0  0  0  0  0  0  0  0  0  0  0  0
   -4.7029    6.1358    1.0870 H   0  0  0  0  0  0  0  0  0  0  0  0
   -6.4911    6.0955    0.6815 H   0  0  0  0  0  0  0  0  0  0  0  0
   -4.7948    4.1107    2.2358 H   0  0  0  0  0  0  0  0  0  0  0  0
   -6.5008    4.6513    2.4493 H   0  0  0  0  0  0  0  0  0  0  0  0
   -6.2760    2.2676    1.7383 H   0  0  0  0  0  0  0  0  0  0  0  0
   -7.3964    3.3276    0.8222 H   0  0  0  0  0  0  0  0  0  0  0  0
  1  2  1  0
  2  3  1  0
  3  4  1  0
  4  5  1  0
  4  6  1  0
  7  6  1  0
  7  8  1  0
  7  9  1  0
  7 10  1  0
  3 11  1  0
 11 12  1  0
  1 13  1  0
 12 13  1  0
 11 14  1  0
 14 15  1  0
 15 16  1  0
 15 17  1  0
 17 18  1  0
 18 19  1  0
 19 20  1  0
 20 21  1  0
 21 22  1  0
 22 23  1  0
 23 24  1  0
 20 25  1  0
 24 25  1  0
 18 26  1  0
 26 27  1  0
 26 28  1  0
 28 29  1  0
 29 30  1  0
 30 31  1  0
 30 32  1  0
 32 33  1  0
 33 34  1  0
 34 35  1  0
 35 36  1  0
 36 37  1  0
 29 38  1  0
 33 38  1  0
 37 38  1  0
  1 39  1  0
 39 40  1  0
 40 41  1  0
 41 42  1  0
 42 43  1  0
 43 44  1  0
 40 45  1  0
 44 45  1  0
  2 46  1  0
  2 47  1  0
  3 48  1  1
  4 49  1  0
  5 50  1  0
  6 51  1  0
  8 52  1  0
  8 53  1  0
  8 54  1  0
  9 55  1  0
  9 56  1  0
  9 57  1  0
 10 58  1  0
 10 59  1  0
 10 60  1  0
 12 61  1  0
 12 62  1  0
 13 63  1  0
 13 64  1  0
 14 65  1  0
 14 66  1  0
 15 67  1  1
 16 68  1  0
 17 69  1  0
 17 70  1  0
 18 71  1  1
 19 72  1  0
 19 73  1  0
 20 74  1  0
 21 75  1  0
 21 76  1  0
 22 77  1  0
 22 78  1  0
 23 79  1  0
 23 80  1  0
 24 81  1  0
 24 82  1  0
 25 83  1  0
 25 84  1  0
 26 85  1  6
 27 86  1  0
 28 87  1  0
 29 88  1  1
 30 89  1  1
 31 90  1  0
 32 91  1  0
 32 92  1  0
 33 93  1  0
 34 94  1  0
 34 95  1  0
 35 96  1  0
 35 97  1  0
 36 98  1  0
 36 99  1  0
 37100  1  0
 37101  1  0
 38102  1  0
 39103  1  0
 39104  1  0
 40105  1  0
 41106  1  0
 41107  1  0
 42108  1  0
 43109  1  0
 43110  1  0
 44111  1  0
 44112  1  0
 45113  1  0
 45114  1  0
M  END
>  <PDBID>  (1) 
1HSG

>  <PDB ID>  (1) 
1HSG

>  <Generic Name>  (1) 
Indinavir

>  <Brand Name>  (1) 
Crixivan

>  <DrugBank ID>  (1) 
DB00224

>  <ATC Codes>  (1) 
J05AE02

>  <Ligand ID>  (1) 
MK1

>  <Target Name>  (1) 
Pol polyprotein

>  <UniProt ID>  (1) 
Q72874

>  <PDB ID.1>  (1) 
1HSG

>  <Seq. Identity>  (1) 
99%

$$$$
