PDB_DB01601_06
     RDKit          3D

118121  0  0  0  0  0  0  0  0999 V2000
   -7.2807   -0.4773   -2.6834 C   0  0  0  0  0  0  0  0  0  0  0  0
   -5.5034    0.4326   -1.2759 C   0  0  0  0  0  0  0  0  0  0  0  0
   -5.1120   -0.8592   -1.5453 N   0  0  0  0  0  0  0  0  0  0  0  0
   -6.1171   -1.7852   -1.0352 C   0  0  0  0  0  0  0  0  0  0  0  0
   -7.3967   -1.3589   -1.5480 N   0  0  0  0  0  0  0  0  0  0  0  0
    1.0547    4.1208    0.3593 C   0  0  0  0  0  0  0  0  0  0  0  0
    2.3938    4.3196    1.0102 C   0  0  0  0  0  0  0  0  0  0  0  0
    2.5784    5.7667    1.3911 C   0  0  0  0  0  0  0  0  0  0  0  0
    2.7540    6.6692    0.1851 C   0  0  0  0  0  0  0  0  0  0  0  0
    1.9062    6.0959   -0.9347 C   0  0  0  0  0  0  0  0  0  0  0  0
    0.6996    5.4272   -0.3579 C   0  0  0  0  0  0  0  0  0  0  0  0
   -5.7999   -3.0865   -1.4169 O   0  0  0  0  0  0  0  0  0  0  0  0
   -3.8056   -1.3585   -1.4873 C   0  0  2  0  0  0  0  0  0  0  0  0
   -3.1103   -1.3438   -0.1517 C   0  0  0  0  0  0  0  0  0  0  0  0
   -3.0050   -0.1723    0.5584 N   0  0  0  0  0  0  0  0  0  0  0  0
   -1.8093    0.1810    1.2415 C   0  0  1  0  0  0  0  0  0  0  0  0
   -2.9425   -1.1296   -2.6840 C   0  0  0  0  0  0  0  0  0  0  0  0
   -3.6827   -1.8060   -3.8543 C   0  0  0  0  0  0  0  0  0  0  0  0
   -2.5392    0.2130   -3.0709 C   0  0  0  0  0  0  0  0  0  0  0  0
   -1.8384   -1.9439   -0.4296 O   0  0  0  0  0  0  0  0  0  0  0  0
   -3.9795   -2.5039    3.8124 C   0  0  0  0  0  0  0  0  0  0  0  0
   -3.9620   -2.5296    5.3468 C   0  0  0  0  0  0  0  0  0  0  0  0
   -2.7466   -1.7546    5.7904 C   0  0  0  0  0  0  0  0  0  0  0  0
   -1.7303   -1.5852    4.6707 C   0  0  0  0  0  0  0  0  0  0  0  0
   -2.3011   -0.6502    3.5849 C   0  0  0  0  0  0  0  0  0  0  0  0
   -3.6989   -1.0671    3.3562 C   0  0  0  0  0  0  0  0  0  0  0  0
   -1.4008   -0.6574    2.3940 C   0  0  0  0  0  0  0  0  0  0  0  0
   -0.7607    0.7016    0.3330 C   0  0  0  0  0  0  0  0  0  0  0  0
    0.5614    1.0879    0.9481 C   0  0  1  0  0  0  0  0  0  0  0  0
    1.4609    1.6510   -0.1029 C   0  0  1  0  0  0  0  0  0  0  0  0
    1.7900    0.8113   -1.2021 N   0  0  0  0  0  0  0  0  0  0  0  0
    2.6735   -0.2958   -0.8049 C   0  0  0  0  0  0  0  0  0  0  0  0
    3.5085   -0.7026   -2.0015 C   0  0  0  0  0  0  0  0  0  0  0  0
    4.4480   -1.6588   -1.7986 O   0  0  0  0  0  0  0  0  0  0  0  0
    5.4625   -1.2350   -0.9091 C   0  0  0  0  0  0  0  0  0  0  0  0
    0.3961    1.9847    1.9693 O   0  0  0  0  0  0  0  0  0  0  0  0
    1.0787    2.9917   -0.6335 C   0  0  0  0  0  0  0  0  0  0  0  0
    1.8269   -1.3188   -0.4022 O   0  0  0  0  0  0  0  0  0  0  0  0
    5.5770   -2.2018    0.1880 C   0  0  0  0  0  0  0  0  0  0  0  0
    6.9010   -2.2035    0.9091 C   0  0  0  0  0  0  0  0  0  0  0  0
    8.0935   -2.1278    0.0284 C   0  0  0  0  0  0  0  0  0  0  0  0
    7.9341   -0.9515   -0.9074 C   0  0  0  0  0  0  0  0  0  0  0  0
    6.7150   -1.0730   -1.7530 C   0  0  0  0  0  0  0  0  0  0  0  0
    6.8372   -2.1233   -2.8292 C   0  0  0  0  0  0  0  0  0  0  0  0
    5.2264   -3.6388   -0.2036 C   0  0  0  0  0  0  0  0  0  0  0  0
   -6.5546    0.8033   -2.3583 C   0  0  0  0  0  0  0  0  0  0  0  0
   -8.2941   -0.2229   -3.0178 H   0  0  0  0  0  0  0  0  0  0  0  0
   -6.7844   -0.9726   -3.5437 H   0  0  0  0  0  0  0  0  0  0  0  0
   -6.1556    0.4246   -0.3383 H   0  0  0  0  0  0  0  0  0  0  0  0
   -4.8291    1.2730   -1.2844 H   0  0  0  0  0  0  0  0  0  0  0  0
   -6.1052   -1.7322    0.0664 H   0  0  0  0  0  0  0  0  0  0  0  0
   -7.8559   -2.2390   -1.9169 H   0  0  0  0  0  0  0  0  0  0  0  0
    0.2963    3.9733    1.1398 H   0  0  0  0  0  0  0  0  0  0  0  0
    2.4510    3.7529    1.9804 H   0  0  0  0  0  0  0  0  0  0  0  0
    3.1780    3.9701    0.3052 H   0  0  0  0  0  0  0  0  0  0  0  0
    3.5553    5.8058    1.9556 H   0  0  0  0  0  0  0  0  0  0  0  0
    1.7165    6.0613    2.0233 H   0  0  0  0  0  0  0  0  0  0  0  0
    2.4073    7.7102    0.4320 H   0  0  0  0  0  0  0  0  0  0  0  0
    3.8188    6.7062   -0.1385 H   0  0  0  0  0  0  0  0  0  0  0  0
    2.5442    5.4306   -1.5552 H   0  0  0  0  0  0  0  0  0  0  0  0
    1.5188    6.9832   -1.5151 H   0  0  0  0  0  0  0  0  0  0  0  0
   -0.0387    5.1860   -1.1302 H   0  0  0  0  0  0  0  0  0  0  0  0
    0.2468    6.1081    0.3822 H   0  0  0  0  0  0  0  0  0  0  0  0
   -6.3337   -3.3327   -2.2071 H   0  0  0  0  0  0  0  0  0  0  0  0
   -3.9951   -2.5046   -1.5970 H   0  0  0  0  0  0  0  0  0  0  0  0
   -3.6101   -2.1352    0.4715 H   0  0  0  0  0  0  0  0  0  0  0  0
   -3.7174    0.4984    0.5736 H   0  0  0  0  0  0  0  0  0  0  0  0
   -2.1428    1.1807    1.8128 H   0  0  0  0  0  0  0  0  0  0  0  0
   -1.9969   -1.7671   -2.6145 H   0  0  0  0  0  0  0  0  0  0  0  0
   -4.0581   -2.7688   -3.5086 H   0  0  0  0  0  0  0  0  0  0  0  0
   -2.9653   -2.0035   -4.6694 H   0  0  0  0  0  0  0  0  0  0  0  0
   -4.4801   -1.1303   -4.2012 H   0  0  0  0  0  0  0  0  0  0  0  0
   -1.4212    0.2715   -3.1844 H   0  0  0  0  0  0  0  0  0  0  0  0
   -2.8770    0.3977   -4.1415 H   0  0  0  0  0  0  0  0  0  0  0  0
   -2.9309    1.0775   -2.5334 H   0  0  0  0  0  0  0  0  0  0  0  0
   -2.0442   -2.8209   -0.8326 H   0  0  0  0  0  0  0  0  0  0  0  0
   -4.9791   -2.7700    3.4166 H   0  0  0  0  0  0  0  0  0  0  0  0
   -3.2578   -3.2288    3.4604 H   0  0  0  0  0  0  0  0  0  0  0  0
   -3.9927   -3.5687    5.7139 H   0  0  0  0  0  0  0  0  0  0  0  0
   -4.8993   -1.9896    5.6445 H   0  0  0  0  0  0  0  0  0  0  0  0
   -2.2375   -2.3239    6.6073 H   0  0  0  0  0  0  0  0  0  0  0  0
   -3.0703   -0.7626    6.1816 H   0  0  0  0  0  0  0  0  0  0  0  0
   -0.8240   -1.1186    5.1278 H   0  0  0  0  0  0  0  0  0  0  0  0
   -1.5206   -2.5817    4.2554 H   0  0  0  0  0  0  0  0  0  0  0  0
   -2.3151    0.3848    4.0614 H   0  0  0  0  0  0  0  0  0  0  0  0
   -4.3769   -0.4679    4.0913 H   0  0  0  0  0  0  0  0  0  0  0  0
   -4.1566   -0.9243    2.3970 H   0  0  0  0  0  0  0  0  0  0  0  0
   -0.3935   -0.3079    2.7321 H   0  0  0  0  0  0  0  0  0  0  0  0
   -1.2625   -1.7371    2.1244 H   0  0  0  0  0  0  0  0  0  0  0  0
   -0.5761   -0.0273   -0.4757 H   0  0  0  0  0  0  0  0  0  0  0  0
   -1.1568    1.6736   -0.1088 H   0  0  0  0  0  0  0  0  0  0  0  0
    1.0027    0.1655    1.3850 H   0  0  0  0  0  0  0  0  0  0  0  0
    2.4497    1.8501    0.4644 H   0  0  0  0  0  0  0  0  0  0  0  0
    0.9970    0.4022   -1.6984 H   0  0  0  0  0  0  0  0  0  0  0  0
    3.3355    0.0880   -0.0266 H   0  0  0  0  0  0  0  0  0  0  0  0
    2.7797   -1.1164   -2.7509 H   0  0  0  0  0  0  0  0  0  0  0  0
    3.9631    0.1784   -2.5018 H   0  0  0  0  0  0  0  0  0  0  0  0
    5.2568   -0.2118   -0.5164 H   0  0  0  0  0  0  0  0  0  0  0  0
   -0.4709    2.0691    2.3729 H   0  0  0  0  0  0  0  0  0  0  0  0
    0.1207    2.9531   -1.2189 H   0  0  0  0  0  0  0  0  0  0  0  0
    1.8417    3.2929   -1.4176 H   0  0  0  0  0  0  0  0  0  0  0  0
    1.7019   -2.0236   -1.0745 H   0  0  0  0  0  0  0  0  0  0  0  0
    4.8105   -1.9257    0.9719 H   0  0  0  0  0  0  0  0  0  0  0  0
    6.9129   -1.3911    1.6863 H   0  0  0  0  0  0  0  0  0  0  0  0
    6.9654   -3.1560    1.4775 H   0  0  0  0  0  0  0  0  0  0  0  0
    8.3224   -3.0732   -0.4810 H   0  0  0  0  0  0  0  0  0  0  0  0
    8.9771   -1.8856    0.6763 H   0  0  0  0  0  0  0  0  0  0  0  0
    7.8770   -0.0363   -0.3111 H   0  0  0  0  0  0  0  0  0  0  0  0
    8.8491   -0.9068   -1.5307 H   0  0  0  0  0  0  0  0  0  0  0  0
    6.5901   -0.0969   -2.2994 H   0  0  0  0  0  0  0  0  0  0  0  0
    7.7723   -1.8456   -3.4015 H   0  0  0  0  0  0  0  0  0  0  0  0
    5.9828   -1.9942   -3.5125 H   0  0  0  0  0  0  0  0  0  0  0  0
    6.9837   -3.1325   -2.4454 H   0  0  0  0  0  0  0  0  0  0  0  0
    4.4037   -3.6486   -0.9478 H   0  0  0  0  0  0  0  0  0  0  0  0
    4.8195   -4.1635    0.7051 H   0  0  0  0  0  0  0  0  0  0  0  0
    6.1102   -4.2225   -0.4957 H   0  0  0  0  0  0  0  0  0  0  0  0
   -6.0047    1.1654   -3.2628 H   0  0  0  0  0  0  0  0  0  0  0  0
   -7.2276    1.5766   -1.9846 H   0  0  0  0  0  0  0  0  0  0  0  0
  2  3  1  0
  3  4  1  0
  1  5  1  0
  4  5  1  0
  6  7  1  0
  7  8  1  0
  8  9  1  0
  9 10  1  0
  6 11  1  0
 10 11  1  0
  4 12  1  0
  3 13  1  0
 13 14  1  0
 14 15  1  0
 15 16  1  0
 13 17  1  0
 17 18  1  0
 17 19  1  0
 14 20  1  0
 21 22  1  0
 22 23  1  0
 23 24  1  0
 24 25  1  0
 21 26  1  0
 25 26  1  0
 16 27  1  0
 25 27  1  0
 16 28  1  0
 28 29  1  0
 29 30  1  0
 30 31  1  0
 31 32  1  0
 32 33  1  0
 33 34  1  0
 34 35  1  0
 29 36  1  0
  6 37  1  0
 30 37  1  0
 32 38  1  0
 35 39  1  0
 39 40  1  0
 40 41  1  0
 41 42  1  0
 35 43  1  0
 42 43  1  0
 43 44  1  0
 39 45  1  0
  1 46  1  0
  2 46  1  0
  1 47  1  0
  1 48  1  0
  2 49  1  0
  2 50  1  0
  4 51  1  0
  5 52  1  0
  6 53  1  0
  7 54  1  0
  7 55  1  0
  8 56  1  0
  8 57  1  0
  9 58  1  0
  9 59  1  0
 10 60  1  0
 10 61  1  0
 11 62  1  0
 11 63  1  0
 12 64  1  0
 13 65  1  6
 14 66  1  0
 15 67  1  0
 16 68  1  1
 17 69  1  0
 18 70  1  0
 18 71  1  0
 18 72  1  0
 19 73  1  0
 19 74  1  0
 19 75  1  0
 20 76  1  0
 21 77  1  0
 21 78  1  0
 22 79  1  0
 22 80  1  0
 23 81  1  0
 23 82  1  0
 24 83  1  0
 24 84  1  0
 25 85  1  0
 26 86  1  0
 26 87  1  0
 27 88  1  0
 27 89  1  0
 28 90  1  0
 28 91  1  0
 29 92  1  1
 30 93  1  1
 31 94  1  0
 32 95  1  0
 33 96  1  0
 33 97  1  0
 35 98  1  0
 36 99  1  0
 37100  1  0
 37101  1  0
 38102  1  0
 39103  1  0
 40104  1  0
 40105  1  0
 41106  1  0
 41107  1  0
 42108  1  0
 42109  1  0
 43110  1  0
 44111  1  0
 44112  1  0
 44113  1  0
 45114  1  0
 45115  1  0
 45116  1  0
 46117  1  0
 46118  1  0
M  END
>  <PDBID>  (1) 
1MUI

>  <PDB ID>  (1) 
1MUI

>  <Generic Name>  (1) 
Lopinavir

>  <Brand Name>  (1) 
Kaletra#Lopinavir-ritonavir#Aluviran#Koletra

>  <DrugBank ID>  (1) 
DB01601

>  <ATC Codes>  (1) 
J05AR10

>  <Ligand ID>  (1) 
AB1

>  <Target Name>  (1) 
Pol polyprotein

>  <UniProt ID>  (1) 
Q72874

>  <PDB ID.1>  (1) 
1MUI

>  <Seq. Identity>  (1) 
99%

$$$$
