PDB_DB01586_04
     RDKit          3D

140146  0  0  0  0  0  0  0  0999 V2000
   -3.8381    1.5304   -0.3691 C   0  0  0  0  0  0  0  0  0  0  0  0
   -3.1667    0.4695    0.4731 C   0  0  1  0  0  0  0  0  0  0  0  0
   -0.9369    0.7234    1.6192 C   0  0  0  0  0  0  0  0  0  0  0  0
    0.4028    0.1710    1.7660 C   0  0  0  0  0  0  0  0  0  0  0  0
    1.0968   -0.4983    0.6337 C   0  0  1  0  0  0  0  0  0  0  0  0
    0.3016   -0.2086   -0.6217 C   0  0  1  0  0  0  0  0  0  0  0  0
    1.1271   -0.8976   -1.6366 C   0  0  0  0  0  0  0  0  0  0  0  0
    2.4852   -0.2435   -1.2715 C   0  0  0  0  0  0  0  0  0  0  0  0
    2.3952    0.1595    0.1884 C   0  0  2  0  0  0  0  0  0  0  0  0
    1.2878   -1.9832    0.8482 C   0  0  0  0  0  0  0  0  0  0  0  0
   -3.6678    0.6461    1.8874 C   0  0  0  0  0  0  0  0  0  0  0  0
   -1.3193   -1.9468   -2.3507 O   0  0  0  0  0  0  0  0  0  0  0  0
   -6.3557   -0.3138   -1.7174 O   0  0  0  0  0  0  0  0  0  0  0  0
   -5.2922    1.4417   -0.4884 C   0  0  0  0  0  0  0  0  0  0  0  0
    3.5886   -0.2378    0.9379 C   0  0  2  0  0  0  0  0  0  0  0  0
    3.5068    0.0065    2.4421 C   0  0  0  0  0  0  0  0  0  0  0  0
    4.8259    0.4970    0.5210 C   0  0  0  0  0  0  0  0  0  0  0  0
    5.3336    0.3925   -0.8536 C   0  0  0  0  0  0  0  0  0  0  0  0
    6.6471    1.2486   -0.8816 C   0  0  0  0  0  0  0  0  0  0  0  0
   -5.9234    0.1013   -0.4337 C   0  0  2  0  0  0  0  0  0  0  0  0
   -5.1287   -0.9930    0.1499 C   0  0  0  0  0  0  0  0  0  0  0  0
    7.4785    0.6594    0.0571 O   0  0  0  0  0  0  0  0  0  0  0  0
    7.1507    1.2661   -2.1613 O   0  0  0  0  0  0  0  0  0  0  0  0
   -3.6356   -0.8634   -0.0266 C   0  0  1  0  0  0  0  0  0  0  0  0
   -3.3041   -1.0751   -1.4698 C   0  0  0  0  0  0  0  0  0  0  0  0
   -1.8511   -0.8161   -1.7357 C   0  0  1  0  0  0  0  0  0  0  0  0
   -1.0913   -0.6194   -0.4444 C   0  0  2  0  0  0  0  0  0  0  0  0
   -1.6877    0.5629    0.3459 C   0  0  1  0  0  0  0  0  0  0  0  0
   -3.8381    1.5304   -0.3691 C   0  0  0  0  0  0  0  0  0  0  0  0
   -3.1667    0.4695    0.4731 C   0  0  1  0  0  0  0  0  0  0  0  0
   -0.9369    0.7234    1.6192 C   0  0  0  0  0  0  0  0  0  0  0  0
    0.4028    0.1710    1.7660 C   0  0  0  0  0  0  0  0  0  0  0  0
    1.0968   -0.4983    0.6337 C   0  0  1  0  0  0  0  0  0  0  0  0
    0.3016   -0.2086   -0.6217 C   0  0  1  0  0  0  0  0  0  0  0  0
    1.1271   -0.8976   -1.6366 C   0  0  0  0  0  0  0  0  0  0  0  0
    2.4852   -0.2435   -1.2715 C   0  0  0  0  0  0  0  0  0  0  0  0
    2.3952    0.1595    0.1884 C   0  0  2  0  0  0  0  0  0  0  0  0
    1.2878   -1.9832    0.8482 C   0  0  0  0  0  0  0  0  0  0  0  0
   -3.6678    0.6461    1.8874 C   0  0  0  0  0  0  0  0  0  0  0  0
   -1.3193   -1.9468   -2.3507 O   0  0  0  0  0  0  0  0  0  0  0  0
   -6.3557   -0.3138   -1.7174 O   0  0  0  0  0  0  0  0  0  0  0  0
   -5.2922    1.4417   -0.4884 C   0  0  0  0  0  0  0  0  0  0  0  0
    3.5886   -0.2378    0.9379 C   0  0  2  0  0  0  0  0  0  0  0  0
    3.5068    0.0065    2.4421 C   0  0  0  0  0  0  0  0  0  0  0  0
    4.8259    0.4970    0.5210 C   0  0  0  0  0  0  0  0  0  0  0  0
    5.3336    0.3925   -0.8536 C   0  0  0  0  0  0  0  0  0  0  0  0
    6.6471    1.2486   -0.8816 C   0  0  0  0  0  0  0  0  0  0  0  0
   -5.9234    0.1013   -0.4337 C   0  0  2  0  0  0  0  0  0  0  0  0
   -5.1287   -0.9930    0.1499 C   0  0  0  0  0  0  0  0  0  0  0  0
    7.4785    0.6594    0.0571 O   0  0  0  0  0  0  0  0  0  0  0  0
    7.1507    1.2661   -2.1613 O   0  0  0  0  0  0  0  0  0  0  0  0
   -3.6356   -0.8634   -0.0266 C   0  0  1  0  0  0  0  0  0  0  0  0
   -3.3041   -1.0751   -1.4698 C   0  0  0  0  0  0  0  0  0  0  0  0
   -1.8511   -0.8161   -1.7357 C   0  0  1  0  0  0  0  0  0  0  0  0
   -1.0913   -0.6194   -0.4444 C   0  0  2  0  0  0  0  0  0  0  0  0
   -1.6877    0.5629    0.3459 C   0  0  1  0  0  0  0  0  0  0  0  0
   -3.5093    2.5075    0.0488 H   0  0  0  0  0  0  0  0  0  0  0  0
   -3.3370    1.4699   -1.3774 H   0  0  0  0  0  0  0  0  0  0  0  0
   -1.6217    0.3195    2.4279 H   0  0  0  0  0  0  0  0  0  0  0  0
   -0.9248    1.8297    1.8700 H   0  0  0  0  0  0  0  0  0  0  0  0
    1.1020    0.9745    2.1409 H   0  0  0  0  0  0  0  0  0  0  0  0
    0.4005   -0.5837    2.6122 H   0  0  0  0  0  0  0  0  0  0  0  0
    0.4347    0.9016   -0.8011 H   0  0  0  0  0  0  0  0  0  0  0  0
    1.1703   -1.9759   -1.6034 H   0  0  0  0  0  0  0  0  0  0  0  0
    0.8160   -0.5779   -2.6491 H   0  0  0  0  0  0  0  0  0  0  0  0
    2.5326    0.6639   -1.9438 H   0  0  0  0  0  0  0  0  0  0  0  0
    3.2955   -0.9256   -1.4926 H   0  0  0  0  0  0  0  0  0  0  0  0
    2.1994    1.2439    0.2079 H   0  0  0  0  0  0  0  0  0  0  0  0
    0.4308   -2.6028    0.5159 H   0  0  0  0  0  0  0  0  0  0  0  0
    1.3999   -2.2275    1.9419 H   0  0  0  0  0  0  0  0  0  0  0  0
    2.1495   -2.3765    0.2533 H   0  0  0  0  0  0  0  0  0  0  0  0
   -3.2433    1.5558    2.3724 H   0  0  0  0  0  0  0  0  0  0  0  0
   -3.5974   -0.2499    2.5011 H   0  0  0  0  0  0  0  0  0  0  0  0
   -4.7711    0.8719    1.7914 H   0  0  0  0  0  0  0  0  0  0  0  0
   -1.4646   -2.7458   -1.7896 H   0  0  0  0  0  0  0  0  0  0  0  0
   -7.0753   -0.9908   -1.6247 H   0  0  0  0  0  0  0  0  0  0  0  0
   -5.7624    2.1237    0.2767 H   0  0  0  0  0  0  0  0  0  0  0  0
   -5.5968    1.9172   -1.4682 H   0  0  0  0  0  0  0  0  0  0  0  0
    3.7794   -1.3203    0.8319 H   0  0  0  0  0  0  0  0  0  0  0  0
    4.4956   -0.2850    2.9086 H   0  0  0  0  0  0  0  0  0  0  0  0
    2.7479   -0.5345    2.9669 H   0  0  0  0  0  0  0  0  0  0  0  0
    3.4096    1.0845    2.6557 H   0  0  0  0  0  0  0  0  0  0  0  0
    4.6862    1.6224    0.7116 H   0  0  0  0  0  0  0  0  0  0  0  0
    5.6724    0.2843    1.2684 H   0  0  0  0  0  0  0  0  0  0  0  0
    5.5982   -0.6250   -1.2046 H   0  0  0  0  0  0  0  0  0  0  0  0
    4.7434    0.8800   -1.6497 H   0  0  0  0  0  0  0  0  0  0  0  0
    6.4065    2.2771   -0.5494 H   0  0  0  0  0  0  0  0  0  0  0  0
   -6.8873    0.1742    0.1498 H   0  0  0  0  0  0  0  0  0  0  0  0
   -5.4061   -1.9891   -0.2759 H   0  0  0  0  0  0  0  0  0  0  0  0
   -5.3029   -1.0955    1.2545 H   0  0  0  0  0  0  0  0  0  0  0  0
    8.2112    1.3157    0.2575 H   0  0  0  0  0  0  0  0  0  0  0  0
    7.4266    2.1718   -2.4594 H   0  0  0  0  0  0  0  0  0  0  0  0
   -3.1966   -1.7127    0.5769 H   0  0  0  0  0  0  0  0  0  0  0  0
   -3.6122   -2.1249   -1.7284 H   0  0  0  0  0  0  0  0  0  0  0  0
   -3.9029   -0.4157   -2.1188 H   0  0  0  0  0  0  0  0  0  0  0  0
   -1.6866    0.0310   -2.4179 H   0  0  0  0  0  0  0  0  0  0  0  0
   -1.2096   -1.4775    0.2105 H   0  0  0  0  0  0  0  0  0  0  0  0
   -1.4296    1.4377   -0.3045 H   0  0  0  0  0  0  0  0  0  0  0  0
   -3.5093    2.5075    0.0488 H   0  0  0  0  0  0  0  0  0  0  0  0
   -3.3370    1.4699   -1.3774 H   0  0  0  0  0  0  0  0  0  0  0  0
   -1.6217    0.3195    2.4279 H   0  0  0  0  0  0  0  0  0  0  0  0
   -0.9248    1.8297    1.8700 H   0  0  0  0  0  0  0  0  0  0  0  0
    1.1020    0.9745    2.1409 H   0  0  0  0  0  0  0  0  0  0  0  0
    0.4005   -0.5837    2.6122 H   0  0  0  0  0  0  0  0  0  0  0  0
    0.4347    0.9016   -0.8011 H   0  0  0  0  0  0  0  0  0  0  0  0
    1.1703   -1.9759   -1.6034 H   0  0  0  0  0  0  0  0  0  0  0  0
    0.8160   -0.5779   -2.6491 H   0  0  0  0  0  0  0  0  0  0  0  0
    2.5326    0.6639   -1.9438 H   0  0  0  0  0  0  0  0  0  0  0  0
    3.2955   -0.9256   -1.4926 H   0  0  0  0  0  0  0  0  0  0  0  0
    2.1994    1.2439    0.2079 H   0  0  0  0  0  0  0  0  0  0  0  0
    0.4308   -2.6028    0.5159 H   0  0  0  0  0  0  0  0  0  0  0  0
    1.3999   -2.2275    1.9419 H   0  0  0  0  0  0  0  0  0  0  0  0
    2.1495   -2.3765    0.2533 H   0  0  0  0  0  0  0  0  0  0  0  0
   -3.2433    1.5558    2.3724 H   0  0  0  0  0  0  0  0  0  0  0  0
   -3.5974   -0.2499    2.5011 H   0  0  0  0  0  0  0  0  0  0  0  0
   -4.7711    0.8719    1.7914 H   0  0  0  0  0  0  0  0  0  0  0  0
   -1.4646   -2.7458   -1.7896 H   0  0  0  0  0  0  0  0  0  0  0  0
   -7.0753   -0.9908   -1.6247 H   0  0  0  0  0  0  0  0  0  0  0  0
   -5.7624    2.1237    0.2767 H   0  0  0  0  0  0  0  0  0  0  0  0
   -5.5968    1.9172   -1.4682 H   0  0  0  0  0  0  0  0  0  0  0  0
    3.7794   -1.3203    0.8319 H   0  0  0  0  0  0  0  0  0  0  0  0
    4.4956   -0.2850    2.9086 H   0  0  0  0  0  0  0  0  0  0  0  0
    2.7479   -0.5345    2.9669 H   0  0  0  0  0  0  0  0  0  0  0  0
    3.4096    1.0845    2.6557 H   0  0  0  0  0  0  0  0  0  0  0  0
    4.6862    1.6224    0.7116 H   0  0  0  0  0  0  0  0  0  0  0  0
    5.6724    0.2843    1.2684 H   0  0  0  0  0  0  0  0  0  0  0  0
    5.5982   -0.6250   -1.2046 H   0  0  0  0  0  0  0  0  0  0  0  0
    4.7434    0.8800   -1.6497 H   0  0  0  0  0  0  0  0  0  0  0  0
    6.4065    2.2771   -0.5494 H   0  0  0  0  0  0  0  0  0  0  0  0
   -6.8873    0.1742    0.1498 H   0  0  0  0  0  0  0  0  0  0  0  0
   -5.4061   -1.9891   -0.2759 H   0  0  0  0  0  0  0  0  0  0  0  0
   -5.3029   -1.0955    1.2545 H   0  0  0  0  0  0  0  0  0  0  0  0
    8.2112    1.3157    0.2575 H   0  0  0  0  0  0  0  0  0  0  0  0
    7.4266    2.1718   -2.4594 H   0  0  0  0  0  0  0  0  0  0  0  0
   -3.1966   -1.7127    0.5769 H   0  0  0  0  0  0  0  0  0  0  0  0
   -3.6122   -2.1249   -1.7284 H   0  0  0  0  0  0  0  0  0  0  0  0
   -3.9029   -0.4157   -2.1188 H   0  0  0  0  0  0  0  0  0  0  0  0
   -1.6866    0.0310   -2.4179 H   0  0  0  0  0  0  0  0  0  0  0  0
   -1.2096   -1.4775    0.2105 H   0  0  0  0  0  0  0  0  0  0  0  0
   -1.4296    1.4377   -0.3045 H   0  0  0  0  0  0  0  0  0  0  0  0
  1  2  1  0
  3  4  1  0
  4  5  1  0
  5  6  1  0
  6  7  1  0
  7  8  1  0
  5  9  1  0
  8  9  1  0
  5 10  1  1
  2 11  1  1
  1 14  1  0
  9 15  1  0
 15 16  1  0
 15 17  1  0
 17 18  1  0
 18 19  1  0
 13 20  1  0
 14 20  1  0
 20 21  1  0
 19 22  1  0
 19 23  1  0
  2 24  1  0
 21 24  1  0
 24 25  1  0
 12 26  1  0
 25 26  1  0
  6 27  1  0
 26 27  1  0
  2 28  1  0
  3 28  1  0
 27 28  1  0
 29 30  1  0
 31 32  1  0
 32 33  1  0
 33 34  1  0
 34 35  1  0
 35 36  1  0
 33 37  1  0
 36 37  1  0
 33 38  1  1
 30 39  1  1
 29 42  1  0
 37 43  1  0
 43 44  1  0
 43 45  1  0
 45 46  1  0
 46 47  1  0
 41 48  1  0
 42 48  1  0
 48 49  1  0
 47 50  1  0
 47 51  1  0
 30 52  1  0
 49 52  1  0
 52 53  1  0
 40 54  1  0
 53 54  1  0
 34 55  1  0
 54 55  1  0
 30 56  1  0
 31 56  1  0
 55 56  1  0
  1 57  1  0
  1 58  1  0
  3 59  1  0
  3 60  1  0
  4 61  1  0
  4 62  1  0
  6 63  1  6
  7 64  1  0
  7 65  1  0
  8 66  1  0
  8 67  1  0
  9 68  1  6
 10 69  1  0
 10 70  1  0
 10 71  1  0
 11 72  1  0
 11 73  1  0
 11 74  1  0
 12 75  1  0
 13 76  1  0
 14 77  1  0
 14 78  1  0
 15 79  1  1
 16 80  1  0
 16 81  1  0
 16 82  1  0
 17 83  1  0
 17 84  1  0
 18 85  1  0
 18 86  1  0
 19 87  1  0
 20 88  1  1
 21 89  1  0
 21 90  1  0
 22 91  1  0
 23 92  1  0
 24 93  1  1
 25 94  1  0
 25 95  1  0
 26 96  1  6
 27 97  1  1
 28 98  1  6
 29 99  1  0
 29100  1  0
 31101  1  0
 31102  1  0
 32103  1  0
 32104  1  0
 34105  1  6
 35106  1  0
 35107  1  0
 36108  1  0
 36109  1  0
 37110  1  6
 38111  1  0
 38112  1  0
 38113  1  0
 39114  1  0
 39115  1  0
 39116  1  0
 40117  1  0
 41118  1  0
 42119  1  0
 42120  1  0
 43121  1  1
 44122  1  0
 44123  1  0
 44124  1  0
 45125  1  0
 45126  1  0
 46127  1  0
 46128  1  0
 47129  1  0
 48130  1  1
 49131  1  0
 49132  1  0
 50133  1  0
 51134  1  0
 52135  1  1
 53136  1  0
 53137  1  0
 54138  1  6
 55139  1  1
 56140  1  6
M  END
>  <PDBID>  (1) 
1IHI

>  <PDB ID>  (1) 
1IHI

>  <Generic Name>  (1) 
Ursodeoxycholic acid

>  <Brand Name>  (1) 
Actigall#Dom-ursodiol C#Mint-ursodiol#Novo-ursodiol#PHL-ursodiol C#PMS-ursodiol#PMS-ursodiol C#Pendo-ursodiol C#Urso#Urso 250#Urso DS#Urso Forte#Ursodiol#Ursodiol Tablets USP#Ursodiol Tablets, 250 mg#Ursodiol Tablets, 500 mg#Ursofalk#Cholit-ursan#Delursan#Destolit#Deursil#Litursol#Solutrat#Ursacol#Ursochol#Ursolvan

>  <DrugBank ID>  (1) 
DB01586

>  <ATC Codes>  (1) 
A05AA02

>  <Ligand ID>  (1) 
IU5,JN3

>  <Target Name>  (1) 
Aldo-keto reductase family 1 member C2

>  <UniProt ID>  (1) 
P52895

>  <PDB ID.1>  (1) 
1IHI

>  <Seq. Identity>  (1) 
100%

$$$$
