PDB_DB09073_01
     RDKit          3D

 80 84  0  0  0  0  0  0  0  0999 V2000
   -4.9983   -3.7356    0.8221 O   0  0  0  0  0  0  0  0  0  0  0  0
   -5.1815   -2.5719    0.0721 C   0  0  0  0  0  0  0  0  0  0  0  0
   -6.6140   -2.1587    0.3301 C   0  0  0  0  0  0  0  0  0  0  0  0
   -4.1968   -1.5587    0.5066 C   0  0  0  0  0  0  0  0  0  0  0  0
   -2.7667   -2.0026    0.3179 C   0  0  2  0  0  0  0  0  0  0  0  0
   -2.5051   -3.4162    0.6973 C   0  0  0  0  0  0  0  0  0  0  0  0
   -1.9990   -0.9790    1.1215 C   0  0  1  0  0  0  0  0  0  0  0  0
   -0.6170   -1.3469    1.4988 C   0  0  0  0  0  0  0  0  0  0  0  0
    0.3733   -1.0976    0.5124 N   0  0  0  0  0  0  0  0  0  0  0  0
   -0.0308   -0.4744   -0.6860 C   0  0  0  0  0  0  0  0  0  0  0  0
   -1.0627    0.4926   -0.6100 N   0  0  0  0  0  0  0  0  0  0  0  0
   -2.0626    0.3291    0.4143 C   0  0  1  0  0  0  0  0  0  0  0  0
   -3.3213    0.6856   -0.1633 N   0  0  0  0  0  0  0  0  0  0  0  0
   -3.7394    2.0214    0.2362 C   0  0  0  0  0  0  0  0  0  0  0  0
   -2.7333    3.0684   -0.2072 C   0  0  0  0  0  0  0  0  0  0  0  0
   -3.1399    3.4848   -1.5788 C   0  0  0  0  0  0  0  0  0  0  0  0
   -4.5428    3.0261   -1.8085 C   0  0  0  0  0  0  0  0  0  0  0  0
   -4.9614    2.5196   -0.4414 C   0  0  0  0  0  0  0  0  0  0  0  0
   -4.3659   -0.2226   -0.1417 C   0  0  0  0  0  0  0  0  0  0  0  0
   -4.8028   -0.4631   -1.4598 O   0  0  0  0  0  0  0  0  0  0  0  0
    1.1417    0.1405   -1.2795 N   0  0  0  0  0  0  0  0  0  0  0  0
    1.7304    1.2070   -0.5566 C   0  0  0  0  0  0  0  0  0  0  0  0
    2.8383    1.6846   -1.3626 N   0  0  0  0  0  0  0  0  0  0  0  0
    4.0551    1.9174   -0.6617 C   0  0  0  0  0  0  0  0  0  0  0  0
    4.5890    0.7993    0.1573 C   0  0  1  0  0  0  0  0  0  0  0  0
    3.4308   -0.0631    0.6344 C   0  0  0  0  0  0  0  0  0  0  0  0
    2.2662    0.8998    0.7971 C   0  0  0  0  0  0  0  0  0  0  0  0
    5.6566    0.0539   -0.4041 N   0  0  0  0  0  0  0  0  0  0  0  0
    6.8264    0.8676   -0.5632 C   0  0  0  0  0  0  0  0  0  0  0  0
    7.9123    0.1015   -1.3203 C   0  0  0  0  0  0  0  0  0  0  0  0
    8.2827   -1.0465   -0.5533 N   0  0  0  0  0  0  0  0  0  0  0  0
    7.4498   -1.2918    0.6015 C   0  0  0  0  0  0  0  0  0  0  0  0
    5.9867   -1.1289    0.3250 C   0  0  0  0  0  0  0  0  0  0  0  0
   -7.2748   -2.8934   -0.1661 H   0  0  0  0  0  0  0  0  0  0  0  0
   -6.8133   -1.1139    0.1123 H   0  0  0  0  0  0  0  0  0  0  0  0
   -6.7952   -2.2849    1.4358 H   0  0  0  0  0  0  0  0  0  0  0  0
   -2.8475   -3.7145    1.6886 H   0  0  0  0  0  0  0  0  0  0  0  0
   -2.9298   -4.0556   -0.1330 H   0  0  0  0  0  0  0  0  0  0  0  0
   -1.3961   -3.5761    0.5631 H   0  0  0  0  0  0  0  0  0  0  0  0
   -0.5586   -2.3644    1.9425 H   0  0  0  0  0  0  0  0  0  0  0  0
   -3.8400    2.0660    1.3350 H   0  0  0  0  0  0  0  0  0  0  0  0
   -1.6980    2.7507   -0.0919 H   0  0  0  0  0  0  0  0  0  0  0  0
   -2.8864    3.9429    0.4813 H   0  0  0  0  0  0  0  0  0  0  0  0
   -2.4770    2.9361   -2.3061 H   0  0  0  0  0  0  0  0  0  0  0  0
   -3.0568    4.5748   -1.7575 H   0  0  0  0  0  0  0  0  0  0  0  0
   -4.5935    2.1599   -2.5145 H   0  0  0  0  0  0  0  0  0  0  0  0
   -5.2346    3.8278   -2.1171 H   0  0  0  0  0  0  0  0  0  0  0  0
   -5.2799    3.4460    0.1222 H   0  0  0  0  0  0  0  0  0  0  0  0
   -5.7927    1.8478   -0.5816 H   0  0  0  0  0  0  0  0  0  0  0  0
    1.8422   -0.5663   -1.5978 H   0  0  0  0  0  0  0  0  0  0  0  0
    4.0262    2.8912   -0.0782 H   0  0  0  0  0  0  0  0  0  0  0  0
    3.6030   -0.4858    1.6458 H   0  0  0  0  0  0  0  0  0  0  0  0
    1.5529    0.6208    1.5649 H   0  0  0  0  0  0  0  0  0  0  0  0
    6.6824    1.8475   -1.0310 H   0  0  0  0  0  0  0  0  0  0  0  0
    7.3096    1.0926    0.4316 H   0  0  0  0  0  0  0  0  0  0  0  0
    7.6043   -0.1841   -2.3272 H   0  0  0  0  0  0  0  0  0  0  0  0
    8.7509    0.8326   -1.4385 H   0  0  0  0  0  0  0  0  0  0  0  0
    9.2572   -0.8924   -0.2069 H   0  0  0  0  0  0  0  0  0  0  0  0
    7.6065   -2.3751    0.8587 H   0  0  0  0  0  0  0  0  0  0  0  0
    7.7900   -0.7441    1.5070 H   0  0  0  0  0  0  0  0  0  0  0  0
    5.6648   -2.0014   -0.3008 H   0  0  0  0  0  0  0  0  0  0  0  0
    5.4619   -1.2197    1.2950 H   0  0  0  0  0  0  0  0  0  0  0  0
   -5.6332   -4.3954    0.4397 H   0  0  0  0  0  0  0  0  0  0  0  0
   -5.0686   -2.7550   -1.0280 H   0  0  0  0  0  0  0  0  0  0  0  0
   -4.3298   -1.3843    1.6173 H   0  0  0  0  0  0  0  0  0  0  0  0
   -2.5660   -1.9201   -0.7710 H   0  0  0  0  0  0  0  0  0  0  0  0
   -2.5700   -0.8661    2.0923 H   0  0  0  0  0  0  0  0  0  0  0  0
   -0.3469   -0.6784    2.3754 H   0  0  0  0  0  0  0  0  0  0  0  0
    1.0183   -1.8741    0.3121 H   0  0  0  0  0  0  0  0  0  0  0  0
   -0.3343   -1.2673   -1.4152 H   0  0  0  0  0  0  0  0  0  0  0  0
   -1.4926    0.5896   -1.5657 H   0  0  0  0  0  0  0  0  0  0  0  0
   -1.8342    1.1156    1.1756 H   0  0  0  0  0  0  0  0  0  0  0  0
   -5.2583    0.2243    0.3928 H   0  0  0  0  0  0  0  0  0  0  0  0
   -3.9900   -0.5301   -2.0391 H   0  0  0  0  0  0  0  0  0  0  0  0
    1.0278    2.0675   -0.4827 H   0  0  0  0  0  0  0  0  0  0  0  0
    3.0084    1.1467   -2.2142 H   0  0  0  0  0  0  0  0  0  0  0  0
    4.8107    2.1483   -1.4681 H   0  0  0  0  0  0  0  0  0  0  0  0
    5.0099    1.2398    1.1290 H   0  0  0  0  0  0  0  0  0  0  0  0
    3.2504   -0.8338   -0.1200 H   0  0  0  0  0  0  0  0  0  0  0  0
    2.7227    1.8665    1.1724 H   0  0  0  0  0  0  0  0  0  0  0  0
  1  2  1  0
  2  3  1  0
  2  4  1  0
  4  5  1  0
  5  6  1  0
  5  7  1  0
  7  8  1  0
  8  9  1  0
  9 10  1  0
 10 11  1  0
  7 12  1  0
 11 12  1  0
 12 13  1  0
 13 14  1  0
 14 15  1  0
 15 16  1  0
 16 17  1  0
 14 18  1  0
 17 18  1  0
  4 19  1  0
 13 19  1  0
 19 20  1  0
 10 21  1  0
 21 22  1  0
 22 23  1  0
 23 24  1  0
 24 25  1  0
 25 26  1  0
 22 27  1  0
 26 27  1  0
 25 28  1  0
 28 29  1  0
 29 30  1  0
 30 31  1  0
 31 32  1  0
 28 33  1  0
 32 33  1  0
  3 34  1  0
  3 35  1  0
  3 36  1  0
  6 37  1  0
  6 38  1  0
  6 39  1  0
  8 40  1  0
 14 41  1  0
 15 42  1  0
 15 43  1  0
 16 44  1  0
 16 45  1  0
 17 46  1  0
 17 47  1  0
 18 48  1  0
 18 49  1  0
 21 50  1  0
 24 51  1  0
 26 52  1  0
 27 53  1  0
 29 54  1  0
 29 55  1  0
 30 56  1  0
 30 57  1  0
 31 58  1  0
 32 59  1  0
 32 60  1  0
 33 61  1  0
 33 62  1  0
  1 63  1  0
  2 64  1  0
  4 65  1  0
  5 66  1  6
  7 67  1  1
  8 68  1  0
  9 69  1  0
 10 70  1  0
 11 71  1  0
 12 72  1  1
 19 73  1  0
 20 74  1  0
 22 75  1  0
 23 76  1  0
 24 77  1  0
 25 78  1  1
 26 79  1  0
 27 80  1  0
M  END
>  <PDBID>  (1) 
5L2I

>  <PDB ID>  (1) 
5L2I

>  <Generic Name>  (1) 
Palbociclib

>  <Brand Name>  (1) 
Ibrance

>  <DrugBank ID>  (1) 
DB09073

>  <ATC Codes>  (1) 
L01XE33

>  <Ligand ID>  (1) 
LQQ

>  <Target Name>  (1) 
Cyclin-dependent kinase 6

>  <UniProt ID>  (1) 
Q00534

>  <PDB ID.1>  (1) 
5L2I

>  <Seq. Identity>  (1) 
100%

$$$$
