PDB_DB00674_04
     RDKit          3D

100106  0  0  0  0  0  0  0  0999 V2000
    0.7581   -1.4866    1.3639 C   0  0  0  0  0  0  0  0  0  0  0  0
    2.2433   -1.4392    1.4797 C   0  0  0  0  0  0  0  0  0  0  0  0
    2.9471   -2.0789    0.3016 C   0  0  1  0  0  0  0  0  0  0  0  0
    2.5625   -1.3149   -0.9260 C   0  0  0  0  0  0  0  0  0  0  0  0
    1.4054   -0.4015   -0.7375 C   0  0  1  0  0  0  0  0  0  0  0  0
    0.2414   -1.0438    0.0020 C   0  0  1  0  0  0  0  0  0  0  0  0
    1.6648    0.7480   -0.0386 O   0  0  0  0  0  0  0  0  0  0  0  0
    0.2411    2.5835    0.4590 C   0  0  0  0  0  0  0  0  0  0  0  0
   -1.2556    2.8085    0.2904 C   0  0  0  0  0  0  0  0  0  0  0  0
   -1.5738    2.1359   -1.0425 C   0  0  0  0  0  0  0  0  0  0  0  0
   -2.8031    0.0755   -0.7050 C   0  0  0  0  0  0  0  0  0  0  0  0
   -2.6957   -1.3113   -0.6072 N   0  0  0  0  0  0  0  0  0  0  0  0
   -1.6999   -1.9819   -1.3292 C   0  0  0  0  0  0  0  0  0  0  0  0
   -0.3829   -2.1573   -0.6782 C   0  0  0  0  0  0  0  0  0  0  0  0
    0.5382    1.1415    0.6434 C   0  0  0  0  0  0  0  0  0  0  0  0
   -0.5869    0.2032    0.2515 C   0  0  0  0  0  0  0  0  0  0  0  0
   -1.3918    0.6523   -0.9040 C   0  0  0  0  0  0  0  0  0  0  0  0
    1.6014    4.3030    1.0086 C   0  0  0  0  0  0  0  0  0  0  0  0
    0.7077    3.3750    1.5051 O   0  0  0  0  0  0  0  0  0  0  0  0
    4.3213   -1.9655    0.5487 O   0  0  0  0  0  0  0  0  0  0  0  0
   -3.5111   -2.0199    0.2688 C   0  0  0  0  0  0  0  0  0  0  0  0
    0.7581   -1.4866    1.3639 C   0  0  0  0  0  0  0  0  0  0  0  0
    2.2433   -1.4392    1.4797 C   0  0  0  0  0  0  0  0  0  0  0  0
    2.9471   -2.0789    0.3016 C   0  0  1  0  0  0  0  0  0  0  0  0
    2.5625   -1.3149   -0.9260 C   0  0  0  0  0  0  0  0  0  0  0  0
    1.4054   -0.4015   -0.7375 C   0  0  1  0  0  0  0  0  0  0  0  0
    0.2414   -1.0438    0.0020 C   0  0  1  0  0  0  0  0  0  0  0  0
    1.6648    0.7480   -0.0386 O   0  0  0  0  0  0  0  0  0  0  0  0
    0.2411    2.5835    0.4590 C   0  0  0  0  0  0  0  0  0  0  0  0
   -1.2556    2.8085    0.2904 C   0  0  0  0  0  0  0  0  0  0  0  0
   -1.5738    2.1359   -1.0425 C   0  0  0  0  0  0  0  0  0  0  0  0
   -2.8031    0.0755   -0.7050 C   0  0  0  0  0  0  0  0  0  0  0  0
   -2.6957   -1.3113   -0.6072 N   0  0  0  0  0  0  0  0  0  0  0  0
   -1.6999   -1.9819   -1.3292 C   0  0  0  0  0  0  0  0  0  0  0  0
   -0.3829   -2.1573   -0.6782 C   0  0  0  0  0  0  0  0  0  0  0  0
    0.5382    1.1415    0.6434 C   0  0  0  0  0  0  0  0  0  0  0  0
   -0.5869    0.2032    0.2515 C   0  0  0  0  0  0  0  0  0  0  0  0
   -1.3918    0.6523   -0.9040 C   0  0  0  0  0  0  0  0  0  0  0  0
    1.6014    4.3030    1.0086 C   0  0  0  0  0  0  0  0  0  0  0  0
    0.7077    3.3750    1.5051 O   0  0  0  0  0  0  0  0  0  0  0  0
    4.3213   -1.9655    0.5487 O   0  0  0  0  0  0  0  0  0  0  0  0
   -3.5111   -2.0199    0.2688 C   0  0  0  0  0  0  0  0  0  0  0  0
    0.4584   -2.5621    1.5503 H   0  0  0  0  0  0  0  0  0  0  0  0
    0.3158   -0.9240    2.1946 H   0  0  0  0  0  0  0  0  0  0  0  0
    2.5146   -2.0831    2.3696 H   0  0  0  0  0  0  0  0  0  0  0  0
    2.6708   -0.4550    1.6932 H   0  0  0  0  0  0  0  0  0  0  0  0
    2.6707   -3.1407    0.2132 H   0  0  0  0  0  0  0  0  0  0  0  0
    3.4291   -0.7069   -1.2564 H   0  0  0  0  0  0  0  0  0  0  0  0
    2.3230   -1.9916   -1.7923 H   0  0  0  0  0  0  0  0  0  0  0  0
    1.0666   -0.0834   -1.7663 H   0  0  0  0  0  0  0  0  0  0  0  0
    0.7120    2.9081   -0.5025 H   0  0  0  0  0  0  0  0  0  0  0  0
   -1.4319    3.8784    0.1789 H   0  0  0  0  0  0  0  0  0  0  0  0
   -1.8405    2.3202    1.0820 H   0  0  0  0  0  0  0  0  0  0  0  0
   -0.8100    2.5442   -1.7604 H   0  0  0  0  0  0  0  0  0  0  0  0
   -2.5501    2.4329   -1.4366 H   0  0  0  0  0  0  0  0  0  0  0  0
   -3.1416    0.4949    0.2800 H   0  0  0  0  0  0  0  0  0  0  0  0
   -3.5027    0.4624   -1.4571 H   0  0  0  0  0  0  0  0  0  0  0  0
   -2.0943   -3.0240   -1.5469 H   0  0  0  0  0  0  0  0  0  0  0  0
   -1.5779   -1.5624   -2.3731 H   0  0  0  0  0  0  0  0  0  0  0  0
   -0.4718   -3.0535    0.0090 H   0  0  0  0  0  0  0  0  0  0  0  0
    0.3251   -2.5386   -1.4770 H   0  0  0  0  0  0  0  0  0  0  0  0
    0.7706    1.0074    1.7420 H   0  0  0  0  0  0  0  0  0  0  0  0
   -1.2100   -0.0241    1.1574 H   0  0  0  0  0  0  0  0  0  0  0  0
   -0.9359    0.2946   -1.8434 H   0  0  0  0  0  0  0  0  0  0  0  0
    1.0564    4.9269    0.2568 H   0  0  0  0  0  0  0  0  0  0  0  0
    2.3869    3.7435    0.4276 H   0  0  0  0  0  0  0  0  0  0  0  0
    2.0521    4.9391    1.7689 H   0  0  0  0  0  0  0  0  0  0  0  0
    4.8381   -1.9606   -0.3083 H   0  0  0  0  0  0  0  0  0  0  0  0
   -3.9456   -2.9168   -0.2629 H   0  0  0  0  0  0  0  0  0  0  0  0
   -2.9961   -2.3504    1.1785 H   0  0  0  0  0  0  0  0  0  0  0  0
   -4.4130   -1.4011    0.5269 H   0  0  0  0  0  0  0  0  0  0  0  0
    0.4584   -2.5621    1.5503 H   0  0  0  0  0  0  0  0  0  0  0  0
    0.3158   -0.9240    2.1946 H   0  0  0  0  0  0  0  0  0  0  0  0
    2.5146   -2.0831    2.3696 H   0  0  0  0  0  0  0  0  0  0  0  0
    2.6708   -0.4550    1.6932 H   0  0  0  0  0  0  0  0  0  0  0  0
    2.6707   -3.1407    0.2132 H   0  0  0  0  0  0  0  0  0  0  0  0
    3.4291   -0.7069   -1.2564 H   0  0  0  0  0  0  0  0  0  0  0  0
    2.3230   -1.9916   -1.7923 H   0  0  0  0  0  0  0  0  0  0  0  0
    1.0666   -0.0834   -1.7663 H   0  0  0  0  0  0  0  0  0  0  0  0
    0.7120    2.9081   -0.5025 H   0  0  0  0  0  0  0  0  0  0  0  0
   -1.4319    3.8784    0.1789 H   0  0  0  0  0  0  0  0  0  0  0  0
   -1.8405    2.3202    1.0820 H   0  0  0  0  0  0  0  0  0  0  0  0
   -0.8100    2.5442   -1.7604 H   0  0  0  0  0  0  0  0  0  0  0  0
   -2.5501    2.4329   -1.4366 H   0  0  0  0  0  0  0  0  0  0  0  0
   -3.1416    0.4949    0.2800 H   0  0  0  0  0  0  0  0  0  0  0  0
   -3.5027    0.4624   -1.4571 H   0  0  0  0  0  0  0  0  0  0  0  0
   -2.0943   -3.0240   -1.5469 H   0  0  0  0  0  0  0  0  0  0  0  0
   -1.5779   -1.5624   -2.3731 H   0  0  0  0  0  0  0  0  0  0  0  0
   -0.4718   -3.0535    0.0090 H   0  0  0  0  0  0  0  0  0  0  0  0
    0.3251   -2.5386   -1.4770 H   0  0  0  0  0  0  0  0  0  0  0  0
    0.7706    1.0074    1.7420 H   0  0  0  0  0  0  0  0  0  0  0  0
   -1.2100   -0.0241    1.1574 H   0  0  0  0  0  0  0  0  0  0  0  0
   -0.9359    0.2946   -1.8434 H   0  0  0  0  0  0  0  0  0  0  0  0
    1.0564    4.9269    0.2568 H   0  0  0  0  0  0  0  0  0  0  0  0
    2.3869    3.7435    0.4276 H   0  0  0  0  0  0  0  0  0  0  0  0
    2.0521    4.9391    1.7689 H   0  0  0  0  0  0  0  0  0  0  0  0
    4.8381   -1.9606   -0.3083 H   0  0  0  0  0  0  0  0  0  0  0  0
   -3.9456   -2.9168   -0.2629 H   0  0  0  0  0  0  0  0  0  0  0  0
   -2.9961   -2.3504    1.1785 H   0  0  0  0  0  0  0  0  0  0  0  0
   -4.4130   -1.4011    0.5269 H   0  0  0  0  0  0  0  0  0  0  0  0
  1  2  1  0
  2  3  1  0
  3  4  1  0
  4  5  1  0
  6  1  1  1
  5  6  1  0
  5  7  1  0
  8  9  1  0
  9 10  1  0
 11 12  1  0
 12 13  1  0
  6 14  1  0
 13 14  1  0
  7 15  1  0
  8 15  1  0
  6 16  1  0
 15 16  1  0
 10 17  1  0
 11 17  1  0
 16 17  1  0
  8 19  1  0
 18 19  1  0
  3 20  1  0
 12 21  1  0
 22 23  1  0
 23 24  1  0
 24 25  1  0
 25 26  1  0
 27 22  1  1
 26 27  1  0
 26 28  1  0
 29 30  1  0
 30 31  1  0
 32 33  1  0
 33 34  1  0
 27 35  1  0
 34 35  1  0
 28 36  1  0
 29 36  1  0
 27 37  1  0
 36 37  1  0
 31 38  1  0
 32 38  1  0
 37 38  1  0
 29 40  1  0
 39 40  1  0
 24 41  1  0
 33 42  1  0
  1 43  1  0
  1 44  1  0
  2 45  1  0
  2 46  1  0
  3 47  1  6
  4 48  1  0
  4 49  1  0
  5 50  1  6
  8 51  1  0
  9 52  1  0
  9 53  1  0
 10 54  1  0
 10 55  1  0
 11 56  1  0
 11 57  1  0
 13 58  1  0
 13 59  1  0
 14 60  1  0
 14 61  1  0
 15 62  1  0
 16 63  1  0
 17 64  1  0
 18 65  1  0
 18 66  1  0
 18 67  1  0
 20 68  1  0
 21 69  1  0
 21 70  1  0
 21 71  1  0
 22 72  1  0
 22 73  1  0
 23 74  1  0
 23 75  1  0
 24 76  1  6
 25 77  1  0
 25 78  1  0
 26 79  1  6
 29 80  1  0
 30 81  1  0
 30 82  1  0
 31 83  1  0
 31 84  1  0
 32 85  1  0
 32 86  1  0
 34 87  1  0
 34 88  1  0
 35 89  1  0
 35 90  1  0
 36 91  1  0
 37 92  1  0
 38 93  1  0
 39 94  1  0
 39 95  1  0
 39 96  1  0
 41 97  1  0
 42 98  1  0
 42 99  1  0
 42100  1  0
M  END
>  <PDBID>  (1) 
4EY6

>  <PDB ID>  (1) 
4EY6

>  <Generic Name>  (1) 
Galantamine

>  <Brand Name>  (1) 
Apo-galantamine#Auro-galantamine ER#Galantamine#Galantamine ER#Galantamine Hydrobromide#Ipg-galantamine ER#Mar-galantamine ER#Mylan-galantamine ER#PMS-galantamine#PMS-galantamine ER#Pat-galantamine ER#Pendo-galantamine ER#Ratio-galantamine#Razadyne#Reminyl   -(12mg)#Reminyl   -(4mg)#Reminyl   -(8mg)#Reminyl ER#Sandoz Galantamine ER#Teva-galantamine ER#Lycoremine#Nivalin#Reminyl

>  <DrugBank ID>  (1) 
DB00674

>  <ATC Codes>  (1) 
N06DA04

>  <Ligand ID>  (1) 
GNT

>  <Target Name>  (1) 
Acetylcholinesterase

>  <UniProt ID>  (1) 
P22303

>  <PDB ID.1>  (1) 
4EY6

>  <Seq. Identity>  (1) 
97%

$$$$
