PDB_DB06290_09
     RDKit          3D

492516  0  0  0  0  0  0  0  0999 V2000
   -0.5643    0.5034   -2.7563 C   0  0  0  0  0  0  0  0  0  0  0  0
   -1.8419   -0.1901   -2.3826 C   0  0  2  0  0  0  0  0  0  0  0  0
   -2.2692    0.3538   -1.0549 C   0  0  1  0  0  0  0  0  0  0  0  0
   -0.9168    0.6587   -0.3688 C   0  0  0  0  0  0  0  0  0  0  0  0
    0.0792    0.8854   -1.4824 C   0  0  1  0  0  0  0  0  0  0  0  0
   -3.0624    1.6017   -1.0675 C   0  0  1  0  0  0  0  0  0  0  0  0
   -2.6756    2.4559   -2.1406 O   0  0  0  0  0  0  0  0  0  0  0  0
   -4.4783    1.5545   -0.9712 N   0  0  0  0  0  0  0  0  0  0  0  0
   -1.6194   -1.6645   -2.4373 C   0  0  0  0  0  0  0  0  0  0  0  0
   -1.2624   -2.1862   -1.1743 O   0  0  0  0  0  0  0  0  0  0  0  0
   -6.2338   -0.1729   -0.9893 C   0  0  1  0  0  0  0  0  0  0  0  0
   -4.8908    0.3616    1.1187 C   0  0  0  0  0  0  0  0  0  0  0  0
   -2.6865   -2.4516   -2.9498 N   0  0  0  0  0  0  0  0  0  0  0  0
   -2.7851   -3.8069   -2.5132 C   0  0  0  0  0  0  0  0  0  0  0  0
   -2.7163   -2.4603   -4.3946 C   0  0  0  0  0  0  0  0  0  0  0  0
   -5.0506    0.3585   -0.3572 C   0  0  2  0  0  0  0  0  0  0  0  0
   -4.8928   -0.7891   -1.2606 C   0  0  0  0  0  0  0  0  0  0  0  0
   -7.0904   -1.2427   -0.4281 C   0  0  0  0  0  0  0  0  0  0  0  0
   -4.0423   -4.2227   -1.8384 C   0  0  0  0  0  0  0  0  0  0  0  0
   -5.3345   -3.7973   -2.4706 C   0  0  0  0  0  0  0  0  0  0  0  0
   -6.3313   -3.5014   -1.3364 C   0  0  0  0  0  0  0  0  0  0  0  0
   -7.1735   -2.3050   -1.5564 C   0  0  0  0  0  0  0  0  0  0  0  0
    1.1947    0.1458   -1.1431 O   0  0  0  0  0  0  0  0  0  0  0  0
    4.7395    0.8265    2.6192 C   0  0  0  0  0  0  0  0  0  0  0  0
    3.9906    2.0766    2.3585 C   0  0  0  0  0  0  0  0  0  0  0  0
    2.9661    2.0576    1.3114 C   0  0  0  0  0  0  0  0  0  0  0  0
    2.5505    0.7581    0.7432 C   0  0  0  0  0  0  0  0  0  0  0  0
    3.4140   -0.4156    1.0530 C   0  0  0  0  0  0  0  0  0  0  0  0
    3.8206   -0.3593    2.5012 C   0  0  0  0  0  0  0  0  0  0  0  0
    2.3201    0.8276   -0.7847 C   0  0  0  0  0  0  0  0  0  0  0  0
    3.5354    0.5973   -1.5871 C   0  0  0  0  0  0  0  0  0  0  0  0
    4.7672    0.4485   -0.7633 C   0  0  1  0  0  0  0  0  0  0  0  0
    4.5705   -0.5431    0.2428 N   0  0  0  0  0  0  0  0  0  0  0  0
    5.9455   -0.0528   -1.6170 C   0  0  1  0  0  0  0  0  0  0  0  0
    6.2099    1.1898   -2.9400 S   0  0  0  0  0  0  0  0  0  0  0  0
    7.8816    1.7349   -2.3782 C   0  0  0  0  0  0  0  0  0  0  0  0
    8.2422    0.4684   -1.6021 C   0  0  2  0  0  0  0  0  0  0  0  0
    7.1201    0.0902   -0.8384 N   0  0  0  0  0  0  0  0  0  0  0  0
    9.3733    0.8055   -0.6776 C   0  0  0  0  0  0  0  0  0  0  0  0
    9.0751    1.8744    0.3202 C   0  0  0  0  0  0  0  0  0  0  0  0
    9.7497   -0.4960    0.0372 C   0  0  0  0  0  0  0  0  0  0  0  0
    5.2315    0.8476    3.9445 O   0  0  0  0  0  0  0  0  0  0  0  0
    6.6036    0.6171    3.9651 C   0  0  0  0  0  0  0  0  0  0  0  0
    2.6454   -0.2790    3.4315 C   0  0  0  0  0  0  0  0  0  0  0  0
   -5.4443    1.6314    1.6233 N   0  0  0  0  0  0  0  0  0  0  0  0
   -5.3645   -0.7088    1.8179 O   0  0  0  0  0  0  0  0  0  0  0  0
   -5.4708    2.0546    3.0322 S   0  0  0  0  0  0  0  0  0  0  0  0
   -5.8558    1.2073    4.3534 C   0  0  0  0  0  0  0  0  0  0  0  0
   -7.3030    3.0305    2.8681 O   0  0  0  0  0  0  0  0  0  0  0  0
   -4.7386    3.4885    3.3781 O   0  0  0  0  0  0  0  0  0  0  0  0
   -7.2622    1.1851    4.9745 C   0  0  0  0  0  0  0  0  0  0  0  0
   -6.2308    2.0193    5.6393 C   0  0  0  0  0  0  0  0  0  0  0  0
   -0.4749    0.5465   -1.2324 C   0  0  0  0  0  0  0  0  0  0  0  0
   -1.6029   -0.3843   -0.8628 C   0  0  2  0  0  0  0  0  0  0  0  0
   -1.6153   -0.2675    0.6349 C   0  0  1  0  0  0  0  0  0  0  0  0
   -0.1787   -0.0577    1.0414 C   0  0  0  0  0  0  0  0  0  0  0  0
    0.5235    0.5588   -0.1394 C   0  0  1  0  0  0  0  0  0  0  0  0
   -2.3904    0.9722    1.1013 C   0  0  0  0  0  0  0  0  0  0  0  0
   -2.4714    0.9301    2.4550 O   0  0  0  0  0  0  0  0  0  0  0  0
   -3.5332    1.1026    0.3304 N   0  0  0  0  0  0  0  0  0  0  0  0
   -1.2209   -1.7562   -1.3533 C   0  0  0  0  0  0  0  0  0  0  0  0
   -0.5456   -2.4709   -0.3682 O   0  0  0  0  0  0  0  0  0  0  0  0
   -5.1321    0.1929    1.7707 C   0  0  1  0  0  0  0  0  0  0  0  0
   -5.7992    1.7504   -0.2108 C   0  0  2  0  0  0  0  0  0  0  0  0
   -2.3341   -2.4806   -1.9130 N   0  0  0  0  0  0  0  0  0  0  0  0
   -2.9331   -3.4370   -1.0150 C   0  0  0  0  0  0  0  0  0  0  0  0
   -2.1699   -2.9220   -3.2552 C   0  0  0  0  0  0  0  0  0  0  0  0
   -4.8208    1.3216    0.8848 C   0  0  2  0  0  0  0  0  0  0  0  0
   -5.1780    1.6527    2.2285 C   0  0  0  0  0  0  0  0  0  0  0  0
   -6.4363   -0.4789    1.6472 C   0  0  0  0  0  0  0  0  0  0  0  0
   -4.4308   -3.2946   -1.1524 C   0  0  0  0  0  0  0  0  0  0  0  0
   -5.2043   -3.7466    0.0366 C   0  0  0  0  0  0  0  0  0  0  0  0
   -5.2391   -2.6175    1.0755 C   0  0  0  0  0  0  0  0  0  0  0  0
   -6.4678   -1.7607    0.8887 C   0  0  0  0  0  0  0  0  0  0  0  0
    1.6513   -0.1983   -0.3858 O   0  0  0  0  0  0  0  0  0  0  0  0
    5.6838   -0.2842    2.8733 C   0  0  0  0  0  0  0  0  0  0  0  0
    4.3318    0.3060    3.2073 C   0  0  0  0  0  0  0  0  0  0  0  0
    3.6819    0.9519    2.0252 C   0  0  0  0  0  0  0  0  0  0  0  0
    3.6269   -0.0494    0.8602 C   0  0  0  0  0  0  0  0  0  0  0  0
    5.0630   -0.3541    0.5232 C   0  0  0  0  0  0  0  0  0  0  0  0
    5.6160   -1.1993    1.6703 C   0  0  0  0  0  0  0  0  0  0  0  0
    2.8397    0.4805   -0.2852 C   0  0  0  0  0  0  0  0  0  0  0  0
    3.5891    0.6195   -1.5691 C   0  0  0  0  0  0  0  0  0  0  0  0
    4.6105   -0.4467   -1.8319 C   0  0  0  0  0  0  0  0  0  0  0  0
    5.1291   -1.0933   -0.6782 N   0  0  0  0  0  0  0  0  0  0  0  0
    5.7060    0.0696   -2.7567 C   0  0  0  0  0  0  0  0  0  0  0  0
    6.8649   -1.3331   -3.0090 S   0  0  0  0  0  0  0  0  0  0  0  0
    8.3875   -0.3779   -2.6245 C   0  0  0  0  0  0  0  0  0  0  0  0
    7.8416    1.0046   -2.5708 C   0  0  0  0  0  0  0  0  0  0  0  0
    6.5170    1.0064   -2.0286 N   0  0  0  0  0  0  0  0  0  0  0  0
    8.7138    1.7958   -1.6047 C   0  0  0  0  0  0  0  0  0  0  0  0
    8.6219    1.1043   -0.2619 C   0  0  0  0  0  0  0  0  0  0  0  0
   10.1674    1.7505   -2.0427 C   0  0  0  0  0  0  0  0  0  0  0  0
    6.1416   -0.9462    4.0049 O   0  0  0  0  0  0  0  0  0  0  0  0
    7.2837   -0.3710    4.5288 C   0  0  0  0  0  0  0  0  0  0  0  0
    4.7695   -2.3998    1.9442 C   0  0  0  0  0  0  0  0  0  0  0  0
   -7.0078    2.3489    0.2876 N   0  0  0  0  0  0  0  0  0  0  0  0
   -5.9571    0.8232   -1.2037 O   0  0  0  0  0  0  0  0  0  0  0  0
   -8.1293    2.7615   -0.7732 S   0  0  0  0  0  0  0  0  0  0  0  0
   -9.6477    2.0135   -0.1739 C   0  0  0  0  0  0  0  0  0  0  0  0
   -7.9473    2.3245   -2.2249 O   0  0  0  0  0  0  0  0  0  0  0  0
   -8.5163    4.3952   -0.6950 O   0  0  0  0  0  0  0  0  0  0  0  0
  -10.9172    2.7152   -0.4494 C   0  0  0  0  0  0  0  0  0  0  0  0
  -10.3074    2.7980    0.8927 C   0  0  0  0  0  0  0  0  0  0  0  0
   -0.6503   -0.4910   -1.2562 C   0  0  0  0  0  0  0  0  0  0  0  0
   -1.7439   -1.3975   -0.7549 C   0  0  2  0  0  0  0  0  0  0  0  0
   -1.8736   -0.9783    0.6782 C   0  0  1  0  0  0  0  0  0  0  0  0
   -0.4614   -0.7260    1.0918 C   0  0  0  0  0  0  0  0  0  0  0  0
    0.1990   -0.0578   -0.1137 C   0  0  1  0  0  0  0  0  0  0  0  0
   -2.6592    0.3342    0.8235 C   0  0  0  0  0  0  0  0  0  0  0  0
   -2.9727    0.4113    2.1497 O   0  0  0  0  0  0  0  0  0  0  0  0
   -3.6340    0.4535   -0.1438 N   0  0  0  0  0  0  0  0  0  0  0  0
   -1.2961   -2.8052   -0.8614 C   0  0  0  0  0  0  0  0  0  0  0  0
    0.1109   -2.8364   -1.0367 O   0  0  0  0  0  0  0  0  0  0  0  0
   -5.5490   -0.2265    1.0694 C   0  0  1  0  0  0  0  0  0  0  0  0
   -5.7152    0.8994   -1.2671 C   0  0  2  0  0  0  0  0  0  0  0  0
   -1.8597   -3.6200   -1.8656 N   0  0  0  0  0  0  0  0  0  0  0  0
   -3.2714   -3.8221   -1.8370 C   0  0  0  0  0  0  0  0  0  0  0  0
   -1.4349   -3.4109   -3.2102 C   0  0  0  0  0  0  0  0  0  0  0  0
   -4.9891    0.6905    0.0730 C   0  0  2  0  0  0  0  0  0  0  0  0
   -5.6341    1.2566    1.2402 C   0  0  0  0  0  0  0  0  0  0  0  0
   -6.7957   -0.9743    0.7460 C   0  0  0  0  0  0  0  0  0  0  0  0
   -3.7937   -4.6615   -0.7111 C   0  0  0  0  0  0  0  0  0  0  0  0
   -5.2159   -4.2224   -0.4179 C   0  0  0  0  0  0  0  0  0  0  0  0
   -5.2937   -2.9850    0.4447 C   0  0  0  0  0  0  0  0  0  0  0  0
   -6.6388   -2.3399    0.1941 C   0  0  0  0  0  0  0  0  0  0  0  0
    1.4916   -0.4597   -0.1735 O   0  0  0  0  0  0  0  0  0  0  0  0
    5.3189    0.8519    3.1843 C   0  0  0  0  0  0  0  0  0  0  0  0
    3.8558    0.9917    3.5466 C   0  0  0  0  0  0  0  0  0  0  0  0
    3.0793    1.2787    2.3131 C   0  0  0  0  0  0  0  0  0  0  0  0
    3.2266    0.1690    1.2749 C   0  0  0  0  0  0  0  0  0  0  0  0
    4.7096    0.0294    0.9956 C   0  0  0  0  0  0  0  0  0  0  0  0
    5.4586   -0.3199    2.2520 C   0  0  0  0  0  0  0  0  0  0  0  0
    2.4627    0.4763    0.0159 C   0  0  0  0  0  0  0  0  0  0  0  0
    3.3523    0.6882   -1.1803 C   0  0  0  0  0  0  0  0  0  0  0  0
    4.4105   -0.3679   -1.3374 C   0  0  0  0  0  0  0  0  0  0  0  0
    4.8638   -0.8927   -0.0770 N   0  0  0  0  0  0  0  0  0  0  0  0
    5.5575    0.0884   -2.2146 C   0  0  0  0  0  0  0  0  0  0  0  0
    6.7145   -1.3369   -2.3020 S   0  0  0  0  0  0  0  0  0  0  0  0
    8.2428   -0.3784   -1.9559 C   0  0  0  0  0  0  0  0  0  0  0  0
    7.7033    1.0175   -2.1400 C   0  0  1  0  0  0  0  0  0  0  0  0
    6.3852    1.0793   -1.5798 N   0  0  0  0  0  0  0  0  0  0  0  0
    8.5873    1.9456   -1.3242 C   0  0  0  0  0  0  0  0  0  0  0  0
    8.5064    1.5075    0.1357 C   0  0  0  0  0  0  0  0  0  0  0  0
   10.0575    1.7482   -1.7200 C   0  0  0  0  0  0  0  0  0  0  0  0
    6.1537    0.8265    4.2736 O   0  0  0  0  0  0  0  0  0  0  0  0
    7.0176    1.9433    4.2400 C   0  0  0  0  0  0  0  0  0  0  0  0
    5.0855   -1.6266    2.8495 C   0  0  0  0  0  0  0  0  0  0  0  0
   -6.9767    1.4980   -1.2057 N   0  0  0  0  0  0  0  0  0  0  0  0
   -5.5970   -0.2385   -2.0640 O   0  0  0  0  0  0  0  0  0  0  0  0
   -7.1864    3.0475   -0.8413 S   0  0  0  0  0  0  0  0  0  0  0  0
   -8.8471    3.1968   -0.1890 C   0  0  0  0  0  0  0  0  0  0  0  0
   -7.5343    3.7194   -2.5386 O   0  0  0  0  0  0  0  0  0  0  0  0
   -6.2593    3.9443   -0.2508 O   0  0  0  0  0  0  0  0  0  0  0  0
   -9.1534    4.5505    0.4693 C   0  0  0  0  0  0  0  0  0  0  0  0
   -9.0752    3.2865    1.2488 C   0  0  0  0  0  0  0  0  0  0  0  0
   -0.0592   -0.5779    1.4525 C   0  0  0  0  0  0  0  0  0  0  0  0
   -1.5700   -0.8091    1.2679 C   0  0  2  0  0  0  0  0  0  0  0  0
   -1.7921   -0.5543   -0.2085 C   0  0  1  0  0  0  0  0  0  0  0  0
   -0.4051   -0.4704   -0.8527 C   0  0  0  0  0  0  0  0  0  0  0  0
    0.5655   -1.0061    0.1515 C   0  0  1  0  0  0  0  0  0  0  0  0
   -2.5664   -1.6218   -0.9103 C   0  0  0  0  0  0  0  0  0  0  0  0
   -1.7080   -2.3736   -1.7144 O   0  0  0  0  0  0  0  0  0  0  0  0
   -3.6498   -1.2247   -1.7868 N   0  0  0  0  0  0  0  0  0  0  0  0
   -2.2115    0.1458    2.2225 C   0  0  0  0  0  0  0  0  0  0  0  0
   -1.3003    0.9863    2.8734 O   0  0  0  0  0  0  0  0  0  0  0  0
   -5.9753   -2.2448   -1.3873 C   0  0  1  0  0  0  0  0  0  0  0  0
   -5.4704    0.0904   -0.9166 C   0  0  0  0  0  0  0  0  0  0  0  0
   -3.0124   -0.4700    3.2733 N   0  0  0  0  0  0  0  0  0  0  0  0
   -4.1288   -1.1832    2.7748 C   0  0  0  0  0  0  0  0  0  0  0  0
   -2.2645   -1.1313    4.2842 C   0  0  0  0  0  0  0  0  0  0  0  0
   -4.9335   -1.2750   -1.0760 C   0  0  2  0  0  0  0  0  0  0  0  0
   -4.9935   -2.5343   -0.3584 C   0  0  0  0  0  0  0  0  0  0  0  0
   -7.3330   -2.0744   -0.7380 C   0  0  0  0  0  0  0  0  0  0  0  0
   -5.3438   -1.3006    3.6205 C   0  0  0  0  0  0  0  0  0  0  0  0
   -6.4177   -2.2408    3.0349 C   0  0  0  0  0  0  0  0  0  0  0  0
   -7.0386   -1.6155    1.7685 C   0  0  0  0  0  0  0  0  0  0  0  0
   -7.3186   -2.5809    0.6812 C   0  0  0  0  0  0  0  0  0  0  0  0
    1.7640   -0.3425   -0.0707 O   0  0  0  0  0  0  0  0  0  0  0  0
    6.1425   -1.0635   -2.5725 C   0  0  0  0  0  0  0  0  0  0  0  0
    5.4761   -2.4158   -2.5563 C   0  0  0  0  0  0  0  0  0  0  0  0
    4.2925   -2.4800   -1.6624 C   0  0  0  0  0  0  0  0  0  0  0  0
    3.4492   -1.2704   -1.5530 C   0  0  0  0  0  0  0  0  0  0  0  0
    4.1008    0.0427   -1.8616 C   0  0  0  0  0  0  0  0  0  0  0  0
    5.1127   -0.0659   -2.9840 C   0  0  0  0  0  0  0  0  0  0  0  0
    2.8572   -1.1637   -0.1569 C   0  0  0  0  0  0  0  0  0  0  0  0
    3.9163   -0.9182    0.8641 C   0  0  0  0  0  0  0  0  0  0  0  0
    4.7070    0.2997    0.5232 C   0  0  1  0  0  0  0  0  0  0  0  0
    4.6592    0.7200   -0.7868 N   0  0  0  0  0  0  0  0  0  0  0  0
    4.4517    1.4266    1.5328 C   0  0  1  0  0  0  0  0  0  0  0  0
    4.9745    0.8623    3.1788 S   0  0  0  0  0  0  0  0  0  0  0  0
    6.4112    2.0171    3.3438 C   0  0  0  0  0  0  0  0  0  0  0  0
    6.6210    2.2539    1.8370 C   0  0  0  0  0  0  0  0  0  0  0  0
    5.3195    2.5511    1.3569 N   0  0  0  0  0  0  0  0  0  0  0  0
    7.5469    3.4193    1.5776 C   0  0  0  0  0  0  0  0  0  0  0  0
    8.8858    3.1265    2.2216 C   0  0  0  0  0  0  0  0  0  0  0  0
    7.7528    3.4997    0.0909 C   0  0  0  0  0  0  0  0  0  0  0  0
    7.2398   -1.1064   -3.4162 O   0  0  0  0  0  0  0  0  0  0  0  0
    8.3741   -0.8245   -2.6567 C   0  0  0  0  0  0  0  0  0  0  0  0
    4.3836   -0.4414   -4.2449 C   0  0  0  0  0  0  0  0  0  0  0  0
   -5.4032    0.6809   -2.3086 N   0  0  0  0  0  0  0  0  0  0  0  0
   -4.7267    1.0094   -0.2004 O   0  0  0  0  0  0  0  0  0  0  0  0
   -5.9224    2.1868   -2.4381 S   0  0  0  0  0  0  0  0  0  0  0  0
   -6.6232    2.8696   -1.0932 C   0  0  0  0  0  0  0  0  0  0  0  0
   -6.9272    2.2939   -3.7117 O   0  0  0  0  0  0  0  0  0  0  0  0
   -4.5932    3.1203   -2.8826 O   0  0  0  0  0  0  0  0  0  0  0  0
   -6.7636    4.4213   -1.1320 C   0  0  0  0  0  0  0  0  0  0  0  0
   -5.8331    3.8009   -0.1821 C   0  0  0  0  0  0  0  0  0  0  0  0
    0.0968   -0.1488   -3.3768 H   0  0  0  0  0  0  0  0  0  0  0  0
   -0.8668    1.4113   -3.3719 H   0  0  0  0  0  0  0  0  0  0  0  0
   -2.6103    0.1207   -3.1404 H   0  0  0  0  0  0  0  0  0  0  0  0
   -2.6505   -0.4724   -0.4661 H   0  0  0  0  0  0  0  0  0  0  0  0
   -0.9816    1.5480    0.2811 H   0  0  0  0  0  0  0  0  0  0  0  0
   -0.6067   -0.1698    0.3038 H   0  0  0  0  0  0  0  0  0  0  0  0
    0.2751    1.9808   -1.4887 H   0  0  0  0  0  0  0  0  0  0  0  0
   -2.7561    2.2448   -0.1753 H   0  0  0  0  0  0  0  0  0  0  0  0
   -3.4030    2.4889   -2.8162 H   0  0  0  0  0  0  0  0  0  0  0  0
   -4.9125    2.4223   -0.6184 H   0  0  0  0  0  0  0  0  0  0  0  0
   -0.7343   -1.8590   -3.0948 H   0  0  0  0  0  0  0  0  0  0  0  0
   -0.3952   -2.6502   -1.2004 H   0  0  0  0  0  0  0  0  0  0  0  0
   -6.7219    0.3525   -1.8728 H   0  0  0  0  0  0  0  0  0  0  0  0
   -3.7969    0.4522    1.3918 H   0  0  0  0  0  0  0  0  0  0  0  0
   -2.5950   -4.5272   -3.3674 H   0  0  0  0  0  0  0  0  0  0  0  0
   -1.9361   -4.0542   -1.8040 H   0  0  0  0  0  0  0  0  0  0  0  0
   -3.3963   -3.2753   -4.7667 H   0  0  0  0  0  0  0  0  0  0  0  0
   -3.0321   -1.4762   -4.8045 H   0  0  0  0  0  0  0  0  0  0  0  0
   -1.7196   -2.6979   -4.8026 H   0  0  0  0  0  0  0  0  0  0  0  0
   -4.6065   -0.7215   -2.3117 H   0  0  0  0  0  0  0  0  0  0  0  0
   -4.5237   -1.6784   -0.7522 H   0  0  0  0  0  0  0  0  0  0  0  0
   -6.7523   -1.7913    0.4353 H   0  0  0  0  0  0  0  0  0  0  0  0
   -8.1366   -0.8839   -0.2284 H   0  0  0  0  0  0  0  0  0  0  0  0
   -3.9575   -3.9907   -0.7582 H   0  0  0  0  0  0  0  0  0  0  0  0
   -4.0650   -5.3568   -1.8596 H   0  0  0  0  0  0  0  0  0  0  0  0
   -5.1977   -2.9204   -3.1349 H   0  0  0  0  0  0  0  0  0  0  0  0
   -5.7448   -4.5893   -3.1526 H   0  0  0  0  0  0  0  0  0  0  0  0
   -6.9885   -4.4397   -1.3149 H   0  0  0  0  0  0  0  0  0  0  0  0
   -5.8788   -3.4879   -0.3485 H   0  0  0  0  0  0  0  0  0  0  0  0
   -8.2518   -2.6243   -1.6282 H   0  0  0  0  0  0  0  0  0  0  0  0
   -6.9458   -1.8700   -2.5394 H   0  0  0  0  0  0  0  0  0  0  0  0
    5.5970    0.6386    1.9770 H   0  0  0  0  0  0  0  0  0  0  0  0
    4.7524    2.8771    2.1209 H   0  0  0  0  0  0  0  0  0  0  0  0
    3.5712    2.4197    3.3499 H   0  0  0  0  0  0  0  0  0  0  0  0
    2.0612    2.6230    1.6995 H   0  0  0  0  0  0  0  0  0  0  0  0
    3.2795    2.7066    0.4373 H   0  0  0  0  0  0  0  0  0  0  0  0
    1.5393    0.5138    1.1501 H   0  0  0  0  0  0  0  0  0  0  0  0
    2.8120   -1.3480    0.9397 H   0  0  0  0  0  0  0  0  0  0  0  0
    4.4335   -1.2464    2.7744 H   0  0  0  0  0  0  0  0  0  0  0  0
    2.0443    1.9248   -0.9139 H   0  0  0  0  0  0  0  0  0  0  0  0
    3.7411    1.4655   -2.2887 H   0  0  0  0  0  0  0  0  0  0  0  0
    3.4853   -0.2796   -2.2683 H   0  0  0  0  0  0  0  0  0  0  0  0
    5.1344    1.3889   -0.3149 H   0  0  0  0  0  0  0  0  0  0  0  0
    4.7416   -1.5045   -0.1356 H   0  0  0  0  0  0  0  0  0  0  0  0
    5.7615   -1.0571   -2.0108 H   0  0  0  0  0  0  0  0  0  0  0  0
    8.5754    1.8244   -3.2272 H   0  0  0  0  0  0  0  0  0  0  0  0
    7.7973    2.6042   -1.7321 H   0  0  0  0  0  0  0  0  0  0  0  0
    8.5699   -0.3295   -2.2751 H   0  0  0  0  0  0  0  0  0  0  0  0
    7.0426    0.4698    0.1020 H   0  0  0  0  0  0  0  0  0  0  0  0
   10.2708    1.1653   -1.2633 H   0  0  0  0  0  0  0  0  0  0  0  0
    8.0868    2.3289    0.2597 H   0  0  0  0  0  0  0  0  0  0  0  0
    9.8082    2.7230    0.3106 H   0  0  0  0  0  0  0  0  0  0  0  0
    9.1544    1.4314    1.3586 H   0  0  0  0  0  0  0  0  0  0  0  0
   10.8044   -0.5223    0.3231 H   0  0  0  0  0  0  0  0  0  0  0  0
    9.0842   -0.6385    0.9123 H   0  0  0  0  0  0  0  0  0  0  0  0
    9.5711   -1.3691   -0.6236 H   0  0  0  0  0  0  0  0  0  0  0  0
    6.7513   -0.4022    3.5108 H   0  0  0  0  0  0  0  0  0  0  0  0
    7.1005    1.3169    3.2794 H   0  0  0  0  0  0  0  0  0  0  0  0
    6.9885    0.5855    4.9815 H   0  0  0  0  0  0  0  0  0  0  0  0
    2.3888    0.7382    3.7629 H   0  0  0  0  0  0  0  0  0  0  0  0
    1.7617   -0.6688    2.8545 H   0  0  0  0  0  0  0  0  0  0  0  0
    2.7919   -0.9684    4.2639 H   0  0  0  0  0  0  0  0  0  0  0  0
   -6.1571    1.9669    0.9088 H   0  0  0  0  0  0  0  0  0  0  0  0
   -4.7796   -1.0038    2.5581 H   0  0  0  0  0  0  0  0  0  0  0  0
   -5.2717    0.2818    4.6172 H   0  0  0  0  0  0  0  0  0  0  0  0
   -7.6853    2.1913    2.5732 H   0  0  0  0  0  0  0  0  0  0  0  0
   -4.4727    3.9443    2.5309 H   0  0  0  0  0  0  0  0  0  0  0  0
   -7.5849    0.2718    5.5168 H   0  0  0  0  0  0  0  0  0  0  0  0
   -8.0848    1.7074    4.4876 H   0  0  0  0  0  0  0  0  0  0  0  0
   -5.7974    1.6991    6.5875 H   0  0  0  0  0  0  0  0  0  0  0  0
   -6.3146    3.1232    5.4938 H   0  0  0  0  0  0  0  0  0  0  0  0
   -0.9255    1.5635   -1.3832 H   0  0  0  0  0  0  0  0  0  0  0  0
   -0.0004    0.2181   -2.2088 H   0  0  0  0  0  0  0  0  0  0  0  0
   -2.5365   -0.0122   -1.3307 H   0  0  0  0  0  0  0  0  0  0  0  0
   -2.0645   -1.1460    1.1291 H   0  0  0  0  0  0  0  0  0  0  0  0
   -0.0721    0.6379    1.8990 H   0  0  0  0  0  0  0  0  0  0  0  0
    0.2510   -1.0486    1.3078 H   0  0  0  0  0  0  0  0  0  0  0  0
    0.7612    1.6187    0.0942 H   0  0  0  0  0  0  0  0  0  0  0  0
   -1.6838    1.8238    0.8498 H   0  0  0  0  0  0  0  0  0  0  0  0
   -1.8499    0.2500    2.8101 H   0  0  0  0  0  0  0  0  0  0  0  0
   -3.3450    1.6642   -0.5118 H   0  0  0  0  0  0  0  0  0  0  0  0
   -0.4828   -1.6582   -2.2061 H   0  0  0  0  0  0  0  0  0  0  0  0
    0.2084   -3.0017   -0.7624 H   0  0  0  0  0  0  0  0  0  0  0  0
   -4.3101   -0.4456    2.1470 H   0  0  0  0  0  0  0  0  0  0  0  0
   -5.2560    2.6147   -0.7124 H   0  0  0  0  0  0  0  0  0  0  0  0
   -2.6386   -4.4822   -1.2523 H   0  0  0  0  0  0  0  0  0  0  0  0
   -2.5965   -3.2001    0.0120 H   0  0  0  0  0  0  0  0  0  0  0  0
   -2.0887   -4.0004   -3.4050 H   0  0  0  0  0  0  0  0  0  0  0  0
   -3.0875   -2.5840   -3.8220 H   0  0  0  0  0  0  0  0  0  0  0  0
   -1.3363   -2.3352   -3.7234 H   0  0  0  0  0  0  0  0  0  0  0  0
   -6.1879    2.0675    2.4495 H   0  0  0  0  0  0  0  0  0  0  0  0
   -4.5101    1.8426    3.0852 H   0  0  0  0  0  0  0  0  0  0  0  0
   -6.7825   -0.7161    2.6994 H   0  0  0  0  0  0  0  0  0  0  0  0
   -7.2558    0.1662    1.2484 H   0  0  0  0  0  0  0  0  0  0  0  0
   -4.7319   -3.8101   -2.0882 H   0  0  0  0  0  0  0  0  0  0  0  0
   -4.6696   -2.2127   -1.3233 H   0  0  0  0  0  0  0  0  0  0  0  0
   -6.2496   -3.9700   -0.3217 H   0  0  0  0  0  0  0  0  0  0  0  0
   -4.8050   -4.6792    0.4807 H   0  0  0  0  0  0  0  0  0  0  0  0
   -5.2252   -3.1162    2.0659 H   0  0  0  0  0  0  0  0  0  0  0  0
   -4.2886   -2.0861    0.9594 H   0  0  0  0  0  0  0  0  0  0  0  0
   -7.3281   -2.3801    1.2853 H   0  0  0  0  0  0  0  0  0  0  0  0
   -6.7194   -1.6449   -0.2021 H   0  0  0  0  0  0  0  0  0  0  0  0
    6.3586    0.5666    2.6536 H   0  0  0  0  0  0  0  0  0  0  0  0
    4.4946    1.0829    3.9818 H   0  0  0  0  0  0  0  0  0  0  0  0
    3.6298   -0.4361    3.6255 H   0  0  0  0  0  0  0  0  0  0  0  0
    2.6785    1.2930    2.3034 H   0  0  0  0  0  0  0  0  0  0  0  0
    4.3519    1.7675    1.6609 H   0  0  0  0  0  0  0  0  0  0  0  0
    3.1920   -0.9740    1.2942 H   0  0  0  0  0  0  0  0  0  0  0  0
    5.6164    0.5933    0.5499 H   0  0  0  0  0  0  0  0  0  0  0  0
    6.6645   -1.5079    1.4590 H   0  0  0  0  0  0  0  0  0  0  0  0
    2.5414    1.5334   -0.0052 H   0  0  0  0  0  0  0  0  0  0  0  0
    2.8464    0.6036   -2.3983 H   0  0  0  0  0  0  0  0  0  0  0  0
    4.1053    1.5998   -1.6571 H   0  0  0  0  0  0  0  0  0  0  0  0
    4.1144   -1.2554   -2.4544 H   0  0  0  0  0  0  0  0  0  0  0  0
    6.0285   -1.5512   -0.8865 H   0  0  0  0  0  0  0  0  0  0  0  0
    5.2952    0.4470   -3.6915 H   0  0  0  0  0  0  0  0  0  0  0  0
    8.7841   -0.7777   -1.6939 H   0  0  0  0  0  0  0  0  0  0  0  0
    9.0495   -0.5374   -3.5003 H   0  0  0  0  0  0  0  0  0  0  0  0
    7.8511    1.4695   -3.5787 H   0  0  0  0  0  0  0  0  0  0  0  0
    6.1207    1.9581   -2.1965 H   0  0  0  0  0  0  0  0  0  0  0  0
    8.3471    2.8261   -1.4717 H   0  0  0  0  0  0  0  0  0  0  0  0
    8.3137    1.8262    0.5468 H   0  0  0  0  0  0  0  0  0  0  0  0
    9.5885    0.6481    0.0354 H   0  0  0  0  0  0  0  0  0  0  0  0
    7.8625    0.3022   -0.2365 H   0  0  0  0  0  0  0  0  0  0  0  0
   10.7807    1.7589   -1.1189 H   0  0  0  0  0  0  0  0  0  0  0  0
   10.3959    0.8194   -2.5816 H   0  0  0  0  0  0  0  0  0  0  0  0
   10.3622    2.6498   -2.6752 H   0  0  0  0  0  0  0  0  0  0  0  0
    8.0816   -0.4060    3.7452 H   0  0  0  0  0  0  0  0  0  0  0  0
    7.1684    0.6609    4.8726 H   0  0  0  0  0  0  0  0  0  0  0  0
    7.6554   -1.0321    5.3431 H   0  0  0  0  0  0  0  0  0  0  0  0
    4.0597   -2.2465    2.7826 H   0  0  0  0  0  0  0  0  0  0  0  0
    4.2732   -2.8039    1.0398 H   0  0  0  0  0  0  0  0  0  0  0  0
    5.4515   -3.2281    2.2872 H   0  0  0  0  0  0  0  0  0  0  0  0
   -6.7227    3.1880    0.8861 H   0  0  0  0  0  0  0  0  0  0  0  0
   -6.8555    0.4685   -1.3253 H   0  0  0  0  0  0  0  0  0  0  0  0
   -9.6306    0.9093   -0.0832 H   0  0  0  0  0  0  0  0  0  0  0  0
   -8.6552    1.7346   -2.6144 H   0  0  0  0  0  0  0  0  0  0  0  0
   -7.6639    4.8950   -0.8437 H   0  0  0  0  0  0  0  0  0  0  0  0
  -11.8201    2.0395   -0.5148 H   0  0  0  0  0  0  0  0  0  0  0  0
  -10.9742    3.5698   -1.1356 H   0  0  0  0  0  0  0  0  0  0  0  0
  -10.7759    2.2488    1.7489 H   0  0  0  0  0  0  0  0  0  0  0  0
   -9.9103    3.7898    1.2136 H   0  0  0  0  0  0  0  0  0  0  0  0
   -1.0336    0.3971   -1.8011 H   0  0  0  0  0  0  0  0  0  0  0  0
    0.0067   -1.1130   -1.9177 H   0  0  0  0  0  0  0  0  0  0  0  0
   -2.7132   -1.1945   -1.2766 H   0  0  0  0  0  0  0  0  0  0  0  0
   -2.3848   -1.7478    1.2584 H   0  0  0  0  0  0  0  0  0  0  0  0
   -0.4392   -0.1153    1.9946 H   0  0  0  0  0  0  0  0  0  0  0  0
    0.0221   -1.6990    1.3300 H   0  0  0  0  0  0  0  0  0  0  0  0
    0.0503    1.0248    0.0599 H   0  0  0  0  0  0  0  0  0  0  0  0
   -1.8847    1.1475    0.6485 H   0  0  0  0  0  0  0  0  0  0  0  0
   -2.7907    1.2941    2.5095 H   0  0  0  0  0  0  0  0  0  0  0  0
   -3.2308    0.8959   -1.0170 H   0  0  0  0  0  0  0  0  0  0  0  0
   -1.4509   -3.2873    0.1240 H   0  0  0  0  0  0  0  0  0  0  0  0
    0.4582   -3.7470   -0.9097 H   0  0  0  0  0  0  0  0  0  0  0  0
   -4.8435   -0.8159    1.6785 H   0  0  0  0  0  0  0  0  0  0  0  0
   -5.0393    1.6511   -1.8010 H   0  0  0  0  0  0  0  0  0  0  0  0
   -3.7673   -2.8258   -1.8206 H   0  0  0  0  0  0  0  0  0  0  0  0
   -3.5702   -4.2468   -2.8437 H   0  0  0  0  0  0  0  0  0  0  0  0
   -0.5335   -3.9977   -3.4986 H   0  0  0  0  0  0  0  0  0  0  0  0
   -2.2421   -3.7557   -3.8899 H   0  0  0  0  0  0  0  0  0  0  0  0
   -1.3105   -2.3248   -3.4838 H   0  0  0  0  0  0  0  0  0  0  0  0
   -6.6741    1.6384    1.1804 H   0  0  0  0  0  0  0  0  0  0  0  0
   -5.0960    1.7608    2.0696 H   0  0  0  0  0  0  0  0  0  0  0  0
   -7.3668   -1.0655    1.7220 H   0  0  0  0  0  0  0  0  0  0  0  0
   -7.5169   -0.4013    0.0955 H   0  0  0  0  0  0  0  0  0  0  0  0
   -3.1578   -4.7566    0.1625 H   0  0  0  0  0  0  0  0  0  0  0  0
   -3.9039   -5.7028   -1.1327 H   0  0  0  0  0  0  0  0  0  0  0  0
   -5.7115   -4.0371   -1.3993 H   0  0  0  0  0  0  0  0  0  0  0  0
   -5.8062   -5.0166    0.0794 H   0  0  0  0  0  0  0  0  0  0  0  0
   -5.1816   -3.3203    1.4936 H   0  0  0  0  0  0  0  0  0  0  0  0
   -4.4532   -2.3349    0.2070 H   0  0  0  0  0  0  0  0  0  0  0  0
   -7.4038   -3.0400    0.6480 H   0  0  0  0  0  0  0  0  0  0  0  0
   -6.8989   -2.3603   -0.8991 H   0  0  0  0  0  0  0  0  0  0  0  0
    5.5561    1.7649    2.5617 H   0  0  0  0  0  0  0  0  0  0  0  0
    3.8037    1.9251    4.1841 H   0  0  0  0  0  0  0  0  0  0  0  0
    3.4553    0.1766    4.1434 H   0  0  0  0  0  0  0  0  0  0  0  0
    1.9901    1.4284    2.5065 H   0  0  0  0  0  0  0  0  0  0  0  0
    3.4484    2.2352    1.8639 H   0  0  0  0  0  0  0  0  0  0  0  0
    2.8745   -0.7516    1.7345 H   0  0  0  0  0  0  0  0  0  0  0  0
    5.0498    1.0735    0.7233 H   0  0  0  0  0  0  0  0  0  0  0  0
    6.5405   -0.3714    1.9849 H   0  0  0  0  0  0  0  0  0  0  0  0
    1.9431    1.4397    0.1886 H   0  0  0  0  0  0  0  0  0  0  0  0
    2.7048    0.7036   -2.0783 H   0  0  0  0  0  0  0  0  0  0  0  0
    3.8662    1.6693   -1.1551 H   0  0  0  0  0  0  0  0  0  0  0  0
    3.9741   -1.2510   -1.8960 H   0  0  0  0  0  0  0  0  0  0  0  0
    5.7997   -1.3077   -0.1878 H   0  0  0  0  0  0  0  0  0  0  0  0
    5.1992    0.3878   -3.2028 H   0  0  0  0  0  0  0  0  0  0  0  0
    8.5486   -0.6330   -0.9427 H   0  0  0  0  0  0  0  0  0  0  0  0
    9.0133   -0.5942   -2.7223 H   0  0  0  0  0  0  0  0  0  0  0  0
    7.7455    1.2787   -3.2163 H   0  0  0  0  0  0  0  0  0  0  0  0
    5.9927    2.0136   -1.8278 H   0  0  0  0  0  0  0  0  0  0  0  0
    8.2962    2.9945   -1.3886 H   0  0  0  0  0  0  0  0  0  0  0  0
    7.5144    1.1164    0.3883 H   0  0  0  0  0  0  0  0  0  0  0  0
    9.2500    0.7290    0.3898 H   0  0  0  0  0  0  0  0  0  0  0  0
    8.7448    2.3787    0.8152 H   0  0  0  0  0  0  0  0  0  0  0  0
   10.6528    2.1834   -0.8786 H   0  0  0  0  0  0  0  0  0  0  0  0
   10.2881    0.6633   -1.7390 H   0  0  0  0  0  0  0  0  0  0  0  0
   10.2699    2.2390   -2.6888 H   0  0  0  0  0  0  0  0  0  0  0  0
    7.7055    1.9759    5.0835 H   0  0  0  0  0  0  0  0  0  0  0  0
    6.4599    2.8886    4.1430 H   0  0  0  0  0  0  0  0  0  0  0  0
    7.6719    1.8877    3.3222 H   0  0  0  0  0  0  0  0  0  0  0  0
    4.3029   -1.5972    3.6167 H   0  0  0  0  0  0  0  0  0  0  0  0
    5.9986   -2.0481    3.3634 H   0  0  0  0  0  0  0  0  0  0  0  0
    4.8711   -2.3621    2.0337 H   0  0  0  0  0  0  0  0  0  0  0  0
   -7.6858    1.0771   -1.8553 H   0  0  0  0  0  0  0  0  0  0  0  0
   -5.8967    0.0076   -2.9709 H   0  0  0  0  0  0  0  0  0  0  0  0
   -9.6553    2.8392   -0.8831 H   0  0  0  0  0  0  0  0  0  0  0  0
   -8.2774    3.0708   -2.7240 H   0  0  0  0  0  0  0  0  0  0  0  0
   -5.7380    4.7345   -0.5641 H   0  0  0  0  0  0  0  0  0  0  0  0
   -8.3520    5.3062    0.5000 H   0  0  0  0  0  0  0  0  0  0  0  0
  -10.1584    4.9910    0.2864 H   0  0  0  0  0  0  0  0  0  0  0  0
  -10.0557    2.8994    1.6387 H   0  0  0  0  0  0  0  0  0  0  0  0
   -8.2838    3.1791    2.0152 H   0  0  0  0  0  0  0  0  0  0  0  0
    0.2377   -1.1852    2.3156 H   0  0  0  0  0  0  0  0  0  0  0  0
    0.1709    0.4965    1.5931 H   0  0  0  0  0  0  0  0  0  0  0  0
   -1.7677   -1.8749    1.5069 H   0  0  0  0  0  0  0  0  0  0  0  0
   -2.1857    0.4682   -0.2956 H   0  0  0  0  0  0  0  0  0  0  0  0
   -0.3169   -1.0742   -1.7694 H   0  0  0  0  0  0  0  0  0  0  0  0
   -0.1478    0.5737   -1.1601 H   0  0  0  0  0  0  0  0  0  0  0  0
    0.6655   -2.0873    0.1895 H   0  0  0  0  0  0  0  0  0  0  0  0
   -2.8702   -2.3451   -0.1169 H   0  0  0  0  0  0  0  0  0  0  0  0
   -2.0265   -2.5194   -2.6215 H   0  0  0  0  0  0  0  0  0  0  0  0
   -3.7045   -1.8212   -2.6453 H   0  0  0  0  0  0  0  0  0  0  0  0
   -2.8774    0.8215    1.6641 H   0  0  0  0  0  0  0  0  0  0  0  0
   -1.6786    1.3034    3.7264 H   0  0  0  0  0  0  0  0  0  0  0  0
   -5.9873   -2.7861   -2.3399 H   0  0  0  0  0  0  0  0  0  0  0  0
   -6.5027    0.2095   -0.5681 H   0  0  0  0  0  0  0  0  0  0  0  0
   -4.3981   -0.7558    1.7803 H   0  0  0  0  0  0  0  0  0  0  0  0
   -3.7785   -2.2412    2.5808 H   0  0  0  0  0  0  0  0  0  0  0  0
   -1.4453   -0.4933    4.6502 H   0  0  0  0  0  0  0  0  0  0  0  0
   -2.9474   -1.2436    5.1785 H   0  0  0  0  0  0  0  0  0  0  0  0
   -1.9421   -2.1617    4.0560 H   0  0  0  0  0  0  0  0  0  0  0  0
   -5.1317   -2.5277    0.6962 H   0  0  0  0  0  0  0  0  0  0  0  0
   -4.3537   -3.4370   -0.6379 H   0  0  0  0  0  0  0  0  0  0  0  0
   -7.7737   -1.0957   -0.7519 H   0  0  0  0  0  0  0  0  0  0  0  0
   -8.0683   -2.7089   -1.3540 H   0  0  0  0  0  0  0  0  0  0  0  0
   -5.8245   -0.3281    3.7689 H   0  0  0  0  0  0  0  0  0  0  0  0
   -5.1196   -1.7569    4.6127 H   0  0  0  0  0  0  0  0  0  0  0  0
   -6.0274   -3.2368    2.8260 H   0  0  0  0  0  0  0  0  0  0  0  0
   -7.1979   -2.3227    3.8016 H   0  0  0  0  0  0  0  0  0  0  0  0
   -8.0499   -1.1971    2.0903 H   0  0  0  0  0  0  0  0  0  0  0  0
   -6.4706   -0.7111    1.5037 H   0  0  0  0  0  0  0  0  0  0  0  0
   -8.4003   -2.9945    0.8293 H   0  0  0  0  0  0  0  0  0  0  0  0
   -6.7362   -3.5181    0.8290 H   0  0  0  0  0  0  0  0  0  0  0  0
    6.4348   -0.8244   -1.5295 H   0  0  0  0  0  0  0  0  0  0  0  0
    6.2347   -3.1447   -2.2039 H   0  0  0  0  0  0  0  0  0  0  0  0
    5.2409   -2.7589   -3.6078 H   0  0  0  0  0  0  0  0  0  0  0  0
    3.6478   -3.3267   -2.0610 H   0  0  0  0  0  0  0  0  0  0  0  0
    4.6264   -2.9028   -0.6652 H   0  0  0  0  0  0  0  0  0  0  0  0
    2.5785   -1.3768   -2.2399 H   0  0  0  0  0  0  0  0  0  0  0  0
    3.2862    0.7018   -2.3075 H   0  0  0  0  0  0  0  0  0  0  0  0
    5.5432    0.9521   -3.1369 H   0  0  0  0  0  0  0  0  0  0  0  0
    2.4524   -2.2040    0.0463 H   0  0  0  0  0  0  0  0  0  0  0  0
    4.5883   -1.8045    0.9811 H   0  0  0  0  0  0  0  0  0  0  0  0
    3.4673   -0.7501    1.8878 H   0  0  0  0  0  0  0  0  0  0  0  0
    5.8155    0.0210    0.7315 H   0  0  0  0  0  0  0  0  0  0  0  0
    4.6191    1.7654   -0.9644 H   0  0  0  0  0  0  0  0  0  0  0  0
    3.3929    1.7527    1.5047 H   0  0  0  0  0  0  0  0  0  0  0  0
    6.0929    2.9385    3.8522 H   0  0  0  0  0  0  0  0  0  0  0  0
    7.2675    1.5127    3.7839 H   0  0  0  0  0  0  0  0  0  0  0  0
    7.1055    1.3674    1.4367 H   0  0  0  0  0  0  0  0  0  0  0  0
    5.2201    3.0773    0.4991 H   0  0  0  0  0  0  0  0  0  0  0  0
    7.1599    4.3676    1.9729 H   0  0  0  0  0  0  0  0  0  0  0  0
    9.1191    3.8571    3.0267 H   0  0  0  0  0  0  0  0  0  0  0  0
    9.6872    3.2543    1.4692 H   0  0  0  0  0  0  0  0  0  0  0  0
    8.9768    2.0873    2.5943 H   0  0  0  0  0  0  0  0  0  0  0  0
    8.7389    3.0305   -0.1834 H   0  0  0  0  0  0  0  0  0  0  0  0
    6.9975    2.8921   -0.4567 H   0  0  0  0  0  0  0  0  0  0  0  0
    7.8184    4.5443   -0.2787 H   0  0  0  0  0  0  0  0  0  0  0  0
    8.2386    0.1877   -2.2246 H   0  0  0  0  0  0  0  0  0  0  0  0
    8.4668   -1.5131   -1.7910 H   0  0  0  0  0  0  0  0  0  0  0  0
    9.2919   -0.7851   -3.2772 H   0  0  0  0  0  0  0  0  0  0  0  0
    3.5795   -1.1757   -4.1068 H   0  0  0  0  0  0  0  0  0  0  0  0
    3.8931    0.4746   -4.6355 H   0  0  0  0  0  0  0  0  0  0  0  0
    5.0498   -0.8261   -5.0462 H   0  0  0  0  0  0  0  0  0  0  0  0
   -5.8289    0.0331   -2.9877 H   0  0  0  0  0  0  0  0  0  0  0  0
   -5.0993    1.1978    0.6926 H   0  0  0  0  0  0  0  0  0  0  0  0
   -7.5272    2.4014   -0.6096 H   0  0  0  0  0  0  0  0  0  0  0  0
   -7.5882    3.0320   -3.5600 H   0  0  0  0  0  0  0  0  0  0  0  0
   -3.8070    2.5333   -2.9796 H   0  0  0  0  0  0  0  0  0  0  0  0
   -7.7095    4.8488   -0.7263 H   0  0  0  0  0  0  0  0  0  0  0  0
   -6.3186    4.9412   -2.0103 H   0  0  0  0  0  0  0  0  0  0  0  0
   -6.0880    3.8147    0.9056 H   0  0  0  0  0  0  0  0  0  0  0  0
   -4.7270    3.9141   -0.3692 H   0  0  0  0  0  0  0  0  0  0  0  0
  1  2  1  0
  2  3  1  0
  3  4  1  0
  1  5  1  0
  4  5  1  0
  3  6  1  0
  6  7  1  0
  6  8  1  0
  2  9  1  0
  9 10  1  0
  9 13  1  0
 13 14  1  0
 13 15  1  0
  8 16  1  0
 11 16  1  0
 16 12  1  1
 11 17  1  0
 16 17  1  0
 11 18  1  0
 14 19  1  0
 19 20  1  0
 20 21  1  0
 18 22  1  0
 21 22  1  0
  5 23  1  0
 24 25  1  0
 25 26  1  0
 26 27  1  0
 27 28  1  0
 24 29  1  0
 28 29  1  0
 23 30  1  0
 27 30  1  0
 30 31  1  0
 31 32  1  0
 28 33  1  0
 32 33  1  0
 32 34  1  0
 34 35  1  0
 35 36  1  0
 36 37  1  0
 34 38  1  0
 37 38  1  0
 37 39  1  0
 39 40  1  0
 39 41  1  0
 24 42  1  0
 42 43  1  0
 29 44  1  0
 12 45  1  0
 12 46  1  0
 45 47  1  0
 47 48  1  0
 47 49  1  0
 47 50  1  0
 48 51  1  0
 48 52  1  0
 51 52  1  0
 53 54  1  0
 54 55  1  0
 55 56  1  0
 53 57  1  0
 56 57  1  0
 55 58  1  0
 58 59  1  0
 58 60  1  0
 54 61  1  0
 61 62  1  0
 61 65  1  0
 65 66  1  0
 65 67  1  0
 68 60  1  6
 63 68  1  0
 64 68  1  0
 63 69  1  0
 68 69  1  0
 63 70  1  0
 66 71  1  0
 71 72  1  0
 72 73  1  0
 70 74  1  0
 73 74  1  0
 57 75  1  0
 76 77  1  0
 77 78  1  0
 78 79  1  0
 79 80  1  0
 76 81  1  0
 80 81  1  0
 75 82  1  0
 79 82  1  0
 82 83  1  0
 83 84  1  0
 80 85  1  0
 84 85  1  0
 84 86  1  0
 86 87  1  0
 87 88  1  0
 88 89  1  0
 86 90  1  0
 89 90  1  0
 89 91  1  0
 91 92  1  0
 91 93  1  0
 76 94  1  0
 94 95  1  0
 81 96  1  0
 64 97  1  0
 64 98  1  0
 97 99  1  0
 99100  1  0
 99101  1  0
 99102  1  0
100103  1  0
100104  1  0
103104  1  0
105106  1  0
106107  1  0
107108  1  0
105109  1  0
108109  1  0
107110  1  0
110111  1  0
110112  1  0
106113  1  0
113114  1  0
113117  1  0
117118  1  0
117119  1  0
120112  1  6
115120  1  0
116120  1  0
115121  1  0
120121  1  0
115122  1  0
118123  1  0
123124  1  0
124125  1  0
122126  1  0
125126  1  0
109127  1  0
128129  1  0
129130  1  0
130131  1  0
131132  1  0
128133  1  0
132133  1  0
127134  1  0
131134  1  0
134135  1  0
135136  1  0
132137  1  0
136137  1  0
136138  1  0
138139  1  0
139140  1  0
140141  1  0
138142  1  0
141142  1  0
141143  1  0
143144  1  0
143145  1  0
128146  1  0
146147  1  0
133148  1  0
116149  1  0
116150  1  0
149151  1  0
151152  1  0
151153  1  0
151154  1  0
152155  1  0
152156  1  0
155156  1  0
157158  1  0
158159  1  0
159160  1  0
157161  1  0
160161  1  0
159162  1  0
162163  1  0
162164  1  0
158165  1  0
165166  1  0
165169  1  0
169170  1  0
169171  1  0
164172  1  0
167172  1  0
172168  1  1
167173  1  0
172173  1  0
167174  1  0
170175  1  0
175176  1  0
176177  1  0
174178  1  0
177178  1  0
161179  1  0
180181  1  0
181182  1  0
182183  1  0
183184  1  0
180185  1  0
184185  1  0
179186  1  0
183186  1  0
186187  1  0
187188  1  0
184189  1  0
188189  1  0
188190  1  0
190191  1  0
191192  1  0
192193  1  0
190194  1  0
193194  1  0
193195  1  0
195196  1  0
195197  1  0
180198  1  0
198199  1  0
185200  1  0
168201  1  0
168202  1  0
201203  1  0
203204  1  0
203205  1  0
203206  1  0
204207  1  0
204208  1  0
207208  1  0
  1209  1  0
  1210  1  0
  2211  1  6
  3212  1  1
  4213  1  0
  4214  1  0
  5215  1  6
  6216  1  1
  7217  1  0
  8218  1  0
  9219  1  0
 10220  1  0
 11221  1  6
 12222  1  0
 14223  1  0
 14224  1  0
 15225  1  0
 15226  1  0
 15227  1  0
 17228  1  0
 17229  1  0
 18230  1  0
 18231  1  0
 19232  1  0
 19233  1  0
 20234  1  0
 20235  1  0
 21236  1  0
 21237  1  0
 22238  1  0
 22239  1  0
 24240  1  0
 25241  1  0
 25242  1  0
 26243  1  0
 26244  1  0
 27245  1  0
 28246  1  0
 29247  1  0
 30248  1  0
 31249  1  0
 31250  1  0
 32251  1  1
 33252  1  0
 34253  1  6
 36254  1  0
 36255  1  0
 37256  1  6
 38257  1  0
 39258  1  0
 40259  1  0
 40260  1  0
 40261  1  0
 41262  1  0
 41263  1  0
 41264  1  0
 43265  1  0
 43266  1  0
 43267  1  0
 44268  1  0
 44269  1  0
 44270  1  0
 45271  1  0
 46272  1  0
 48273  1  0
 49274  1  0
 50275  1  0
 51276  1  0
 51277  1  0
 52278  1  0
 52279  1  0
 53280  1  0
 53281  1  0
 54282  1  6
 55283  1  1
 56284  1  0
 56285  1  0
 57286  1  1
 58287  1  0
 59288  1  0
 60289  1  0
 61290  1  0
 62291  1  0
 63292  1  1
 64293  1  6
 66294  1  0
 66295  1  0
 67296  1  0
 67297  1  0
 67298  1  0
 69299  1  0
 69300  1  0
 70301  1  0
 70302  1  0
 71303  1  0
 71304  1  0
 72305  1  0
 72306  1  0
 73307  1  0
 73308  1  0
 74309  1  0
 74310  1  0
 76311  1  0
 77312  1  0
 77313  1  0
 78314  1  0
 78315  1  0
 79316  1  0
 80317  1  0
 81318  1  0
 82319  1  0
 83320  1  0
 83321  1  0
 84322  1  0
 85323  1  0
 86324  1  0
 88325  1  0
 88326  1  0
 89327  1  0
 90328  1  0
 91329  1  0
 92330  1  0
 92331  1  0
 92332  1  0
 93333  1  0
 93334  1  0
 93335  1  0
 95336  1  0
 95337  1  0
 95338  1  0
 96339  1  0
 96340  1  0
 96341  1  0
 97342  1  0
 98343  1  0
100344  1  0
101345  1  0
102346  1  0
103347  1  0
103348  1  0
104349  1  0
104350  1  0
105351  1  0
105352  1  0
106353  1  6
107354  1  1
108355  1  0
108356  1  0
109357  1  1
110358  1  0
111359  1  0
112360  1  0
113361  1  0
114362  1  0
115363  1  1
116364  1  6
118365  1  0
118366  1  0
119367  1  0
119368  1  0
119369  1  0
121370  1  0
121371  1  0
122372  1  0
122373  1  0
123374  1  0
123375  1  0
124376  1  0
124377  1  0
125378  1  0
125379  1  0
126380  1  0
126381  1  0
128382  1  0
129383  1  0
129384  1  0
130385  1  0
130386  1  0
131387  1  0
132388  1  0
133389  1  0
134390  1  0
135391  1  0
135392  1  0
136393  1  0
137394  1  0
138395  1  0
140396  1  0
140397  1  0
141398  1  6
142399  1  0
143400  1  0
144401  1  0
144402  1  0
144403  1  0
145404  1  0
145405  1  0
145406  1  0
147407  1  0
147408  1  0
147409  1  0
148410  1  0
148411  1  0
148412  1  0
149413  1  0
150414  1  0
152415  1  0
153416  1  0
154417  1  0
155418  1  0
155419  1  0
156420  1  0
156421  1  0
157422  1  0
157423  1  0
158424  1  1
159425  1  1
160426  1  0
160427  1  0
161428  1  1
162429  1  0
163430  1  0
164431  1  0
165432  1  0
166433  1  0
167434  1  6
168435  1  0
170436  1  0
170437  1  0
171438  1  0
171439  1  0
171440  1  0
173441  1  0
173442  1  0
174443  1  0
174444  1  0
175445  1  0
175446  1  0
176447  1  0
176448  1  0
177449  1  0
177450  1  0
178451  1  0
178452  1  0
180453  1  0
181454  1  0
181455  1  0
182456  1  0
182457  1  0
183458  1  0
184459  1  0
185460  1  0
186461  1  0
187462  1  0
187463  1  0
188464  1  1
189465  1  0
190466  1  1
192467  1  0
192468  1  0
193469  1  0
194470  1  0
195471  1  0
196472  1  0
196473  1  0
196474  1  0
197475  1  0
197476  1  0
197477  1  0
199478  1  0
199479  1  0
199480  1  0
200481  1  0
200482  1  0
200483  1  0
201484  1  0
202485  1  0
204486  1  0
205487  1  0
206488  1  0
207489  1  0
207490  1  0
208491  1  0
208492  1  0
M  END
>  <PDBID>  (1) 
3KEE

>  <PDB ID>  (1) 
3KEE

>  <Generic Name>  (1) 
Simeprevir

>  <Brand Name>  (1) 
Galexos#Olysio

>  <DrugBank ID>  (1) 
DB06290

>  <ATC Codes>  (1) 
J05AE14

>  <Ligand ID>  (1) 
30B

>  <Target Name>  (1) 
NS3 protease

>  <UniProt ID>  (1) 
Q91RS4

>  <PDB ID.1>  (1) 
3KEE

>  <Seq. Identity>  (1) 
82%

$$$$
