PDB_DB00775_02
     RDKit          3D

 76 77  0  0  0  0  0  0  0  0999 V2000
    8.3495   -0.8749   -3.1179 C   0  0  0  0  0  0  0  0  0  0  0  0
    7.7561   -1.0072   -1.7009 C   0  0  0  0  0  0  0  0  0  0  0  0
    6.2632   -1.1121   -1.7730 C   0  0  0  0  0  0  0  0  0  0  0  0
    5.5629   -1.2699   -0.4574 C   0  0  0  0  0  0  0  0  0  0  0  0
    5.7651   -0.0784    0.6174 S   0  0  0  0  0  0  0  0  0  0  0  0
    7.3576    0.0928    1.0143 O   0  0  0  0  0  0  0  0  0  0  0  0
    5.9562    1.3396   -0.8202 O   0  0  0  0  0  0  0  0  0  0  0  0
    4.7357    0.6288    1.3888 N   0  0  0  0  0  0  0  0  0  0  0  0
    3.7383    0.1222    2.2715 C   0  0  1  0  0  0  0  0  0  0  0  0
    2.7616   -0.8307    1.6135 C   0  0  0  0  0  0  0  0  0  0  0  0
    2.0603   -0.0863    0.4996 C   0  0  0  0  0  0  0  0  0  0  0  0
    1.0665   -0.9577   -0.2252 C   0  0  0  0  0  0  0  0  0  0  0  0
   -0.3392   -0.7698    0.2889 C   0  0  0  0  0  0  0  0  0  0  0  0
   -0.8209    0.6559    0.1848 C   0  0  0  0  0  0  0  0  0  0  0  0
   -1.7114    0.7719   -0.8736 O   0  0  0  0  0  0  0  0  0  0  0  0
    0.2838    1.6504    0.1494 C   0  0  0  0  0  0  0  0  0  0  0  0
    1.4074    1.1710    1.0410 C   0  0  0  0  0  0  0  0  0  0  0  0
    4.3883   -0.5242    3.4868 C   0  0  0  0  0  0  0  0  0  0  0  0
    5.2093   -1.5713    3.1501 O   0  0  0  0  0  0  0  0  0  0  0  0
    5.0670    0.4886    4.1702 O   0  0  0  0  0  0  0  0  0  0  0  0
   -3.0091    1.0358   -0.4622 C   0  0  0  0  0  0  0  0  0  0  0  0
   -3.9625    1.1459   -1.6169 C   0  0  0  0  0  0  0  0  0  0  0  0
   -5.3590    1.4391   -1.1795 C   0  0  0  0  0  0  0  0  0  0  0  0
   -5.8916    0.3692   -0.2756 C   0  0  0  0  0  0  0  0  0  0  0  0
   -7.2958    0.6363    0.1795 C   0  0  0  0  0  0  0  0  0  0  0  0
   -7.8088   -0.4565    1.0956 C   0  0  0  0  0  0  0  0  0  0  0  0
   -7.6804   -1.7661    0.3831 C   0  0  0  0  0  0  0  0  0  0  0  0
   -7.8707   -1.6723   -1.0300 N   0  0  0  0  0  0  0  0  0  0  0  0
   -8.6590   -0.5730   -1.4807 C   0  0  0  0  0  0  0  0  0  0  0  0
   -8.2809    0.7639   -0.9527 C   0  0  0  0  0  0  0  0  0  0  0  0
    7.6078   -1.3663   -3.7972 H   0  0  0  0  0  0  0  0  0  0  0  0
    9.3086   -1.3919   -3.1388 H   0  0  0  0  0  0  0  0  0  0  0  0
    8.4831    0.1852   -3.3940 H   0  0  0  0  0  0  0  0  0  0  0  0
    8.1617   -1.9250   -1.2732 H   0  0  0  0  0  0  0  0  0  0  0  0
    8.0614   -0.1131   -1.1207 H   0  0  0  0  0  0  0  0  0  0  0  0
    5.9319   -1.8700   -2.5214 H   0  0  0  0  0  0  0  0  0  0  0  0
    5.9171   -0.1262   -2.2104 H   0  0  0  0  0  0  0  0  0  0  0  0
    4.4726   -1.4309   -0.7406 H   0  0  0  0  0  0  0  0  0  0  0  0
    5.8641   -2.2728   -0.0699 H   0  0  0  0  0  0  0  0  0  0  0  0
    7.4962    0.9557    1.4502 H   0  0  0  0  0  0  0  0  0  0  0  0
    5.0153    1.2700   -1.0410 H   0  0  0  0  0  0  0  0  0  0  0  0
    4.7752    1.6848    1.5285 H   0  0  0  0  0  0  0  0  0  0  0  0
    3.0974    0.9511    2.6987 H   0  0  0  0  0  0  0  0  0  0  0  0
    3.2040   -1.7554    1.2584 H   0  0  0  0  0  0  0  0  0  0  0  0
    1.9592   -1.0155    2.3892 H   0  0  0  0  0  0  0  0  0  0  0  0
    2.8290    0.2284   -0.2286 H   0  0  0  0  0  0  0  0  0  0  0  0
    1.3388   -2.0160   -0.0402 H   0  0  0  0  0  0  0  0  0  0  0  0
    1.1368   -0.7684   -1.3032 H   0  0  0  0  0  0  0  0  0  0  0  0
   -1.0046   -1.4092   -0.3186 H   0  0  0  0  0  0  0  0  0  0  0  0
   -0.3816   -1.1549    1.3267 H   0  0  0  0  0  0  0  0  0  0  0  0
   -1.4165    0.8297    1.1138 H   0  0  0  0  0  0  0  0  0  0  0  0
   -0.0735    2.6101    0.5995 H   0  0  0  0  0  0  0  0  0  0  0  0
    0.7153    1.8069   -0.8603 H   0  0  0  0  0  0  0  0  0  0  0  0
    0.9801    0.9723    2.0324 H   0  0  0  0  0  0  0  0  0  0  0  0
    2.1579    1.9864    1.1661 H   0  0  0  0  0  0  0  0  0  0  0  0
    3.5600   -0.8398    4.1578 H   0  0  0  0  0  0  0  0  0  0  0  0
    4.7788   -2.1659    2.5139 H   0  0  0  0  0  0  0  0  0  0  0  0
    5.5616    1.0345    3.5096 H   0  0  0  0  0  0  0  0  0  0  0  0
   -3.3037    0.1290    0.1458 H   0  0  0  0  0  0  0  0  0  0  0  0
   -3.1196    1.8977    0.1888 H   0  0  0  0  0  0  0  0  0  0  0  0
   -3.9440    0.2434   -2.2663 H   0  0  0  0  0  0  0  0  0  0  0  0
   -3.6142    2.0148   -2.2460 H   0  0  0  0  0  0  0  0  0  0  0  0
   -5.4248    2.4509   -0.7273 H   0  0  0  0  0  0  0  0  0  0  0  0
   -6.0005    1.4557   -2.1056 H   0  0  0  0  0  0  0  0  0  0  0  0
   -5.8049   -0.5883   -0.7961 H   0  0  0  0  0  0  0  0  0  0  0  0
   -5.2506    0.3933    0.6479 H   0  0  0  0  0  0  0  0  0  0  0  0
   -7.3106    1.6017    0.7476 H   0  0  0  0  0  0  0  0  0  0  0  0
   -8.8832   -0.2088    1.3116 H   0  0  0  0  0  0  0  0  0  0  0  0
   -7.2393   -0.4338    2.0590 H   0  0  0  0  0  0  0  0  0  0  0  0
   -8.3215   -2.5610    0.8198 H   0  0  0  0  0  0  0  0  0  0  0  0
   -6.6226   -2.1197    0.5475 H   0  0  0  0  0  0  0  0  0  0  0  0
   -8.2892   -2.5494   -1.3701 H   0  0  0  0  0  0  0  0  0  0  0  0
   -9.7591   -0.7611   -1.3862 H   0  0  0  0  0  0  0  0  0  0  0  0
   -8.5072   -0.5235   -2.6031 H   0  0  0  0  0  0  0  0  0  0  0  0
   -9.2078    1.2178   -0.4848 H   0  0  0  0  0  0  0  0  0  0  0  0
   -7.9750    1.4869   -1.7380 H   0  0  0  0  0  0  0  0  0  0  0  0
  1  2  1  0
  2  3  1  0
  3  4  1  0
  4  5  1  0
  5  6  1  0
  5  7  1  0
  5  8  1  0
  8  9  1  0
  9 10  1  0
 10 11  1  0
 11 12  1  0
 12 13  1  0
 13 14  1  0
 14 15  1  0
 14 16  1  0
 11 17  1  0
 16 17  1  0
  9 18  1  0
 18 19  1  0
 18 20  1  0
 15 21  1  0
 21 22  1  0
 22 23  1  0
 23 24  1  0
 24 25  1  0
 25 26  1  0
 26 27  1  0
 27 28  1  0
 28 29  1  0
 25 30  1  0
 29 30  1  0
  1 31  1  0
  1 32  1  0
  1 33  1  0
  2 34  1  0
  2 35  1  0
  3 36  1  0
  3 37  1  0
  4 38  1  0
  4 39  1  0
  6 40  1  0
  7 41  1  0
  8 42  1  0
  9 43  1  1
 10 44  1  0
 10 45  1  0
 11 46  1  0
 12 47  1  0
 12 48  1  0
 13 49  1  0
 13 50  1  0
 14 51  1  0
 16 52  1  0
 16 53  1  0
 17 54  1  0
 17 55  1  0
 18 56  1  0
 19 57  1  0
 20 58  1  0
 21 59  1  0
 21 60  1  0
 22 61  1  0
 22 62  1  0
 23 63  1  0
 23 64  1  0
 24 65  1  0
 24 66  1  0
 25 67  1  0
 26 68  1  0
 26 69  1  0
 27 70  1  0
 27 71  1  0
 28 72  1  0
 29 73  1  0
 29 74  1  0
 30 75  1  0
 30 76  1  0
M  END
>  <PDBID>  (1) 
2VDM

>  <PDB ID>  (1) 
2VDM

>  <Generic Name>  (1) 
Tirofiban

>  <Brand Name>  (1) 
Aggrastat#Aggribloc#Agrastat

>  <DrugBank ID>  (1) 
DB00775

>  <ATC Codes>  (1) 
B01AC17

>  <Ligand ID>  (1) 
AGG

>  <Target Name>  (1) 
Integrin alpha-IIb

>  <UniProt ID>  (1) 
P08514

>  <PDB ID.1>  (1) 
2VDM

>  <Seq. Identity>  (1) 
100%

$$$$
