PDB_DB04743_06
     RDKit          3D

 96 98  0  0  0  0  0  0  0  0999 V2000
   -2.1746    3.9297   -1.1967 O   0  0  0  0  0  0  0  0  0  0  0  0
   -1.2916    3.9569   -0.1909 N   0  0  0  0  0  0  0  0  0  0  0  0
   -1.6312    4.7964    0.8077 O   0  0  0  0  0  0  0  0  0  0  0  0
   -0.9569    2.6245    0.3006 C   0  0  0  0  0  0  0  0  0  0  0  0
   -2.1788    1.9025    0.8139 C   0  0  0  0  0  0  0  0  0  0  0  0
   -1.7235    0.5511    1.3175 C   0  0  0  0  0  0  0  0  0  0  0  0
   -1.0974   -0.2729    0.2371 C   0  0  0  0  0  0  0  0  0  0  0  0
   -2.1115   -0.8125   -0.6384 N   0  0  0  0  0  0  0  0  0  0  0  0
   -3.2245   -1.7315   -0.1714 S   0  0  0  0  0  0  0  0  0  0  0  0
   -2.9728   -2.3131    1.3637 O   0  0  0  0  0  0  0  0  0  0  0  0
   -4.7161   -1.0045   -0.1092 O   0  0  0  0  0  0  0  0  0  0  0  0
   -3.3585   -3.1449   -1.1705 C   0  0  0  0  0  0  0  0  0  0  0  0
   -0.3271    1.8721   -0.8212 C   0  0  0  0  0  0  0  0  0  0  0  0
   -0.0382    0.4418   -0.5398 C   0  0  0  0  0  0  0  0  0  0  0  0
    1.1759    0.2263    0.0929 O   0  0  0  0  0  0  0  0  0  0  0  0
    2.0591   -0.5311   -0.6635 C   0  0  0  0  0  0  0  0  0  0  0  0
    3.2582    0.3511   -0.9453 C   0  0  0  0  0  0  0  0  0  0  0  0
    4.0919    0.5083    0.2902 C   0  0  0  0  0  0  0  0  0  0  0  0
    4.5553   -0.7931    0.8704 C   0  0  0  0  0  0  0  0  0  0  0  0
    3.9299   -1.9821    0.1523 C   0  0  0  0  0  0  0  0  0  0  0  0
    2.4327   -1.7957    0.0656 C   0  0  0  0  0  0  0  0  0  0  0  0
   -2.1746    3.9297   -1.1967 O   0  0  0  0  0  0  0  0  0  0  0  0
   -1.2916    3.9569   -0.1909 N   0  0  0  0  0  0  0  0  0  0  0  0
   -1.6312    4.7964    0.8077 O   0  0  0  0  0  0  0  0  0  0  0  0
   -0.9569    2.6245    0.3006 C   0  0  0  0  0  0  0  0  0  0  0  0
   -2.1788    1.9025    0.8139 C   0  0  0  0  0  0  0  0  0  0  0  0
   -1.7235    0.5511    1.3175 C   0  0  0  0  0  0  0  0  0  0  0  0
   -1.0974   -0.2729    0.2371 C   0  0  0  0  0  0  0  0  0  0  0  0
   -2.1115   -0.8125   -0.6384 N   0  0  0  0  0  0  0  0  0  0  0  0
   -3.2245   -1.7315   -0.1714 S   0  0  0  0  0  0  0  0  0  0  0  0
   -2.9728   -2.3131    1.3637 O   0  0  0  0  0  0  0  0  0  0  0  0
   -4.7161   -1.0045   -0.1092 O   0  0  0  0  0  0  0  0  0  0  0  0
   -3.3585   -3.1449   -1.1705 C   0  0  0  0  0  0  0  0  0  0  0  0
   -0.3271    1.8721   -0.8212 C   0  0  0  0  0  0  0  0  0  0  0  0
   -0.0382    0.4418   -0.5398 C   0  0  0  0  0  0  0  0  0  0  0  0
    1.1759    0.2263    0.0929 O   0  0  0  0  0  0  0  0  0  0  0  0
    2.0591   -0.5311   -0.6635 C   0  0  0  0  0  0  0  0  0  0  0  0
    3.2582    0.3511   -0.9453 C   0  0  0  0  0  0  0  0  0  0  0  0
    4.0919    0.5083    0.2902 C   0  0  0  0  0  0  0  0  0  0  0  0
    4.5553   -0.7931    0.8704 C   0  0  0  0  0  0  0  0  0  0  0  0
    3.9299   -1.9821    0.1523 C   0  0  0  0  0  0  0  0  0  0  0  0
    2.4327   -1.7957    0.0656 C   0  0  0  0  0  0  0  0  0  0  0  0
   -1.0579    5.6110    0.7006 H   0  0  0  0  0  0  0  0  0  0  0  0
   -0.2623    2.7668    1.1515 H   0  0  0  0  0  0  0  0  0  0  0  0
   -2.9505    1.7866    0.0264 H   0  0  0  0  0  0  0  0  0  0  0  0
   -2.5888    2.4524    1.6793 H   0  0  0  0  0  0  0  0  0  0  0  0
   -0.9946    0.7436    2.1463 H   0  0  0  0  0  0  0  0  0  0  0  0
   -2.5869   -0.0350    1.7194 H   0  0  0  0  0  0  0  0  0  0  0  0
   -0.6237   -1.1641    0.7438 H   0  0  0  0  0  0  0  0  0  0  0  0
   -2.2483   -0.1398   -1.4076 H   0  0  0  0  0  0  0  0  0  0  0  0
   -3.8033   -2.2586    1.9009 H   0  0  0  0  0  0  0  0  0  0  0  0
   -5.3835   -1.7141    0.1302 H   0  0  0  0  0  0  0  0  0  0  0  0
   -4.4189   -3.4426   -1.2119 H   0  0  0  0  0  0  0  0  0  0  0  0
   -2.7193   -3.9460   -0.7373 H   0  0  0  0  0  0  0  0  0  0  0  0
   -3.0470   -2.9418   -2.2273 H   0  0  0  0  0  0  0  0  0  0  0  0
   -0.9722    1.9575   -1.7183 H   0  0  0  0  0  0  0  0  0  0  0  0
    0.6395    2.3861   -1.0660 H   0  0  0  0  0  0  0  0  0  0  0  0
    0.0393   -0.0841   -1.5369 H   0  0  0  0  0  0  0  0  0  0  0  0
    1.6364   -0.8305   -1.6421 H   0  0  0  0  0  0  0  0  0  0  0  0
    2.8513    1.3556   -1.2002 H   0  0  0  0  0  0  0  0  0  0  0  0
    3.8381   -0.0022   -1.8201 H   0  0  0  0  0  0  0  0  0  0  0  0
    4.9778    1.1210    0.0512 H   0  0  0  0  0  0  0  0  0  0  0  0
    3.4721    1.0171    1.0562 H   0  0  0  0  0  0  0  0  0  0  0  0
    5.6530   -0.9214    0.8406 H   0  0  0  0  0  0  0  0  0  0  0  0
    4.2671   -0.9109    1.9471 H   0  0  0  0  0  0  0  0  0  0  0  0
    4.1202   -2.8641    0.7824 H   0  0  0  0  0  0  0  0  0  0  0  0
    4.4001   -2.1714   -0.8251 H   0  0  0  0  0  0  0  0  0  0  0  0
    2.0296   -1.8391    1.0983 H   0  0  0  0  0  0  0  0  0  0  0  0
    2.0325   -2.7115   -0.4463 H   0  0  0  0  0  0  0  0  0  0  0  0
   -1.0579    5.6110    0.7006 H   0  0  0  0  0  0  0  0  0  0  0  0
   -0.2623    2.7668    1.1515 H   0  0  0  0  0  0  0  0  0  0  0  0
   -2.9505    1.7866    0.0264 H   0  0  0  0  0  0  0  0  0  0  0  0
   -2.5888    2.4524    1.6793 H   0  0  0  0  0  0  0  0  0  0  0  0
   -0.9946    0.7436    2.1463 H   0  0  0  0  0  0  0  0  0  0  0  0
   -2.5869   -0.0350    1.7194 H   0  0  0  0  0  0  0  0  0  0  0  0
   -0.6237   -1.1641    0.7438 H   0  0  0  0  0  0  0  0  0  0  0  0
   -2.2483   -0.1398   -1.4076 H   0  0  0  0  0  0  0  0  0  0  0  0
   -3.8033   -2.2586    1.9009 H   0  0  0  0  0  0  0  0  0  0  0  0
   -5.3835   -1.7141    0.1302 H   0  0  0  0  0  0  0  0  0  0  0  0
   -4.4189   -3.4426   -1.2119 H   0  0  0  0  0  0  0  0  0  0  0  0
   -2.7193   -3.9460   -0.7373 H   0  0  0  0  0  0  0  0  0  0  0  0
   -3.0470   -2.9418   -2.2273 H   0  0  0  0  0  0  0  0  0  0  0  0
   -0.9722    1.9575   -1.7183 H   0  0  0  0  0  0  0  0  0  0  0  0
    0.6395    2.3861   -1.0660 H   0  0  0  0  0  0  0  0  0  0  0  0
    0.0393   -0.0841   -1.5369 H   0  0  0  0  0  0  0  0  0  0  0  0
    1.6364   -0.8305   -1.6421 H   0  0  0  0  0  0  0  0  0  0  0  0
    2.8513    1.3556   -1.2002 H   0  0  0  0  0  0  0  0  0  0  0  0
    3.8381   -0.0022   -1.8201 H   0  0  0  0  0  0  0  0  0  0  0  0
    4.9778    1.1210    0.0512 H   0  0  0  0  0  0  0  0  0  0  0  0
    3.4721    1.0171    1.0562 H   0  0  0  0  0  0  0  0  0  0  0  0
    5.6530   -0.9214    0.8406 H   0  0  0  0  0  0  0  0  0  0  0  0
    4.2671   -0.9109    1.9471 H   0  0  0  0  0  0  0  0  0  0  0  0
    4.1202   -2.8641    0.7824 H   0  0  0  0  0  0  0  0  0  0  0  0
    4.4001   -2.1714   -0.8251 H   0  0  0  0  0  0  0  0  0  0  0  0
    2.0296   -1.8391    1.0983 H   0  0  0  0  0  0  0  0  0  0  0  0
    2.0325   -2.7115   -0.4463 H   0  0  0  0  0  0  0  0  0  0  0  0
  1  2  1  0
  2  3  1  0
  2  4  1  0
  4  5  1  0
  5  6  1  0
  6  7  1  0
  7  8  1  0
  8  9  1  0
  9 10  1  0
  9 11  1  0
  9 12  1  0
  4 13  1  0
  7 14  1  0
 13 14  1  0
 14 15  1  0
 15 16  1  0
 16 17  1  0
 17 18  1  0
 18 19  1  0
 19 20  1  0
 16 21  1  0
 20 21  1  0
 22 23  1  0
 23 24  1  0
 23 25  1  0
 25 26  1  0
 26 27  1  0
 27 28  1  0
 28 29  1  0
 29 30  1  0
 30 31  1  0
 30 32  1  0
 30 33  1  0
 25 34  1  0
 28 35  1  0
 34 35  1  0
 35 36  1  0
 36 37  1  0
 37 38  1  0
 38 39  1  0
 39 40  1  0
 40 41  1  0
 37 42  1  0
 41 42  1  0
  3 43  1  0
  4 44  1  0
  5 45  1  0
  5 46  1  0
  6 47  1  0
  6 48  1  0
  7 49  1  0
  8 50  1  0
 10 51  1  0
 11 52  1  0
 12 53  1  0
 12 54  1  0
 12 55  1  0
 13 56  1  0
 13 57  1  0
 14 58  1  0
 16 59  1  0
 17 60  1  0
 17 61  1  0
 18 62  1  0
 18 63  1  0
 19 64  1  0
 19 65  1  0
 20 66  1  0
 20 67  1  0
 21 68  1  0
 21 69  1  0
 24 70  1  0
 25 71  1  0
 26 72  1  0
 26 73  1  0
 27 74  1  0
 27 75  1  0
 28 76  1  0
 29 77  1  0
 31 78  1  0
 32 79  1  0
 33 80  1  0
 33 81  1  0
 33 82  1  0
 34 83  1  0
 34 84  1  0
 35 85  1  0
 37 86  1  0
 38 87  1  0
 38 88  1  0
 39 89  1  0
 39 90  1  0
 40 91  1  0
 40 92  1  0
 41 93  1  0
 41 94  1  0
 42 95  1  0
 42 96  1  0
M  CHG  2   1  -1  22  -1
M  END
>  <PDBID>  (1) 
3N8X

>  <PDB ID>  (1) 
3N8X

>  <Generic Name>  (1) 
Nimesulide

>  <Brand Name>  (1) 
Ainex#Aulin#Coxtal#Eskaflam#Mesulid#Nilsid#Nimalox#Nimside#Nise#Octaprin#Sintalgin#Sulide

>  <DrugBank ID>  (1) 
DB04743

>  <ATC Codes>  (1) 
M02AA26#M01AX17

>  <Ligand ID>  (1) 
NIM

>  <Target Name>  (1) 
Prostaglandin G/H synthase 2

>  <UniProt ID>  (1) 
P35354

>  <PDB ID.1>  (1) 
3N8X

>  <Seq. Identity>  (1) 
61%

$$$$
