PDB_DB00932_04
     RDKit          3D

 99102  0  0  0  0  0  0  0  0999 V2000
   -2.8806    0.5222    0.1913 O   0  0  0  0  0  0  0  0  0  0  0  0
   -1.8462    0.6095    1.0899 C   0  0  0  0  0  0  0  0  0  0  0  0
   -0.8311   -0.4794    1.0494 C   0  0  0  0  0  0  0  0  0  0  0  0
   -1.5750   -1.6862    0.5017 C   0  0  0  0  0  0  0  0  0  0  0  0
   -2.9514   -1.6238    1.1243 C   0  0  0  0  0  0  0  0  0  0  0  0
   -3.7969   -0.4741    0.5103 C   0  0  2  0  0  0  0  0  0  0  0  0
   -1.2509    1.8388    1.0164 O   0  0  0  0  0  0  0  0  0  0  0  0
   -1.7084   -1.7286   -0.8517 O   0  0  0  0  0  0  0  0  0  0  0  0
   -4.4877   -0.9816   -0.6778 C   0  0  0  0  0  0  0  0  0  0  0  0
   -5.4798   -2.1213   -0.4162 C   0  0  0  0  0  0  0  0  0  0  0  0
   -6.1144   -2.5033   -1.7622 C   0  0  0  0  0  0  0  0  0  0  0  0
   -4.7577   -0.0399    1.5622 C   0  0  0  0  0  0  0  0  0  0  0  0
   -5.5746    1.1443    1.4469 C   0  0  0  0  0  0  0  0  0  0  0  0
   -6.5716    1.4345    0.4282 C   0  0  0  0  0  0  0  0  0  0  0  0
   -7.7387    0.5011    0.3014 C   0  0  0  0  0  0  0  0  0  0  0  0
   -9.0778    1.1999    0.2274 C   0  0  0  0  0  0  0  0  0  0  0  0
   -9.1033    2.3963   -0.6583 C   0  0  0  0  0  0  0  0  0  0  0  0
   -7.9801    3.3243   -0.2975 C   0  0  0  0  0  0  0  0  0  0  0  0
   -7.2384    2.7825    0.8791 C   0  0  0  0  0  0  0  0  0  0  0  0
    0.4929   -0.1923    0.4874 C   0  0  2  0  0  0  0  0  0  0  0  0
    0.7306    0.1578   -0.9060 C   0  0  0  0  0  0  0  0  0  0  0  0
    0.0891    1.3853   -1.4760 C   0  0  0  0  0  0  0  0  0  0  0  0
    1.6287   -1.0552    1.0630 C   0  0  0  0  0  0  0  0  0  0  0  0
    1.4792   -2.5030    0.8138 C   0  0  0  0  0  0  0  0  0  0  0  0
    2.8652   -3.1462    0.8650 C   0  0  0  0  0  0  0  0  0  0  0  0
    3.7504   -2.5906   -0.2260 C   0  0  0  0  0  0  0  0  0  0  0  0
    3.8830   -1.0923   -0.1151 C   0  0  0  0  0  0  0  0  0  0  0  0
    5.2757   -0.8585    0.3394 N   0  0  0  0  0  0  0  0  0  0  0  0
    2.9788   -0.4623    0.8802 C   0  0  0  0  0  0  0  0  0  0  0  0
    6.3659   -1.5133   -0.8336 S   0  0  0  0  0  0  0  0  0  0  0  0
    5.6003   -1.8807   -2.1270 O   0  0  0  0  0  0  0  0  0  0  0  0
    7.1198   -2.7971   -0.1135 O   0  0  0  0  0  0  0  0  0  0  0  0
    7.5639   -0.2624   -1.0979 C   0  0  1  0  0  0  0  0  0  0  0  0
    6.8876    0.9263   -1.5128 N   0  0  0  0  0  0  0  0  0  0  0  0
    7.5892    2.1467   -1.2608 C   0  0  0  0  0  0  0  0  0  0  0  0
    9.0610    1.9760   -1.0116 C   0  0  2  0  0  0  0  0  0  0  0  0
    9.3459    1.0042    0.1064 C   0  0  0  0  0  0  0  0  0  0  0  0
    8.2585   -0.0382    0.2329 C   0  0  0  0  0  0  0  0  0  0  0  0
    9.5944    3.3429   -0.5725 C   0  0  0  0  0  0  0  0  0  0  0  0
   10.9409    3.2971   -0.3171 F   0  0  0  0  0  0  0  0  0  0  0  0
    9.2901    4.3042   -1.5184 F   0  0  0  0  0  0  0  0  0  0  0  0
    8.9003    3.6816    0.5863 F   0  0  0  0  0  0  0  0  0  0  0  0
   -2.3378    0.6205    2.1374 H   0  0  0  0  0  0  0  0  0  0  0  0
   -0.6424   -0.7833    2.1298 H   0  0  0  0  0  0  0  0  0  0  0  0
   -1.1458   -2.6559    0.8472 H   0  0  0  0  0  0  0  0  0  0  0  0
   -2.7921   -1.3640    2.1997 H   0  0  0  0  0  0  0  0  0  0  0  0
   -3.4418   -2.5819    1.0879 H   0  0  0  0  0  0  0  0  0  0  0  0
   -0.7058    2.1032    1.7831 H   0  0  0  0  0  0  0  0  0  0  0  0
   -1.5923   -0.9213   -1.3594 H   0  0  0  0  0  0  0  0  0  0  0  0
   -3.8433   -1.2656   -1.5492 H   0  0  0  0  0  0  0  0  0  0  0  0
   -5.1617   -0.1955   -1.1422 H   0  0  0  0  0  0  0  0  0  0  0  0
   -6.2637   -1.8575    0.2554 H   0  0  0  0  0  0  0  0  0  0  0  0
   -4.9351   -3.0705   -0.1319 H   0  0  0  0  0  0  0  0  0  0  0  0
   -5.3324   -2.8127   -2.4917 H   0  0  0  0  0  0  0  0  0  0  0  0
   -6.7172   -3.4256   -1.5631 H   0  0  0  0  0  0  0  0  0  0  0  0
   -6.7939   -1.7449   -2.1458 H   0  0  0  0  0  0  0  0  0  0  0  0
   -4.1727    0.0477    2.5346 H   0  0  0  0  0  0  0  0  0  0  0  0
   -5.4563   -0.9111    1.8327 H   0  0  0  0  0  0  0  0  0  0  0  0
   -4.9430    2.1114    1.5985 H   0  0  0  0  0  0  0  0  0  0  0  0
   -6.1572    1.1991    2.4496 H   0  0  0  0  0  0  0  0  0  0  0  0
   -6.2299    1.7070   -0.5895 H   0  0  0  0  0  0  0  0  0  0  0  0
   -7.6408   -0.0879   -0.6537 H   0  0  0  0  0  0  0  0  0  0  0  0
   -7.7864   -0.2384    1.1289 H   0  0  0  0  0  0  0  0  0  0  0  0
   -9.7774    0.4355   -0.2260 H   0  0  0  0  0  0  0  0  0  0  0  0
   -9.4236    1.3956    1.2526 H   0  0  0  0  0  0  0  0  0  0  0  0
   -9.0872    2.1350   -1.7450 H   0  0  0  0  0  0  0  0  0  0  0  0
  -10.0568    2.9497   -0.4152 H   0  0  0  0  0  0  0  0  0  0  0  0
   -7.2715    3.3965   -1.1741 H   0  0  0  0  0  0  0  0  0  0  0  0
   -8.3322    4.3634   -0.1323 H   0  0  0  0  0  0  0  0  0  0  0  0
   -7.8343    2.5309    1.7550 H   0  0  0  0  0  0  0  0  0  0  0  0
   -6.3494    3.4220    1.1302 H   0  0  0  0  0  0  0  0  0  0  0  0
    0.7636    0.8305    1.0458 H   0  0  0  0  0  0  0  0  0  0  0  0
    0.6938   -0.7066   -1.6252 H   0  0  0  0  0  0  0  0  0  0  0  0
    1.8533    0.4213   -0.9945 H   0  0  0  0  0  0  0  0  0  0  0  0
    0.4567    2.2853   -0.9229 H   0  0  0  0  0  0  0  0  0  0  0  0
   -1.0049    1.3670   -1.5603 H   0  0  0  0  0  0  0  0  0  0  0  0
    0.4504    1.5428   -2.5486 H   0  0  0  0  0  0  0  0  0  0  0  0
    1.4311   -0.9283    2.2077 H   0  0  0  0  0  0  0  0  0  0  0  0
    0.9378   -2.9819    1.6538 H   0  0  0  0  0  0  0  0  0  0  0  0
    0.9610   -2.7648   -0.1209 H   0  0  0  0  0  0  0  0  0  0  0  0
    3.3149   -2.9295    1.8279 H   0  0  0  0  0  0  0  0  0  0  0  0
    2.7098   -4.2349    0.7596 H   0  0  0  0  0  0  0  0  0  0  0  0
    4.7359   -3.0895   -0.2609 H   0  0  0  0  0  0  0  0  0  0  0  0
    3.2468   -2.8345   -1.1833 H   0  0  0  0  0  0  0  0  0  0  0  0
    3.8646   -0.6918   -1.1331 H   0  0  0  0  0  0  0  0  0  0  0  0
    5.4499   -1.3924    1.2236 H   0  0  0  0  0  0  0  0  0  0  0  0
    2.8966    0.6350    0.6489 H   0  0  0  0  0  0  0  0  0  0  0  0
    3.5557   -0.4462    1.8738 H   0  0  0  0  0  0  0  0  0  0  0  0
    5.7880   -2.7456   -2.6098 H   0  0  0  0  0  0  0  0  0  0  0  0
    7.0794   -2.6577    0.8749 H   0  0  0  0  0  0  0  0  0  0  0  0
    8.2736   -0.6514   -1.8422 H   0  0  0  0  0  0  0  0  0  0  0  0
    5.9146    0.9056   -1.1283 H   0  0  0  0  0  0  0  0  0  0  0  0
    7.1571    2.5815   -0.3142 H   0  0  0  0  0  0  0  0  0  0  0  0
    7.4504    2.9074   -2.0434 H   0  0  0  0  0  0  0  0  0  0  0  0
    9.5670    1.7125   -1.9619 H   0  0  0  0  0  0  0  0  0  0  0  0
    9.5590    1.5357    1.0370 H   0  0  0  0  0  0  0  0  0  0  0  0
   10.2894    0.4665   -0.1799 H   0  0  0  0  0  0  0  0  0  0  0  0
    7.4818    0.4085    0.9169 H   0  0  0  0  0  0  0  0  0  0  0  0
    8.6194   -0.9910    0.6711 H   0  0  0  0  0  0  0  0  0  0  0  0
  1  2  1  0
  2  3  1  0
  3  4  1  0
  4  5  1  0
  1  6  1  0
  5  6  1  0
  2  7  1  0
  4  8  1  0
  6  9  1  6
  9 10  1  0
 10 11  1  0
  6 12  1  0
 12 13  1  0
 13 14  1  0
 14 15  1  0
 15 16  1  0
 16 17  1  0
 17 18  1  0
 14 19  1  0
 18 19  1  0
  3 20  1  0
 20 21  1  0
 21 22  1  0
 20 23  1  0
 23 24  1  0
 24 25  1  0
 25 26  1  0
 26 27  1  0
 27 28  1  0
 23 29  1  0
 27 29  1  0
 28 30  1  0
 30 31  1  0
 30 32  1  0
 30 33  1  0
 33 34  1  0
 34 35  1  0
 35 36  1  0
 36 37  1  0
 33 38  1  0
 37 38  1  0
 36 39  1  0
 39 40  1  0
 39 41  1  0
 39 42  1  0
  2 43  1  0
  3 44  1  0
  4 45  1  0
  5 46  1  0
  5 47  1  0
  7 48  1  0
  8 49  1  0
  9 50  1  0
  9 51  1  0
 10 52  1  0
 10 53  1  0
 11 54  1  0
 11 55  1  0
 11 56  1  0
 12 57  1  0
 12 58  1  0
 13 59  1  0
 13 60  1  0
 14 61  1  0
 15 62  1  0
 15 63  1  0
 16 64  1  0
 16 65  1  0
 17 66  1  0
 17 67  1  0
 18 68  1  0
 18 69  1  0
 19 70  1  0
 19 71  1  0
 20 72  1  1
 21 73  1  0
 21 74  1  0
 22 75  1  0
 22 76  1  0
 22 77  1  0
 23 78  1  0
 24 79  1  0
 24 80  1  0
 25 81  1  0
 25 82  1  0
 26 83  1  0
 26 84  1  0
 27 85  1  0
 28 86  1  0
 29 87  1  0
 29 88  1  0
 31 89  1  0
 32 90  1  0
 33 91  1  6
 34 92  1  0
 35 93  1  0
 35 94  1  0
 36 95  1  6
 37 96  1  0
 37 97  1  0
 38 98  1  0
 38 99  1  0
M  END
>  <PDBID>  (1) 
2O4P

>  <PDB ID>  (1) 
2O4P

>  <Generic Name>  (1) 
Tipranavir

>  <Brand Name>  (1) 
Aptivus

>  <DrugBank ID>  (1) 
DB00932

>  <ATC Codes>  (1) 
J05AE09

>  <Ligand ID>  (1) 
TPV

>  <Target Name>  (1) 
Pol polyprotein

>  <UniProt ID>  (1) 
Q72874

>  <PDB ID.1>  (1) 
2O4P

>  <Seq. Identity>  (1) 
98%

$$$$
