PDB_DB00841_01
     RDKit          3D

114116  0  0  0  0  0  0  0  0999 V2000
    7.8395   -1.2739   -0.0893 O   0  0  0  0  0  0  0  0  0  0  0  0
    6.6166   -0.6567   -0.1787 C   0  0  0  0  0  0  0  0  0  0  0  0
    5.8102   -0.7373    1.0968 C   0  0  0  0  0  0  0  0  0  0  0  0
    4.3345   -0.5432    0.8473 C   0  0  0  0  0  0  0  0  0  0  0  0
    5.7715   -1.2150   -1.3074 C   0  0  0  0  0  0  0  0  0  0  0  0
    4.7015   -0.1790   -1.6048 C   0  0  0  0  0  0  0  0  0  0  0  0
    4.0721    0.3310   -0.3521 C   0  0  0  0  0  0  0  0  0  0  0  0
    2.5977    0.4771   -0.5630 C   0  0  0  0  0  0  0  0  0  0  0  0
    1.8847    1.1037    0.6158 C   0  0  0  0  0  0  0  0  0  0  0  0
    0.4168    1.1887    0.2390 C   0  0  1  0  0  0  0  0  0  0  0  0
    0.3059    2.0364   -0.9836 C   0  0  0  0  0  0  0  0  0  0  0  0
   -0.0668   -0.1652    0.0758 N   0  0  0  0  0  0  0  0  0  0  0  0
   -1.4029   -0.2098   -0.4720 C   0  0  0  0  0  0  0  0  0  0  0  0
   -2.4229    0.3334    0.5158 C   0  0  0  0  0  0  0  0  0  0  0  0
   -3.8179    0.2885   -0.0728 C   0  0  0  0  0  0  0  0  0  0  0  0
   -4.8458    0.8198    0.8868 C   0  0  0  0  0  0  0  0  0  0  0  0
   -5.7301   -0.2628    1.4473 C   0  0  0  0  0  0  0  0  0  0  0  0
   -4.9530   -1.1464    2.1698 O   0  0  0  0  0  0  0  0  0  0  0  0
   -6.4902   -0.8939    0.3151 C   0  0  0  0  0  0  0  0  0  0  0  0
   -7.5472   -0.0118   -0.0056 O   0  0  0  0  0  0  0  0  0  0  0  0
   -5.6676   -1.0710   -0.9298 C   0  0  0  0  0  0  0  0  0  0  0  0
   -4.1964   -1.0848   -0.5634 C   0  0  0  0  0  0  0  0  0  0  0  0
    7.8395   -1.2739   -0.0893 O   0  0  0  0  0  0  0  0  0  0  0  0
    6.6166   -0.6567   -0.1787 C   0  0  0  0  0  0  0  0  0  0  0  0
    5.8102   -0.7373    1.0968 C   0  0  0  0  0  0  0  0  0  0  0  0
    4.3345   -0.5432    0.8473 C   0  0  0  0  0  0  0  0  0  0  0  0
    5.7715   -1.2150   -1.3074 C   0  0  0  0  0  0  0  0  0  0  0  0
    4.7015   -0.1790   -1.6048 C   0  0  0  0  0  0  0  0  0  0  0  0
    4.0721    0.3310   -0.3521 C   0  0  0  0  0  0  0  0  0  0  0  0
    2.5977    0.4771   -0.5630 C   0  0  0  0  0  0  0  0  0  0  0  0
    1.8847    1.1037    0.6158 C   0  0  0  0  0  0  0  0  0  0  0  0
    0.4168    1.1887    0.2390 C   0  0  1  0  0  0  0  0  0  0  0  0
    0.3059    2.0364   -0.9836 C   0  0  0  0  0  0  0  0  0  0  0  0
   -0.0668   -0.1652    0.0758 N   0  0  0  0  0  0  0  0  0  0  0  0
   -1.4029   -0.2098   -0.4720 C   0  0  0  0  0  0  0  0  0  0  0  0
   -2.4229    0.3334    0.5158 C   0  0  0  0  0  0  0  0  0  0  0  0
   -3.8179    0.2885   -0.0728 C   0  0  0  0  0  0  0  0  0  0  0  0
   -4.8458    0.8198    0.8868 C   0  0  0  0  0  0  0  0  0  0  0  0
   -5.7301   -0.2628    1.4473 C   0  0  0  0  0  0  0  0  0  0  0  0
   -4.9530   -1.1464    2.1698 O   0  0  0  0  0  0  0  0  0  0  0  0
   -6.4902   -0.8939    0.3151 C   0  0  0  0  0  0  0  0  0  0  0  0
   -7.5472   -0.0118   -0.0056 O   0  0  0  0  0  0  0  0  0  0  0  0
   -5.6676   -1.0710   -0.9298 C   0  0  0  0  0  0  0  0  0  0  0  0
   -4.1964   -1.0848   -0.5634 C   0  0  0  0  0  0  0  0  0  0  0  0
    8.4870   -0.6130    0.2681 H   0  0  0  0  0  0  0  0  0  0  0  0
    6.7715    0.4306   -0.4448 H   0  0  0  0  0  0  0  0  0  0  0  0
    5.9499   -1.7492    1.5267 H   0  0  0  0  0  0  0  0  0  0  0  0
    6.1960   -0.0020    1.8297 H   0  0  0  0  0  0  0  0  0  0  0  0
    3.7671   -1.4794    0.7525 H   0  0  0  0  0  0  0  0  0  0  0  0
    3.9386   -0.0053    1.7395 H   0  0  0  0  0  0  0  0  0  0  0  0
    5.2554   -2.1340   -0.9941 H   0  0  0  0  0  0  0  0  0  0  0  0
    6.3561   -1.3583   -2.2425 H   0  0  0  0  0  0  0  0  0  0  0  0
    3.9846   -0.6603   -2.3020 H   0  0  0  0  0  0  0  0  0  0  0  0
    5.1581    0.6560   -2.2135 H   0  0  0  0  0  0  0  0  0  0  0  0
    4.4906    1.3584   -0.1648 H   0  0  0  0  0  0  0  0  0  0  0  0
    2.1014   -0.4939   -0.7552 H   0  0  0  0  0  0  0  0  0  0  0  0
    2.4203    1.0878   -1.4810 H   0  0  0  0  0  0  0  0  0  0  0  0
    2.2694    2.0804    0.9082 H   0  0  0  0  0  0  0  0  0  0  0  0
    1.9636    0.4407    1.5045 H   0  0  0  0  0  0  0  0  0  0  0  0
   -0.1226    1.6345    1.1006 H   0  0  0  0  0  0  0  0  0  0  0  0
    1.1576    2.7496   -0.9962 H   0  0  0  0  0  0  0  0  0  0  0  0
    0.4221    1.3996   -1.8998 H   0  0  0  0  0  0  0  0  0  0  0  0
   -0.6144    2.6501   -1.0372 H   0  0  0  0  0  0  0  0  0  0  0  0
   -0.1262   -0.5836    1.0354 H   0  0  0  0  0  0  0  0  0  0  0  0
   -1.4986    0.2566   -1.4608 H   0  0  0  0  0  0  0  0  0  0  0  0
   -1.6540   -1.2878   -0.5924 H   0  0  0  0  0  0  0  0  0  0  0  0
   -2.4378   -0.2489    1.4503 H   0  0  0  0  0  0  0  0  0  0  0  0
   -2.1110    1.3651    0.7567 H   0  0  0  0  0  0  0  0  0  0  0  0
   -3.8028    0.9909   -0.9592 H   0  0  0  0  0  0  0  0  0  0  0  0
   -5.4509    1.6269    0.4071 H   0  0  0  0  0  0  0  0  0  0  0  0
   -4.2856    1.2908    1.7214 H   0  0  0  0  0  0  0  0  0  0  0  0
   -6.4316    0.2324    2.1602 H   0  0  0  0  0  0  0  0  0  0  0  0
   -5.3177   -2.0347    2.3009 H   0  0  0  0  0  0  0  0  0  0  0  0
   -6.9358   -1.8612    0.6277 H   0  0  0  0  0  0  0  0  0  0  0  0
   -7.7319    0.5817    0.7530 H   0  0  0  0  0  0  0  0  0  0  0  0
   -5.9017   -2.0221   -1.4167 H   0  0  0  0  0  0  0  0  0  0  0  0
   -5.8293   -0.2568   -1.6677 H   0  0  0  0  0  0  0  0  0  0  0  0
   -4.0128   -1.8760    0.1665 H   0  0  0  0  0  0  0  0  0  0  0  0
   -3.6351   -1.3212   -1.4681 H   0  0  0  0  0  0  0  0  0  0  0  0
    8.4870   -0.6130    0.2681 H   0  0  0  0  0  0  0  0  0  0  0  0
    6.7715    0.4306   -0.4448 H   0  0  0  0  0  0  0  0  0  0  0  0
    5.9499   -1.7492    1.5267 H   0  0  0  0  0  0  0  0  0  0  0  0
    6.1960   -0.0020    1.8297 H   0  0  0  0  0  0  0  0  0  0  0  0
    3.7671   -1.4794    0.7525 H   0  0  0  0  0  0  0  0  0  0  0  0
    3.9386   -0.0053    1.7395 H   0  0  0  0  0  0  0  0  0  0  0  0
    5.2554   -2.1340   -0.9941 H   0  0  0  0  0  0  0  0  0  0  0  0
    6.3561   -1.3583   -2.2425 H   0  0  0  0  0  0  0  0  0  0  0  0
    3.9846   -0.6603   -2.3020 H   0  0  0  0  0  0  0  0  0  0  0  0
    5.1581    0.6560   -2.2135 H   0  0  0  0  0  0  0  0  0  0  0  0
    4.4906    1.3584   -0.1648 H   0  0  0  0  0  0  0  0  0  0  0  0
    2.1014   -0.4939   -0.7552 H   0  0  0  0  0  0  0  0  0  0  0  0
    2.4203    1.0878   -1.4810 H   0  0  0  0  0  0  0  0  0  0  0  0
    2.2694    2.0804    0.9082 H   0  0  0  0  0  0  0  0  0  0  0  0
    1.9636    0.4407    1.5045 H   0  0  0  0  0  0  0  0  0  0  0  0
   -0.1226    1.6345    1.1006 H   0  0  0  0  0  0  0  0  0  0  0  0
    1.1576    2.7496   -0.9962 H   0  0  0  0  0  0  0  0  0  0  0  0
    0.4221    1.3996   -1.8998 H   0  0  0  0  0  0  0  0  0  0  0  0
   -0.6144    2.6501   -1.0372 H   0  0  0  0  0  0  0  0  0  0  0  0
   -0.1262   -0.5836    1.0354 H   0  0  0  0  0  0  0  0  0  0  0  0
   -1.4986    0.2566   -1.4608 H   0  0  0  0  0  0  0  0  0  0  0  0
   -1.6540   -1.2878   -0.5924 H   0  0  0  0  0  0  0  0  0  0  0  0
   -2.4378   -0.2489    1.4503 H   0  0  0  0  0  0  0  0  0  0  0  0
   -2.1110    1.3651    0.7567 H   0  0  0  0  0  0  0  0  0  0  0  0
   -3.8028    0.9909   -0.9592 H   0  0  0  0  0  0  0  0  0  0  0  0
   -5.4509    1.6269    0.4071 H   0  0  0  0  0  0  0  0  0  0  0  0
   -4.2856    1.2908    1.7214 H   0  0  0  0  0  0  0  0  0  0  0  0
   -6.4316    0.2324    2.1602 H   0  0  0  0  0  0  0  0  0  0  0  0
   -5.3177   -2.0347    2.3009 H   0  0  0  0  0  0  0  0  0  0  0  0
   -6.9358   -1.8612    0.6277 H   0  0  0  0  0  0  0  0  0  0  0  0
   -7.7319    0.5817    0.7530 H   0  0  0  0  0  0  0  0  0  0  0  0
   -5.9017   -2.0221   -1.4167 H   0  0  0  0  0  0  0  0  0  0  0  0
   -5.8293   -0.2568   -1.6677 H   0  0  0  0  0  0  0  0  0  0  0  0
   -4.0128   -1.8760    0.1665 H   0  0  0  0  0  0  0  0  0  0  0  0
   -3.6351   -1.3212   -1.4681 H   0  0  0  0  0  0  0  0  0  0  0  0
  1  2  1  0
  2  3  1  0
  3  4  1  0
  2  5  1  0
  5  6  1  0
  4  7  1  0
  6  7  1  0
  7  8  1  0
  8  9  1  0
  9 10  1  0
 10 11  1  0
 10 12  1  0
 12 13  1  0
 13 14  1  0
 14 15  1  0
 15 16  1  0
 16 17  1  0
 17 18  1  0
 17 19  1  0
 19 20  1  0
 19 21  1  0
 15 22  1  0
 21 22  1  0
 23 24  1  0
 24 25  1  0
 25 26  1  0
 24 27  1  0
 27 28  1  0
 26 29  1  0
 28 29  1  0
 29 30  1  0
 30 31  1  0
 31 32  1  0
 32 33  1  0
 32 34  1  0
 34 35  1  0
 35 36  1  0
 36 37  1  0
 37 38  1  0
 38 39  1  0
 39 40  1  0
 39 41  1  0
 41 42  1  0
 41 43  1  0
 37 44  1  0
 43 44  1  0
  1 45  1  0
  2 46  1  0
  3 47  1  0
  3 48  1  0
  4 49  1  0
  4 50  1  0
  5 51  1  0
  5 52  1  0
  6 53  1  0
  6 54  1  0
  7 55  1  0
  8 56  1  0
  8 57  1  0
  9 58  1  0
  9 59  1  0
 10 60  1  1
 11 61  1  0
 11 62  1  0
 11 63  1  0
 12 64  1  0
 13 65  1  0
 13 66  1  0
 14 67  1  0
 14 68  1  0
 15 69  1  0
 16 70  1  0
 16 71  1  0
 17 72  1  0
 18 73  1  0
 19 74  1  0
 20 75  1  0
 21 76  1  0
 21 77  1  0
 22 78  1  0
 22 79  1  0
 23 80  1  0
 24 81  1  0
 25 82  1  0
 25 83  1  0
 26 84  1  0
 26 85  1  0
 27 86  1  0
 27 87  1  0
 28 88  1  0
 28 89  1  0
 29 90  1  0
 30 91  1  0
 30 92  1  0
 31 93  1  0
 31 94  1  0
 32 95  1  1
 33 96  1  0
 33 97  1  0
 33 98  1  0
 34 99  1  0
 35100  1  0
 35101  1  0
 36102  1  0
 36103  1  0
 37104  1  0
 38105  1  0
 38106  1  0
 39107  1  0
 40108  1  0
 41109  1  0
 42110  1  0
 43111  1  0
 43112  1  0
 44113  1  0
 44114  1  0
M  END
>  <PDBID>  (1) 
2Y00

>  <PDB ID>  (1) 
2Y00

>  <Generic Name>  (1) 
Dobutamine

>  <Brand Name>  (1) 
Dobutamine#Dobutamine 12.5mg/ml#Dobutamine Hydrochloride#Dobutamine Hydrochloride In Dextrose#Dobutamine Hydrochloride Injection USP#Dobutamine Hydrochloride Injection-12.5mg/ml#Dobutamine Injection Sdz#Dobutamine Injection USP#Dobutrex#Dobuject#Dobusafe#Dobutamin#Dobutan#Dobutel#Dobutil#Dopmin#Inotrex

>  <DrugBank ID>  (1) 
DB00841

>  <ATC Codes>  (1) 
C01CA07

>  <Ligand ID>  (1) 
Y00

>  <Target Name>  (1) 
Beta-1 adrenergic receptor

>  <UniProt ID>  (1) 
P08588

>  <PDB ID.1>  (1) 
2Y00

>  <Seq. Identity>  (1) 
63%

$$$$
