PDB_DB01004_02
     RDKit          3D

 78 80  0  0  0  0  0  0  0  0999 V2000
    2.8034    1.3049   -0.4013 N   0  0  0  0  0  0  0  0  0  0  0  0
    2.4597    1.6333    0.9421 C   0  0  0  0  0  0  0  0  0  0  0  0
    1.0550   -0.1404    0.5227 C   0  0  0  0  0  0  0  0  0  0  0  0
    0.3209   -2.2037   -0.0951 C   0  0  0  0  0  0  0  0  0  0  0  0
   -3.1521    1.6782   -0.6831 C   0  0  0  0  0  0  0  0  0  0  0  0
   -2.5088    2.3940    0.3494 O   0  0  0  0  0  0  0  0  0  0  0  0
   -3.8757   -0.5580   -1.3853 C   0  0  0  0  0  0  0  0  0  0  0  0
   -3.8828   -1.9109   -1.0307 O   0  0  0  0  0  0  0  0  0  0  0  0
   -2.9973    0.1837   -0.4361 C   0  0  0  0  0  0  0  0  0  0  0  0
   -1.6972   -0.2192   -0.4019 O   0  0  0  0  0  0  0  0  0  0  0  0
   -1.2701   -0.6981    0.8264 C   0  0  0  0  0  0  0  0  0  0  0  0
    0.0948   -1.1139    0.8372 N   0  0  0  0  0  0  0  0  0  0  0  0
    1.5607    0.6708    1.5639 N   0  0  0  0  0  0  0  0  0  0  0  0
    3.6084    1.9082    1.7809 N   0  0  0  0  0  0  0  0  0  0  0  0
    3.1823   -0.0702   -0.6057 C   0  0  0  0  0  0  0  0  0  0  0  0
    3.4065   -0.2803   -1.9468 O   0  0  0  0  0  0  0  0  0  0  0  0
    2.2254   -1.0074    0.0267 C   0  0  0  0  0  0  0  0  0  0  0  0
    1.5096   -1.8639   -0.8556 N   0  0  0  0  0  0  0  0  0  0  0  0
    2.8034    1.3049   -0.4013 N   0  0  0  0  0  0  0  0  0  0  0  0
    2.4597    1.6333    0.9421 C   0  0  0  0  0  0  0  0  0  0  0  0
    1.0550   -0.1404    0.5227 C   0  0  0  0  0  0  0  0  0  0  0  0
    0.3209   -2.2037   -0.0951 C   0  0  0  0  0  0  0  0  0  0  0  0
   -3.1521    1.6782   -0.6831 C   0  0  0  0  0  0  0  0  0  0  0  0
   -2.5088    2.3940    0.3494 O   0  0  0  0  0  0  0  0  0  0  0  0
   -3.8757   -0.5580   -1.3853 C   0  0  0  0  0  0  0  0  0  0  0  0
   -3.8828   -1.9109   -1.0307 O   0  0  0  0  0  0  0  0  0  0  0  0
   -2.9973    0.1837   -0.4361 C   0  0  0  0  0  0  0  0  0  0  0  0
   -1.6972   -0.2192   -0.4019 O   0  0  0  0  0  0  0  0  0  0  0  0
   -1.2701   -0.6981    0.8264 C   0  0  0  0  0  0  0  0  0  0  0  0
    0.0948   -1.1139    0.8372 N   0  0  0  0  0  0  0  0  0  0  0  0
    1.5607    0.6708    1.5639 N   0  0  0  0  0  0  0  0  0  0  0  0
    3.6084    1.9082    1.7809 N   0  0  0  0  0  0  0  0  0  0  0  0
    3.1823   -0.0702   -0.6057 C   0  0  0  0  0  0  0  0  0  0  0  0
    3.4065   -0.2803   -1.9468 O   0  0  0  0  0  0  0  0  0  0  0  0
    2.2254   -1.0074    0.0267 C   0  0  0  0  0  0  0  0  0  0  0  0
    1.5096   -1.8639   -0.8556 N   0  0  0  0  0  0  0  0  0  0  0  0
    2.2074    1.7005   -1.1324 H   0  0  0  0  0  0  0  0  0  0  0  0
    1.8738    2.5995    0.9050 H   0  0  0  0  0  0  0  0  0  0  0  0
    0.7480    0.4805   -0.3419 H   0  0  0  0  0  0  0  0  0  0  0  0
    0.5809   -3.1266    0.4885 H   0  0  0  0  0  0  0  0  0  0  0  0
   -0.5590   -2.3884   -0.7437 H   0  0  0  0  0  0  0  0  0  0  0  0
   -2.8247    1.9876   -1.6730 H   0  0  0  0  0  0  0  0  0  0  0  0
   -4.2306    1.9010   -0.5721 H   0  0  0  0  0  0  0  0  0  0  0  0
   -2.8842    3.3105    0.3117 H   0  0  0  0  0  0  0  0  0  0  0  0
   -3.6612   -0.3920   -2.4405 H   0  0  0  0  0  0  0  0  0  0  0  0
   -4.9265   -0.2014   -1.2131 H   0  0  0  0  0  0  0  0  0  0  0  0
   -4.2092   -1.9320   -0.0777 H   0  0  0  0  0  0  0  0  0  0  0  0
   -3.4231    0.0178    0.5980 H   0  0  0  0  0  0  0  0  0  0  0  0
   -1.8929   -1.5491    1.1872 H   0  0  0  0  0  0  0  0  0  0  0  0
   -1.4108    0.1189    1.5639 H   0  0  0  0  0  0  0  0  0  0  0  0
    2.1806    0.0700    2.1791 H   0  0  0  0  0  0  0  0  0  0  0  0
    4.2553    1.1181    1.8816 H   0  0  0  0  0  0  0  0  0  0  0  0
    3.2541    2.3181    2.6589 H   0  0  0  0  0  0  0  0  0  0  0  0
    4.1771   -0.1977   -0.0860 H   0  0  0  0  0  0  0  0  0  0  0  0
    3.2460   -1.2105   -2.2378 H   0  0  0  0  0  0  0  0  0  0  0  0
    2.6475   -1.6012    0.8628 H   0  0  0  0  0  0  0  0  0  0  0  0
    2.0091   -2.7309   -1.1260 H   0  0  0  0  0  0  0  0  0  0  0  0
    2.2074    1.7005   -1.1324 H   0  0  0  0  0  0  0  0  0  0  0  0
    1.8738    2.5995    0.9050 H   0  0  0  0  0  0  0  0  0  0  0  0
    0.7480    0.4805   -0.3419 H   0  0  0  0  0  0  0  0  0  0  0  0
    0.5809   -3.1266    0.4885 H   0  0  0  0  0  0  0  0  0  0  0  0
   -0.5590   -2.3884   -0.7437 H   0  0  0  0  0  0  0  0  0  0  0  0
   -2.8247    1.9876   -1.6730 H   0  0  0  0  0  0  0  0  0  0  0  0
   -4.2306    1.9010   -0.5721 H   0  0  0  0  0  0  0  0  0  0  0  0
   -2.8842    3.3105    0.3117 H   0  0  0  0  0  0  0  0  0  0  0  0
   -3.6612   -0.3920   -2.4405 H   0  0  0  0  0  0  0  0  0  0  0  0
   -4.9265   -0.2014   -1.2131 H   0  0  0  0  0  0  0  0  0  0  0  0
   -4.2092   -1.9320   -0.0777 H   0  0  0  0  0  0  0  0  0  0  0  0
   -3.4231    0.0178    0.5980 H   0  0  0  0  0  0  0  0  0  0  0  0
   -1.8929   -1.5491    1.1872 H   0  0  0  0  0  0  0  0  0  0  0  0
   -1.4108    0.1189    1.5639 H   0  0  0  0  0  0  0  0  0  0  0  0
    2.1806    0.0700    2.1791 H   0  0  0  0  0  0  0  0  0  0  0  0
    4.2553    1.1181    1.8816 H   0  0  0  0  0  0  0  0  0  0  0  0
    3.2541    2.3181    2.6589 H   0  0  0  0  0  0  0  0  0  0  0  0
    4.1771   -0.1977   -0.0860 H   0  0  0  0  0  0  0  0  0  0  0  0
    3.2460   -1.2105   -2.2378 H   0  0  0  0  0  0  0  0  0  0  0  0
    2.6475   -1.6012    0.8628 H   0  0  0  0  0  0  0  0  0  0  0  0
    2.0091   -2.7309   -1.1260 H   0  0  0  0  0  0  0  0  0  0  0  0
  1  2  1  0
  5  6  1  0
  7  8  1  0
  5  9  1  0
  7  9  1  0
  9 10  1  0
 10 11  1  0
  3 12  1  0
  4 12  1  0
 11 12  1  0
  2 13  1  0
  3 13  1  0
  2 14  1  0
  1 15  1  0
 15 16  1  0
  3 17  1  0
 15 17  1  0
  4 18  1  0
 17 18  1  0
 19 20  1  0
 23 24  1  0
 25 26  1  0
 23 27  1  0
 25 27  1  0
 27 28  1  0
 28 29  1  0
 21 30  1  0
 22 30  1  0
 29 30  1  0
 20 31  1  0
 21 31  1  0
 20 32  1  0
 19 33  1  0
 33 34  1  0
 21 35  1  0
 33 35  1  0
 22 36  1  0
 35 36  1  0
  1 37  1  0
  2 38  1  0
  3 39  1  0
  4 40  1  0
  4 41  1  0
  5 42  1  0
  5 43  1  0
  6 44  1  0
  7 45  1  0
  7 46  1  0
  8 47  1  0
  9 48  1  0
 11 49  1  0
 11 50  1  0
 13 51  1  0
 14 52  1  0
 14 53  1  0
 15 54  1  0
 16 55  1  0
 17 56  1  0
 18 57  1  0
 19 58  1  0
 20 59  1  0
 21 60  1  0
 22 61  1  0
 22 62  1  0
 23 63  1  0
 23 64  1  0
 24 65  1  0
 25 66  1  0
 25 67  1  0
 26 68  1  0
 27 69  1  0
 29 70  1  0
 29 71  1  0
 31 72  1  0
 32 73  1  0
 32 74  1  0
 33 75  1  0
 34 76  1  0
 35 77  1  0
 36 78  1  0
M  END
>  <PDBID>  (1) 
1KI2

>  <PDB ID>  (1) 
1KI2

>  <Generic Name>  (1) 
Ganciclovir

>  <Brand Name>  (1) 
Cytovene - Cap 250mg#Cytovene - Pws 500mg/10m/-vial IV#Cytovene IV#Cytovene Inj 500mg/vial#Cytovene, 500 mg#Ganciclovir#Ganciclovir for Injection#Vitrasert, Intravitreal Implant#Zirgan#Cytovene#Vitrasert

>  <DrugBank ID>  (1) 
DB01004

>  <ATC Codes>  (1) 
J05AB06#S01AD09

>  <Ligand ID>  (1) 
GA2

>  <Target Name>  (1) 
Thymidine kinase

>  <UniProt ID>  (1) 
P03176

>  <PDB ID.1>  (1) 
1KI2

>  <Seq. Identity>  (1) 
100%

$$$$
