PDB_DB00936_03
     RDKit          3D

 48 48  0  0  0  0  0  0  0  0999 V2000
    1.9887   -0.1363   -0.3443 C   0  0  0  0  0  0  0  0  0  0  0  0
    2.7881    0.9729   -0.4730 O   0  0  0  0  0  0  0  0  0  0  0  0
    2.5734   -1.2091    0.2750 O   0  0  0  0  0  0  0  0  0  0  0  0
    0.6421    0.1929    0.3158 C   0  0  0  0  0  0  0  0  0  0  0  0
   -0.1154   -1.0831    0.3924 C   0  0  0  0  0  0  0  0  0  0  0  0
   -1.5840   -0.9713    0.2472 C   0  0  0  0  0  0  0  0  0  0  0  0
   -2.0703    0.4063    0.6112 C   0  0  0  0  0  0  0  0  0  0  0  0
   -1.4659    1.3719   -0.3788 C   0  0  0  0  0  0  0  0  0  0  0  0
    0.0089    1.2691   -0.4905 C   0  0  0  0  0  0  0  0  0  0  0  0
    0.3503   -2.0219   -0.5508 O   0  0  0  0  0  0  0  0  0  0  0  0
    1.9887   -0.1363   -0.3443 C   0  0  0  0  0  0  0  0  0  0  0  0
    2.7881    0.9729   -0.4730 O   0  0  0  0  0  0  0  0  0  0  0  0
    2.5734   -1.2091    0.2750 O   0  0  0  0  0  0  0  0  0  0  0  0
    0.6421    0.1929    0.3158 C   0  0  0  0  0  0  0  0  0  0  0  0
   -0.1154   -1.0831    0.3924 C   0  0  0  0  0  0  0  0  0  0  0  0
   -1.5840   -0.9713    0.2472 C   0  0  0  0  0  0  0  0  0  0  0  0
   -2.0703    0.4063    0.6112 C   0  0  0  0  0  0  0  0  0  0  0  0
   -1.4659    1.3719   -0.3788 C   0  0  0  0  0  0  0  0  0  0  0  0
    0.0089    1.2691   -0.4905 C   0  0  0  0  0  0  0  0  0  0  0  0
    0.3503   -2.0219   -0.5508 O   0  0  0  0  0  0  0  0  0  0  0  0
    1.7143   -0.4635   -1.3882 H   0  0  0  0  0  0  0  0  0  0  0  0
    2.9302    1.4327    0.3895 H   0  0  0  0  0  0  0  0  0  0  0  0
    3.5436   -1.1808    0.3459 H   0  0  0  0  0  0  0  0  0  0  0  0
    0.8202    0.6011    1.3451 H   0  0  0  0  0  0  0  0  0  0  0  0
    0.0982   -1.5486    1.3918 H   0  0  0  0  0  0  0  0  0  0  0  0
   -1.8537   -1.1317   -0.8293 H   0  0  0  0  0  0  0  0  0  0  0  0
   -2.1197   -1.7516    0.8214 H   0  0  0  0  0  0  0  0  0  0  0  0
   -1.8761    0.6903    1.6449 H   0  0  0  0  0  0  0  0  0  0  0  0
   -3.1776    0.4130    0.4114 H   0  0  0  0  0  0  0  0  0  0  0  0
   -1.8101    2.3877   -0.0949 H   0  0  0  0  0  0  0  0  0  0  0  0
   -1.9379    1.1241   -1.3738 H   0  0  0  0  0  0  0  0  0  0  0  0
    0.3060    1.2029   -1.5777 H   0  0  0  0  0  0  0  0  0  0  0  0
    0.4544    2.2521   -0.1574 H   0  0  0  0  0  0  0  0  0  0  0  0
   -0.2076   -2.8191   -0.5330 H   0  0  0  0  0  0  0  0  0  0  0  0
    1.7143   -0.4635   -1.3882 H   0  0  0  0  0  0  0  0  0  0  0  0
    2.9302    1.4327    0.3895 H   0  0  0  0  0  0  0  0  0  0  0  0
    3.5436   -1.1808    0.3459 H   0  0  0  0  0  0  0  0  0  0  0  0
    0.8202    0.6011    1.3451 H   0  0  0  0  0  0  0  0  0  0  0  0
    0.0982   -1.5486    1.3918 H   0  0  0  0  0  0  0  0  0  0  0  0
   -1.8537   -1.1317   -0.8293 H   0  0  0  0  0  0  0  0  0  0  0  0
   -2.1197   -1.7516    0.8214 H   0  0  0  0  0  0  0  0  0  0  0  0
   -1.8761    0.6903    1.6449 H   0  0  0  0  0  0  0  0  0  0  0  0
   -3.1776    0.4130    0.4114 H   0  0  0  0  0  0  0  0  0  0  0  0
   -1.8101    2.3877   -0.0949 H   0  0  0  0  0  0  0  0  0  0  0  0
   -1.9379    1.1241   -1.3738 H   0  0  0  0  0  0  0  0  0  0  0  0
    0.3060    1.2029   -1.5777 H   0  0  0  0  0  0  0  0  0  0  0  0
    0.4544    2.2521   -0.1574 H   0  0  0  0  0  0  0  0  0  0  0  0
   -0.2076   -2.8191   -0.5330 H   0  0  0  0  0  0  0  0  0  0  0  0
  1  2  1  0
  1  3  1  0
  1  4  1  0
  4  5  1  0
  5  6  1  0
  6  7  1  0
  7  8  1  0
  4  9  1  0
  8  9  1  0
  5 10  1  0
 11 12  1  0
 11 13  1  0
 11 14  1  0
 14 15  1  0
 15 16  1  0
 16 17  1  0
 17 18  1  0
 14 19  1  0
 18 19  1  0
 15 20  1  0
  1 21  1  0
  2 22  1  0
  3 23  1  0
  4 24  1  0
  5 25  1  0
  6 26  1  0
  6 27  1  0
  7 28  1  0
  7 29  1  0
  8 30  1  0
  8 31  1  0
  9 32  1  0
  9 33  1  0
 10 34  1  0
 11 35  1  0
 12 36  1  0
 13 37  1  0
 14 38  1  0
 15 39  1  0
 16 40  1  0
 16 41  1  0
 17 42  1  0
 17 43  1  0
 18 44  1  0
 18 45  1  0
 19 46  1  0
 19 47  1  0
 20 48  1  0
M  END
>  <PDBID>  (1) 
1PTH

>  <PDB ID>  (1) 
1PTH

>  <Generic Name>  (1) 
Salicylic acid

>  <Brand Name>  (1) 
24 Hour Pimple Punisher#28 Remedy Acne Pore Deep Cleanser#28 Remedy Balancing Toner 10ml#AF Foam Sensitive Acne Pore Cleanser#Ac Out Spot Stop Serum#Acence Tea Tree Tock Blemish Spot#Acne#Acne Beauty Benefit Light#Acne Beauty Benefit Medium#Acne Body Wash#Acne Cleansing#Acne Cleansing Pads#Acne Cleansing Wipes#Acne Clearning Treatment Face#Acne Control Oil-free Cleansing#Acne Correcting Cleanser#Acne Fighting#Acne Fighting Foundation#Acne Fighting Roll On Gel#Acne Gel Wash#Acne Lab Foam Cleanser#Acne Medicated Gel#Acne Pads#Acne Prone#Acne Scrub#Acne Serum#Acne Solution#Acne Solutions Clarifying#Acne Solutions Cleansing Bar for Face and Body#Acne Solutions Cleansing Foam#Acne Solutions Clearing Concealer Acne Medication All Skin Types#Acne Solutions Liquid Makeup Salicylic Acid Acne Treatment#Acne Solutions Oil Control Cleansing Mask Acne Medication All Skin Types#Acne Solutions Spot Healing Acne Medication#Acne Spot Treatment#Acne Stick Gel#Acne Toner Acne Clearing System#Acne Toner Biolements#Acne Treatment#Acne Treatment Cleanser#Acne Treatment Clear Gel - Maximum Strength#Acne Treatment Daily Cleansing Bar#Acne Treatment Pads#Acne Treatment System#Acne Wash#Acne Wash Facial Cleanser Pink Grapefruit#Acne Wash Facial Cleanser Tea Tree Oil#Acne Wash Oil-free#Acne Wash Western Family#Acne Wipes#Acne and Blemish Target#Acne and Line Correcting Serum#Acne and Oil Control#Acneclir#Acneen#Acnefree 2-IN-1 Acne Wipes#Acnefree Body Clearing#Acnefree Daily Skin Therapy Acne Pads#Acnefree Daily Skin Therapy Acne Wash#Acnefree Drying#Acnefree Energizing 3-IN-1 Acne Wipes#Acnevir Facial Wash#Acneworx#Acnex Liq 2%#Acnezzol Base#Acnomel Acnee Mask#Acnopur Lotion Exfoliante Clarifiante#Acnopur Soin Hydratant Regulateur#Acnopur Traitement Urgence Acne#Acpuris Intensive Spot Treatment#Actikerall#Actiogen Acne Dots Treatment#Active Clear Facial Wash#Adasept Acne Gel#Advance Acne Care#Advanced Acne Spot Treatment#Advanced Acne Spot Treatment Cvs#Advanced Acne Therapy#Aetna Callus Remover#Age Defying Blemish Treatment#Al00933 Alba Botanica Fast Fix Papaya Anti Acne Sheet Mask#Ala-septic#Alba Acnedote Clean Treat Cleansing Towelette#Alba Acnedote Clean Treat Towelette#Alba Acnedote Invisible Treatment#Alba Good and Clean Gentle Acne Wash#Alba Natural Acnedote#Alba Natural Acnedote Astringent#Alba Natural Acnedote Face Body Scrub#Alba Natural Acnedote Wash#Aliclen#Almay (hypo-allergen.)oil Stop.anti-acne Gel#Almay Clear Complexion 4 In 1 Pressed Powder#Almay Clear Complexion Blemish Clearing Compact#Almay Clear Complexion Blemish Healing Spot Concealer#Almay Clear Complexion Liquid Makeup for Oily Skin#Almay Clear Complexion Pressed Powder#Almay Stay Clean Medicated Pore Strips#Almay(hypo-allergenic)clean-out Cleans.pads#Almay(hypo-allergenic)extra Clear Skin Astr.#Aloe Bha Skin Toner#Alsora Psoriasis#Alsora Psoriasis Cream#Always Pure Spot for Night#Ambi Even and Clear Exfoliating Wash#Ambi Even and Clear Foaming Cleanser#Anti Acne Calming Corrector#Anti Acne Clarifying Face Wash#Anti Acne Control Formula - Lot Top 1%#Anti Acne Exfoliating Cleansing Pads#Anti Acne Spot Treatment 1%#Anti Dandruff#Anti-acne#Anti-acne Formula for Men#Anti-acne Formula-light#Anti-acne Formula-medium#Anti-blemish#Anti-blemish Cleanser#Anti-blemish Concealer#Anti-blemish Foundation Primer Acne Treatment Gel Merle Norman#Anti-blemish Matte Primer#Anti-clog Concentrate Bioelements, Inc.#Anti-dandruff#Antiac Acne Clearing#Antidouleurs Rezall#Aroma A1 Skin#Artistry Essentials Anti-blemish Acne Treatment#Asd 3-IN-1#Asepxia Acne Medication Wipes#Asepxia Facial Cleansing#Assured Acne Cream#Astringent#Atomy Hair Treatment#Atomy Herbal Hair Tonic#Atopalm Acne Controlling#Aveeno Acne Treatment Bar#Aveeno Active Naturals#Aveeno Active Naturals Clear Complexion Cleanser#Aveeno Active Naturals Clear Complexion Daily Cleansing Pads#Aveeno Active Naturals Clear Complexion Daily Moisturizer#Aveeno Active Naturals Clear Complexion Foaming Cleanser#Aveeno Cleansing Bar for Acne-prone Skin .5%#Aveeno Cleansing Bar-for Acne-prone Skin#Aveeno Clear Complexion Cleanser#Aveeno Clear Complexion Cleansing Bar#Aveeno Clear Complexion Daily Cleansing#Aveeno Clear Complexion Foaming Cleanser#Aveeno Favorites From Clear Complexion#Avon Anew Perfecting Lotion for Problem Skin#Avon Clear Finish Great Complexion Concealer#Avon Clear Finish Great Complexion Foundation#Avon Clear Finish Oil-free Foundation#Avon Clearskin 2 Medicated Gel Wash#Avon Clearskin 2 Overnight Acne Treatment#Avon Clearskin 2 Triple Action Astringent Cleansing Lotion#Avon Clearskin Acne Defense Stick#Avon Clearskin Astringent Cleansing Lotion Extra Strength#Avon Clearskin Invisible Blemish Corrector#Avon Clearskin Overnight Acne Treatment#Avon Clearskin Overnight Blemish Treatment#Avon Clearskin Purifying Astringent#Avon Clearskin Purifying Gel Cleanser#Avon Clearskin Targeted Blemish Remover#Awaken By Quality Choice Ultra Clean Daily Face Wash#Awaken Oil-free Daily Face Wash#Azo Urinary Tract Defense Antibacterial Protection#Band-aid Brand Medicated Corn Remover#Bareminerals Blemish Remedy Acne Clearing Treatment Serum#Bareminerals Blemish Remedy Acne Treatment Gelee Cleanser#Bdr Re-action Tonic Professional Multi Active Booster#Bdr Re-move Ph Pure Harmony Cleanser#Benefit Boo Boo Zap Medicated Acne Treatment#Bensal Hp#Benzac#Benzac - Complete Acne Solution Regimen#Best Choice Oil-free Acne Wash Foaming Scrub#Beta Complex Acne Treatment#Better Braids Medicated#Better Braids Medicated Leave In Conditioner Medicated#Better Braids Medicated Medicated#Better Braids Medicated Un-braid Medicated#Bioarpil#Biocure Gel Exfoliant Antipelliculaire#Biocure:  Shampooing Antipelliculaire#Bioelements Active Astringent#Bioelements Amino Mask#Bioelements Spotless Cleanser#Biore Acne Clearing Scrub#Biore Baking Soda Acne Scrub#Biore Blemish Fighting Ice Cleanser#Biore Blemish Treating Astringent#Biore Blemish Undercover Agent#Biore Charcoal Acne Clearing Cleanser#Biore Charcoal Acne Scrub#Biore Pore Unclogging Scrub#Biore Warming Anti-blackhead Cleanser#Bioré Blemish Fighting Cleanser#Blackhead Cleaning Scrub#Blackhead Clearing Scrub#Blackhead Clearing Scrug#Blemfree#Blemish Clearing Facial Wipes#Blemish Control Blotting Paper#Blemish Control Face Primer#Blemish Correcting Serum Sensitive#Blemish Treatment#Blistex Stridex Spot and T-zone Acne Cleargel#Body Wash#Botanic Skincare Acne Defense Treatment#Breakout Clearing All Over Toner#Breakout Clearing Cooling Masque#Breakout Clearing Foaming Wash#Breakout Clearing Overnight Treatment#British Army Foot Pwr#Broda Acne#Broda Acne Spa#Bye Bye Blemish Anti-acne Gel#Callicide Corn and Callus Remover#Callus Removal Foot Pack#Canthacur-PS#Cantharone Plus#Carione Rg Toner#Carnation Callous Caps#Cebatrol Oil Control Pads#Celazome O-plex Control#Cellapy Haircell#Cellapy Haircell Meso Tonic#Charcoal Blackhead Clearing Scrub#Choline Magnesium Trisalicylate#Clarify Botanical Clarifying Wash#Clarifying Cleanser#Clarifying Pressed Powder#Clarifying Toner#Clarifying Treatment#Clarisonic Acne Daily Clarifying Cleanser#Clarity Clear Skin Essentials Acne Spot Treatment#Clarity Clear Skin Essentials Acne Treatment#Clarity Clear Skin Essentials Deep-cleaning Astringent#Clarity Clear Skin Essentials Foaming Cleanser#Classic Care Apricot Scrub Blemish Control#Clean & Clear Advantage Daily Acne Clearing Lotion#Clean & Clear Deep Cleaning Astringent Skin Toning#Clean Acne#Clean and Clear Acne Triple Clear Bubble Foam Cleanser#Clean and Clear Acne Triple Clear Cleanser#Clean and Clear Acne Triple Clear Exfoliating Scrub#Clean and Clear Advantage Acne Cleanser#Clean and Clear Advantage Acne Control#Clean and Clear Advantage Acne Control 3 In 1 Foaming Wash#Clean and Clear Advantage Acne Control Moisturizer#Clean and Clear Advantage Acne Spot Treatment#Clean and Clear Advantage Daily Soothing Acne Scrub#Clean and Clear Advantage Daily Soothing Acne Wash#Clean and Clear Advantage Mark Treatment#Clean and Clear Advantage Oil Absorbing Cleanser#Clean and Clear Advantage Oil Absorbing Treatment#Clean and Clear Advantage Popped Pimple Relief#Clean and Clear Advantage Popped Pimple Relief Pen#Clean and Clear Blackhead Eraser Cleansing Mask#Clean and Clear Blackhead Eraser Scrub#Clean and Clear Concealing Treatment#Clean and Clear Daily Skincare Essentials#Clean and Clear Deep Cleaning#Clean and Clear Essentials Deep Cleaning Astringent#Clean and Clear Essentials Deep Cleaning Toner Sensitive Skin#Clean and Clear Essentials Deep Cleansing Toner Sensitive Skin#Clean and Clear Essentials Dual Action Moisturizer#Clean and Clear Sensitive Skin#Cleansing Foaming Gel Acne Pro Skin#Clear Acne Body Paulas Choice#Clear Advantage Clarifying#Clear Advantage Clarifying Wash#Clear Blemish Treatment Jafra#Clear Cell Cleanser#Clear Cell Medicated Acne#Clear Cell Medicated Acne Masque#Clear Cell Salicylic Clarifying Pads#Clear Cell Salicylic Clarifying Tonic#Clear Complexion Cleanser Merle Norman#Clear Complexion Moisturizer Merle Norman#Clear Complexion Spot Treatment Merle Norman#Clear Complexion Toner Merle Norman#Clear Days Ahead 30-day Acne Trial Kit#Clear Days Ahead Fast-acting Salicylic Acid Acne Spot Treatment#Clear Days Ahead Oil-free Salicylic Acid Acne Treatment Cleanser#Clear Days Ahead Oil-free Salicylic Acid Acne Treatment and Moisturizer#Clear Days Ahead Overnight Repair Salicylic Acid Acne Treatment Pads#Clear Difference Advanced Blemish Serum#Clear Difference Targeted Blemish Treatment#Clear Exfoliating Solution Paulas Choice#Clear Logix Acne Night Treatment Serum#Clear Logix Acne Spot Treatment#Clear Logix Deep Cleansing Acne Treatment Pads#Clear Logix Gentle Foaming Facial Cleanser#Clear Logix Oil Fighting Daily Wash#Clear Logix Oily Skin Astringent#Clear Logix Sensitive Skin Astringent#Clear Logix Tinted Acne Spot Treatment#Clear Pore Clarifier Matte Dynamics#Clear Pore Serum#Clear Pore Treatment - Gel#Clear Proof Acne System#Clear Proof Acne System The Go Set#Clear Proof Blemish Control Toner Acne Medication#Clear Proof Clarifying Cleansing Gel Acne Medication#Clear Proof Pore Purifying Serum Acne Medication#Clear Skin#Clear Skin Acne Treatment#Clear Up Cleansing#Clear Up Control Solution Anti-blemiches#Clear Up Prep#Clear-N-smooth#Clearasil Acne Fighting Facial Moisturizer#Clearasil Blackhead Clearing Pads#Clearasil Cleanser - Liq 2%#Clearasil Clearstick#Clearasil Complete#Clearasil Daily Clear Daily Facial Scrub#Clearasil Daily Clear Daily Pore Cleansing Pads#Clearasil Daily Clear Hydra-blast Oil-free#Clearasil Daily Clear Hydra-blast Oil-free Face Scrub#Clearasil Daily Clear Hydra-blast Oil-free Face Wash#Clearasil Daily Clear Hydra-blast Oil-free Face Wash Sensitive#Clearasil Daily Clear Hydra-blast Oil-free Pads#Clearasil Daily Clear Hydra-blast Pads#Clearasil Daily Clear Oil-free Daily Face Wash#Clearasil Daily Clear Oil-free Daily Face Wash Sensitive#Clearasil Daily Clear Oil-free Daily Face Wash Sensitive Formula#Clearasil Daily Clear Oil-free Daily Wash#Clearasil Daily Clear Refreshing Superfruit Pads#Clearasil Daily Clear Refreshing Superfruit Scrub#Clearasil Daily Clear Refreshing Superfruit Toner#Clearasil Daily Clear Refreshing Superfruit Wash#Clearasil Daily Clear Skin Perfect Wash#Clearasil Medicated Body Wash#Clearasil Overnight Defense Gel#Clearasil Pads - Liq 2%#Clearasil Perfectawash Ultra Rapid Action Face Wash Dispenser and Refills#Clearasil Perfectawash Ultra Rapid Action Face Wash Refill - Soothing Plant Extracts#Clearasil Perfectawash Ultra Rapid Action Face Wash Refill - Superfruit Splash#Clearasil Sensitive  Clearstick-frag. Free#Clearasil Stayclear Acne Defense Cleanser#Clearasil Stayclear Deep Clean Astringent#Clearasil Stayclear Zone Control Clearstick#Clearasil Total Control Daily Skin Perfecting Treatment#Clearasil Total Control Deep Pore Cream Cleanser#Clearasil Ultra 5 In 1#Clearasil Ultra 5 In 1 Exfoliating Wash#Clearasil Ultra 5 In 1 Pads#Clearasil Ultra 5-IN-1 Exfoliating Wash#Clearasil Ultra Acne Clearing Gel Wash#Clearasil Ultra Acne Clearing Scrub#Clearasil Ultra Acne Plus Marks Daily Scrub#Clearasil Ultra Acne Plus Marks Pads#Clearasil Ultra Acne Plus Marks Spot#Clearasil Ultra Acne Plus Marks Treatment#Clearasil Ultra Acne Plus Marks Wash and Mask#Clearasil Ultra Acne System#Clearasil Ultra Blackhead Scrub#Clearasil Ultra Daily Face Wash#Clearasil Ultra Fast Fix Acne#Clearasil Ultra On-the-GO Rapid Action Wipes#Clearasil Ultra Overnight Face#Clearasil Ultra Overnight Scrub#Clearasil Ultra Overnight Wash#Clearasil Ultra Rapid Action Acne System#Clearasil Ultra Rapid Action Clear Skin#Clearasil Ultra Rapid Action Daily Face Wash#Clearasil Ultra Rapid Action Daily Wash#Clearasil Ultra Rapid Action Face Scrub#Clearasil Ultra Rapid Action Face Wash#Clearasil Ultra Rapid Action Pads#Clearasil Ultra Rapid Action Scrub#Clearasil Ultra Rapid Action Seal-TO-clear#Clearasil Ultra Rapid Action Treatment#Cleardin Acne Spot Gel#Cleardin Anti Imperfection Cream#Clearing Mattifier#Clearing Skin Wash#Clearing Tonic#Clearisdin#Clearisdin Anti-imperfection#Clearly It#Clearprep Fx#Clearskin Blackhead Eliminating Cleanser#Clearskin Blackhead Eliminating Daily Astringent#Clearskin Blackhead Eliminating Deep Treatment Mask#Clearskin Blemish Clearing 2-IN-1 Treatment and Hydrator#Clearskin Blemish Clearing Acne Body Wash#Clearskin Blemish Clearing Acne Pads#Clearskin Blemish Clearing Foaming Cleanser#Clearskin Blemish Clearing Overnight Treatment#Clearskin Blemish Clearing Spot Treatment#Clearskin Clear Emergency Instant Spot Treatment#Clearskin Clear Emergency Intensive Cream Cleanser#Clearskin Clear Emergency Intensive Treatment#Clearskin Medicated Gel Wash#Clearskin Pore Penetrating Black Mineral Mask#Clearskin Pore Penetrating Cooling Toner#Clearskin Professional Acne Mark Treatment#Clearskin Professional Clear Pore Thermal Mask#Clearskin Professional Daily Correcting#Clearskin Professional Deep Pore Cleansing Scrub#Clearskin Professional Invisible Blemish Treatment#Clenziderm Daily Care Foaming Cleanser Acne Treatment#Clenziderm M.D. System Acne Therapeutic System#Clenziderm Normal To Oily Skin Acne Therapeutic System#Clenziderm Pore Therapy Acne Treatment#Clerian#Clerian Anti-hairloss#Clerian H#Clinical Emergency Zit Stick Acne Treatment#Clinique Acne Solutions Body Treatment Spray#Clinique Acne Solutions Cleansing Foam#Clinique Acne Solutions Concealing Cream#Clinique Acne Solutions Concealing Stick#Clinique Acne Solutions Night Treatment Gel#Clinique Acne Solutions Quick Clearing Pads#Clinique Acne Solutions Spot Treatment Gel#Clinique Clarifying Makeup#Cln Acne Cleanser#Complexion Clear Acne Treatment#Compound W#Compound W Gel 17%#Compound W Liquid - First Aid#Compound W Liquid 20%#Compound W Maximum Strength One Step Invisible#Compound W Plus Liq 30%#Concealer Pencil and Brush#Continuously Clear Moisturizer#Controlling Balm With Tea Tree Oil#Corn Removers#Corn Salve Ont 15%#Cornex#Cover Fx Bb Gel Mattfying Anti-blemish G Med-deep#Cover Fx Bb Gel Mattfying Anti-blemish N Deep#Cover Fx Bb Gel Mattfying Anti-blemish N Medium#Cover Fx Bb Gel Mattfying Anti-blemish N X-deep#Cover Fx Bb Gel Mattfying Anti-blemish P Med-deep#Cover Fx Bb Gel Mattifying Anti-blemish G Deep#Cover Fx Bb Gel Mattifying Anti-blemish G Light-med#Cover Fx Bb Gel Mattifying Anti-blemish N Light#Cover Fx Bb Gel Mattifying Anti-blemish N Med-deep#Cover Fx Bb Gel Mattifying Anti-blemish P Light-med#Cover Fx Blemish Treatment Concealer G Light#Cover Fx Blemish Treatment Concealer G Medium#Cover Fx Blemish Treatment Concealer N Deep#Cover Fx Blemish Treatment Concealer N Light#Cover Fx Blemish Treatment Concealer N Med-deep#Cover Fx Blemish Treatment Concealer N Medium#Cover Fx Blemish Treatment Concealer N X-deep#Cover Fx Blemish Treatment Concealer N X-light#Cover Fx Blemish Treatment Concealer P Light#Cover Fx Blemish Treatment Concealer P Medium#Cover Fx Blemish Treatment Primer#Cover Fx Mattifying Primer With Anti-acne Treatment#Cover Girl Clar. Liq Make Up -crmy Nat. .5%#Cover Girl Clar. Liq Make-UP-creme Beige .5%#Cover Girl Clar. Liq Make-UP-nat. Ivory .5%#Cover Girl Clar. Liq Make-UP-true Beige .5%#Cover Girl Clar. Liq. Make Up-nat. Beige .5%#Cover Girl Clarif Blemish Conc Fair 0.5%#Cover Girl Clarif Blemish Conc Light 0.5%#Cover Girl Clarif Blemish Conc Med 0.5%#Cover Girl Clarifying Liq Make-UP-beige .5%#Cover Girl Clarifying Liq Makeup#Cover and Conceal Blemish Concealer#Cp Dr. Babor Purity Cellular Stop Blemish Fluid#Cp Dr. Babor Purity Cellular Ultimate Blemish Reducing Cream#Cuplex Gel#Cure-aid Corn Plasters#Cvs Acne Spot Treatment#Cvs Advance Acne Therapy Kit#Cvs Antibacterial Plus Urinary Pain Relief#Cvs Clarifying Acne Body Wash-pink Grapefruit Acne Treatment#Cvs Clarifying Body Wash#Cvs Clarifying Body Wash Acne Treatment#Cvs Daily Acne Clearing Scrub#Cvs Daily Pore Clearing Pads#Cvs Deep Cleansing Astringent#Cvs Fast Clearing Medicated Pads#Cvs Health Acne Fighting Moisturizer#Cvs Health Blackhead Clearing Scrub Acne Medication#Cvs Oil Free Acne Cleanser Acne Treatment#Cvs Oil Free Acne Facial Cleanser-pink Grapefruit Acne Treatment#Cvs Oil Free Acne Foaming Scrub-pink Grapefruit Acne Medication#Cvs Oil-free Acne Cleansing Towelettes#Cvs Pharmacy Clear Skin Daily Moisturizer#Cvs Pore Unclogging Scrub#Cvs Psoriasis Medicated#Cvs Scalp Relief#Cvs Triple Action Astringent#Cystex Plus#Daily Care Foaming Cleanser Acne Treatment#Daily Cleanser Salicylic Acid Acne Treatment#Daily Cleansing#Daily Face Wash Cvs#Daily Moisturizer#Daily Ritual#Damoae Therapy Tonic#Daylogic Oil-free Cleansing Wipe for Acne-prone Skin Pink Grapefruit#Ddf Acne Control Treatment#Ddf Blemish Foaming Cleanser#Ddf Glycolic Exfoliating#Deep Cleaning Astringent#Deep Cleaning Mask#Deep Cleansing Mask#Denorex Extra Strength#Denovo 3 H#Derma Controle: Gel Nettoyant Moussant#Derma Controle: Gel Normalisant#Derma Controle: Lotion Purifiante#Dermablend Professional Skinperfector Blemish and Oil Clearing Primer#Dermaclear Mask#Dermaclear Pads#Dermaclear Serum#Dermaer Psoriasis Therapeutic#Dermal Quench Clear Anti-acne Treatment#Dermalogica Oil Control#Dermarest Psoriasis Medicated#Dermarest Psoriasis Medicated Lotion With Moisturizers#Dermarest Psoriasis Medicated Moisturizer#Dermarest Psoriasis Medicated Scalp Treatment#Dermarest Psoriasis Medicated Skin Treatment#Dermazor Psoriasis and Seborrheic Dermatitis#Dermoneen#Dermoscribe Psoriasis#Dermoscribe Seborrheic Dermatitis#Dg Body Tonic#Dg Deep Cleaning Astringent Sensitive Skin#Dhc Salicylic Acne Toner#Dhc Salicylic Acne Wash#Dhc Salicylic Face Milk#Dhs Sal#Dial Acne Acne#Dial Acne Control Deep Cleansing Body Wash#Dial Acne Control Deep Cleansing Face Wash#Diprosalic#Dodd's Tablets Regular Strength 325 mg#Dodd's Tablets Regular Strength 325mg#Dodds Extra Strength Tab 500mg#Dodds Pills#Dollar General Acne Spot Medication#Dr Dennis Gross All-over Blemish#Dr. Babor Purity Cellular Ultimate Blemish Reducing Cream#Dr. Babor Purity Cellular Ultimate Blemish Reducing Duo#Dr. Iaso Ac Booster#Dr. Karrs Acne-statin#Dr. Scholl's 2-drop Corn Remedy#Dr. Scholl's Clear Away Gel With Aloe#Dr. Scholl's Clear Away One Step Plantar Wart Remover#Dr. Scholl's Corn/callus Removers#Dr. Scholl's Cushlin Ultra Slim Callus Removers#Dr. Scholl's Cushlin Ultra Slim Corn Removers#Dr. Scholl's Soft Corn Removers#Dr. Scholl's Waterproof Corn Removers#Dr. Scholls Callus Removers#Dr. Scholls Clear Away Wart Remover#Dr. Scholls Clear Away Wart Remover One Step#Dr. Scholls Clear Away Wart Remover Plantar#Dr. Scholls Clear Away Wart Remover Ultra Thin Discs#Dr. Scholls Clear Away Wrt Removers With Duragel Technology#Dr. Scholls Corn Removers#Dr. Scholls Corn/callus Remover#Dr. Scholls Duragel Callus Removers#Dr. Scholls Duragel Corn Removers#Dr. Scholls Extra Thick Callus Removers#Dr. Scholls One Step Callus Removers#Dr. Scholls One Step Corn Removers#Dr. Scholls Ultra Thin Corn Removers#Dr. Scholls Work Corn Removers#Dr. Sheffield Psoriasis Medicated Moisturizer#Dr.eslee Skin Mild#Dr.g A Clear Aroma Spot Toner#Dr.g A Clear Foam Cream#Dr.jart Dermask Micro Jet Clearing Solution#Dr.scholl's Fixo Corn Removers#Dual Action Moisturizer#Duofilm Gel for Kids#Duofilm Wart Remover#Dusel Psoriasis Dead Sea Salt Therapy#Easter Scalp Tonic#Easydew Daily 2 Step Derma Peel Mask#Eau Thermale Avene Akerat S Psoriasis Skin#Ecosom#Ecosom Tonic#Effaclar K#Eh Hair Plus Regeneration Hair Care#Element 47 Face and Body Acne Treatment#Elf Acne Fighting Foundation#Elf Acne Fighting Foundation Beige#Elf Acne Fighting Foundation Buff#Elf Acne Fighting Foundation Caramel#Elf Acne Fighting Foundation Chestnut#Elf Acne Fighting Foundation Coffee#Elf Acne Fighting Foundation Ivory#Elf Acne Fighting Foundation Porcelain#Elf Acne Fighting Foundation Sand#Elf Acne Fighting Spot Gel With Aloe Clear#Elf Beige Acne Fighting Foundation#Elf Blemish Control Face Primer Clear#Elf Buff Acne Fighting Foundation#Elf Caramel Acne Fighting Foundation#Elf Clarifying Pressed#Elf Clear Blemish Control Face Primer#Elf Conceler Pencil and Brush#Elf Ivory Acne Fighting Foundation#Elf Porcelain Acne Fighting Foundation#Elf Sand Acne Fighting Foundation#Elf Zit Eraser#Elf Zit Zapper#Elf Zit Zapping Conceler#Emergency Zit Treatment Acne#Enfuselle Acne Clarifying#Enregin Anti-blemish Cleanser#Ephiderm Spot Treatment#Epoch#Equaline#Equate Acne Treatment Body Pads#Equate Anti Dandruff#Equate Cleansing Pads#Equate Corn and Callus Remover#Equate One Step Corn Remover Pad#Erase It Kit#Exfoliating Cleanser#Exfolikate Acne#Exorex Acne Formula#Extra Thick Callus Removers#Exuviance Daily Acne Peel Exfoliating Anti-blemish Pads#Facial Cleanser#Family Care Ultra Acne Treatment#Family Dollar Oil Free Acne Wash#Finafta#Flawless Face#Foaming Cleanser#Foaming Cleanser Jafra#Formule L2#Fostex Medicated Cleansing Bar#Fostex Medicated Cleansing Cream#Four Season Essence#Freezone Liq#Full Hair Solution#G.M. Collin Acne#G.M. Collin Complex Acne#G.M. Collin Oxygenating Treatment#G.M. Collin Puracne Treating#Garnier Clean Blackhead Eliminating Scrub#Garnier Fructis Antidandruff Clear Control#Glycare Acne#Glysal Clear Acne Treatment Serum#Glytone Acne#Glytone Acne Back#Glytone Acne Cleansing Toner#Glytone Acne Clearing Toner#Glytone Acne Self Cleanser#Glytone Acne Treatment Facial Cleanser#Gmc Medical Acne Treating#Gmc Medical Acne Treatment#Gmc Medical Acne-clear#Good Neighbor Pharmacy Scalp Relief#Grahams Natural Psoriasis and Dermatitis#H2o + Acne Spot Treatment#Hair Green Mugungjin Tonic#Haircop Hairdanbi Natural#Hasol Anagen Hair Tonic#Hasol Anagen Scalp#Hasol Anti Hair Loss#Hasol Anti Hair Loss Day Tonic#Hasol Intensive#Hasol Intensive Scalp Tonic#Hasol Vital for Hair-loss Tonic#Herbal Essences Anti-dandruff Shampoo#Hesol Rim#Hesol Rim Jean-aeck Hair Tonic#Hesol Rim Tonic#Home Health Everclean Antidandruff#Home Health Psoriasis#Home Health Psoriasis Medicated Scalp and Body Wash#Hope In A Bottle#Hydraclear Hydrating Acne Gel#Iaso Intensive Clear Booster#Iaso Intensive Clear Conditioner#Imba - Crm 3%#Inixial Perfection Matt Balancing Care Salicylic Acid 2% Acne Treatment#Inixial Perfection Purity Salicylic Acid 0.5% Acne Treatment#Inixial Perfection Stop Blemishes Salicylic Acid 2% Acne Treatment#Instanatural Acne Cleanser#Instanatural Acne Moisturizer#Ionil Shampoo#Irish Spring Body Wash Clear and Fresh Skin#Isomers Clear Skin Acne Treatment Cleanser#Isomers Clear Skin Acne Treatment Gel#Isomers Clear Skin Acne Treatment Lotion#Jafra Clear Blemish Treatment#Jason Dandruff Relief Treatment#Jinhancho#Johnson's Clean & Clear Dual Action Moisturizer#Johnson's Clean & Clear Pore Prep#Johnson's Clean & Clear Skin Balancing Mois.#Johnson's Cln&clr Sens.skin Skin Balanc.mois#Johnson's Cln.and Clr.invis.blem.treat.reg.#Keralyt#Keralyt Gel 6%#Kerasal Topical Solution#Kiehls Since 1851 Blue Herbal Acne Cleanser Treatment#Kiehls Since 1851 Blue Herbal Gel Cleanser Acne Treatment#Kiehls Since 1851 Blue Herbal Moisturizer Acne Treatment#Kiehls Since 1851 Blue Herbal Spot Treatment Acne Treatment#Kiehls Since 1851 Dermatologist Solutions Acne Blemish Control Daily Skin Clearing Treatment#Kiehls Since 1851 Dermatologist Solutions Breakout Control Acne Treatment Facial#Kiko Milano Shine Refine Spot#Klearactil#Kleer-plex Advanced Acne Care System#Kleer-plex Foaming Acne Clarifier#Kleer-plex Penetrating Acne#Kleer-plex Targeted Acne Pen#Kpp Ultra Thick Medicated Callus Remover#Kpp Ultra Thin Corn Removers#Kroger Daily Face Wash#LA Prairie Switzerland Cellular Blemish Control#LA Roche Posay Laboratoire Dermatologique Effaclar Clarifying#LA Roche Posay Laboratoire Dermatologique Effaclar K#LA Roche Posay Laboratorie Dermatologique Effaclar Medicated Cleanser#LA Rocheposay Laboratoire Dermatologique Effaclar K Salicylic Acid Acne Treatment#Lancell Hair Loss Prevention Hair Grower Tonic#Lancell Huitomo Hair Loss Prevention Hair Growing Tonic#Lassar's Paste#Lassar's Pst#Lerosett High-content Organic Acne Treatment Botanically Based#Let Me Clarify#Liquid Corn and Callus Remover#Locasalen#Lqd Acne Blemish Treatment Control#Lucky Supersoft Oil Free Acne Wash#M-A-C Radically Clear Blemish Cream#Mark. Back Up Plan Anti-acne Back Treatment#Mark. Blemish Banisher Anti-acne Body Treatment Pads#Mark. Break Out Plan#Mark. Get Treatment Anti-acne Overnight Treatment#Mark. Help Wanted Anti-acne Exfoliating Cleanser#Mark. Save The Day Anti-acne Concealer#Mary Kay Blemish Control Toner Acne Medication#Matrix Active Solns Blemish Control Acne Tr.#Mattifying Tonic Jafra#Maximum Strength One Step Wart Remover Strips#Maximum Strength Wart Remover Strips#Maximum Strength Wart Remover With Salicylic Acid#Maybelline Dream Pure Bb Beauty Balm#Mazon Medicated Cream#Mazon Medicated Shampoo#Md Cell#Md Cell Scalp#Md Cell Solution#Medi-dan Shampoo#Medibac Clearing Complex#Medicated Acne Pads#Medicated Acne Shower#Medicated Apricot Scrub#Medicated Callus Removers#Medicated Corn Removers#Mediceuticals X-derma Dry Scalp and Hair Treatment#Mediplast#Mediplast 40% Plaster#Meijer Ultimate#Melaleuca Shampooing Antipelliculaire Pellicules Seches, Cuir Chevelu Sec-rene Furterer#Methenamine and Sodium Salicylate#Mg217 Psoriasis#Mg217 Psoriasis Therapeutic Conditioner#Miracle Rash Repair#Mizani Scalp Care Pretreatment Antidandruff Treatment#Mizon Acence Blemish Out Pink Spot#Moderate Acne Treatment#Moemo Ceracos Black#Moisturizing and Cleansing Acne Wipes#Mosco Callus & Corn Remover Oint 400%#Mu Lab Yeco Solu Tion Bp Refresh EX#Narasoo Hair Tonic#Narasoo Healing#Nas Daily Moisturizing#Nas Max Strength Spot Treatment#Nas Pore Refining Scrub#Nas Purifying Cleanser#Nas Targeted Spot Treatment#Natria Acne Treatment#Natural Acne Solutions 3 Step Regimen#Natural Acne Solutions Clarifying Toner#Natural Peeling Triactive Acne#Natural Pure Balancing Hair#Ndm Scalp Tonic#Neostrata Astringent Acne Treatment#Neova Breakout Control#Nerisalic Oily Cream#Neutralyze Spot Treatment#Neutrogena All In 1 Acne Control Daily Scrub#Neutrogena All-IN-1 Acne Control Facial Treatment#Neutrogena Blackhead Eliminating Cleanser Mask#Neutrogena Blackhead Eliminating Daily Scrub#Neutrogena Body Clear Body#Neutrogena Body Clear Body Scrub#Neutrogena Body Clear Body Wash#Neutrogena Body Clear Body Wash - Pink Grapefruit#Neutrogena Body Clear Body Wash Pink Grapefruit#Neutrogena Clear Pore Oil-absorbing Astringent#Neutrogena Clear Pore Oil-eliminating Astringent#Neutrogena Complete Acne Therapy Solution#Neutrogena Complete Acne Therapy System#Neutrogena Healthy Scalp Anti-dandruff Shamp#Neutrogena Healthy Scalp Antidandruff Shampoo#Neutrogena Men Skin Clearing Acne Wash#Neutrogena Naturals Acne Cleanser#Neutrogena Naturals Acne Foaming Scrub#Neutrogena Naturals Acne Spot Treatment#Neutrogena Oil Free Acne Correct and Cover Pink Grapefruit Moisturizer Fair To Light#Neutrogena Oil Free Acne Correct and Cover Pink Grapefruit Moisturizer Medium To Tan#Neutrogena Oil Free Acne Moisturizer Pink Grapefruit#Neutrogena Oil Free Acne Stress Control#Neutrogena Oil Free Acne Stress Control 3 In 1 Hydrating Acne Treatment#Neutrogena Oil Free Acne Stress Control Night Cleansing Pads#Neutrogena Oil Free Acne Stress Control Power Clear Scrub#Neutrogena Oil Free Acne Stress Control Power Foam Wash#Neutrogena Oil Free Acne Stress Control Triple Action Toner#Neutrogena Oil Free Acne Wash#Neutrogena Oil Free Acne Wash Cleanser#Neutrogena Oil Free Acne Wash Cleansing#Neutrogena Oil Free Acne Wash Pink Grapefruit Cleanser#Neutrogena Oil Free Acne Wash Pink Grapefruit Facial Cleanser#Neutrogena Oil Free Acne Wash Pink Grapefruit Foaming Scrub#Neutrogena Oil Free Acne Wash Redness Soothing Cream Cleanser#Neutrogena Oil Free Acne Wash Redness Soothing Facial Cleanser#Neutrogena Oil Free Acne Wash Redness Soothing Gentle Scrub#Neutrogena Oil-free Acne Pads#Neutrogena Oil-free Acne Wash Clear Skin Wipes#Neutrogena Oil-free Acne Wash Daily Scrub#Neutrogena Oil-free Acne Wash Pink Grapefruit Foaming Scrub#Neutrogena Rapid Clear#Neutrogena Rapid Clear 2 In 1 Fight and Fade#Neutrogena Rapid Clear 2 In 1 Fight and Fade Toner#Neutrogena Rapid Clear 7 Day Acne Intervention#Neutrogena Rapid Clear Acne Defense Face#Neutrogena Rapid Clear Acne Eliminating Spot#Neutrogena Rapid Clear Foaming Scrub#Neutrogena Skin Clearing#Neutrogena Skin Clearing Astringent After Shave#Neutrogena Skin Clearing Blemish Concealer - Buff 09#Neutrogena Skin Clearing Blemish Concealer - Fair 05#Neutrogena Skin Clearing Blemish Concealer - Light 10#Neutrogena Skin Clearing Blemish Concealer - Medium 15#Neutrogena Skin Clearing Face Wash#Neutrogena Skin Clearing Shave Cream#Neutrogena Skin Polishing Acne Cleanser#Neutrogena Skinclearing Complexion Perfector Deep 50#Neutrogena Skinclearing Complexion Perfector Fair 10#Neutrogena Skinclearing Complexion Perfector Light 20#Neutrogena Skinclearing Complexion Perfector Light To Medium 30#Neutrogena Skinclearing Complexion Perfector Medium 40#Neutrogena Skinclearing Mineral - Buff#Neutrogena Skinclearing Mineral - Classic Ivory#Neutrogena Skinclearing Mineral - Honey Beige#Neutrogena Skinclearing Mineral - Natural Beige#Neutrogena Skinclearing Mineral - Natural Ivory#Neutrogena Skinclearing Mineral - Nude#Neutrogena Skinclearing Mineral - Soft Beige#Neutrogena Skinclearing Mineral - Tan#Neutrogena Skinclearing Oil Free Makeup - 105 Caramel#Neutrogena Skinclearing Oil Free Makeup - 115 Cocoa#Neutrogena Skinclearing Oil Free Makeup - 135 Chestnut#Neutrogena Skinclearing Oil Free Makeup - 85 Honey#Neutrogena Skinclearing Oil Free Makeup - Buff 30#Neutrogena Skinclearing Oil Free Makeup - Classic Ivory 10#Neutrogena Skinclearing Oil Free Makeup - Fresh Beige 70#Neutrogena Skinclearing Oil Free Makeup - Honey Beige 110#Neutrogena Skinclearing Oil Free Makeup - Medium Beige 80#Neutrogena Skinclearing Oil Free Makeup - Natural Beige 60#Neutrogena Skinclearing Oil Free Makeup - Natural Ivory 20#Neutrogena Skinclearing Oil Free Makeup - Natural Tan 100#Neutrogena Skinclearing Oil Free Makeup - Nude 40#Neutrogena Skinclearing Oil Free Makeup - Soft Beige 50#Neutrogena Skinclearing Oil Free Makeup - Tan 120#Neutrogena Skinclearing Oil Free Makeup - Warm Beige 90#Neutrogena Soothing Gel Astringent#Neutrogena T/sal Therapeutic#Neutrogena Tgel Therapeutic Conditioner#Neutrogena* Clear Pore Treatment#New Premium Notamo#New Premium Notamo Tonic#Nexiclear Acne Treatment#Nixoderm Unguento#No Zit Sherlock Acne Correcting#No Zit Sherlock Acne Oil Control#No Zit Sherlock Acne Purifying Cleanser Toner#No Zit Sherlock Acnespot Treatment Spot Treatment#Notamo Hair Tonic#Nots 28 Remedy Acne Pore Deep Cleanser#Noxzema#Noxzema 2-IN-1 Astringent#Noxzema 2-IN-1 Pads#Noxzema 2-IN-1 Pads - Regular Strength#Noxzema Antiblemish#Noxzema Antiblemish Daily Scrub#Noxzema Triple Clean#Noxzema Triple Clean Astringent#Nu Pore Acne#Nu Skin Clear Action Acne Medication Day Treatment#Nu Skin Clear Action Acne Medication Foaming Cleanser#Nu Skin Clear Action Acne Medication Night Treatment#Nu Skin Clear Action Acne Medication Toner#Nutrixyl Anti-dandruff#Nuvileo Acne Face Wash#Nuvileo Skin Perfecting Acne#Obagi#Obeo Hair#Off-ezy Corn and Callus Remover Liq#Off-ezy Wart Remover Kit 17.0% Liq#Offects Te-pads Acne Pore Treatment System#Oil Control#Oil Free Acne Cleansing Towelette#Oil Free Acne Scrub Cvs#Oil Free Acne Scrub Salicylic Acid Acne Treatment#Oil Free Acne Wash#Oil Free Blackhead Removal Scrub#Oil Free Daily Acne Scrub Cvs#Oil-free Acne Wash#Oil-free Acne Wash Foaming Scrub#Oil-free Acne Wash Lot 2%#Oil-free Astringent#Oil-free Daily Face#Oil-free Foaming Acne Wash#Oil-free Foaming Acne Wash Facial Cleanser Grapefruit#Oil-free Foaming Acne Wash Facial Cleanser Tea Tree Oil#Oil-free Foaming Acne Wash Tea Tree Oil#Oily Sk Balancing I#Oily Sk Cleansing#Oily Sk Specific Solutions#Olay Acne Control Face Wash#Olay Clearly Clean Acne Treament Scrub#Olay Fresh Effects Acne Control Scrub#Olay Fresh Effects Acne Face Wash#Olay Fresh Effects Clear Skin Acne Hater Deep Scrub#Olay Fresh Effects Clear Skin Spot Zinger#Olay Total Effects Blemish Control Acne Cleanser#Olp Acne Clear#On-the-spot Blemish Wand#One-step Wart Remover Clear#Oripan Gold#Oripan Gold 100g#Oripan Gold 80g#Overnight Clearing#Oxipor Lotion#Oxy 3 In 1 Pads Maximum Action#Oxy Clean Pore Astringent#Oxy Cleansing Maximum#Oxy Cleansing Pads Daily Defense#Oxy Control Extra Strength - Lot 2%#Oxy Control Regular Strength-lot 1%#Oxy Daily Cleaning Pads - Regular#Oxy Daily Defense Advanced Facial Cleanser Aloe Cucumber Extract#Oxy Daily Defense Advanced Facial Cleanser Citrus Extract#Oxy Daily Defense Advanced Facial Cleanser Tropical Berry Extract#Oxy Daily Defense Cleansing Pads#Oxy Daily Defense Cleansing Pads Sensitive#Oxy Daily Defense Exfoliating Body Scrub#Oxy Daily Defense Exfoliating Face Scrub#Oxy Daily Defense Face Wash#Oxy Daily Defense Facial Cleanser#Oxy Daily Defense Ultra Facial Cleanser#Oxy Deep Pore Cream Cleanser#Oxy Deep Pore Facial Cleanser - 2%#Oxy Exfoliating Body Scrub#Oxy Extra Strength Night Watch Lot 2%#Oxy Finishing Toner#Oxy Hydrating Body Wash#Oxy Maximum Action 3 In 1 Treatment Pads#Oxy Medicated Pads Deep Cleaning#Oxy Medicated Pads Regular#Oxy Night Watch Extra Strength Lot 2%#Oxy Rapid Treatment 3 In 1 Pads Maximum Action#Oxy Skin Clearing 3 Way Use Cleanser Daily Defense#Oxy Skin Clearing Blackhead Removing Scrub Daily Defense#Oxy Skin Clearing Brightening Cleanser Daily Defense#Oxy Skin Clearing Cleansing Pads Daily Defense#Oxy Skin Clearing Revitalizing Cleanser Daily Defense#Oxy Skin Clearing Soothing Cleanser Daily Defense#Oxygenetix Oxygenating Foundation Acne Control#P&s Plus#Panoxyl Clear Acne Cleansing Gel#Paraid One Step Wart Remover Strips#Paula's Choice Clear Anti-acne Extra Strength System#Paula's Choice Clear Anti-acne Regular Strength System#Pazol Xs#Pca Skin Acne#Pca Skin Intensive Clarity Treatment#Ped X Callus Removers, Extra Thick Medicated#Ped X Callus Removers, Medicated#Ped X Corn Removers, Medicated#Pedi-quick Onestep Corn Removers#Perfect Me Serum#Perfect Purity Oil Free Acne Wash#Pernox Crm#Pernox Crm Lemon#Personal Care Acne Control#Personal Care Oil-free Acne Wash#Personal Care Sensitive Skin Deep Cleaning Astringent#Phace Bioactive Clarifying Serum#Pharma Clear Acne Treatment#Pharma Clear Cleanser#Pharma Clear Moisturizer#Pharma Clear Spot Treatment#Pharmassist Clarifex Ph Liq 0.7%#Phisoderm Acne Therapy#Phisoderm Anti Blemish Body Wash#Phisoderm Anti-blemish Gel Cleanser#Phisoderm Clear Confidence Body Wash#Phisoderm Clear Confidence Daily Gel Face Wash#Phisoderm Clear Confidence Face Scrub#Photo Finish More Than Primer Blemish Control#Phs Hair Science Fem Hair Loss Tonic#Phs Hair Science Hom Hair Loss Tonic#Phs Hair Science Pro Hair Loss Tonic#Phytum Antipelliculaire Shampooing Purifiant#Plantar Wart Removers#Plax Anti-plaque Dental Rinse#Pore Rescue Acne#Pore Rescue Acne Biolements#Power Base Bioelements, Inc.#Premium Notamo#Prep and Prime Blemish Control Acne Treatment#Preparing Tonic#Proactiv Clarifying Night Acne Treatment#Proactiv Clear Zone#Proactiv Clear Zone Body Pads#Proactiv Deep Cleansing Wash#Proactiv Gentle Formula Clarifying Cleanser#Proactiv Gentle Formula Clarifying Day#Proactiv Gentle Formula Clearifying Night#Proactiv Mild Exfoliating Peel#Proactiv Plus Clarifying Night#Proactiv Plus Cleansing Body Bar#Proactiv Plus Complexion Perfecting Hydrator#Proactiv Plus Retexturizing Toner#Proactiv Pore Cleansing System#Proactiv Revitalizing Toner Combination Therapy Acne Treatment#Proactiv Solution Advanced Daily Oil Control#Proactiv Solution Blackhead Dissolving#Proactiv Solution Deep Cleansing Wash#Proactiv Solution Extra Strength Formula Toner Acne Treatment#Proactiv Solution Medicated Cleansing Bar#Proactiv Solution Purifying Botanical Peel#Proactive Solution Cleaning Bar#Proactivplus Repairing Concealer (light/medium/tan/dark)#Procure Psoriapalm#Propa Ph Astringent Cleanser Normal/sensitiv#Propa Ph Astringent Cleanser-extra Strength#Propa Ph Cleanser (normal)#Propa Ph Cleanser (sensitive)#Propa Ph Cream (sensitive)#Propa Ph Foaming Face Wash - Liq 2%#Propa Ph Pads (sensitive)#Psocleer Advanced Psoriasis#Psoracare#Psoriapalm Non-greasy Psoriasis#Psoriasin Medicated Wash#Psoriasin Therapeutic Shampoo and Body Wash#Psoriasis Control#Psoriasis Scalp Masgatt N9#Psoricare Crm 3%#Psoriwash Mashatt N9#Pure System Stop Blemish#Quitacallos#R-044 Blemish Fix#Ratio-topisalic#Refine Complexion Clearing Pads#Rejuvaderm Medispa Acne Back#Renewal#Renewal Anti-dandruff#Repiel Smart Foot Peeling Perfect Care#Reversion Acne Control Clarifying Cleanser#Reversion Acne Control Clarifying Cleanser Face and Body#Reversion Acne Control Purifying Toner#Revitealize Anti Dandruff#Revlon New Complexion Correct & Conceal Blemish Stick#Rite Aid Acne Pads, Daily Cleansing Pads#Rite Aid Renewal#Rite Aid Renewal Acne#Roothouse Encore#ST. Ives Blackhead Clearing Green Tea Scrub#ST. Ives Blemish Control Green Tea Scrub#ST. Ives Blemish and Blackhead Control#ST. Ives Blemish and Blackhead Control Apricot Scrub#ST. Ives Blemish and Blackhead Facial#ST. Ives Blemish and Blackhead Facial Wash#ST. Ives Body Scrub Naturally Clear Skin Green Tea#ST. Ives Body Wash Naturally Clear Skin Green Tea#ST. Ives Green Tea Cleanser#ST. Ives Green Tea Scrub#ST. Ives Medicated Apricot Daily Cleansing Cloths#ST. Ives Naturally Clear Green Tea Facial#ST. Ives Naturally Clear Skin Green Tea Facial#Sal-plant Gel#Salac 2%#Salactic Film#Salacyn#Salex#Salic-2#Salicylic Acid#Salicylic Acid 6 Percent#Salicylic Acid Corn Remover#Salicylic Acid Corn Removers#Salicylic Acid Soap 3.5%#Salicylic Acid Wart Remover#Salicylic Face and Body Wash#Salicylic Wash#Saliject 570mg/ml#Salinocaine#Salises Facial Moisturizing Acne Treatment Gel#Salises Facial Moisturizing Acne Treatment Gel 50ml#Salseb Medicated Shampoo#Salvax#Sastid Soap for Stubborn Acne#Satos Corn and Callus Remover#Savex With Paba#Savex With Sunscreen Ont#Scal-tonic Intensive Liquid Hair Care#Scalpicin 2 In 1#Scalpicin Anti Itch Medication#Scalpicin Anti-dandruff Anti-itch Liquid#Scar Zone Acne#Scholl Wart Remover Liq 17%#Sea Breeze Actives Clear-pore Astringent#Sea Breeze Actives Deep-clean Astringent#Seacret Active Clear Facial Wash#Seacret Clear Active Clear Facial Wash#Sebcur-T#Sebex#Sebobalance Purifying Sebo-absorbing Mask#Sebobalance Spot Control#Sebulex Liq#Sebum Clearing Masque#Sebutone Shampoo#Selsun Blue Deep Cleansing Micro-bead Scrub#Selsun Blue Naturals Island Breeze#Selsun Blue Naturals Itchy, Dry Scalp#Sensitive Skin Deep Cleaning Astringent#Sensitive Skin Facial Astringent#Sephora Acne-fighting Mattifying Moisturizer#Sephora Acne-fighting Roll-ON#Shine Away Acne Control Primer - Lot 0.5%#Shiseido Ibuki Multi#Shiseido Pureness Anti-shine Refreshing Lotion#Simicort - Crm  1.8%#Simmyungsaengmosu Hair Tonic#Skin Clearify Cleanser#Skin Clearify Mask#Skin Clearify Moisturizer#Skin Clearify Spot Treatment#Skin Medica Purifying Foaming Wash#Skin Perfecting Acne and Blemish Wash#Skin Pharmacy Advanced Acne Therapy Clarifying Daily Cleanser#Skin Pharmacy Advanced Acne Therapy Kit#Skin Pharmacy Advanced Acne Therapy Overnight Salicylic Acid#Skin Pharmacy Advanced Acne Therapy Pore Refining Facial Mask#Skin Purifying Wipes#Skinceuticals Blemish Plus Age Defense Acne Treatment#Skinceuticals Clarifying Cleanser#Skinmedica Purifying Toner#Skintx Acne Treatment System#Skintx Medicated Acne Wash#So Fresh So Clean Maximum Acne Treatment#So Fresh So Clean Mild Acne Treatment#So Totally Clean Anti-blemish Pads#So Totally Clean Deep Pore Cleanser#Softsheencarson Magic Bump Rescue Spot Treatment#Soluver Enfants/kids#Solv X#Soothion Acne Treatment Formula#Soothion Psoriasis and Seborrheic Dermatitis Formula#Sound Body#Specific Beauty Clarifying Wash Acne Treatment Cleanser#Spot Control#Spot Remover Acne Treatment Pads#Spot Repairing Serum#Spotless Cleanser Bioelements#Stay Pure Acne Treatment#Sterex Crm Plus#Sterex Lot Plus#Sterex Shp#Stridex Conditioning Acne Scrub#Stridex Essential#Stridex Maximum#Stridex Naturally Clear#Stridex Sensitive#Super Bump Relief#Super Spot Remover Acne Treatment#Synergy Booster#Systeme Biolage Anti-dandruff Shampoo - 2%#T/gel Overnight Dandruff Treatment#T/gel Shampoo#Take Control Calming Cleanser#Tardan Shp#Targel Sa#Ten-O-six Medicated Deep Pore Cleanser#Ten-O-six Medicated Deep Pore Gel - 2%#Terrasil Psoriasis Therapy Maximum Strength#Terrasil Wart Removal#Terrasil Wart Removal Max#Thatzit Acne Treatment#Thatzit Acne Treatment Max#Thera Wise Natural Acne#Therapeutic Dandruff#Theraphytion Nokmosu#Therapro Exfoliating Dandruff Treatment Shampoo#Therapytion Hair Tonic#Therapytion Natural Deep Clean#Therapytion Natural Relaxing#Therapytion Nokmosu Hair Tonic#Thicker Fuller Hair - Dandruff Sulfate Free#Thomas Formula No 17#Thomas Formula No 47#Tiacid Solution#Tonic Acne Clearing Treatment#Trans-plantar 20mm Pls 15%#Trans-ver-sal 6mm Pls 15%#Ultimate Daily Face Wash#Ultrasal-ER#Unagel#Up and Up Oil-free Cleansing Wipe Pink Grapefruit#Verruguin#Verrustat Medicated Plantar Pads#Verrustat Wart Remover#Verucide Physician Formula#Vichy Laboratoires Normaderm Beautifying Anti Acne Care 24 H Hydrating Acne Treatment#Vichy Laboratoires Normaderm Daily Deep Cleansing#Vichy Laboratoires Normaderm Daily Gentle Cleanser#Vichy Laboratoires Normaderm Daily Pore Unclogging Scrub#Vichy Laboratoires Normaderm Hyaluspot Acne Treatment#Vichy Laboratoires Normaderm Purifying Pore Tightening Toner#Vichy Laboratoires Normaderm Triple Action 3 In 1 Cleanser#Vichy Laboratoires Normaderm Triple Action Anti Acne Hydrating#Vichy Laboratoires Normaderm Triple Action Antiacne Hydrating#Vichy Normaderm Daily Deep Cleansing#Vichy Normaderm Pore Unclogging Daily Scrub#Vichy Normaderm Purifying Pore Tightening Toner#Vichy Normaderm Total Mat#Viper Acne Body Wash#Virasal#Vircin Advanced Wart Treatment#Virtual Clarity#Visco-gel Medicated Round Callus Removers#Vitabrid C12 Hair Tonic#Vitabrid C12 Hair Tonic Professional#Vitale Sensitive Scalp 12 In 1 Instant Relief Anti Dandruff Spray#Walgreens Corn Remover#Walgreens Medicated Callus Removers#Walgreens Oil-free Acne Wash#Walgreens Pink Grapefruit#Wart Remover#Wart Remover Gel#Wart Remover Liquid#Wartrol Wart Remover#Well At Walgreens Pink Grapefruit#Well At Walgreens Ultimate Daily#Wet Wipes#X Out Cleansing Body#X Out Cleansing Body Bar#X Out Daily Body Scrub#X Out Shine Control#X-seb Plus Conditioning Shampoo#X-seb T Plus Conditioning Shampoo#X-seb T Shampoo#X-tar Shampoo#Xtracare Dandruff Hair Wash#Xtracare Deep Cleaning Astringent#Yat Tip Tor#Yat Tip Xiao#Yes To Tomatoes#Yes To Tomatoes Acne Clearing Facial Toner#Yes To Tomatoes Acne Control Gel Cleanser#Yes To Tomatoes Acne Fighting Paper Mask#Yes To Tomatoes Clear Skin Corrective Concealer Light Tint#Yes To Tomatoes Daily Pore Scrub#Yes To Tomatoes Daily Repair Treatment#Yes To Tomatoes Detoxifying Charcoal Cleanser#Yes To Tomatoes Detoxifying Charcoal Mud Mask#Yes To Tomatoes Roller Ball Spot Stick#Yourgoodskin Blackhead Clearing Scrub#Ys Solution Ac Care#Ys Solution Ac Control Skin Regular Mild#Ys Solution Intensive Ac Care#Zap-IT - Crm - 2.0%#Zit Eraser#Zit Zapper#Zo Medical Aknebright Acne Spot and Pigmentation Treatment#Zo Medical Cebatrol Oil Control Pads Acne Treatment#Zo Skin Health Gsr (getting Skin Ready) System#Zo Skin Health Offects Correct and Conceal Acne Treatment (light)#Zo Skin Health Offects Correct and Conceal Acne Treatment (medium)#Zoono Skin Clear Acne Medication#Compound W#Dr. Scholl's Callus Removers#Dr. Scholl's Corn Removers#Dr. Scholl's Wart Remover Kit#Duofil Wart Remover#Duoplant#Ionil Plus shampoo#Salonil#Salsonin#Stridex

>  <DrugBank ID>  (1) 
DB00936

>  <ATC Codes>  (1) 
D01AE12#N02BA04#S01BC08

>  <Ligand ID>  (1) 
SAL

>  <Target Name>  (1) 
Prostaglandin G/H synthase 1

>  <UniProt ID>  (1) 
P23219

>  <PDB ID.1>  (1) 
1PTH

>  <Seq. Identity>  (1) 
89%

$$$$
