PDB_DB00951_04
     RDKit          3D

 25 25  0  0  0  0  0  0  0  0999 V2000
   -1.3234    0.0813   -0.3486 C   0  0  2  0  0  0  0  0  0  0  0  0
   -0.0535    0.1281    0.5127 C   0  0  0  0  0  0  0  0  0  0  0  0
    2.5961    0.0642   -0.5048 N   0  0  0  0  0  0  0  0  0  0  0  0
   -2.1059    1.1619    0.0638 O   0  0  0  0  0  0  0  0  0  0  0  0
    0.6943    1.3866    0.3370 C   0  0  0  0  0  0  0  0  0  0  0  0
   -2.0605   -1.1266    0.0546 N   0  0  0  0  0  0  0  0  0  0  0  0
    1.9554    1.3221   -0.4340 C   0  0  0  0  0  0  0  0  0  0  0  0
   -3.2343   -1.2458   -0.6833 N   0  0  0  0  0  0  0  0  0  0  0  0
    2.1798   -0.8851    0.4905 C   0  0  0  0  0  0  0  0  0  0  0  0
    0.7037   -1.1297    0.2807 C   0  0  0  0  0  0  0  0  0  0  0  0
   -1.1005    0.0828   -1.4154 H   0  0  0  0  0  0  0  0  0  0  0  0
   -0.4476    0.0869    1.5718 H   0  0  0  0  0  0  0  0  0  0  0  0
    2.6665   -0.3438   -1.4605 H   0  0  0  0  0  0  0  0  0  0  0  0
   -2.3315    0.9833    1.0244 H   0  0  0  0  0  0  0  0  0  0  0  0
    0.8862    1.8886    1.3320 H   0  0  0  0  0  0  0  0  0  0  0  0
    0.0122    2.1176   -0.1921 H   0  0  0  0  0  0  0  0  0  0  0  0
   -2.2877   -1.0329    1.0609 H   0  0  0  0  0  0  0  0  0  0  0  0
    2.6980    2.0553    0.0004 H   0  0  0  0  0  0  0  0  0  0  0  0
    1.8113    1.6940   -1.4908 H   0  0  0  0  0  0  0  0  0  0  0  0
   -4.0616   -1.0245   -0.0600 H   0  0  0  0  0  0  0  0  0  0  0  0
   -3.1984   -0.5662   -1.4736 H   0  0  0  0  0  0  0  0  0  0  0  0
    2.2901   -0.4091    1.4834 H   0  0  0  0  0  0  0  0  0  0  0  0
    2.7938   -1.7807    0.4165 H   0  0  0  0  0  0  0  0  0  0  0  0
    0.4116   -1.9277    1.0156 H   0  0  0  0  0  0  0  0  0  0  0  0
    0.5059   -1.5806   -0.7196 H   0  0  0  0  0  0  0  0  0  0  0  0
  1  2  1  0
  1  4  1  0
  2  5  1  0
  1  6  1  0
  3  7  1  0
  5  7  1  0
  6  8  1  0
  3  9  1  0
  2 10  1  0
  9 10  1  0
  1 11  1  6
  2 12  1  0
  3 13  1  0
  4 14  1  0
  5 15  1  0
  5 16  1  0
  6 17  1  0
  7 18  1  0
  7 19  1  0
  8 20  1  0
  8 21  1  0
  9 22  1  0
  9 23  1  0
 10 24  1  0
 10 25  1  0
M  END
>  <PDBID>  (1) 
5KSG

>  <PDB ID>  (1) 
5KSG

>  <Generic Name>  (1) 
Isoniazid

>  <Brand Name>  (1) 
Dom-isoniazid 300mg Tablets#Isonarif#Isoniazid#Isoniazid Syrup 50mg/5ml#Isoniazid Tab 100mg#Isoniazid Tab 300mg#Isoniazid Tab 50mg#Isoniazide 100mg Tablets#Isotamine B 300#Isotamine Powder#Isotamine Syr Pediatric 50mg/5ml#Isotamine-100#Isotamine-300#Pdp-isoniazid#Rifamate#Rifater#Nicozid#Nidrazid#Nydrazid#Rimicid#Rimifon#Servizid#Tibinide

>  <DrugBank ID>  (1) 
DB00951

>  <ATC Codes>  (1) 
J04AM04#J04AM02#J04AM06#J04AM03#J04AM05#J04AM01#J04AC51#J04AC01

>  <Ligand ID>  (1) 
NIZ

>  <Target Name>  (1) 
Catalase-peroxidase

>  <UniProt ID>  (1) 
Q08129

>  <PDB ID.1>  (1) 
5KSG

>  <Seq. Identity>  (1) 
66%

$$$$
