PDB_DB01127_06
     RDKit          3D

110114  0  0  0  0  0  0  0  0999 V2000
    2.1508   -0.1606    0.2774 C   0  0  0  0  0  0  0  0  0  0  0  0
    3.3457   -1.1099    0.4621 C   0  0  0  0  0  0  0  0  0  0  0  0
   -2.3209    0.3866    2.0952 Cl  0  0  0  0  0  0  0  0  0  0  0  0
   -2.3714   -3.4923    1.2788 C   0  0  0  0  0  0  0  0  0  0  0  0
   -1.0787   -2.9896    0.6856 C   0  0  0  0  0  0  0  0  0  0  0  0
    4.1040    1.3607    0.4195 C   0  0  0  0  0  0  0  0  0  0  0  0
    2.6927    1.2039   -0.1147 C   0  0  0  0  0  0  0  0  0  0  0  0
    5.1003    0.4293   -0.1736 C   0  0  0  0  0  0  0  0  0  0  0  0
    5.9871    1.1482   -1.5578 Cl  0  0  0  0  0  0  0  0  0  0  0  0
   -2.6759    1.2599    0.5919 C   0  0  0  0  0  0  0  0  0  0  0  0
   -3.0359    2.6789    0.9752 C   0  0  0  0  0  0  0  0  0  0  0  0
   -2.8175    3.6606   -0.1548 C   0  0  0  0  0  0  0  0  0  0  0  0
   -1.3315    3.7259   -0.4011 C   0  0  0  0  0  0  0  0  0  0  0  0
   -3.7378    3.2108   -1.6029 Cl  0  0  0  0  0  0  0  0  0  0  0  0
   -3.3401   -3.2952    0.2116 N   0  0  0  0  0  0  0  0  0  0  0  0
   -1.9183   -1.1547   -0.6588 C   0  0  0  0  0  0  0  0  0  0  0  0
   -0.8404   -0.0895   -0.3038 C   0  0  1  0  0  0  0  0  0  0  0  0
    0.1919   -0.1861   -1.2018 O   0  0  0  0  0  0  0  0  0  0  0  0
   -1.5259    1.2290   -0.3924 C   0  0  0  0  0  0  0  0  0  0  0  0
   -1.4170   -2.4816   -0.6056 N   0  0  0  0  0  0  0  0  0  0  0  0
   -2.5041   -3.3636   -0.9967 C   0  0  0  0  0  0  0  0  0  0  0  0
    1.3412   -0.7673   -0.8254 C   0  0  0  0  0  0  0  0  0  0  0  0
    4.3850   -0.8520   -0.5840 C   0  0  0  0  0  0  0  0  0  0  0  0
   -0.6313    2.4036   -0.2526 C   0  0  0  0  0  0  0  0  0  0  0  0
    2.1508   -0.1606    0.2774 C   0  0  0  0  0  0  0  0  0  0  0  0
    3.3457   -1.1099    0.4621 C   0  0  0  0  0  0  0  0  0  0  0  0
   -2.3209    0.3866    2.0952 Cl  0  0  0  0  0  0  0  0  0  0  0  0
   -2.3714   -3.4923    1.2788 C   0  0  0  0  0  0  0  0  0  0  0  0
   -1.0787   -2.9896    0.6856 C   0  0  0  0  0  0  0  0  0  0  0  0
    4.1040    1.3607    0.4195 C   0  0  0  0  0  0  0  0  0  0  0  0
    2.6927    1.2039   -0.1147 C   0  0  0  0  0  0  0  0  0  0  0  0
    5.1003    0.4293   -0.1736 C   0  0  0  0  0  0  0  0  0  0  0  0
    5.9871    1.1482   -1.5578 Cl  0  0  0  0  0  0  0  0  0  0  0  0
   -2.6759    1.2599    0.5919 C   0  0  0  0  0  0  0  0  0  0  0  0
   -3.0359    2.6789    0.9752 C   0  0  0  0  0  0  0  0  0  0  0  0
   -2.8175    3.6606   -0.1548 C   0  0  0  0  0  0  0  0  0  0  0  0
   -1.3315    3.7259   -0.4011 C   0  0  0  0  0  0  0  0  0  0  0  0
   -3.7378    3.2108   -1.6029 Cl  0  0  0  0  0  0  0  0  0  0  0  0
   -3.3401   -3.2952    0.2116 N   0  0  0  0  0  0  0  0  0  0  0  0
   -1.9183   -1.1547   -0.6588 C   0  0  0  0  0  0  0  0  0  0  0  0
   -0.8404   -0.0895   -0.3038 C   0  0  1  0  0  0  0  0  0  0  0  0
    0.1919   -0.1861   -1.2018 O   0  0  0  0  0  0  0  0  0  0  0  0
   -1.5259    1.2290   -0.3924 C   0  0  0  0  0  0  0  0  0  0  0  0
   -1.4170   -2.4816   -0.6056 N   0  0  0  0  0  0  0  0  0  0  0  0
   -2.5041   -3.3636   -0.9967 C   0  0  0  0  0  0  0  0  0  0  0  0
    1.3412   -0.7673   -0.8254 C   0  0  0  0  0  0  0  0  0  0  0  0
    4.3850   -0.8520   -0.5840 C   0  0  0  0  0  0  0  0  0  0  0  0
   -0.6313    2.4036   -0.2526 C   0  0  0  0  0  0  0  0  0  0  0  0
    1.5630   -0.0367    1.1960 H   0  0  0  0  0  0  0  0  0  0  0  0
    3.7745   -0.9606    1.4523 H   0  0  0  0  0  0  0  0  0  0  0  0
    3.0128   -2.1763    0.3638 H   0  0  0  0  0  0  0  0  0  0  0  0
   -2.3152   -4.5646    1.5255 H   0  0  0  0  0  0  0  0  0  0  0  0
   -2.5893   -2.8746    2.1675 H   0  0  0  0  0  0  0  0  0  0  0  0
   -0.4218   -3.8937    0.5098 H   0  0  0  0  0  0  0  0  0  0  0  0
   -0.5153   -2.3383    1.3452 H   0  0  0  0  0  0  0  0  0  0  0  0
    4.1251    1.1994    1.5340 H   0  0  0  0  0  0  0  0  0  0  0  0
    4.4525    2.4004    0.2804 H   0  0  0  0  0  0  0  0  0  0  0  0
    2.6757    1.4013   -1.1834 H   0  0  0  0  0  0  0  0  0  0  0  0
    2.1003    1.9716    0.4044 H   0  0  0  0  0  0  0  0  0  0  0  0
    5.8851    0.1210    0.5653 H   0  0  0  0  0  0  0  0  0  0  0  0
   -3.5665    0.8026    0.1346 H   0  0  0  0  0  0  0  0  0  0  0  0
   -4.0369    2.7706    1.3939 H   0  0  0  0  0  0  0  0  0  0  0  0
   -2.2951    2.9656    1.7767 H   0  0  0  0  0  0  0  0  0  0  0  0
   -3.1376    4.6526    0.2338 H   0  0  0  0  0  0  0  0  0  0  0  0
   -0.9057    4.4576    0.3143 H   0  0  0  0  0  0  0  0  0  0  0  0
   -1.1226    4.1692   -1.4202 H   0  0  0  0  0  0  0  0  0  0  0  0
   -4.0778   -4.0222    0.2044 H   0  0  0  0  0  0  0  0  0  0  0  0
   -2.2992   -0.9498   -1.6768 H   0  0  0  0  0  0  0  0  0  0  0  0
   -2.7362   -1.0444    0.0481 H   0  0  0  0  0  0  0  0  0  0  0  0
   -0.5031   -0.4200    0.6850 H   0  0  0  0  0  0  0  0  0  0  0  0
   -2.0260    1.3354   -1.4052 H   0  0  0  0  0  0  0  0  0  0  0  0
   -3.0686   -2.9765   -1.8641 H   0  0  0  0  0  0  0  0  0  0  0  0
   -2.1687   -4.4122   -1.1204 H   0  0  0  0  0  0  0  0  0  0  0  0
    1.2551   -1.8539   -0.5685 H   0  0  0  0  0  0  0  0  0  0  0  0
    2.0214   -0.7452   -1.7448 H   0  0  0  0  0  0  0  0  0  0  0  0
    5.1265   -1.6915   -0.5005 H   0  0  0  0  0  0  0  0  0  0  0  0
    4.0201   -0.7870   -1.6126 H   0  0  0  0  0  0  0  0  0  0  0  0
   -0.1653    2.4019    0.7737 H   0  0  0  0  0  0  0  0  0  0  0  0
    0.1867    2.3433   -0.9834 H   0  0  0  0  0  0  0  0  0  0  0  0
    1.5630   -0.0367    1.1960 H   0  0  0  0  0  0  0  0  0  0  0  0
    3.7745   -0.9606    1.4523 H   0  0  0  0  0  0  0  0  0  0  0  0
    3.0128   -2.1763    0.3638 H   0  0  0  0  0  0  0  0  0  0  0  0
   -2.3152   -4.5646    1.5255 H   0  0  0  0  0  0  0  0  0  0  0  0
   -2.5893   -2.8746    2.1675 H   0  0  0  0  0  0  0  0  0  0  0  0
   -0.4218   -3.8937    0.5098 H   0  0  0  0  0  0  0  0  0  0  0  0
   -0.5153   -2.3383    1.3452 H   0  0  0  0  0  0  0  0  0  0  0  0
    4.1251    1.1994    1.5340 H   0  0  0  0  0  0  0  0  0  0  0  0
    4.4525    2.4004    0.2804 H   0  0  0  0  0  0  0  0  0  0  0  0
    2.6757    1.4013   -1.1834 H   0  0  0  0  0  0  0  0  0  0  0  0
    2.1003    1.9716    0.4044 H   0  0  0  0  0  0  0  0  0  0  0  0
    5.8851    0.1210    0.5653 H   0  0  0  0  0  0  0  0  0  0  0  0
   -3.5665    0.8026    0.1346 H   0  0  0  0  0  0  0  0  0  0  0  0
   -4.0369    2.7706    1.3939 H   0  0  0  0  0  0  0  0  0  0  0  0
   -2.2951    2.9656    1.7767 H   0  0  0  0  0  0  0  0  0  0  0  0
   -3.1376    4.6526    0.2338 H   0  0  0  0  0  0  0  0  0  0  0  0
   -0.9057    4.4576    0.3143 H   0  0  0  0  0  0  0  0  0  0  0  0
   -1.1226    4.1692   -1.4202 H   0  0  0  0  0  0  0  0  0  0  0  0
   -4.0778   -4.0222    0.2044 H   0  0  0  0  0  0  0  0  0  0  0  0
   -2.2992   -0.9498   -1.6768 H   0  0  0  0  0  0  0  0  0  0  0  0
   -2.7362   -1.0444    0.0481 H   0  0  0  0  0  0  0  0  0  0  0  0
   -0.5031   -0.4200    0.6850 H   0  0  0  0  0  0  0  0  0  0  0  0
   -2.0260    1.3354   -1.4052 H   0  0  0  0  0  0  0  0  0  0  0  0
   -3.0686   -2.9765   -1.8641 H   0  0  0  0  0  0  0  0  0  0  0  0
   -2.1687   -4.4122   -1.1204 H   0  0  0  0  0  0  0  0  0  0  0  0
    1.2551   -1.8539   -0.5685 H   0  0  0  0  0  0  0  0  0  0  0  0
    2.0214   -0.7452   -1.7448 H   0  0  0  0  0  0  0  0  0  0  0  0
    5.1265   -1.6915   -0.5005 H   0  0  0  0  0  0  0  0  0  0  0  0
    4.0201   -0.7870   -1.6126 H   0  0  0  0  0  0  0  0  0  0  0  0
   -0.1653    2.4019    0.7737 H   0  0  0  0  0  0  0  0  0  0  0  0
    0.1867    2.3433   -0.9834 H   0  0  0  0  0  0  0  0  0  0  0  0
  1  2  1  0
  4  5  1  0
  1  7  1  0
  6  7  1  0
  6  8  1  0
  8  9  1  0
  3 10  1  0
 10 11  1  0
 11 12  1  0
 12 13  1  0
 12 14  1  0
  4 15  1  0
 16 17  1  0
 17 18  1  0
 10 19  1  0
 17 19  1  0
  5 20  1  0
 16 20  1  0
 20 21  1  0
 21 15  1  0
  1 22  1  0
 18 22  1  0
  2 23  1  0
  8 23  1  0
 13 24  1  0
 19 24  1  0
 25 26  1  0
 28 29  1  0
 25 31  1  0
 30 31  1  0
 30 32  1  0
 32 33  1  0
 27 34  1  0
 34 35  1  0
 35 36  1  0
 36 37  1  0
 36 38  1  0
 28 39  1  0
 40 41  1  0
 41 42  1  0
 34 43  1  0
 41 43  1  0
 29 44  1  0
 40 44  1  0
 44 45  1  0
 45 39  1  0
 25 46  1  0
 42 46  1  0
 26 47  1  0
 32 47  1  0
 37 48  1  0
 43 48  1  0
  1 49  1  0
  2 50  1  0
  2 51  1  0
  4 52  1  0
  4 53  1  0
  5 54  1  0
  5 55  1  0
  6 56  1  0
  6 57  1  0
  7 58  1  0
  7 59  1  0
  8 60  1  0
 10 61  1  0
 11 62  1  0
 11 63  1  0
 12 64  1  0
 13 65  1  0
 13 66  1  0
 15 67  1  0
 16 68  1  0
 16 69  1  0
 17 70  1  1
 19 71  1  0
 21 72  1  0
 21 73  1  0
 22 74  1  0
 22 75  1  0
 23 76  1  0
 23 77  1  0
 24 78  1  0
 24 79  1  0
 25 80  1  0
 26 81  1  0
 26 82  1  0
 28 83  1  0
 28 84  1  0
 29 85  1  0
 29 86  1  0
 30 87  1  0
 30 88  1  0
 31 89  1  0
 31 90  1  0
 32 91  1  0
 34 92  1  0
 35 93  1  0
 35 94  1  0
 36 95  1  0
 37 96  1  0
 37 97  1  0
 39 98  1  0
 40 99  1  0
 40100  1  0
 41101  1  1
 43102  1  0
 45103  1  0
 45104  1  0
 46105  1  0
 46106  1  0
 47107  1  0
 47108  1  0
 48109  1  0
 48110  1  0
M  END
>  <PDBID>  (1) 
3JUS

>  <PDB ID>  (1) 
3JUS

>  <Generic Name>  (1) 
Econazole

>  <Brand Name>  (1) 
Econazole Nitrate#Econazole Nitrate Cream#Econazole Nitrate Topical Foam, 1%#Ecostatin Cream 1%#Ecostatin Vaginal Ovule 150mg#Ecoza#Ecostatin#Gyno-Pevaryl#Ifenec#Palavale#Pevaryl#Spectazole

>  <DrugBank ID>  (1) 
DB01127

>  <ATC Codes>  (1) 
G01AF05#D01AC03

>  <Ligand ID>  (1) 
ECL,ECN

>  <Target Name>  (1) 
Lanosterol 14-alpha demethylase

>  <UniProt ID>  (1) 
P10613

>  <PDB ID.1>  (1) 
3JUS

>  <Seq. Identity>  (1) 
40%

$$$$
