PDB_DB06147_01
     RDKit          3D

 37 38  0  0  0  0  0  0  0  0999 V2000
    1.4010    1.4109    0.2671 O   0  0  0  0  0  0  0  0  0  0  0  0
    0.7275   -0.0438   -0.7360 S   0  0  0  0  0  0  0  0  0  0  0  0
    0.7257    0.4566   -2.1355 O   0  0  0  0  0  0  0  0  0  0  0  0
   -0.9292    0.0166   -0.0216 C   0  0  0  0  0  0  0  0  0  0  0  0
   -1.5800    1.3085   -0.3462 C   0  0  0  0  0  0  0  0  0  0  0  0
   -3.0539    1.3169   -0.4153 C   0  0  0  0  0  0  0  0  0  0  0  0
   -1.6400   -1.1982   -0.5274 C   0  0  0  0  0  0  0  0  0  0  0  0
   -3.0260   -1.1508    0.0971 C   0  0  0  0  0  0  0  0  0  0  0  0
   -3.7631    0.0300   -0.4134 C   0  0  0  0  0  0  0  0  0  0  0  0
   -5.0058    0.1243    0.3750 N   0  0  0  0  0  0  0  0  0  0  0  0
    1.5544   -1.2010   -0.2570 N   0  0  0  0  0  0  0  0  0  0  0  0
    2.9285   -1.1702    0.1228 C   0  0  0  0  0  0  0  0  0  0  0  0
    3.9908   -0.6136   -1.2714 S   0  0  0  0  0  0  0  0  0  0  0  0
    5.0586    0.5175   -0.2870 C   0  0  0  0  0  0  0  0  0  0  0  0
    4.6073    0.1125    1.1188 C   0  0  0  0  0  0  0  0  0  0  0  0
    3.1680   -0.0518    1.0455 N   0  0  0  0  0  0  0  0  0  0  0  0
    1.0669    1.1325    1.1550 H   0  0  0  0  0  0  0  0  0  0  0  0
    0.0048    0.4384   -2.8133 H   0  0  0  0  0  0  0  0  0  0  0  0
   -0.7497   -0.1461    1.0747 H   0  0  0  0  0  0  0  0  0  0  0  0
   -1.1297    1.6695   -1.3196 H   0  0  0  0  0  0  0  0  0  0  0  0
   -1.2001    2.0662    0.4034 H   0  0  0  0  0  0  0  0  0  0  0  0
   -3.4504    1.9382    0.4431 H   0  0  0  0  0  0  0  0  0  0  0  0
   -3.3720    1.8993   -1.3216 H   0  0  0  0  0  0  0  0  0  0  0  0
   -1.7053   -1.2424   -1.6327 H   0  0  0  0  0  0  0  0  0  0  0  0
   -1.1377   -2.0873   -0.0908 H   0  0  0  0  0  0  0  0  0  0  0  0
   -3.5903   -2.0740   -0.2251 H   0  0  0  0  0  0  0  0  0  0  0  0
   -2.8979   -1.1795    1.2009 H   0  0  0  0  0  0  0  0  0  0  0  0
   -4.1281   -0.2260   -1.4516 H   0  0  0  0  0  0  0  0  0  0  0  0
   -5.7316   -0.5203    0.0099 H   0  0  0  0  0  0  0  0  0  0  0  0
   -5.3836    1.1143    0.3073 H   0  0  0  0  0  0  0  0  0  0  0  0
    1.1909   -2.1527   -0.1483 H   0  0  0  0  0  0  0  0  0  0  0  0
    3.3386   -2.1125    0.4929 H   0  0  0  0  0  0  0  0  0  0  0  0
    6.0878    0.1908   -0.4518 H   0  0  0  0  0  0  0  0  0  0  0  0
    4.8530    1.5618   -0.5110 H   0  0  0  0  0  0  0  0  0  0  0  0
    4.8068    0.9265    1.8120 H   0  0  0  0  0  0  0  0  0  0  0  0
    5.1286   -0.8028    1.4113 H   0  0  0  0  0  0  0  0  0  0  0  0
    2.8352   -0.2581    1.9902 H   0  0  0  0  0  0  0  0  0  0  0  0
  2  1  1  0
  2  3  1  0
  2  4  1  0
  4  5  1  0
  5  6  1  0
  4  7  1  0
  7  8  1  0
  6  9  1  0
  8  9  1  0
  9 10  1  0
  2 11  1  0
 11 12  1  0
 12 13  1  0
 13 14  1  0
 14 15  1  0
 12 16  1  0
 15 16  1  0
  1 17  1  0
  3 18  1  0
  4 19  1  0
  5 20  1  0
  5 21  1  0
  6 22  1  0
  6 23  1  0
  7 24  1  0
  7 25  1  0
  8 26  1  0
  8 27  1  0
  9 28  1  0
 10 29  1  0
 10 30  1  0
 11 31  1  0
 12 32  1  0
 14 33  1  0
 14 34  1  0
 15 35  1  0
 15 36  1  0
 16 37  1  0
M  END
>  <PDBID>  (1) 
3TYE

>  <PDB ID>  (1) 
3TYE

>  <Generic Name>  (1) 
Sulfathiazole

>  <Brand Name>  (1) 
Norsulfazolum#Sulfatiazol

>  <DrugBank ID>  (1) 
DB06147

>  <ATC Codes>  (1) 
J01EB07#D06BA02

>  <Ligand ID>  (1) 
YTZ

>  <Target Name>  (1) 
Dihydropteroate synthetase

>  <UniProt ID>  (1) 
Q27738

>  <PDB ID.1>  (1) 
3TYE

>  <Seq. Identity>  (1) 
35%

$$$$
