PDB_DB04743_03
     RDKit          3D

 96 98  0  0  0  0  0  0  0  0999 V2000
   -3.3295    1.5462   -4.0646 O   0  0  0  0  0  0  0  0  0  0  0  0
   -2.0340    1.3368   -3.6856 N   0  0  0  0  0  0  0  0  0  0  0  0
   -1.3012    2.3153   -4.2600 O   0  0  0  0  0  0  0  0  0  0  0  0
   -2.0253    1.4500   -2.2320 C   0  0  0  0  0  0  0  0  0  0  0  0
   -2.9522    0.4006   -1.6568 C   0  0  0  0  0  0  0  0  0  0  0  0
   -2.7248    0.4896   -0.1420 C   0  0  0  0  0  0  0  0  0  0  0  0
   -1.4077   -0.1846    0.1283 C   0  0  0  0  0  0  0  0  0  0  0  0
   -1.0168    0.0997    1.5179 N   0  0  0  0  0  0  0  0  0  0  0  0
   -1.8918   -0.3249    2.6979 S   0  0  0  0  0  0  0  0  0  0  0  0
   -0.7481   -1.4102    3.7504 O   0  0  0  0  0  0  0  0  0  0  0  0
   -2.4128    0.6996    3.7563 O   0  0  0  0  0  0  0  0  0  0  0  0
   -3.0752   -1.5172    2.4082 C   0  0  0  0  0  0  0  0  0  0  0  0
   -0.6587    1.4281   -1.6621 C   0  0  0  0  0  0  0  0  0  0  0  0
   -0.3276    0.2060   -0.8445 C   0  0  0  0  0  0  0  0  0  0  0  0
    0.7788    0.5081   -0.1188 O   0  0  0  0  0  0  0  0  0  0  0  0
    1.9048   -0.1958   -0.2919 C   0  0  0  0  0  0  0  0  0  0  0  0
    3.1386    0.5399   -0.6945 C   0  0  0  0  0  0  0  0  0  0  0  0
    4.1704   -0.5366   -1.0588 C   0  0  0  0  0  0  0  0  0  0  0  0
    4.4672   -1.4414    0.0917 C   0  0  0  0  0  0  0  0  0  0  0  0
    3.6831   -1.0003    1.2847 C   0  0  0  0  0  0  0  0  0  0  0  0
    2.2001   -0.9285    1.0022 C   0  0  0  0  0  0  0  0  0  0  0  0
   -3.3295    1.5462   -4.0646 O   0  0  0  0  0  0  0  0  0  0  0  0
   -2.0340    1.3368   -3.6856 N   0  0  0  0  0  0  0  0  0  0  0  0
   -1.3012    2.3153   -4.2600 O   0  0  0  0  0  0  0  0  0  0  0  0
   -2.0253    1.4500   -2.2320 C   0  0  0  0  0  0  0  0  0  0  0  0
   -2.9522    0.4006   -1.6568 C   0  0  0  0  0  0  0  0  0  0  0  0
   -2.7248    0.4896   -0.1420 C   0  0  0  0  0  0  0  0  0  0  0  0
   -1.4077   -0.1846    0.1283 C   0  0  0  0  0  0  0  0  0  0  0  0
   -1.0168    0.0997    1.5179 N   0  0  0  0  0  0  0  0  0  0  0  0
   -1.8918   -0.3249    2.6979 S   0  0  0  0  0  0  0  0  0  0  0  0
   -0.7481   -1.4102    3.7504 O   0  0  0  0  0  0  0  0  0  0  0  0
   -2.4128    0.6996    3.7563 O   0  0  0  0  0  0  0  0  0  0  0  0
   -3.0752   -1.5172    2.4082 C   0  0  0  0  0  0  0  0  0  0  0  0
   -0.6587    1.4281   -1.6621 C   0  0  0  0  0  0  0  0  0  0  0  0
   -0.3276    0.2060   -0.8445 C   0  0  0  0  0  0  0  0  0  0  0  0
    0.7788    0.5081   -0.1188 O   0  0  0  0  0  0  0  0  0  0  0  0
    1.9048   -0.1958   -0.2919 C   0  0  0  0  0  0  0  0  0  0  0  0
    3.1386    0.5399   -0.6945 C   0  0  0  0  0  0  0  0  0  0  0  0
    4.1704   -0.5366   -1.0588 C   0  0  0  0  0  0  0  0  0  0  0  0
    4.4672   -1.4414    0.0917 C   0  0  0  0  0  0  0  0  0  0  0  0
    3.6831   -1.0003    1.2847 C   0  0  0  0  0  0  0  0  0  0  0  0
    2.2001   -0.9285    1.0022 C   0  0  0  0  0  0  0  0  0  0  0  0
   -1.5113    3.1778   -3.8146 H   0  0  0  0  0  0  0  0  0  0  0  0
   -2.5094    2.4401   -1.9967 H   0  0  0  0  0  0  0  0  0  0  0  0
   -2.6390   -0.5691   -2.0479 H   0  0  0  0  0  0  0  0  0  0  0  0
   -3.9970    0.6539   -1.9031 H   0  0  0  0  0  0  0  0  0  0  0  0
   -2.6692    1.5621    0.1162 H   0  0  0  0  0  0  0  0  0  0  0  0
   -3.5547   -0.0506    0.3187 H   0  0  0  0  0  0  0  0  0  0  0  0
   -1.6028   -1.2786    0.1084 H   0  0  0  0  0  0  0  0  0  0  0  0
   -0.6771    1.1072    1.5020 H   0  0  0  0  0  0  0  0  0  0  0  0
   -0.1956   -0.7042    4.1241 H   0  0  0  0  0  0  0  0  0  0  0  0
   -2.5484    0.4489    4.6926 H   0  0  0  0  0  0  0  0  0  0  0  0
   -2.9188   -2.0655    1.4566 H   0  0  0  0  0  0  0  0  0  0  0  0
   -4.1139   -1.0728    2.4158 H   0  0  0  0  0  0  0  0  0  0  0  0
   -3.1344   -2.3248    3.1957 H   0  0  0  0  0  0  0  0  0  0  0  0
    0.0736    1.4637   -2.4989 H   0  0  0  0  0  0  0  0  0  0  0  0
   -0.4563    2.3694   -1.0713 H   0  0  0  0  0  0  0  0  0  0  0  0
   -0.2147   -0.6339   -1.5553 H   0  0  0  0  0  0  0  0  0  0  0  0
    1.7264   -0.9863   -1.0775 H   0  0  0  0  0  0  0  0  0  0  0  0
    3.0378    1.1386   -1.6097 H   0  0  0  0  0  0  0  0  0  0  0  0
    3.5146    1.1856    0.1333 H   0  0  0  0  0  0  0  0  0  0  0  0
    5.0691   -0.0250   -1.4159 H   0  0  0  0  0  0  0  0  0  0  0  0
    3.6733   -1.1387   -1.8741 H   0  0  0  0  0  0  0  0  0  0  0  0
    4.2288   -2.5038   -0.1681 H   0  0  0  0  0  0  0  0  0  0  0  0
    5.5410   -1.4292    0.3579 H   0  0  0  0  0  0  0  0  0  0  0  0
    4.0945   -0.0871    1.7245 H   0  0  0  0  0  0  0  0  0  0  0  0
    3.7980   -1.8071    2.0673 H   0  0  0  0  0  0  0  0  0  0  0  0
    1.7449   -0.4025    1.8849 H   0  0  0  0  0  0  0  0  0  0  0  0
    1.8034   -1.9487    1.0094 H   0  0  0  0  0  0  0  0  0  0  0  0
   -1.5113    3.1778   -3.8146 H   0  0  0  0  0  0  0  0  0  0  0  0
   -2.5094    2.4401   -1.9967 H   0  0  0  0  0  0  0  0  0  0  0  0
   -2.6390   -0.5691   -2.0479 H   0  0  0  0  0  0  0  0  0  0  0  0
   -3.9970    0.6539   -1.9031 H   0  0  0  0  0  0  0  0  0  0  0  0
   -2.6692    1.5621    0.1162 H   0  0  0  0  0  0  0  0  0  0  0  0
   -3.5547   -0.0506    0.3187 H   0  0  0  0  0  0  0  0  0  0  0  0
   -1.6028   -1.2786    0.1084 H   0  0  0  0  0  0  0  0  0  0  0  0
   -0.6771    1.1072    1.5020 H   0  0  0  0  0  0  0  0  0  0  0  0
   -0.1956   -0.7042    4.1241 H   0  0  0  0  0  0  0  0  0  0  0  0
   -2.5484    0.4489    4.6926 H   0  0  0  0  0  0  0  0  0  0  0  0
   -2.9188   -2.0655    1.4566 H   0  0  0  0  0  0  0  0  0  0  0  0
   -4.1139   -1.0728    2.4158 H   0  0  0  0  0  0  0  0  0  0  0  0
   -3.1344   -2.3248    3.1957 H   0  0  0  0  0  0  0  0  0  0  0  0
    0.0736    1.4637   -2.4989 H   0  0  0  0  0  0  0  0  0  0  0  0
   -0.4563    2.3694   -1.0713 H   0  0  0  0  0  0  0  0  0  0  0  0
   -0.2147   -0.6339   -1.5553 H   0  0  0  0  0  0  0  0  0  0  0  0
    1.7264   -0.9863   -1.0775 H   0  0  0  0  0  0  0  0  0  0  0  0
    3.0378    1.1386   -1.6097 H   0  0  0  0  0  0  0  0  0  0  0  0
    3.5146    1.1856    0.1333 H   0  0  0  0  0  0  0  0  0  0  0  0
    5.0691   -0.0250   -1.4159 H   0  0  0  0  0  0  0  0  0  0  0  0
    3.6733   -1.1387   -1.8741 H   0  0  0  0  0  0  0  0  0  0  0  0
    4.2288   -2.5038   -0.1681 H   0  0  0  0  0  0  0  0  0  0  0  0
    5.5410   -1.4292    0.3579 H   0  0  0  0  0  0  0  0  0  0  0  0
    4.0945   -0.0871    1.7245 H   0  0  0  0  0  0  0  0  0  0  0  0
    3.7980   -1.8071    2.0673 H   0  0  0  0  0  0  0  0  0  0  0  0
    1.7449   -0.4025    1.8849 H   0  0  0  0  0  0  0  0  0  0  0  0
    1.8034   -1.9487    1.0094 H   0  0  0  0  0  0  0  0  0  0  0  0
  1  2  1  0
  2  3  1  0
  2  4  1  0
  4  5  1  0
  5  6  1  0
  6  7  1  0
  7  8  1  0
  8  9  1  0
  9 10  1  0
  9 11  1  0
  9 12  1  0
  4 13  1  0
  7 14  1  0
 13 14  1  0
 14 15  1  0
 15 16  1  0
 16 17  1  0
 17 18  1  0
 18 19  1  0
 19 20  1  0
 16 21  1  0
 20 21  1  0
 22 23  1  0
 23 24  1  0
 23 25  1  0
 25 26  1  0
 26 27  1  0
 27 28  1  0
 28 29  1  0
 29 30  1  0
 30 31  1  0
 30 32  1  0
 30 33  1  0
 25 34  1  0
 28 35  1  0
 34 35  1  0
 35 36  1  0
 36 37  1  0
 37 38  1  0
 38 39  1  0
 39 40  1  0
 40 41  1  0
 37 42  1  0
 41 42  1  0
  3 43  1  0
  4 44  1  0
  5 45  1  0
  5 46  1  0
  6 47  1  0
  6 48  1  0
  7 49  1  0
  8 50  1  0
 10 51  1  0
 11 52  1  0
 12 53  1  0
 12 54  1  0
 12 55  1  0
 13 56  1  0
 13 57  1  0
 14 58  1  0
 16 59  1  0
 17 60  1  0
 17 61  1  0
 18 62  1  0
 18 63  1  0
 19 64  1  0
 19 65  1  0
 20 66  1  0
 20 67  1  0
 21 68  1  0
 21 69  1  0
 24 70  1  0
 25 71  1  0
 26 72  1  0
 26 73  1  0
 27 74  1  0
 27 75  1  0
 28 76  1  0
 29 77  1  0
 31 78  1  0
 32 79  1  0
 33 80  1  0
 33 81  1  0
 33 82  1  0
 34 83  1  0
 34 84  1  0
 35 85  1  0
 37 86  1  0
 38 87  1  0
 38 88  1  0
 39 89  1  0
 39 90  1  0
 40 91  1  0
 40 92  1  0
 41 93  1  0
 41 94  1  0
 42 95  1  0
 42 96  1  0
M  CHG  2   1  -1  22  -1
M  END
>  <PDBID>  (1) 
3N8X

>  <PDB ID>  (1) 
3N8X

>  <Generic Name>  (1) 
Nimesulide

>  <Brand Name>  (1) 
Ainex#Aulin#Coxtal#Eskaflam#Mesulid#Nilsid#Nimalox#Nimside#Nise#Octaprin#Sintalgin#Sulide

>  <DrugBank ID>  (1) 
DB04743

>  <ATC Codes>  (1) 
M02AA26#M01AX17

>  <Ligand ID>  (1) 
NIM

>  <Target Name>  (1) 
Prostaglandin G/H synthase 2

>  <UniProt ID>  (1) 
P35354

>  <PDB ID.1>  (1) 
3N8X

>  <Seq. Identity>  (1) 
61%

$$$$
