PDB_DB01264_04
     RDKit          3D

 91 94  0  0  0  0  0  0  0  0999 V2000
    5.4231   -4.9957    1.5374 N   0  0  0  0  0  0  0  0  0  0  0  0
    4.6830   -3.8112    1.2404 C   0  0  0  0  0  0  0  0  0  0  0  0
    3.3571   -4.1107    0.5261 C   0  0  0  0  0  0  0  0  0  0  0  0
    2.8546   -2.7600    0.0654 C   0  0  0  0  0  0  0  0  0  0  0  0
    2.5405   -1.8487    1.1872 C   0  0  0  0  0  0  0  0  0  0  0  0
    3.4798   -1.8918    2.3411 C   0  0  0  0  0  0  0  0  0  0  0  0
    4.3182   -3.0931    2.5040 C   0  0  0  0  0  0  0  0  0  0  0  0
    2.7359   -0.1069    0.4297 S   0  0  0  0  0  0  0  0  0  0  0  0
    4.1734   -0.0178   -0.0020 O   0  0  0  0  0  0  0  0  0  0  0  0
    2.7153    0.6589    2.1499 O   0  0  0  0  0  0  0  0  0  0  0  0
    1.5220    0.3688   -0.1635 N   0  0  0  0  0  0  0  0  0  0  0  0
    1.2444    0.3387   -1.5570 C   0  0  0  0  0  0  0  0  0  0  0  0
    2.4842    0.1722   -2.4321 C   0  0  0  0  0  0  0  0  0  0  0  0
    1.9344    0.1393   -3.8674 C   0  0  0  0  0  0  0  0  0  0  0  0
    3.2933    1.4485   -2.3111 C   0  0  0  0  0  0  0  0  0  0  0  0
    0.3050    0.4431    0.6075 C   0  0  0  0  0  0  0  0  0  0  0  0
   -0.4845    1.7054    0.5612 C   0  0  1  0  0  0  0  0  0  0  0  0
    0.2513    2.8115    0.8701 O   0  0  0  0  0  0  0  0  0  0  0  0
   -1.6113    1.7957   -0.3924 C   0  0  1  0  0  0  0  0  0  0  0  0
   -2.1372    0.4691   -0.4914 N   0  0  0  0  0  0  0  0  0  0  0  0
   -2.7452   -0.2058    0.5285 C   0  0  0  0  0  0  0  0  0  0  0  0
   -3.9520    0.4836    0.8601 O   0  0  0  0  0  0  0  0  0  0  0  0
   -3.2115   -1.4308    0.0271 O   0  0  0  0  0  0  0  0  0  0  0  0
   -2.9159   -2.4508    0.8972 C   0  0  1  0  0  0  0  0  0  0  0  0
   -4.1208   -3.2665    1.2813 C   0  0  0  0  0  0  0  0  0  0  0  0
   -3.7801   -4.5865    1.3472 O   0  0  0  0  0  0  0  0  0  0  0  0
   -2.4829   -4.7478    0.9592 C   0  0  1  0  0  0  0  0  0  0  0  0
   -2.4116   -5.7766    0.0241 O   0  0  0  0  0  0  0  0  0  0  0  0
   -3.0598   -5.1853   -1.0751 C   0  0  0  0  0  0  0  0  0  0  0  0
   -2.4710   -3.7858   -1.1880 C   0  0  0  0  0  0  0  0  0  0  0  0
   -2.0435   -3.5058    0.2383 C   0  0  1  0  0  0  0  0  0  0  0  0
   -2.5954    2.8345   -0.1271 C   0  0  0  0  0  0  0  0  0  0  0  0
   -1.4833    4.9838    0.7898 C   0  0  0  0  0  0  0  0  0  0  0  0
   -2.0875    6.4107    1.0030 C   0  0  0  0  0  0  0  0  0  0  0  0
   -2.8862    6.7897   -0.2128 C   0  0  0  0  0  0  0  0  0  0  0  0
   -2.3224    6.3157   -1.5059 C   0  0  0  0  0  0  0  0  0  0  0  0
   -2.1434    4.8369   -1.5321 C   0  0  0  0  0  0  0  0  0  0  0  0
   -2.3774    4.2728   -0.1069 C   0  0  0  0  0  0  0  0  0  0  0  0
    4.8700   -5.8364    1.7154 H   0  0  0  0  0  0  0  0  0  0  0  0
    6.2590   -5.1272    0.9287 H   0  0  0  0  0  0  0  0  0  0  0  0
    5.2678   -3.1702    0.5479 H   0  0  0  0  0  0  0  0  0  0  0  0
    2.6808   -4.5127    1.3321 H   0  0  0  0  0  0  0  0  0  0  0  0
    3.4705   -4.7832   -0.3209 H   0  0  0  0  0  0  0  0  0  0  0  0
    1.9797   -2.9414   -0.5895 H   0  0  0  0  0  0  0  0  0  0  0  0
    3.6692   -2.3567   -0.5948 H   0  0  0  0  0  0  0  0  0  0  0  0
    1.4836   -1.8759    1.4643 H   0  0  0  0  0  0  0  0  0  0  0  0
    2.8495   -1.7802    3.2760 H   0  0  0  0  0  0  0  0  0  0  0  0
    4.1431   -0.9828    2.3735 H   0  0  0  0  0  0  0  0  0  0  0  0
    5.2842   -2.8151    3.0116 H   0  0  0  0  0  0  0  0  0  0  0  0
    3.8431   -3.8367    3.1937 H   0  0  0  0  0  0  0  0  0  0  0  0
    4.8463    0.5984    0.3828 H   0  0  0  0  0  0  0  0  0  0  0  0
    3.1330    1.5245    1.9141 H   0  0  0  0  0  0  0  0  0  0  0  0
    0.4678   -0.4116   -1.7806 H   0  0  0  0  0  0  0  0  0  0  0  0
    0.8357    1.3503   -1.8489 H   0  0  0  0  0  0  0  0  0  0  0  0
    3.0418   -0.7307   -2.2168 H   0  0  0  0  0  0  0  0  0  0  0  0
    1.0573    0.8284   -3.9264 H   0  0  0  0  0  0  0  0  0  0  0  0
    2.7264    0.5350   -4.5365 H   0  0  0  0  0  0  0  0  0  0  0  0
    1.6523   -0.8922   -4.1557 H   0  0  0  0  0  0  0  0  0  0  0  0
    2.9670    2.1418   -3.1455 H   0  0  0  0  0  0  0  0  0  0  0  0
    2.9885    1.9983   -1.3894 H   0  0  0  0  0  0  0  0  0  0  0  0
    4.3839    1.2864   -2.3818 H   0  0  0  0  0  0  0  0  0  0  0  0
   -0.3197   -0.4344    0.2694 H   0  0  0  0  0  0  0  0  0  0  0  0
    0.6081    0.1403    1.6560 H   0  0  0  0  0  0  0  0  0  0  0  0
   -1.1015    1.5938    1.5972 H   0  0  0  0  0  0  0  0  0  0  0  0
    0.4720    2.9574    1.8049 H   0  0  0  0  0  0  0  0  0  0  0  0
   -1.1964    2.0156   -1.4225 H   0  0  0  0  0  0  0  0  0  0  0  0
   -1.8516    0.0021   -1.3440 H   0  0  0  0  0  0  0  0  0  0  0  0
   -2.2758   -0.4163    1.4802 H   0  0  0  0  0  0  0  0  0  0  0  0
   -4.5892    0.3553    0.1164 H   0  0  0  0  0  0  0  0  0  0  0  0
   -2.3775   -2.1218    1.8084 H   0  0  0  0  0  0  0  0  0  0  0  0
   -4.5386   -2.9634    2.2766 H   0  0  0  0  0  0  0  0  0  0  0  0
   -4.9147   -3.1649    0.4803 H   0  0  0  0  0  0  0  0  0  0  0  0
   -1.8573   -4.9291    1.8461 H   0  0  0  0  0  0  0  0  0  0  0  0
   -2.7778   -5.7770   -1.9884 H   0  0  0  0  0  0  0  0  0  0  0  0
   -4.1484   -5.1818   -0.9499 H   0  0  0  0  0  0  0  0  0  0  0  0
   -1.5577   -3.8837   -1.8182 H   0  0  0  0  0  0  0  0  0  0  0  0
   -3.2024   -3.0601   -1.5739 H   0  0  0  0  0  0  0  0  0  0  0  0
   -0.9681   -3.2924    0.3233 H   0  0  0  0  0  0  0  0  0  0  0  0
   -3.5495    2.7018   -0.7612 H   0  0  0  0  0  0  0  0  0  0  0  0
   -3.0610    2.5905    0.9046 H   0  0  0  0  0  0  0  0  0  0  0  0
   -0.4652    5.2352    0.4518 H   0  0  0  0  0  0  0  0  0  0  0  0
   -1.4341    4.5876    1.8102 H   0  0  0  0  0  0  0  0  0  0  0  0
   -2.7871    6.3389    1.8526 H   0  0  0  0  0  0  0  0  0  0  0  0
   -1.3083    7.1337    1.2549 H   0  0  0  0  0  0  0  0  0  0  0  0
   -2.8047    7.9279   -0.2475 H   0  0  0  0  0  0  0  0  0  0  0  0
   -3.9550    6.6158   -0.0616 H   0  0  0  0  0  0  0  0  0  0  0  0
   -3.1149    6.5680   -2.2858 H   0  0  0  0  0  0  0  0  0  0  0  0
   -1.3953    6.8703   -1.7991 H   0  0  0  0  0  0  0  0  0  0  0  0
   -1.1005    4.5856   -1.8513 H   0  0  0  0  0  0  0  0  0  0  0  0
   -2.8903    4.3772   -2.2062 H   0  0  0  0  0  0  0  0  0  0  0  0
   -3.4306    4.7166    0.1124 H   0  0  0  0  0  0  0  0  0  0  0  0
  1  2  1  0
  2  3  1  0
  3  4  1  0
  4  5  1  0
  5  6  1  0
  2  7  1  0
  6  7  1  0
  5  8  1  0
  8  9  1  0
  8 10  1  0
  8 11  1  0
 11 12  1  0
 12 13  1  0
 13 14  1  0
 13 15  1  0
 11 16  1  0
 16 17  1  0
 17 18  1  0
 17 19  1  0
 19 20  1  0
 20 21  1  0
 21 22  1  0
 21 23  1  0
 23 24  1  0
 24 25  1  0
 25 26  1  0
 26 27  1  0
 27 28  1  0
 28 29  1  0
 29 30  1  0
 24 31  1  0
 27 31  1  0
 30 31  1  0
 19 32  1  0
 33 34  1  0
 34 35  1  0
 35 36  1  0
 36 37  1  0
 32 38  1  0
 33 38  1  0
 37 38  1  0
  1 39  1  0
  1 40  1  0
  2 41  1  0
  3 42  1  0
  3 43  1  0
  4 44  1  0
  4 45  1  0
  5 46  1  0
  6 47  1  0
  6 48  1  0
  7 49  1  0
  7 50  1  0
  9 51  1  0
 10 52  1  0
 12 53  1  0
 12 54  1  0
 13 55  1  0
 14 56  1  0
 14 57  1  0
 14 58  1  0
 15 59  1  0
 15 60  1  0
 15 61  1  0
 16 62  1  0
 16 63  1  0
 17 64  1  1
 18 65  1  0
 19 66  1  6
 20 67  1  0
 21 68  1  0
 22 69  1  0
 24 70  1  1
 25 71  1  0
 25 72  1  0
 27 73  1  1
 29 74  1  0
 29 75  1  0
 30 76  1  0
 30 77  1  0
 31 78  1  6
 32 79  1  0
 32 80  1  0
 33 81  1  0
 33 82  1  0
 34 83  1  0
 34 84  1  0
 35 85  1  0
 35 86  1  0
 36 87  1  0
 36 88  1  0
 37 89  1  0
 37 90  1  0
 38 91  1  0
M  END
>  <PDBID>  (1) 
4HLA

>  <PDB ID>  (1) 
4HLA

>  <Generic Name>  (1) 
Darunavir

>  <Brand Name>  (1) 
Pat-darunavir#Prezcobix#Prezista

>  <DrugBank ID>  (1) 
DB01264

>  <ATC Codes>  (1) 
J05AE10#J05AR14

>  <Ligand ID>  (1) 
17

>  <Target Name>  (1) 
Pol polyprotein

>  <UniProt ID>  (1) 
Q72874

>  <PDB ID.1>  (1) 
4HLA

>  <Seq. Identity>  (1) 
99%

$$$$
