PDB_DB01051_08
     RDKit          3D

408420  0  0  0  0  0  0  0  0999 V2000
   -9.8326    0.9479   -1.7164 C   0  0  0  0  0  0  0  0  0  0  0  0
   -9.2369    1.0363   -0.4648 O   0  0  0  0  0  0  0  0  0  0  0  0
  -11.0849   -1.0814    1.3421 N   0  0  0  0  0  0  0  0  0  0  0  0
   -9.7338   -1.5526    1.5814 C   0  0  0  0  0  0  0  0  0  0  0  0
   -9.7616   -2.7854    2.1964 O   0  0  0  0  0  0  0  0  0  0  0  0
   -8.9707   -1.5573    0.4191 O   0  0  0  0  0  0  0  0  0  0  0  0
   -7.9826    0.4236   -0.5008 C   0  0  2  0  0  0  0  0  0  0  0  0
   -7.9026   -0.7008    0.5014 C   0  0  2  0  0  0  0  0  0  0  0  0
   -6.5547   -1.4070    0.2983 C   0  0  1  0  0  0  0  0  0  0  0  0
   -6.6458   -2.1852   -0.8529 O   0  0  0  0  0  0  0  0  0  0  0  0
   -5.5303   -0.3300    0.2341 C   0  0  1  0  0  0  0  0  0  0  0  0
   -6.0673    0.8888    0.7830 O   0  0  0  0  0  0  0  0  0  0  0  0
   -6.9332    1.4524   -0.1535 C   0  0  0  0  0  0  0  0  0  0  0  0
   -7.5757    2.6465    0.5064 C   0  0  0  0  0  0  0  0  0  0  0  0
   -6.1894    1.9302   -1.3767 C   0  0  0  0  0  0  0  0  0  0  0  0
   -4.3786   -0.5286    0.9635 O   0  0  0  0  0  0  0  0  0  0  0  0
   -3.3081   -0.2469    0.0849 C   0  0  0  0  0  0  0  0  0  0  0  0
   -2.2850   -1.3449    0.0349 C   0  0  1  0  0  0  0  0  0  0  0  0
   -2.7976   -2.5709   -0.6722 C   0  0  0  0  0  0  0  0  0  0  0  0
   -1.0266   -0.7885   -0.5337 C   0  0  0  0  0  0  0  0  0  0  0  0
   -0.3990    0.1112    0.5483 C   0  0  0  0  0  0  0  0  0  0  0  0
   -1.4417    0.8165    1.3638 C   0  0  0  0  0  0  0  0  0  0  0  0
   -2.6688    1.0763    0.5214 C   0  0  0  0  0  0  0  0  0  0  0  0
   -0.0452   -1.6824   -0.8660 O   0  0  0  0  0  0  0  0  0  0  0  0
    0.9499   -1.0055   -1.5978 C   0  0  0  0  0  0  0  0  0  0  0  0
    1.9574   -1.9007   -1.9268 O   0  0  0  0  0  0  0  0  0  0  0  0
    1.5414    0.1701   -0.8876 C   0  0  1  0  0  0  0  0  0  0  0  0
    0.4947    1.0586   -0.2018 C   0  0  0  0  0  0  0  0  0  0  0  0
   -0.1635    1.8418   -1.1264 O   0  0  0  0  0  0  0  0  0  0  0  0
    2.5232   -0.1159    0.0969 N   0  0  0  0  0  0  0  0  0  0  0  0
    3.7617   -0.6528   -0.3305 C   0  0  0  0  0  0  0  0  0  0  0  0
    4.0884   -0.4616   -1.6567 O   0  0  0  0  0  0  0  0  0  0  0  0
    4.8892   -0.1666    0.5900 C   0  0  1  0  0  0  0  0  0  0  0  0
    6.1840   -0.7423    0.0913 C   0  0  0  0  0  0  0  0  0  0  0  0
    7.3601    0.0256    0.7318 C   0  0  0  0  0  0  0  0  0  0  0  0
    7.3340    1.4591    0.3049 C   0  0  1  0  0  0  0  0  0  0  0  0
    8.2479    1.7738   -0.6996 O   0  0  0  0  0  0  0  0  0  0  0  0
    5.9662    1.8637   -0.2100 C   0  0  0  0  0  0  0  0  0  0  0  0
    4.9271    1.3229    0.7317 C   0  0  0  0  0  0  0  0  0  0  0  0
    8.6058   -0.7244    0.4367 C   0  0  0  0  0  0  0  0  0  0  0  0
    9.8397   -0.0869    1.0263 C   0  0  0  0  0  0  0  0  0  0  0  0
   11.0969   -0.8541    0.7175 C   0  0  0  0  0  0  0  0  0  0  0  0
   11.3451   -0.9671   -0.7714 C   0  0  0  0  0  0  0  0  0  0  0  0
   12.3214   -0.1426    1.2981 C   0  0  0  0  0  0  0  0  0  0  0  0
   -9.7052    0.8858   -1.8517 C   0  0  0  0  0  0  0  0  0  0  0  0
   -9.0835    1.1344   -0.6167 O   0  0  0  0  0  0  0  0  0  0  0  0
  -10.4678   -0.4883    2.0600 N   0  0  0  0  0  0  0  0  0  0  0  0
   -9.2404   -1.2877    1.9565 C   0  0  0  0  0  0  0  0  0  0  0  0
   -9.3750   -2.5535    2.4761 O   0  0  0  0  0  0  0  0  0  0  0  0
   -8.7823   -1.2874    0.6274 O   0  0  0  0  0  0  0  0  0  0  0  0
   -7.8472    0.5334   -0.5968 C   0  0  2  0  0  0  0  0  0  0  0  0
   -7.6726   -0.4966    0.4932 C   0  0  2  0  0  0  0  0  0  0  0  0
   -6.3898   -1.2692    0.1536 C   0  0  1  0  0  0  0  0  0  0  0  0
   -6.6635   -1.9428   -1.0403 O   0  0  0  0  0  0  0  0  0  0  0  0
   -5.3252   -0.2598   -0.0391 C   0  0  1  0  0  0  0  0  0  0  0  0
   -5.7632    1.0203    0.4040 O   0  0  0  0  0  0  0  0  0  0  0  0
   -6.7016    1.5316   -0.4553 C   0  0  0  0  0  0  0  0  0  0  0  0
   -7.2746    2.7863    0.1248 C   0  0  0  0  0  0  0  0  0  0  0  0
   -6.1371    1.8539   -1.8290 C   0  0  0  0  0  0  0  0  0  0  0  0
   -4.2075   -0.5306    0.7636 O   0  0  0  0  0  0  0  0  0  0  0  0
   -3.0312   -0.4530    0.0178 C   0  0  0  0  0  0  0  0  0  0  0  0
   -2.1131   -1.5578    0.2941 C   0  0  0  0  0  0  0  0  0  0  0  0
   -2.3757   -2.8391   -0.4635 C   0  0  0  0  0  0  0  0  0  0  0  0
   -0.6329   -1.1959    0.0916 C   0  0  0  0  0  0  0  0  0  0  0  0
   -0.2487   -0.2536    1.1914 C   0  0  0  0  0  0  0  0  0  0  0  0
   -1.5008    0.5213    1.6653 C   0  0  0  0  0  0  0  0  0  0  0  0
   -2.3148    0.8609    0.4608 C   0  0  0  0  0  0  0  0  0  0  0  0
   -0.4927   -0.6746   -1.1659 O   0  0  0  0  0  0  0  0  0  0  0  0
    0.7046   -0.1086   -1.4790 C   0  0  0  0  0  0  0  0  0  0  0  0
    1.4387   -0.7990   -2.4543 O   0  0  0  0  0  0  0  0  0  0  0  0
    1.6413    0.1786   -0.3457 C   0  0  1  0  0  0  0  0  0  0  0  0
    0.8121    0.7109    0.8314 C   0  0  0  0  0  0  0  0  0  0  0  0
    0.2553    1.9148    0.4225 O   0  0  0  0  0  0  0  0  0  0  0  0
    2.4888   -0.8503    0.0398 N   0  0  0  0  0  0  0  0  0  0  0  0
    3.8045   -0.7820    0.4118 C   0  0  0  0  0  0  0  0  0  0  0  0
    3.9862    0.1174    1.5347 O   0  0  0  0  0  0  0  0  0  0  0  0
    4.8410   -0.4280   -0.5872 C   0  0  0  0  0  0  0  0  0  0  0  0
    6.1819   -0.4780    0.1843 C   0  0  0  0  0  0  0  0  0  0  0  0
    7.2834   -0.2996   -0.8110 C   0  0  0  0  0  0  0  0  0  0  0  0
    7.1961    1.1425   -1.2728 C   0  0  0  0  0  0  0  0  0  0  0  0
    8.2376    1.4770   -2.1281 O   0  0  0  0  0  0  0  0  0  0  0  0
    5.9152    1.3723   -1.9660 C   0  0  0  0  0  0  0  0  0  0  0  0
    4.6712    0.8757   -1.2344 C   0  0  0  0  0  0  0  0  0  0  0  0
    8.6451   -0.5582   -0.1689 C   0  0  0  0  0  0  0  0  0  0  0  0
    8.9234    0.3907    0.9442 C   0  0  0  0  0  0  0  0  0  0  0  0
   10.2309    0.1110    1.6228 C   0  0  0  0  0  0  0  0  0  0  0  0
   10.2838   -1.2717    2.2555 C   0  0  0  0  0  0  0  0  0  0  0  0
   11.3529    0.2575    0.6019 C   0  0  0  0  0  0  0  0  0  0  0  0
  -10.0683    0.3814   -1.8195 C   0  0  0  0  0  0  0  0  0  0  0  0
   -9.4396    0.6886   -0.6123 O   0  0  0  0  0  0  0  0  0  0  0  0
  -10.7445   -1.5718    1.4562 N   0  0  0  0  0  0  0  0  0  0  0  0
   -9.3323   -1.8946    1.6210 C   0  0  0  0  0  0  0  0  0  0  0  0
   -9.2074   -3.1100    2.2458 O   0  0  0  0  0  0  0  0  0  0  0  0
   -8.6847   -1.7742    0.4122 O   0  0  0  0  0  0  0  0  0  0  0  0
   -8.1182    0.2776   -0.6878 C   0  0  2  0  0  0  0  0  0  0  0  0
   -7.7809   -0.7413    0.3893 C   0  0  2  0  0  0  0  0  0  0  0  0
   -6.3483   -1.2110    0.1029 C   0  0  1  0  0  0  0  0  0  0  0  0
   -6.4042   -1.9819   -1.0525 O   0  0  0  0  0  0  0  0  0  0  0  0
   -5.4882    0.0036   -0.0056 C   0  0  1  0  0  0  0  0  0  0  0  0
   -6.1901    1.1571    0.4496 O   0  0  0  0  0  0  0  0  0  0  0  0
   -7.2030    1.4750   -0.4619 C   0  0  0  0  0  0  0  0  0  0  0  0
   -8.0233    2.6184    0.0961 C   0  0  0  0  0  0  0  0  0  0  0  0
   -6.6144    1.9308   -1.7780 C   0  0  0  0  0  0  0  0  0  0  0  0
   -4.3484   -0.0508    0.7950 O   0  0  0  0  0  0  0  0  0  0  0  0
   -3.2039    0.2024    0.0448 C   0  0  0  0  0  0  0  0  0  0  0  0
   -2.1929   -0.9178    0.0747 C   0  0  0  0  0  0  0  0  0  0  0  0
   -2.6693   -2.1225   -0.6959 C   0  0  0  0  0  0  0  0  0  0  0  0
   -0.8874   -0.3592   -0.4418 C   0  0  0  0  0  0  0  0  0  0  0  0
   -0.3027    0.4760    0.7072 C   0  0  0  0  0  0  0  0  0  0  0  0
   -1.3843    1.2803    1.3825 C   0  0  0  0  0  0  0  0  0  0  0  0
   -2.5652    1.5159    0.4687 C   0  0  0  0  0  0  0  0  0  0  0  0
    0.0685   -1.3065   -0.7303 O   0  0  0  0  0  0  0  0  0  0  0  0
    1.1236   -0.6407   -1.3721 C   0  0  0  0  0  0  0  0  0  0  0  0
    2.0714   -1.4768   -1.9027 O   0  0  0  0  0  0  0  0  0  0  0  0
    1.7910    0.3883   -0.5015 C   0  0  1  0  0  0  0  0  0  0  0  0
    0.8105    1.3288    0.1807 C   0  0  0  0  0  0  0  0  0  0  0  0
    0.3661    2.2687   -0.7491 O   0  0  0  0  0  0  0  0  0  0  0  0
    2.7156   -0.1058    0.4622 N   0  0  0  0  0  0  0  0  0  0  0  0
    3.9067   -0.7150   -0.0341 C   0  0  0  0  0  0  0  0  0  0  0  0
    4.3953    0.0739   -1.0683 O   0  0  0  0  0  0  0  0  0  0  0  0
    5.0045   -0.7205    1.0534 C   0  0  1  0  0  0  0  0  0  0  0  0
    6.2789   -1.3055    0.6044 C   0  0  0  0  0  0  0  0  0  0  0  0
    7.4739   -0.3830    0.5621 C   0  0  2  0  0  0  0  0  0  0  0  0
    7.0921    1.0545    0.3451 C   0  0  0  0  0  0  0  0  0  0  0  0
    8.2112    1.8515    0.5643 O   0  0  0  0  0  0  0  0  0  0  0  0
    6.0019    1.5749    1.1973 C   0  0  0  0  0  0  0  0  0  0  0  0
    5.0922    0.5706    1.7810 C   0  0  0  0  0  0  0  0  0  0  0  0
    8.3230   -0.8380   -0.5779 C   0  0  0  0  0  0  0  0  0  0  0  0
    9.5843   -0.0976   -0.8160 C   0  0  0  0  0  0  0  0  0  0  0  0
   10.5921   -0.1241    0.2806 C   0  0  0  0  0  0  0  0  0  0  0  0
   11.0566   -1.5345    0.5995 C   0  0  0  0  0  0  0  0  0  0  0  0
   11.8087    0.6592   -0.2061 C   0  0  0  0  0  0  0  0  0  0  0  0
   -9.5843    0.7931   -1.8573 C   0  0  0  0  0  0  0  0  0  0  0  0
   -9.0914    0.8989   -0.5517 O   0  0  0  0  0  0  0  0  0  0  0  0
  -10.8350   -1.0904    1.5296 N   0  0  0  0  0  0  0  0  0  0  0  0
   -9.4881   -1.6128    1.7235 C   0  0  0  0  0  0  0  0  0  0  0  0
   -9.5396   -2.8446    2.3619 O   0  0  0  0  0  0  0  0  0  0  0  0
   -8.8129   -1.6850    0.4839 O   0  0  0  0  0  0  0  0  0  0  0  0
   -7.8391    0.2795   -0.5487 C   0  0  2  0  0  0  0  0  0  0  0  0
   -7.7463   -0.8185    0.4858 C   0  0  2  0  0  0  0  0  0  0  0  0
   -6.4031   -1.5368    0.2646 C   0  0  1  0  0  0  0  0  0  0  0  0
   -6.5223   -2.2349   -0.9405 O   0  0  0  0  0  0  0  0  0  0  0  0
   -5.3778   -0.4575    0.1608 C   0  0  1  0  0  0  0  0  0  0  0  0
   -5.8935    0.7505    0.7343 O   0  0  0  0  0  0  0  0  0  0  0  0
   -6.7766    1.3274   -0.1949 C   0  0  0  0  0  0  0  0  0  0  0  0
   -7.3943    2.5400    0.4488 C   0  0  0  0  0  0  0  0  0  0  0  0
   -6.0322    1.7577   -1.4446 C   0  0  0  0  0  0  0  0  0  0  0  0
   -4.1907   -0.6678    0.8388 O   0  0  0  0  0  0  0  0  0  0  0  0
   -3.1395   -0.4217   -0.0495 C   0  0  0  0  0  0  0  0  0  0  0  0
   -2.0930   -1.4888   -0.0923 C   0  0  1  0  0  0  0  0  0  0  0  0
   -2.5741   -2.7006   -0.8759 C   0  0  0  0  0  0  0  0  0  0  0  0
   -0.8207   -0.9365   -0.6233 C   0  0  0  0  0  0  0  0  0  0  0  0
   -0.1799   -0.0536    0.4643 C   0  0  0  0  0  0  0  0  0  0  0  0
   -1.2602    0.6724    1.1844 C   0  0  0  0  0  0  0  0  0  0  0  0
   -2.4723    0.9077    0.3468 C   0  0  0  0  0  0  0  0  0  0  0  0
    0.1607   -1.8542   -0.9355 O   0  0  0  0  0  0  0  0  0  0  0  0
    1.1876   -1.2415   -1.6061 C   0  0  0  0  0  0  0  0  0  0  0  0
    2.2330   -2.1620   -1.7365 O   0  0  0  0  0  0  0  0  0  0  0  0
    1.7510    0.0063   -0.9934 C   0  0  1  0  0  0  0  0  0  0  0  0
    0.7165    0.8847   -0.3307 C   0  0  0  0  0  0  0  0  0  0  0  0
    0.0000    1.5928   -1.2955 O   0  0  0  0  0  0  0  0  0  0  0  0
    2.7871   -0.2520   -0.0103 N   0  0  0  0  0  0  0  0  0  0  0  0
    3.4867    0.9825    0.2570 C   0  0  2  0  0  0  0  0  0  0  0  0
    3.4494    1.7240   -0.9387 O   0  0  0  0  0  0  0  0  0  0  0  0
    4.9638    0.7483    0.6590 C   0  0  1  0  0  0  0  0  0  0  0  0
    5.6681    0.0560   -0.4234 C   0  0  0  0  0  0  0  0  0  0  0  0
    7.1237    0.4326   -0.6216 C   0  0  0  0  0  0  0  0  0  0  0  0
    7.2246    1.9103   -0.5000 C   0  0  0  0  0  0  0  0  0  0  0  0
    8.3229    2.4870   -1.0846 O   0  0  0  0  0  0  0  0  0  0  0  0
    6.9735    2.2907    0.9118 C   0  0  0  0  0  0  0  0  0  0  0  0
    5.5403    1.9810    1.2408 C   0  0  0  0  0  0  0  0  0  0  0  0
    7.9527   -0.3914    0.2622 C   0  0  0  0  0  0  0  0  0  0  0  0
    9.4190   -0.1999    0.2570 C   0  0  0  0  0  0  0  0  0  0  0  0
   10.1263   -1.1344    1.2189 C   0  0  0  0  0  0  0  0  0  0  0  0
    9.8725   -2.5854    0.8730 C   0  0  0  0  0  0  0  0  0  0  0  0
   11.6050   -0.8545    1.0827 C   0  0  0  0  0  0  0  0  0  0  0  0
   -9.9588   -0.0979   -2.0065 H   0  0  0  0  0  0  0  0  0  0  0  0
   -9.1659    1.4152   -2.4933 H   0  0  0  0  0  0  0  0  0  0  0  0
  -10.7920    1.5025   -1.7341 H   0  0  0  0  0  0  0  0  0  0  0  0
  -11.0581   -0.0366    1.3815 H   0  0  0  0  0  0  0  0  0  0  0  0
  -11.7648   -1.4769    2.0164 H   0  0  0  0  0  0  0  0  0  0  0  0
   -9.2532   -0.8407    2.2878 H   0  0  0  0  0  0  0  0  0  0  0  0
  -10.3889   -2.8190    2.9603 H   0  0  0  0  0  0  0  0  0  0  0  0
   -7.7982    0.0271   -1.5110 H   0  0  0  0  0  0  0  0  0  0  0  0
   -7.9191   -0.2076    1.5073 H   0  0  0  0  0  0  0  0  0  0  0  0
   -6.3711   -2.1087    1.1615 H   0  0  0  0  0  0  0  0  0  0  0  0
   -6.7150   -3.1650   -0.6262 H   0  0  0  0  0  0  0  0  0  0  0  0
   -5.3310   -0.0646   -0.8180 H   0  0  0  0  0  0  0  0  0  0  0  0
   -8.5992    2.7429    0.1408 H   0  0  0  0  0  0  0  0  0  0  0  0
   -7.0214    3.5672    0.2294 H   0  0  0  0  0  0  0  0  0  0  0  0
   -7.4999    2.5810    1.6304 H   0  0  0  0  0  0  0  0  0  0  0  0
   -6.5395    2.9413   -1.6291 H   0  0  0  0  0  0  0  0  0  0  0  0
   -6.2573    1.1988   -2.2120 H   0  0  0  0  0  0  0  0  0  0  0  0
   -5.1189    2.0470   -1.0613 H   0  0  0  0  0  0  0  0  0  0  0  0
   -3.6589   -0.0374   -0.9454 H   0  0  0  0  0  0  0  0  0  0  0  0
   -2.0639   -1.6277    1.0946 H   0  0  0  0  0  0  0  0  0  0  0  0
   -2.6266   -2.5925   -1.7465 H   0  0  0  0  0  0  0  0  0  0  0  0
   -2.2897   -3.4674   -0.2113 H   0  0  0  0  0  0  0  0  0  0  0  0
   -3.8719   -2.7008   -0.4676 H   0  0  0  0  0  0  0  0  0  0  0  0
   -1.3234   -0.1509   -1.4146 H   0  0  0  0  0  0  0  0  0  0  0  0
    0.2328   -0.5414    1.1719 H   0  0  0  0  0  0  0  0  0  0  0  0
   -1.6627    0.2266    2.2694 H   0  0  0  0  0  0  0  0  0  0  0  0
   -1.0444    1.7927    1.6824 H   0  0  0  0  0  0  0  0  0  0  0  0
   -2.3525    1.6777   -0.3515 H   0  0  0  0  0  0  0  0  0  0  0  0
   -3.3999    1.6477    1.1256 H   0  0  0  0  0  0  0  0  0  0  0  0
    0.5368   -0.6519   -2.5741 H   0  0  0  0  0  0  0  0  0  0  0  0
    1.9979   -2.1292   -2.8915 H   0  0  0  0  0  0  0  0  0  0  0  0
    1.9850    0.8166   -1.7227 H   0  0  0  0  0  0  0  0  0  0  0  0
    1.0351    1.6795    0.5478 H   0  0  0  0  0  0  0  0  0  0  0  0
   -0.2256    2.7679   -0.7346 H   0  0  0  0  0  0  0  0  0  0  0  0
    2.5181    0.4422    0.9573 H   0  0  0  0  0  0  0  0  0  0  0  0
    3.7346   -1.7695   -0.1725 H   0  0  0  0  0  0  0  0  0  0  0  0
    3.9283    0.4138   -2.0307 H   0  0  0  0  0  0  0  0  0  0  0  0
    4.6661   -0.6234    1.5767 H   0  0  0  0  0  0  0  0  0  0  0  0
    6.2771   -0.7079   -1.0045 H   0  0  0  0  0  0  0  0  0  0  0  0
    6.2875   -1.7827    0.4494 H   0  0  0  0  0  0  0  0  0  0  0  0
    7.1626   -0.0275    1.8392 H   0  0  0  0  0  0  0  0  0  0  0  0
    7.5639    2.1427    1.1706 H   0  0  0  0  0  0  0  0  0  0  0  0
    7.8745    2.2956   -1.4304 H   0  0  0  0  0  0  0  0  0  0  0  0
    5.8960    1.4930   -1.2392 H   0  0  0  0  0  0  0  0  0  0  0  0
    5.9088    2.9754   -0.1968 H   0  0  0  0  0  0  0  0  0  0  0  0
    3.9596    1.8272    0.6493 H   0  0  0  0  0  0  0  0  0  0  0  0
    5.2904    1.5720    1.7734 H   0  0  0  0  0  0  0  0  0  0  0  0
    8.4920   -1.7505    0.8354 H   0  0  0  0  0  0  0  0  0  0  0  0
    8.6874   -0.8338   -0.6599 H   0  0  0  0  0  0  0  0  0  0  0  0
    9.7744   -0.0425    2.1399 H   0  0  0  0  0  0  0  0  0  0  0  0
    9.9525    0.9173    0.5796 H   0  0  0  0  0  0  0  0  0  0  0  0
   11.1120   -1.8789    1.1219 H   0  0  0  0  0  0  0  0  0  0  0  0
   11.0934   -0.0316   -1.3109 H   0  0  0  0  0  0  0  0  0  0  0  0
   12.4376   -1.1286   -0.9047 H   0  0  0  0  0  0  0  0  0  0  0  0
   10.8429   -1.8594   -1.2039 H   0  0  0  0  0  0  0  0  0  0  0  0
   13.2466   -0.4300    0.7399 H   0  0  0  0  0  0  0  0  0  0  0  0
   12.1861    0.9457    1.0714 H   0  0  0  0  0  0  0  0  0  0  0  0
   12.4738   -0.3366    2.3588 H   0  0  0  0  0  0  0  0  0  0  0  0
   -9.8469   -0.1765   -2.0544 H   0  0  0  0  0  0  0  0  0  0  0  0
   -8.9802    1.2723   -2.6286 H   0  0  0  0  0  0  0  0  0  0  0  0
  -10.6504    1.4303   -1.9325 H   0  0  0  0  0  0  0  0  0  0  0  0
  -10.2644    0.4336    2.5316 H   0  0  0  0  0  0  0  0  0  0  0  0
  -10.8339   -0.3241    1.0870 H   0  0  0  0  0  0  0  0  0  0  0  0
   -8.4921   -0.7135    2.5516 H   0  0  0  0  0  0  0  0  0  0  0  0
  -10.2909   -2.8931    2.5378 H   0  0  0  0  0  0  0  0  0  0  0  0
   -7.6660   -0.0015   -1.5598 H   0  0  0  0  0  0  0  0  0  0  0  0
   -7.4310    0.0005    1.4611 H   0  0  0  0  0  0  0  0  0  0  0  0
   -6.2009   -1.9870    0.9719 H   0  0  0  0  0  0  0  0  0  0  0  0
   -5.8633   -2.3437   -1.4285 H   0  0  0  0  0  0  0  0  0  0  0  0
   -5.0153   -0.1249   -1.0733 H   0  0  0  0  0  0  0  0  0  0  0  0
   -8.3680    2.8919   -0.0736 H   0  0  0  0  0  0  0  0  0  0  0  0
   -6.7135    3.6840   -0.2068 H   0  0  0  0  0  0  0  0  0  0  0  0
   -7.1913    2.7175    1.2329 H   0  0  0  0  0  0  0  0  0  0  0  0
   -6.7823    2.6599   -2.2372 H   0  0  0  0  0  0  0  0  0  0  0  0
   -6.1990    0.9550   -2.4767 H   0  0  0  0  0  0  0  0  0  0  0  0
   -5.1185    2.2382   -1.6879 H   0  0  0  0  0  0  0  0  0  0  0  0
   -3.2719   -0.3310   -1.0360 H   0  0  0  0  0  0  0  0  0  0  0  0
   -2.1504   -1.8495    1.3874 H   0  0  0  0  0  0  0  0  0  0  0  0
   -2.1008   -2.6915   -1.5200 H   0  0  0  0  0  0  0  0  0  0  0  0
   -1.7595   -3.6501   -0.0249 H   0  0  0  0  0  0  0  0  0  0  0  0
   -3.4437   -3.1056   -0.3877 H   0  0  0  0  0  0  0  0  0  0  0  0
   -0.0983   -2.1770    0.1299 H   0  0  0  0  0  0  0  0  0  0  0  0
    0.1094   -0.8687    2.0510 H   0  0  0  0  0  0  0  0  0  0  0  0
   -2.0894   -0.0868    2.3635 H   0  0  0  0  0  0  0  0  0  0  0  0
   -1.1814    1.4791    2.1685 H   0  0  0  0  0  0  0  0  0  0  0  0
   -1.7213    1.1826   -0.4120 H   0  0  0  0  0  0  0  0  0  0  0  0
   -3.0513    1.6485    0.6879 H   0  0  0  0  0  0  0  0  0  0  0  0
    0.4551    0.8896   -1.9672 H   0  0  0  0  0  0  0  0  0  0  0  0
    0.9932   -1.6072   -2.7983 H   0  0  0  0  0  0  0  0  0  0  0  0
    2.1998    1.1115   -0.6584 H   0  0  0  0  0  0  0  0  0  0  0  0
    1.4861    0.9657    1.6853 H   0  0  0  0  0  0  0  0  0  0  0  0
    0.9000    2.6758    0.5313 H   0  0  0  0  0  0  0  0  0  0  0  0
    2.1838   -1.7481   -0.4365 H   0  0  0  0  0  0  0  0  0  0  0  0
    4.0736   -1.7750    0.9232 H   0  0  0  0  0  0  0  0  0  0  0  0
    3.4704   -0.2206    2.3099 H   0  0  0  0  0  0  0  0  0  0  0  0
    4.9152   -1.2761   -1.3071 H   0  0  0  0  0  0  0  0  0  0  0  0
    6.2281   -1.5012    0.6160 H   0  0  0  0  0  0  0  0  0  0  0  0
    6.1934    0.2561    0.9812 H   0  0  0  0  0  0  0  0  0  0  0  0
    7.1923   -0.9475   -1.6758 H   0  0  0  0  0  0  0  0  0  0  0  0
    7.2022    1.7697   -0.3400 H   0  0  0  0  0  0  0  0  0  0  0  0
    8.3698    2.4481   -2.0440 H   0  0  0  0  0  0  0  0  0  0  0  0
    5.9233    1.0807   -3.0156 H   0  0  0  0  0  0  0  0  0  0  0  0
    5.7642    2.5010   -1.9869 H   0  0  0  0  0  0  0  0  0  0  0  0
    3.9053    0.8117   -2.0316 H   0  0  0  0  0  0  0  0  0  0  0  0
    4.3446    1.6663   -0.5137 H   0  0  0  0  0  0  0  0  0  0  0  0
    8.6573   -1.6096    0.0978 H   0  0  0  0  0  0  0  0  0  0  0  0
    9.4014   -0.3702   -0.9737 H   0  0  0  0  0  0  0  0  0  0  0  0
    9.0147    1.4276    0.5274 H   0  0  0  0  0  0  0  0  0  0  0  0
    8.0884    0.4243    1.6715 H   0  0  0  0  0  0  0  0  0  0  0  0
   10.3695    0.8540    2.4369 H   0  0  0  0  0  0  0  0  0  0  0  0
    9.6773   -2.0209    1.7670 H   0  0  0  0  0  0  0  0  0  0  0  0
   11.3397   -1.5807    2.2529 H   0  0  0  0  0  0  0  0  0  0  0  0
    9.9229   -1.2244    3.3217 H   0  0  0  0  0  0  0  0  0  0  0  0
   11.4198   -0.7391    0.0793 H   0  0  0  0  0  0  0  0  0  0  0  0
   11.1014    1.0703   -0.0958 H   0  0  0  0  0  0  0  0  0  0  0  0
   12.3258    0.3880    1.1218 H   0  0  0  0  0  0  0  0  0  0  0  0
  -10.0335   -0.7188   -2.0112 H   0  0  0  0  0  0  0  0  0  0  0  0
   -9.4407    0.8283   -2.6410 H   0  0  0  0  0  0  0  0  0  0  0  0
  -11.0926    0.7860   -1.8928 H   0  0  0  0  0  0  0  0  0  0  0  0
  -10.9445   -0.5561    1.4757 H   0  0  0  0  0  0  0  0  0  0  0  0
  -11.3476   -2.1236    2.0959 H   0  0  0  0  0  0  0  0  0  0  0  0
   -8.9265   -1.1052    2.3141 H   0  0  0  0  0  0  0  0  0  0  0  0
   -9.9257   -3.2639    2.8906 H   0  0  0  0  0  0  0  0  0  0  0  0
   -7.8774   -0.1866   -1.6639 H   0  0  0  0  0  0  0  0  0  0  0  0
   -7.7289   -0.1876    1.3478 H   0  0  0  0  0  0  0  0  0  0  0  0
   -6.0568   -1.9014    0.9255 H   0  0  0  0  0  0  0  0  0  0  0  0
   -6.0626   -2.8982   -0.9300 H   0  0  0  0  0  0  0  0  0  0  0  0
   -5.2411    0.1913   -1.0607 H   0  0  0  0  0  0  0  0  0  0  0  0
   -9.0174    2.6277   -0.3944 H   0  0  0  0  0  0  0  0  0  0  0  0
   -7.5303    3.5929   -0.1073 H   0  0  0  0  0  0  0  0  0  0  0  0
   -8.1748    2.4678    1.1785 H   0  0  0  0  0  0  0  0  0  0  0  0
   -7.2580    2.7285   -2.1822 H   0  0  0  0  0  0  0  0  0  0  0  0
   -6.5465    1.1068   -2.5210 H   0  0  0  0  0  0  0  0  0  0  0  0
   -5.6032    2.3585   -1.5317 H   0  0  0  0  0  0  0  0  0  0  0  0
   -3.5073    0.3579   -1.0101 H   0  0  0  0  0  0  0  0  0  0  0  0
   -2.0216   -1.2466    1.1235 H   0  0  0  0  0  0  0  0  0  0  0  0
   -2.5603   -1.9810   -1.7966 H   0  0  0  0  0  0  0  0  0  0  0  0
   -2.0665   -3.0123   -0.4235 H   0  0  0  0  0  0  0  0  0  0  0  0
   -3.6958   -2.3336   -0.3873 H   0  0  0  0  0  0  0  0  0  0  0  0
   -1.0660    0.3284   -1.3152 H   0  0  0  0  0  0  0  0  0  0  0  0
    0.1098   -0.2392    1.4300 H   0  0  0  0  0  0  0  0  0  0  0  0
   -1.7189    0.7943    2.3202 H   0  0  0  0  0  0  0  0  0  0  0  0
   -0.9582    2.2779    1.6283 H   0  0  0  0  0  0  0  0  0  0  0  0
   -2.2213    2.1223   -0.3816 H   0  0  0  0  0  0  0  0  0  0  0  0
   -3.3266    2.0651    1.0593 H   0  0  0  0  0  0  0  0  0  0  0  0
    0.7059   -0.0639   -2.2592 H   0  0  0  0  0  0  0  0  0  0  0  0
    1.9821   -1.6150   -2.8619 H   0  0  0  0  0  0  0  0  0  0  0  0
    2.3221    1.0704   -1.2499 H   0  0  0  0  0  0  0  0  0  0  0  0
    1.3153    1.7960    1.0433 H   0  0  0  0  0  0  0  0  0  0  0  0
    0.8765    3.1291   -0.6939 H   0  0  0  0  0  0  0  0  0  0  0  0
    2.3009   -0.6994    1.1943 H   0  0  0  0  0  0  0  0  0  0  0  0
    3.6850   -1.7594   -0.3220 H   0  0  0  0  0  0  0  0  0  0  0  0
    4.9959   -0.4107   -1.6802 H   0  0  0  0  0  0  0  0  0  0  0  0
    4.5593   -1.4523    1.8144 H   0  0  0  0  0  0  0  0  0  0  0  0
    6.0970   -1.7701   -0.4122 H   0  0  0  0  0  0  0  0  0  0  0  0
    6.5437   -2.1854    1.2402 H   0  0  0  0  0  0  0  0  0  0  0  0
    8.0505   -0.4599    1.4968 H   0  0  0  0  0  0  0  0  0  0  0  0
    6.8914    1.1555   -0.7566 H   0  0  0  0  0  0  0  0  0  0  0  0
    7.9008    2.7613    0.7989 H   0  0  0  0  0  0  0  0  0  0  0  0
    5.3940    2.3123    0.6208 H   0  0  0  0  0  0  0  0  0  0  0  0
    6.4482    2.1871    2.0343 H   0  0  0  0  0  0  0  0  0  0  0  0
    5.3870    0.3546    2.8502 H   0  0  0  0  0  0  0  0  0  0  0  0
    4.0367    0.9719    1.8673 H   0  0  0  0  0  0  0  0  0  0  0  0
    8.5097   -1.9314   -0.5187 H   0  0  0  0  0  0  0  0  0  0  0  0
    7.6962   -0.6996   -1.5085 H   0  0  0  0  0  0  0  0  0  0  0  0
   10.0803   -0.6048   -1.6986 H   0  0  0  0  0  0  0  0  0  0  0  0
    9.4373    0.9480   -1.1537 H   0  0  0  0  0  0  0  0  0  0  0  0
   10.3085    0.3265    1.2283 H   0  0  0  0  0  0  0  0  0  0  0  0
   10.6618   -1.8808    1.5753 H   0  0  0  0  0  0  0  0  0  0  0  0
   12.1674   -1.5994    0.6892 H   0  0  0  0  0  0  0  0  0  0  0  0
   10.7442   -2.2691   -0.1720 H   0  0  0  0  0  0  0  0  0  0  0  0
   12.2503    0.2119   -1.1082 H   0  0  0  0  0  0  0  0  0  0  0  0
   11.3995    1.6573   -0.5332 H   0  0  0  0  0  0  0  0  0  0  0  0
   12.5264    0.8456    0.5972 H   0  0  0  0  0  0  0  0  0  0  0  0
   -9.6427   -0.3030   -2.0836 H   0  0  0  0  0  0  0  0  0  0  0  0
   -8.7562    1.1937   -2.5107 H   0  0  0  0  0  0  0  0  0  0  0  0
  -10.5272    1.3215   -2.0153 H   0  0  0  0  0  0  0  0  0  0  0  0
  -10.8136   -0.0351    1.5096 H   0  0  0  0  0  0  0  0  0  0  0  0
  -11.5341   -1.4889    2.1821 H   0  0  0  0  0  0  0  0  0  0  0  0
   -8.9601   -0.8611    2.3545 H   0  0  0  0  0  0  0  0  0  0  0  0
  -10.3685   -2.8422    2.9218 H   0  0  0  0  0  0  0  0  0  0  0  0
   -7.5831   -0.1269   -1.5332 H   0  0  0  0  0  0  0  0  0  0  0  0
   -7.6604   -0.2781    1.4703 H   0  0  0  0  0  0  0  0  0  0  0  0
   -6.1797   -2.2030    1.0983 H   0  0  0  0  0  0  0  0  0  0  0  0
   -6.5506   -3.1982   -0.7363 H   0  0  0  0  0  0  0  0  0  0  0  0
   -5.1741   -0.2066   -0.9041 H   0  0  0  0  0  0  0  0  0  0  0  0
   -8.4648    2.6163    0.2354 H   0  0  0  0  0  0  0  0  0  0  0  0
   -6.9242    3.4826    0.0459 H   0  0  0  0  0  0  0  0  0  0  0  0
   -7.2372    2.5370    1.5552 H   0  0  0  0  0  0  0  0  0  0  0  0
   -6.3391    2.7726   -1.6949 H   0  0  0  0  0  0  0  0  0  0  0  0
   -6.1927    1.0537   -2.2857 H   0  0  0  0  0  0  0  0  0  0  0  0
   -4.9542    1.7844   -1.1742 H   0  0  0  0  0  0  0  0  0  0  0  0
   -3.5227   -0.2331   -1.0708 H   0  0  0  0  0  0  0  0  0  0  0  0
   -1.9076   -1.8339    0.9626 H   0  0  0  0  0  0  0  0  0  0  0  0
   -2.2719   -2.5553   -1.9261 H   0  0  0  0  0  0  0  0  0  0  0  0
   -2.0837   -3.5989   -0.4702 H   0  0  0  0  0  0  0  0  0  0  0  0
   -3.6803   -2.8398   -0.7597 H   0  0  0  0  0  0  0  0  0  0  0  0
   -1.0657   -0.2570   -1.4942 H   0  0  0  0  0  0  0  0  0  0  0  0
    0.4718   -0.6808    1.0844 H   0  0  0  0  0  0  0  0  0  0  0  0
   -1.5609    0.0168    2.0499 H   0  0  0  0  0  0  0  0  0  0  0  0
   -0.9107    1.6531    1.5496 H   0  0  0  0  0  0  0  0  0  0  0  0
   -2.2028    1.4854   -0.5569 H   0  0  0  0  0  0  0  0  0  0  0  0
   -3.2002    1.4730    0.9500 H   0  0  0  0  0  0  0  0  0  0  0  0
    0.8175   -0.9805   -2.6246 H   0  0  0  0  0  0  0  0  0  0  0  0
    2.3421   -2.3895   -2.6811 H   0  0  0  0  0  0  0  0  0  0  0  0
    2.2236    0.5732   -1.8519 H   0  0  0  0  0  0  0  0  0  0  0  0
    1.2021    1.5338    0.3969 H   0  0  0  0  0  0  0  0  0  0  0  0
   -0.0786    2.5247   -0.9247 H   0  0  0  0  0  0  0  0  0  0  0  0
    3.4939   -0.8710   -0.4901 H   0  0  0  0  0  0  0  0  0  0  0  0
    2.9927    1.4900    1.1015 H   0  0  0  0  0  0  0  0  0  0  0  0
    3.4598    2.6828   -0.6945 H   0  0  0  0  0  0  0  0  0  0  0  0
    4.8618    0.0174    1.5217 H   0  0  0  0  0  0  0  0  0  0  0  0
    5.0913    0.2182   -1.3809 H   0  0  0  0  0  0  0  0  0  0  0  0
    5.6207   -1.0532   -0.2758 H   0  0  0  0  0  0  0  0  0  0  0  0
    7.3552    0.1932   -1.6814 H   0  0  0  0  0  0  0  0  0  0  0  0
    6.3530    2.3237   -1.0977 H   0  0  0  0  0  0  0  0  0  0  0  0
    8.2023    3.4738   -1.0149 H   0  0  0  0  0  0  0  0  0  0  0  0
    7.1689    3.3761    1.1002 H   0  0  0  0  0  0  0  0  0  0  0  0
    7.5811    1.7125    1.6527 H   0  0  0  0  0  0  0  0  0  0  0  0
    5.4482    2.0471    2.3468 H   0  0  0  0  0  0  0  0  0  0  0  0
    4.9479    2.8636    0.8653 H   0  0  0  0  0  0  0  0  0  0  0  0
    7.6139   -0.2796    1.3302 H   0  0  0  0  0  0  0  0  0  0  0  0
    7.7649   -1.4798    0.0544 H   0  0  0  0  0  0  0  0  0  0  0  0
    9.7714    0.8126    0.5165 H   0  0  0  0  0  0  0  0  0  0  0  0
    9.8587   -0.4272   -0.7379 H   0  0  0  0  0  0  0  0  0  0  0  0
    9.7512   -0.9140    2.2557 H   0  0  0  0  0  0  0  0  0  0  0  0
    8.8338   -2.8899    1.0658 H   0  0  0  0  0  0  0  0  0  0  0  0
   10.1989   -2.7482   -0.1607 H   0  0  0  0  0  0  0  0  0  0  0  0
   10.5223   -3.1851    1.5682 H   0  0  0  0  0  0  0  0  0  0  0  0
   11.9119   -1.2549    0.0879 H   0  0  0  0  0  0  0  0  0  0  0  0
   11.7753    0.2505    0.9961 H   0  0  0  0  0  0  0  0  0  0  0  0
   12.2135   -1.2668    1.8912 H   0  0  0  0  0  0  0  0  0  0  0  0
  1  2  1  0
  3  4  1  0
  4  5  1  0
  4  6  1  0
  2  7  1  0
  6  8  1  0
  7  8  1  0
  8  9  1  0
  9 10  1  0
  9 11  1  0
 11 12  1  0
  7 13  1  0
 12 13  1  0
 13 14  1  0
 13 15  1  0
 11 16  1  0
 16 17  1  0
 17 18  1  0
 18 19  1  0
 18 20  1  0
 20 21  1  0
 21 22  1  0
 17 23  1  0
 22 23  1  0
 20 24  1  0
 24 25  1  0
 25 26  1  0
 25 27  1  0
 21 28  1  0
 27 28  1  0
 28 29  1  0
 27 30  1  0
 30 31  1  0
 31 32  1  0
 31 33  1  0
 33 34  1  0
 34 35  1  0
 35 36  1  0
 36 37  1  0
 36 38  1  0
 33 39  1  0
 38 39  1  0
 35 40  1  0
 40 41  1  0
 41 42  1  0
 42 43  1  0
 42 44  1  0
 45 46  1  0
 47 48  1  0
 48 49  1  0
 48 50  1  0
 46 51  1  0
 50 52  1  0
 51 52  1  0
 52 53  1  0
 53 54  1  0
 53 55  1  0
 55 56  1  0
 51 57  1  0
 56 57  1  0
 57 58  1  0
 57 59  1  0
 55 60  1  0
 60 61  1  0
 61 62  1  0
 62 63  1  0
 62 64  1  0
 64 65  1  0
 65 66  1  0
 61 67  1  0
 66 67  1  0
 64 68  1  0
 68 69  1  0
 69 70  1  0
 69 71  1  0
 65 72  1  0
 71 72  1  0
 72 73  1  0
 71 74  1  0
 74 75  1  0
 75 76  1  0
 75 77  1  0
 77 78  1  0
 78 79  1  0
 79 80  1  0
 80 81  1  0
 80 82  1  0
 77 83  1  0
 82 83  1  0
 79 84  1  0
 84 85  1  0
 85 86  1  0
 86 87  1  0
 86 88  1  0
 89 90  1  0
 91 92  1  0
 92 93  1  0
 92 94  1  0
 90 95  1  0
 94 96  1  0
 95 96  1  0
 96 97  1  0
 97 98  1  0
 97 99  1  0
 99100  1  0
 95101  1  0
100101  1  0
101102  1  0
101103  1  0
 99104  1  0
104105  1  0
105106  1  0
106107  1  0
106108  1  0
108109  1  0
109110  1  0
105111  1  0
110111  1  0
108112  1  0
112113  1  0
113114  1  0
113115  1  0
109116  1  0
115116  1  0
116117  1  0
115118  1  0
118119  1  0
119120  1  0
119121  1  0
121122  1  0
122123  1  0
123124  1  0
124125  1  0
124126  1  0
121127  1  0
126127  1  0
123128  1  0
128129  1  0
129130  1  0
130131  1  0
130132  1  0
133134  1  0
135136  1  0
136137  1  0
136138  1  0
134139  1  0
138140  1  0
139140  1  0
140141  1  0
141142  1  0
141143  1  0
143144  1  0
139145  1  0
144145  1  0
145146  1  0
145147  1  0
143148  1  0
148149  1  0
149150  1  0
150151  1  0
150152  1  0
152153  1  0
153154  1  0
149155  1  0
154155  1  0
152156  1  0
156157  1  0
157158  1  0
157159  1  0
153160  1  0
159160  1  0
160161  1  0
159162  1  0
162163  1  0
163164  1  0
163165  1  0
165166  1  0
166167  1  0
167168  1  0
168169  1  0
168170  1  0
165171  1  0
170171  1  0
167172  1  0
172173  1  0
173174  1  0
174175  1  0
174176  1  0
  1177  1  0
  1178  1  0
  1179  1  0
  3180  1  0
  3181  1  0
  4182  1  0
  5183  1  0
  7184  1  6
  8185  1  1
  9186  1  1
 10187  1  0
 11188  1  6
 14189  1  0
 14190  1  0
 14191  1  0
 15192  1  0
 15193  1  0
 15194  1  0
 17195  1  0
 18196  1  1
 19197  1  0
 19198  1  0
 19199  1  0
 20200  1  0
 21201  1  0
 22202  1  0
 22203  1  0
 23204  1  0
 23205  1  0
 25206  1  0
 26207  1  0
 27208  1  6
 28209  1  0
 29210  1  0
 30211  1  0
 31212  1  0
 32213  1  0
 33214  1  1
 34215  1  0
 34216  1  0
 35217  1  0
 36218  1  1
 37219  1  0
 38220  1  0
 38221  1  0
 39222  1  0
 39223  1  0
 40224  1  0
 40225  1  0
 41226  1  0
 41227  1  0
 42228  1  0
 43229  1  0
 43230  1  0
 43231  1  0
 44232  1  0
 44233  1  0
 44234  1  0
 45235  1  0
 45236  1  0
 45237  1  0
 47238  1  0
 47239  1  0
 48240  1  0
 49241  1  0
 51242  1  6
 52243  1  1
 53244  1  1
 54245  1  0
 55246  1  6
 58247  1  0
 58248  1  0
 58249  1  0
 59250  1  0
 59251  1  0
 59252  1  0
 61253  1  0
 62254  1  0
 63255  1  0
 63256  1  0
 63257  1  0
 64258  1  0
 65259  1  0
 66260  1  0
 66261  1  0
 67262  1  0
 67263  1  0
 69264  1  0
 70265  1  0
 71266  1  6
 72267  1  0
 73268  1  0
 74269  1  0
 75270  1  0
 76271  1  0
 77272  1  0
 78273  1  0
 78274  1  0
 79275  1  0
 80276  1  0
 81277  1  0
 82278  1  0
 82279  1  0
 83280  1  0
 83281  1  0
 84282  1  0
 84283  1  0
 85284  1  0
 85285  1  0
 86286  1  0
 87287  1  0
 87288  1  0
 87289  1  0
 88290  1  0
 88291  1  0
 88292  1  0
 89293  1  0
 89294  1  0
 89295  1  0
 91296  1  0
 91297  1  0
 92298  1  0
 93299  1  0
 95300  1  6
 96301  1  1
 97302  1  1
 98303  1  0
 99304  1  6
102305  1  0
102306  1  0
102307  1  0
103308  1  0
103309  1  0
103310  1  0
105311  1  0
106312  1  0
107313  1  0
107314  1  0
107315  1  0
108316  1  0
109317  1  0
110318  1  0
110319  1  0
111320  1  0
111321  1  0
113322  1  0
114323  1  0
115324  1  6
116325  1  0
117326  1  0
118327  1  0
119328  1  0
120329  1  0
121330  1  1
122331  1  0
122332  1  0
123333  1  1
124334  1  0
125335  1  0
126336  1  0
126337  1  0
127338  1  0
127339  1  0
128340  1  0
128341  1  0
129342  1  0
129343  1  0
130344  1  0
131345  1  0
131346  1  0
131347  1  0
132348  1  0
132349  1  0
132350  1  0
133351  1  0
133352  1  0
133353  1  0
135354  1  0
135355  1  0
136356  1  0
137357  1  0
139358  1  6
140359  1  1
141360  1  1
142361  1  0
143362  1  6
146363  1  0
146364  1  0
146365  1  0
147366  1  0
147367  1  0
147368  1  0
149369  1  0
150370  1  1
151371  1  0
151372  1  0
151373  1  0
152374  1  0
153375  1  0
154376  1  0
154377  1  0
155378  1  0
155379  1  0
157380  1  0
158381  1  0
159382  1  6
160383  1  0
161384  1  0
162385  1  0
163386  1  1
164387  1  0
165388  1  1
166389  1  0
166390  1  0
167391  1  0
168392  1  0
169393  1  0
170394  1  0
170395  1  0
171396  1  0
171397  1  0
172398  1  0
172399  1  0
173400  1  0
173401  1  0
174402  1  0
175403  1  0
175404  1  0
175405  1  0
176406  1  0
176407  1  0
176408  1  0
M  END
>  <PDBID>  (1) 
4URO

>  <PDB ID>  (1) 
4URO

>  <Generic Name>  (1) 
Novobiocin

>  <Brand Name>  (1) 
Albamycin

>  <DrugBank ID>  (1) 
DB01051

>  <ATC Codes>  (1) 
nan

>  <Ligand ID>  (1) 
NOV

>  <Target Name>  (1) 
DNA gyrase subunit B

>  <UniProt ID>  (1) 
P0A0K8

>  <PDB ID.1>  (1) 
4URO

>  <Seq. Identity>  (1) 
84%

$$$$
