PDB_DB01157_03
     RDKit          3D

264272  0  0  0  0  0  0  0  0999 V2000
    5.6184   -0.6517    1.1533 N   0  0  0  0  0  0  0  0  0  0  0  0
    6.0073    0.4248    0.2595 C   0  0  1  0  0  0  0  0  0  0  0  0
    4.9810    0.7803   -0.6815 N   0  0  0  0  0  0  0  0  0  0  0  0
    4.4338   -0.3399   -1.3932 C   0  0  2  0  0  0  0  0  0  0  0  0
    4.2002   -0.9565    1.0203 C   0  0  0  0  0  0  0  0  0  0  0  0
    3.8630   -1.3154   -0.3880 C   0  0  0  0  0  0  0  0  0  0  0  0
    2.3693   -1.4829   -0.5217 C   0  0  0  0  0  0  0  0  0  0  0  0
    1.7009   -0.1666   -0.1763 C   0  0  0  0  0  0  0  0  0  0  0  0
    1.9924    0.2490    1.2327 C   0  0  0  0  0  0  0  0  0  0  0  0
    3.4380    0.1877    1.5950 C   0  0  0  0  0  0  0  0  0  0  0  0
    0.2174   -0.3660   -0.3636 C   0  0  0  0  0  0  0  0  0  0  0  0
   -0.5174    0.8402   -0.0607 N   0  0  0  0  0  0  0  0  0  0  0  0
   -1.9278    0.6519   -0.2546 C   0  0  0  0  0  0  0  0  0  0  0  0
   -2.6242    2.0086   -0.0524 C   0  0  0  0  0  0  0  0  0  0  0  0
   -4.0291    1.7269   -0.6218 C   0  0  0  0  0  0  0  0  0  0  0  0
   -4.6927    0.8680    0.3962 C   0  0  0  0  0  0  0  0  0  0  0  0
   -3.9901   -0.3818    0.7611 C   0  0  0  0  0  0  0  0  0  0  0  0
   -2.4968   -0.3528    0.7002 C   0  0  0  0  0  0  0  0  0  0  0  0
    1.9350   -2.5717    0.4038 C   0  0  0  0  0  0  0  0  0  0  0  0
   -3.8625    1.2760   -1.8575 O   0  0  0  0  0  0  0  0  0  0  0  0
   -6.0204    0.5537    0.0607 O   0  0  0  0  0  0  0  0  0  0  0  0
   -4.5046   -1.4228   -0.0165 O   0  0  0  0  0  0  0  0  0  0  0  0
   -4.2768    1.9772   -2.9326 C   0  0  0  0  0  0  0  0  0  0  0  0
   -6.9480    1.1046    0.9194 C   0  0  0  0  0  0  0  0  0  0  0  0
   -5.1311   -2.4031    0.7176 C   0  0  0  0  0  0  0  0  0  0  0  0
    6.2405    1.5903    1.1006 N   0  0  0  0  0  0  0  0  0  0  0  0
    5.4377   -0.9459   -2.2488 N   0  0  0  0  0  0  0  0  0  0  0  0
    5.4658    0.8087    1.1950 N   0  0  0  0  0  0  0  0  0  0  0  0
    5.8135    0.9140   -0.1843 C   0  0  1  0  0  0  0  0  0  0  0  0
    4.8551    0.2497   -1.0582 N   0  0  0  0  0  0  0  0  0  0  0  0
    4.6635   -1.0820   -0.4699 C   0  0  0  0  0  0  0  0  0  0  0  0
    4.0564    0.4190    1.4161 C   0  0  0  0  0  0  0  0  0  0  0  0
    3.8576   -0.8941    0.7784 C   0  0  0  0  0  0  0  0  0  0  0  0
    2.3891   -1.2083    0.6210 C   0  0  1  0  0  0  0  0  0  0  0  0
    1.7623   -0.1239   -0.1554 C   0  0  0  0  0  0  0  0  0  0  0  0
    1.8541    1.2293    0.4986 C   0  0  0  0  0  0  0  0  0  0  0  0
    3.2409    1.5654    0.9587 C   0  0  0  0  0  0  0  0  0  0  0  0
    0.3314   -0.3541   -0.5519 C   0  0  0  0  0  0  0  0  0  0  0  0
   -0.5858   -0.5672    0.5218 N   0  0  0  0  0  0  0  0  0  0  0  0
   -1.9931   -0.4645    0.1092 C   0  0  0  0  0  0  0  0  0  0  0  0
   -2.2237    0.9855   -0.1967 C   0  0  0  0  0  0  0  0  0  0  0  0
   -3.6701    1.1380   -0.6749 C   0  0  0  0  0  0  0  0  0  0  0  0
   -4.5745    0.7520    0.4255 C   0  0  0  0  0  0  0  0  0  0  0  0
   -4.3490   -0.6733    0.9106 C   0  0  0  0  0  0  0  0  0  0  0  0
   -2.8834   -0.9047    1.2104 C   0  0  0  0  0  0  0  0  0  0  0  0
    2.1381   -2.5826    0.1096 C   0  0  0  0  0  0  0  0  0  0  0  0
   -3.7499    0.5995   -1.8951 O   0  0  0  0  0  0  0  0  0  0  0  0
   -5.8964    0.9889    0.1282 O   0  0  0  0  0  0  0  0  0  0  0  0
   -4.8207   -1.4982   -0.0910 O   0  0  0  0  0  0  0  0  0  0  0  0
   -3.9021    1.4161   -2.9757 C   0  0  0  0  0  0  0  0  0  0  0  0
   -6.4577    1.9376    1.0134 C   0  0  0  0  0  0  0  0  0  0  0  0
   -5.8294   -2.3529    0.2258 C   0  0  0  0  0  0  0  0  0  0  0  0
    6.0447    2.2761   -0.5919 N   0  0  0  0  0  0  0  0  0  0  0  0
    4.1453   -2.0285   -1.3978 N   0  0  0  0  0  0  0  0  0  0  0  0
    5.5656    0.6028    0.7273 N   0  0  0  0  0  0  0  0  0  0  0  0
    5.6963    0.7166   -0.6787 C   0  0  0  0  0  0  0  0  0  0  0  0
    4.9193   -0.1844   -1.4512 N   0  0  0  0  0  0  0  0  0  0  0  0
    4.3453   -1.2795   -0.7315 C   0  0  2  0  0  0  0  0  0  0  0  0
    4.2128    0.3456    1.1950 C   0  0  0  0  0  0  0  0  0  0  0  0
    3.7553   -0.9336    0.6035 C   0  0  0  0  0  0  0  0  0  0  0  0
    2.2219   -1.0970    0.5754 C   0  0  1  0  0  0  0  0  0  0  0  0
    1.6468    0.1097   -0.0614 C   0  0  0  0  0  0  0  0  0  0  0  0
    1.8857    1.2794    0.8860 C   0  0  0  0  0  0  0  0  0  0  0  0
    3.3708    1.5543    0.9942 C   0  0  0  0  0  0  0  0  0  0  0  0
    0.1981   -0.0044   -0.3417 C   0  0  0  0  0  0  0  0  0  0  0  0
   -0.6440   -0.2363    0.7913 N   0  0  0  0  0  0  0  0  0  0  0  0
   -2.0128   -0.0672    0.4082 C   0  0  0  0  0  0  0  0  0  0  0  0
   -2.3920    1.3698    0.0942 C   0  0  0  0  0  0  0  0  0  0  0  0
   -3.7232    1.2602   -0.6629 C   0  0  0  0  0  0  0  0  0  0  0  0
   -4.7028    0.7948    0.3537 C   0  0  0  0  0  0  0  0  0  0  0  0
   -4.4168   -0.5964    0.8660 C   0  0  0  0  0  0  0  0  0  0  0  0
   -2.9830   -0.7849    1.2736 C   0  0  0  0  0  0  0  0  0  0  0  0
    1.8905   -2.3973   -0.0742 C   0  0  0  0  0  0  0  0  0  0  0  0
   -3.4697    0.3960   -1.7104 O   0  0  0  0  0  0  0  0  0  0  0  0
   -6.0375    0.9382    0.0104 O   0  0  0  0  0  0  0  0  0  0  0  0
   -4.8112   -1.4730   -0.1279 O   0  0  0  0  0  0  0  0  0  0  0  0
   -3.4762    1.0122   -2.9496 C   0  0  0  0  0  0  0  0  0  0  0  0
   -6.7098    1.8021    0.8786 C   0  0  0  0  0  0  0  0  0  0  0  0
   -5.8744   -2.2258    0.3240 C   0  0  0  0  0  0  0  0  0  0  0  0
    7.0868    0.5670   -1.0534 N   0  0  0  0  0  0  0  0  0  0  0  0
    5.2926   -2.3835   -0.6748 N   0  0  0  0  0  0  0  0  0  0  0  0
    5.5656    0.6028    0.7273 N   0  0  0  0  0  0  0  0  0  0  0  0
    5.6963    0.7166   -0.6787 C   0  0  0  0  0  0  0  0  0  0  0  0
    4.9193   -0.1844   -1.4512 N   0  0  0  0  0  0  0  0  0  0  0  0
    4.3453   -1.2795   -0.7315 C   0  0  2  0  0  0  0  0  0  0  0  0
    4.2128    0.3456    1.1950 C   0  0  0  0  0  0  0  0  0  0  0  0
    3.7553   -0.9336    0.6035 C   0  0  0  0  0  0  0  0  0  0  0  0
    2.2219   -1.0970    0.5754 C   0  0  1  0  0  0  0  0  0  0  0  0
    1.6468    0.1097   -0.0614 C   0  0  0  0  0  0  0  0  0  0  0  0
    1.8857    1.2794    0.8860 C   0  0  0  0  0  0  0  0  0  0  0  0
    3.3708    1.5543    0.9942 C   0  0  0  0  0  0  0  0  0  0  0  0
    0.1981   -0.0044   -0.3417 C   0  0  0  0  0  0  0  0  0  0  0  0
   -0.6440   -0.2363    0.7913 N   0  0  0  0  0  0  0  0  0  0  0  0
   -2.0128   -0.0672    0.4082 C   0  0  0  0  0  0  0  0  0  0  0  0
   -2.3920    1.3698    0.0942 C   0  0  0  0  0  0  0  0  0  0  0  0
   -3.7232    1.2602   -0.6629 C   0  0  0  0  0  0  0  0  0  0  0  0
   -4.7028    0.7948    0.3537 C   0  0  0  0  0  0  0  0  0  0  0  0
   -4.4168   -0.5964    0.8660 C   0  0  0  0  0  0  0  0  0  0  0  0
   -2.9830   -0.7849    1.2736 C   0  0  0  0  0  0  0  0  0  0  0  0
    1.8905   -2.3973   -0.0742 C   0  0  0  0  0  0  0  0  0  0  0  0
   -3.4697    0.3960   -1.7104 O   0  0  0  0  0  0  0  0  0  0  0  0
   -6.0375    0.9382    0.0104 O   0  0  0  0  0  0  0  0  0  0  0  0
   -4.8112   -1.4730   -0.1279 O   0  0  0  0  0  0  0  0  0  0  0  0
   -3.4762    1.0122   -2.9496 C   0  0  0  0  0  0  0  0  0  0  0  0
   -6.7098    1.8021    0.8786 C   0  0  0  0  0  0  0  0  0  0  0  0
   -5.8744   -2.2258    0.3240 C   0  0  0  0  0  0  0  0  0  0  0  0
    7.0868    0.5670   -1.0534 N   0  0  0  0  0  0  0  0  0  0  0  0
    5.2926   -2.3835   -0.6748 N   0  0  0  0  0  0  0  0  0  0  0  0
    6.1182   -1.5147    0.8158 H   0  0  0  0  0  0  0  0  0  0  0  0
    6.9427    0.2106   -0.2879 H   0  0  0  0  0  0  0  0  0  0  0  0
    5.3344    1.5414   -1.2705 H   0  0  0  0  0  0  0  0  0  0  0  0
    3.6274    0.0563   -2.0548 H   0  0  0  0  0  0  0  0  0  0  0  0
    4.0116   -1.8643    1.6536 H   0  0  0  0  0  0  0  0  0  0  0  0
    4.3136   -2.3061   -0.6058 H   0  0  0  0  0  0  0  0  0  0  0  0
    2.1472   -1.6940   -1.5797 H   0  0  0  0  0  0  0  0  0  0  0  0
    2.0360    0.6029   -0.9022 H   0  0  0  0  0  0  0  0  0  0  0  0
    1.3528   -0.2958    1.9618 H   0  0  0  0  0  0  0  0  0  0  0  0
    1.6697    1.3261    1.3376 H   0  0  0  0  0  0  0  0  0  0  0  0
    3.4771    0.0675    2.7183 H   0  0  0  0  0  0  0  0  0  0  0  0
    3.9164    1.1757    1.4080 H   0  0  0  0  0  0  0  0  0  0  0  0
   -0.1504   -1.1590    0.3445 H   0  0  0  0  0  0  0  0  0  0  0  0
   -0.0135   -0.7444   -1.3749 H   0  0  0  0  0  0  0  0  0  0  0  0
   -0.3140    1.1981    0.8909 H   0  0  0  0  0  0  0  0  0  0  0  0
   -2.1026    0.3848   -1.3170 H   0  0  0  0  0  0  0  0  0  0  0  0
   -2.6878    2.2847    1.0041 H   0  0  0  0  0  0  0  0  0  0  0  0
   -2.1552    2.7522   -0.7071 H   0  0  0  0  0  0  0  0  0  0  0  0
   -4.5331    2.7156   -0.6138 H   0  0  0  0  0  0  0  0  0  0  0  0
   -4.7832    1.5036    1.3075 H   0  0  0  0  0  0  0  0  0  0  0  0
   -4.2540   -0.6632    1.8147 H   0  0  0  0  0  0  0  0  0  0  0  0
   -2.0076   -0.1804    1.6855 H   0  0  0  0  0  0  0  0  0  0  0  0
   -2.1682   -1.3605    0.3654 H   0  0  0  0  0  0  0  0  0  0  0  0
    2.7987   -3.2246    0.7248 H   0  0  0  0  0  0  0  0  0  0  0  0
    1.3626   -2.2157    1.2774 H   0  0  0  0  0  0  0  0  0  0  0  0
    1.2376   -3.2633   -0.1535 H   0  0  0  0  0  0  0  0  0  0  0  0
   -4.0325    1.4081   -3.8535 H   0  0  0  0  0  0  0  0  0  0  0  0
   -3.6441    2.9087   -3.0005 H   0  0  0  0  0  0  0  0  0  0  0  0
   -5.3170    2.3445   -2.9160 H   0  0  0  0  0  0  0  0  0  0  0  0
   -6.8839    2.2117    0.9328 H   0  0  0  0  0  0  0  0  0  0  0  0
   -7.9481    0.8484    0.5139 H   0  0  0  0  0  0  0  0  0  0  0  0
   -6.8888    0.6415    1.9214 H   0  0  0  0  0  0  0  0  0  0  0  0
   -5.9829   -2.0557    1.3059 H   0  0  0  0  0  0  0  0  0  0  0  0
   -4.3477   -2.9093    1.3227 H   0  0  0  0  0  0  0  0  0  0  0  0
   -5.4949   -3.1653   -0.0010 H   0  0  0  0  0  0  0  0  0  0  0  0
    6.1179    2.4856    0.6068 H   0  0  0  0  0  0  0  0  0  0  0  0
    7.2035    1.4888    1.4894 H   0  0  0  0  0  0  0  0  0  0  0  0
    5.1804   -1.9464   -2.4450 H   0  0  0  0  0  0  0  0  0  0  0  0
    5.4481   -0.4757   -3.2020 H   0  0  0  0  0  0  0  0  0  0  0  0
    6.0704    0.1392    1.7038 H   0  0  0  0  0  0  0  0  0  0  0  0
    6.7882    0.3605   -0.3645 H   0  0  0  0  0  0  0  0  0  0  0  0
    5.3192    0.1889   -1.9931 H   0  0  0  0  0  0  0  0  0  0  0  0
    5.7023   -1.4180   -0.1974 H   0  0  0  0  0  0  0  0  0  0  0  0
    3.9799    0.2835    2.5305 H   0  0  0  0  0  0  0  0  0  0  0  0
    4.2388   -1.6836    1.4972 H   0  0  0  0  0  0  0  0  0  0  0  0
    1.9763   -1.1699    1.6706 H   0  0  0  0  0  0  0  0  0  0  0  0
    2.3227   -0.0548   -1.1370 H   0  0  0  0  0  0  0  0  0  0  0  0
    1.1092    1.2984    1.3073 H   0  0  0  0  0  0  0  0  0  0  0  0
    1.5581    1.9796   -0.2698 H   0  0  0  0  0  0  0  0  0  0  0  0
    3.1283    2.2717    1.8214 H   0  0  0  0  0  0  0  0  0  0  0  0
    3.7679    2.1843    0.1723 H   0  0  0  0  0  0  0  0  0  0  0  0
    0.3642   -1.3582   -1.1194 H   0  0  0  0  0  0  0  0  0  0  0  0
    0.0083    0.3510   -1.3344 H   0  0  0  0  0  0  0  0  0  0  0  0
   -0.4302   -1.4724    1.0202 H   0  0  0  0  0  0  0  0  0  0  0  0
   -2.0679   -1.1076   -0.7997 H   0  0  0  0  0  0  0  0  0  0  0  0
   -2.0782    1.5526    0.7567 H   0  0  0  0  0  0  0  0  0  0  0  0
   -1.5888    1.3500   -1.0020 H   0  0  0  0  0  0  0  0  0  0  0  0
   -3.7686    2.2578   -0.8108 H   0  0  0  0  0  0  0  0  0  0  0  0
   -4.3346    1.4060    1.2997 H   0  0  0  0  0  0  0  0  0  0  0  0
   -4.9115   -0.8967    1.8110 H   0  0  0  0  0  0  0  0  0  0  0  0
   -2.5652   -0.3740    2.1355 H   0  0  0  0  0  0  0  0  0  0  0  0
   -2.7120   -1.9773    1.4000 H   0  0  0  0  0  0  0  0  0  0  0  0
    3.0333   -3.2212    0.3736 H   0  0  0  0  0  0  0  0  0  0  0  0
    1.2998   -3.0731    0.6527 H   0  0  0  0  0  0  0  0  0  0  0  0
    1.9060   -2.6680   -0.9556 H   0  0  0  0  0  0  0  0  0  0  0  0
   -3.9522    0.8885   -3.9439 H   0  0  0  0  0  0  0  0  0  0  0  0
   -2.9848    2.0444   -3.0308 H   0  0  0  0  0  0  0  0  0  0  0  0
   -4.7354    2.1745   -2.8721 H   0  0  0  0  0  0  0  0  0  0  0  0
   -5.8946    2.8798    0.9286 H   0  0  0  0  0  0  0  0  0  0  0  0
   -7.5420    2.0366    0.7857 H   0  0  0  0  0  0  0  0  0  0  0  0
   -6.3617    1.5027    2.0268 H   0  0  0  0  0  0  0  0  0  0  0  0
   -6.7706   -1.8917    0.5866 H   0  0  0  0  0  0  0  0  0  0  0  0
   -5.4675   -3.2011    0.8420 H   0  0  0  0  0  0  0  0  0  0  0  0
   -6.1304   -2.8442   -0.7544 H   0  0  0  0  0  0  0  0  0  0  0  0
    6.8796    2.3612   -1.2274 H   0  0  0  0  0  0  0  0  0  0  0  0
    6.1677    2.9175    0.2019 H   0  0  0  0  0  0  0  0  0  0  0  0
    4.6736   -2.9327   -1.3507 H   0  0  0  0  0  0  0  0  0  0  0  0
    4.3205   -1.6297   -2.3714 H   0  0  0  0  0  0  0  0  0  0  0  0
    6.2042   -0.0700    1.1519 H   0  0  0  0  0  0  0  0  0  0  0  0
    5.3950    1.7577   -0.9838 H   0  0  0  0  0  0  0  0  0  0  0  0
    4.3754    0.1957   -2.2249 H   0  0  0  0  0  0  0  0  0  0  0  0
    3.5061   -1.6598   -1.3852 H   0  0  0  0  0  0  0  0  0  0  0  0
    4.3247    0.2078    2.3081 H   0  0  0  0  0  0  0  0  0  0  0  0
    4.0820   -1.7676    1.2960 H   0  0  0  0  0  0  0  0  0  0  0  0
    1.9005   -1.1225    1.6464 H   0  0  0  0  0  0  0  0  0  0  0  0
    2.2368    0.3947   -0.9825 H   0  0  0  0  0  0  0  0  0  0  0  0
    1.4782    1.0691    1.8797 H   0  0  0  0  0  0  0  0  0  0  0  0
    1.3997    2.1564    0.4360 H   0  0  0  0  0  0  0  0  0  0  0  0
    3.5142    2.2472    1.8476 H   0  0  0  0  0  0  0  0  0  0  0  0
    3.7096    2.1308    0.0991 H   0  0  0  0  0  0  0  0  0  0  0  0
   -0.0831    0.8576   -0.9849 H   0  0  0  0  0  0  0  0  0  0  0  0
   -0.0076   -0.9094   -1.0308 H   0  0  0  0  0  0  0  0  0  0  0  0
   -0.4408    0.4312    1.5814 H   0  0  0  0  0  0  0  0  0  0  0  0
   -2.0837   -0.5756   -0.6177 H   0  0  0  0  0  0  0  0  0  0  0  0
   -2.5919    1.8371    1.0944 H   0  0  0  0  0  0  0  0  0  0  0  0
   -1.6244    1.8755   -0.4634 H   0  0  0  0  0  0  0  0  0  0  0  0
   -3.9430    2.2992   -0.9850 H   0  0  0  0  0  0  0  0  0  0  0  0
   -4.5498    1.4665    1.2628 H   0  0  0  0  0  0  0  0  0  0  0  0
   -5.0537   -0.7716    1.7481 H   0  0  0  0  0  0  0  0  0  0  0  0
   -2.8316   -0.4641    2.3240 H   0  0  0  0  0  0  0  0  0  0  0  0
   -2.7620   -1.8681    1.2379 H   0  0  0  0  0  0  0  0  0  0  0  0
    1.4764   -2.3320   -1.0950 H   0  0  0  0  0  0  0  0  0  0  0  0
    1.1804   -2.9722    0.5925 H   0  0  0  0  0  0  0  0  0  0  0  0
    2.7742   -3.0868   -0.1590 H   0  0  0  0  0  0  0  0  0  0  0  0
   -3.2800    0.2466   -3.7202 H   0  0  0  0  0  0  0  0  0  0  0  0
   -2.5258    1.6364   -2.9549 H   0  0  0  0  0  0  0  0  0  0  0  0
   -4.2726    1.7156   -3.1429 H   0  0  0  0  0  0  0  0  0  0  0  0
   -6.1578    2.7817    0.7782 H   0  0  0  0  0  0  0  0  0  0  0  0
   -7.7169    1.9773    0.4553 H   0  0  0  0  0  0  0  0  0  0  0  0
   -6.7183    1.4367    1.9163 H   0  0  0  0  0  0  0  0  0  0  0  0
   -5.6830   -2.8309    1.2216 H   0  0  0  0  0  0  0  0  0  0  0  0
   -6.1580   -2.9831   -0.4658 H   0  0  0  0  0  0  0  0  0  0  0  0
   -6.8029   -1.6523    0.5206 H   0  0  0  0  0  0  0  0  0  0  0  0
    7.3769    1.2752   -1.7741 H   0  0  0  0  0  0  0  0  0  0  0  0
    7.7438    0.6216   -0.2489 H   0  0  0  0  0  0  0  0  0  0  0  0
    6.1485   -2.0747   -0.1402 H   0  0  0  0  0  0  0  0  0  0  0  0
    5.6261   -2.5625   -1.6331 H   0  0  0  0  0  0  0  0  0  0  0  0
    6.2042   -0.0700    1.1519 H   0  0  0  0  0  0  0  0  0  0  0  0
    5.3950    1.7577   -0.9838 H   0  0  0  0  0  0  0  0  0  0  0  0
    4.3754    0.1957   -2.2249 H   0  0  0  0  0  0  0  0  0  0  0  0
    3.5061   -1.6598   -1.3852 H   0  0  0  0  0  0  0  0  0  0  0  0
    4.3247    0.2078    2.3081 H   0  0  0  0  0  0  0  0  0  0  0  0
    4.0820   -1.7676    1.2960 H   0  0  0  0  0  0  0  0  0  0  0  0
    1.9005   -1.1225    1.6464 H   0  0  0  0  0  0  0  0  0  0  0  0
    2.2368    0.3947   -0.9825 H   0  0  0  0  0  0  0  0  0  0  0  0
    1.4782    1.0691    1.8797 H   0  0  0  0  0  0  0  0  0  0  0  0
    1.3997    2.1564    0.4360 H   0  0  0  0  0  0  0  0  0  0  0  0
    3.5142    2.2472    1.8476 H   0  0  0  0  0  0  0  0  0  0  0  0
    3.7096    2.1308    0.0991 H   0  0  0  0  0  0  0  0  0  0  0  0
   -0.0831    0.8576   -0.9849 H   0  0  0  0  0  0  0  0  0  0  0  0
   -0.0076   -0.9094   -1.0308 H   0  0  0  0  0  0  0  0  0  0  0  0
   -0.4408    0.4312    1.5814 H   0  0  0  0  0  0  0  0  0  0  0  0
   -2.0837   -0.5756   -0.6177 H   0  0  0  0  0  0  0  0  0  0  0  0
   -2.5919    1.8371    1.0944 H   0  0  0  0  0  0  0  0  0  0  0  0
   -1.6244    1.8755   -0.4634 H   0  0  0  0  0  0  0  0  0  0  0  0
   -3.9430    2.2992   -0.9850 H   0  0  0  0  0  0  0  0  0  0  0  0
   -4.5498    1.4665    1.2628 H   0  0  0  0  0  0  0  0  0  0  0  0
   -5.0537   -0.7716    1.7481 H   0  0  0  0  0  0  0  0  0  0  0  0
   -2.8316   -0.4641    2.3240 H   0  0  0  0  0  0  0  0  0  0  0  0
   -2.7620   -1.8681    1.2379 H   0  0  0  0  0  0  0  0  0  0  0  0
    1.4764   -2.3320   -1.0950 H   0  0  0  0  0  0  0  0  0  0  0  0
    1.1804   -2.9722    0.5925 H   0  0  0  0  0  0  0  0  0  0  0  0
    2.7742   -3.0868   -0.1590 H   0  0  0  0  0  0  0  0  0  0  0  0
   -3.2800    0.2466   -3.7202 H   0  0  0  0  0  0  0  0  0  0  0  0
   -2.5258    1.6364   -2.9549 H   0  0  0  0  0  0  0  0  0  0  0  0
   -4.2726    1.7156   -3.1429 H   0  0  0  0  0  0  0  0  0  0  0  0
   -6.1578    2.7817    0.7782 H   0  0  0  0  0  0  0  0  0  0  0  0
   -7.7169    1.9773    0.4553 H   0  0  0  0  0  0  0  0  0  0  0  0
   -6.7183    1.4367    1.9163 H   0  0  0  0  0  0  0  0  0  0  0  0
   -5.6830   -2.8309    1.2216 H   0  0  0  0  0  0  0  0  0  0  0  0
   -6.1580   -2.9831   -0.4658 H   0  0  0  0  0  0  0  0  0  0  0  0
   -6.8029   -1.6523    0.5206 H   0  0  0  0  0  0  0  0  0  0  0  0
    7.3769    1.2752   -1.7741 H   0  0  0  0  0  0  0  0  0  0  0  0
    7.7438    0.6216   -0.2489 H   0  0  0  0  0  0  0  0  0  0  0  0
    6.1485   -2.0747   -0.1402 H   0  0  0  0  0  0  0  0  0  0  0  0
    5.6261   -2.5625   -1.6331 H   0  0  0  0  0  0  0  0  0  0  0  0
  1  2  1  0
  2  3  1  0
  3  4  1  0
  1  5  1  0
  4  6  1  0
  5  6  1  0
  6  7  1  0
  7  8  1  0
  8  9  1  0
  5 10  1  0
  9 10  1  0
  8 11  1  0
 11 12  1  0
 12 13  1  0
 13 14  1  0
 14 15  1  0
 15 16  1  0
 16 17  1  0
 13 18  1  0
 17 18  1  0
  7 19  1  0
 15 20  1  0
 16 21  1  0
 17 22  1  0
 20 23  1  0
 21 24  1  0
 22 25  1  0
  2 26  1  0
  4 27  1  0
 28 29  1  0
 29 30  1  0
 30 31  1  0
 28 32  1  0
 31 33  1  0
 32 33  1  0
 33 34  1  0
 34 35  1  0
 35 36  1  0
 32 37  1  0
 36 37  1  0
 35 38  1  0
 38 39  1  0
 39 40  1  0
 40 41  1  0
 41 42  1  0
 42 43  1  0
 43 44  1  0
 40 45  1  0
 44 45  1  0
 34 46  1  0
 42 47  1  0
 43 48  1  0
 44 49  1  0
 47 50  1  0
 48 51  1  0
 49 52  1  0
 29 53  1  0
 31 54  1  0
 55 56  1  0
 56 57  1  0
 57 58  1  0
 55 59  1  0
 58 60  1  0
 59 60  1  0
 60 61  1  0
 61 62  1  0
 62 63  1  0
 59 64  1  0
 63 64  1  0
 62 65  1  0
 65 66  1  0
 66 67  1  0
 67 68  1  0
 68 69  1  0
 69 70  1  0
 70 71  1  0
 67 72  1  0
 71 72  1  0
 61 73  1  0
 69 74  1  0
 70 75  1  0
 71 76  1  0
 74 77  1  0
 75 78  1  0
 76 79  1  0
 56 80  1  0
 58 81  1  0
 82 83  1  0
 83 84  1  0
 84 85  1  0
 82 86  1  0
 85 87  1  0
 86 87  1  0
 87 88  1  0
 88 89  1  0
 89 90  1  0
 86 91  1  0
 90 91  1  0
 89 92  1  0
 92 93  1  0
 93 94  1  0
 94 95  1  0
 95 96  1  0
 96 97  1  0
 97 98  1  0
 94 99  1  0
 98 99  1  0
 88100  1  0
 96101  1  0
 97102  1  0
 98103  1  0
101104  1  0
102105  1  0
103106  1  0
 83107  1  0
 85108  1  0
  1109  1  0
  2110  1  6
  3111  1  0
  4112  1  6
  5113  1  0
  6114  1  0
  7115  1  0
  8116  1  0
  9117  1  0
  9118  1  0
 10119  1  0
 10120  1  0
 11121  1  0
 11122  1  0
 12123  1  0
 13124  1  0
 14125  1  0
 14126  1  0
 15127  1  0
 16128  1  0
 17129  1  0
 18130  1  0
 18131  1  0
 19132  1  0
 19133  1  0
 19134  1  0
 23135  1  0
 23136  1  0
 23137  1  0
 24138  1  0
 24139  1  0
 24140  1  0
 25141  1  0
 25142  1  0
 25143  1  0
 26144  1  0
 26145  1  0
 27146  1  0
 27147  1  0
 28148  1  0
 29149  1  1
 30150  1  0
 31151  1  0
 32152  1  0
 33153  1  0
 34154  1  1
 35155  1  0
 36156  1  0
 36157  1  0
 37158  1  0
 37159  1  0
 38160  1  0
 38161  1  0
 39162  1  0
 40163  1  0
 41164  1  0
 41165  1  0
 42166  1  0
 43167  1  0
 44168  1  0
 45169  1  0
 45170  1  0
 46171  1  0
 46172  1  0
 46173  1  0
 50174  1  0
 50175  1  0
 50176  1  0
 51177  1  0
 51178  1  0
 51179  1  0
 52180  1  0
 52181  1  0
 52182  1  0
 53183  1  0
 53184  1  0
 54185  1  0
 54186  1  0
 55187  1  0
 56188  1  0
 57189  1  0
 58190  1  6
 59191  1  0
 60192  1  0
 61193  1  1
 62194  1  0
 63195  1  0
 63196  1  0
 64197  1  0
 64198  1  0
 65199  1  0
 65200  1  0
 66201  1  0
 67202  1  0
 68203  1  0
 68204  1  0
 69205  1  0
 70206  1  0
 71207  1  0
 72208  1  0
 72209  1  0
 73210  1  0
 73211  1  0
 73212  1  0
 77213  1  0
 77214  1  0
 77215  1  0
 78216  1  0
 78217  1  0
 78218  1  0
 79219  1  0
 79220  1  0
 79221  1  0
 80222  1  0
 80223  1  0
 81224  1  0
 81225  1  0
 82226  1  0
 83227  1  0
 84228  1  0
 85229  1  6
 86230  1  0
 87231  1  0
 88232  1  1
 89233  1  0
 90234  1  0
 90235  1  0
 91236  1  0
 91237  1  0
 92238  1  0
 92239  1  0
 93240  1  0
 94241  1  0
 95242  1  0
 95243  1  0
 96244  1  0
 97245  1  0
 98246  1  0
 99247  1  0
 99248  1  0
100249  1  0
100250  1  0
100251  1  0
104252  1  0
104253  1  0
104254  1  0
105255  1  0
105256  1  0
105257  1  0
106258  1  0
106259  1  0
106260  1  0
107261  1  0
107262  1  0
108263  1  0
108264  1  0
M  END
>  <PDBID>  (1) 
4M2X

>  <PDB ID>  (1) 
4M2X

>  <Generic Name>  (1) 
Trimetrexate

>  <Brand Name>  (1) 
Neutrexin Pws IV 25mg/vial#Neutrexin

>  <DrugBank ID>  (1) 
DB01157

>  <ATC Codes>  (1) 
P01AX07

>  <Ligand ID>  (1) 
TMQ

>  <Target Name>  (1) 
Dihydrofolate reductase

>  <UniProt ID>  (1) 
P00374

>  <PDB ID.1>  (1) 
4M2X

>  <Seq. Identity>  (1) 
31%

$$$$
