PDB_DB00136_00
     RDKit          3D

 80 82  0  0  0  0  0  0  0  0999 V2000
    6.7640   -2.7990   -0.6600 O   0  0  0  0  0  0  0  0  0  0  0  0
   -7.7072    0.5636   -1.1561 O   0  0  0  0  0  0  0  0  0  0  0  0
    5.8511    0.0072   -1.7935 C   0  0  1  0  0  0  0  0  0  0  0  0
    7.1796   -0.6513   -1.4791 C   0  0  0  0  0  0  0  0  0  0  0  0
    6.9940   -1.4868   -0.2494 C   0  0  1  0  0  0  0  0  0  0  0  0
    5.8457   -1.0602    0.6033 C   0  0  0  0  0  0  0  0  0  0  0  0
    4.5241   -1.3449   -0.1366 C   0  0  1  0  0  0  0  0  0  0  0  0
    3.3455   -0.8521    0.5919 C   0  0  0  0  0  0  0  0  0  0  0  0
    3.2225    0.5824    0.8954 C   0  0  0  0  0  0  0  0  0  0  0  0
    2.0142    1.0284    1.6349 C   0  0  0  0  0  0  0  0  0  0  0  0
    1.8106    0.4265    2.9869 C   0  0  0  0  0  0  0  0  0  0  0  0
    4.7277   -1.0004   -1.5437 C   0  0  1  0  0  0  0  0  0  0  0  0
    0.7940   -0.6991    2.9220 C   0  0  0  0  0  0  0  0  0  0  0  0
   -0.5598   -0.0497    2.7217 C   0  0  0  0  0  0  0  0  0  0  0  0
   -0.5235    0.9820    1.6491 C   0  0  1  0  0  0  0  0  0  0  0  0
    0.7807    0.8336    0.8449 C   0  0  1  0  0  0  0  0  0  0  0  0
    0.5065    1.8688   -0.2241 C   0  0  0  0  0  0  0  0  0  0  0  0
   -0.9945    1.6950   -0.5202 C   0  0  0  0  0  0  0  0  0  0  0  0
   -1.4457    0.6831    0.4986 C   0  0  2  0  0  0  0  0  0  0  0  0
   -0.6444    2.3909    2.1458 C   0  0  0  0  0  0  0  0  0  0  0  0
    3.4841   -0.6264   -2.3200 C   0  0  0  0  0  0  0  0  0  0  0  0
   -2.8672    0.5357    0.7290 C   0  0  1  0  0  0  0  0  0  0  0  0
   -3.6694    1.6326    1.2973 C   0  0  0  0  0  0  0  0  0  0  0  0
   -3.5144    0.1160   -0.5945 C   0  0  0  0  0  0  0  0  0  0  0  0
   -5.0041   -0.0570   -0.4311 C   0  0  0  0  0  0  0  0  0  0  0  0
   -5.6405   -0.4813   -1.7549 C   0  0  0  0  0  0  0  0  0  0  0  0
   -7.1326   -0.6500   -1.5735 C   0  0  0  0  0  0  0  0  0  0  0  0
   -7.4450   -1.6704   -0.4887 C   0  0  0  0  0  0  0  0  0  0  0  0
   -7.7838   -1.1164   -2.8329 C   0  0  0  0  0  0  0  0  0  0  0  0
    5.7734    1.1535   -1.0972 O   0  0  0  0  0  0  0  0  0  0  0  0
    7.0047   -3.3816    0.1025 H   0  0  0  0  0  0  0  0  0  0  0  0
   -8.2581    0.4588   -0.3458 H   0  0  0  0  0  0  0  0  0  0  0  0
    5.8032    0.2295   -2.8922 H   0  0  0  0  0  0  0  0  0  0  0  0
    7.5735   -1.2225   -2.3422 H   0  0  0  0  0  0  0  0  0  0  0  0
    7.9364    0.1325   -1.2564 H   0  0  0  0  0  0  0  0  0  0  0  0
    7.9224   -1.5016    0.3604 H   0  0  0  0  0  0  0  0  0  0  0  0
    5.8983   -0.0039    0.9287 H   0  0  0  0  0  0  0  0  0  0  0  0
    5.8747   -1.6653    1.5373 H   0  0  0  0  0  0  0  0  0  0  0  0
    4.4802   -2.4775   -0.0341 H   0  0  0  0  0  0  0  0  0  0  0  0
    3.3064   -1.4191    1.5698 H   0  0  0  0  0  0  0  0  0  0  0  0
    2.4326   -1.1932    0.0584 H   0  0  0  0  0  0  0  0  0  0  0  0
    4.1495    0.9376    1.3917 H   0  0  0  0  0  0  0  0  0  0  0  0
    3.2248    1.1653   -0.0722 H   0  0  0  0  0  0  0  0  0  0  0  0
    2.1520    2.1417    1.7866 H   0  0  0  0  0  0  0  0  0  0  0  0
    1.3641    1.1861    3.6644 H   0  0  0  0  0  0  0  0  0  0  0  0
    2.7428    0.1083    3.4857 H   0  0  0  0  0  0  0  0  0  0  0  0
    5.1346   -1.8884   -2.0871 H   0  0  0  0  0  0  0  0  0  0  0  0
    0.9613   -1.3809    2.0750 H   0  0  0  0  0  0  0  0  0  0  0  0
    0.8048   -1.3075    3.8390 H   0  0  0  0  0  0  0  0  0  0  0  0
   -1.3245   -0.8242    2.4222 H   0  0  0  0  0  0  0  0  0  0  0  0
   -0.8361    0.3820    3.7279 H   0  0  0  0  0  0  0  0  0  0  0  0
    0.7082   -0.1572    0.3284 H   0  0  0  0  0  0  0  0  0  0  0  0
    0.7391    2.8912    0.0870 H   0  0  0  0  0  0  0  0  0  0  0  0
    1.0838    1.5898   -1.1120 H   0  0  0  0  0  0  0  0  0  0  0  0
   -1.5352    2.6384   -0.5064 H   0  0  0  0  0  0  0  0  0  0  0  0
   -1.1019    1.2885   -1.5570 H   0  0  0  0  0  0  0  0  0  0  0  0
   -1.0533   -0.3025    0.0881 H   0  0  0  0  0  0  0  0  0  0  0  0
   -1.1198    2.4491    3.1692 H   0  0  0  0  0  0  0  0  0  0  0  0
   -1.1389    3.0866    1.4358 H   0  0  0  0  0  0  0  0  0  0  0  0
    0.3543    2.8911    2.3241 H   0  0  0  0  0  0  0  0  0  0  0  0
    3.3218    0.4713   -2.3676 H   0  0  0  0  0  0  0  0  0  0  0  0
    2.5932   -1.1837   -1.9702 H   0  0  0  0  0  0  0  0  0  0  0  0
    3.5778   -0.9235   -3.4090 H   0  0  0  0  0  0  0  0  0  0  0  0
   -3.0247   -0.3716    1.3899 H   0  0  0  0  0  0  0  0  0  0  0  0
   -4.0867    2.2869    0.4747 H   0  0  0  0  0  0  0  0  0  0  0  0
   -4.6097    1.1816    1.7454 H   0  0  0  0  0  0  0  0  0  0  0  0
   -3.2479    2.2124    2.1143 H   0  0  0  0  0  0  0  0  0  0  0  0
   -3.3390    0.9331   -1.3136 H   0  0  0  0  0  0  0  0  0  0  0  0
   -3.0311   -0.8019   -0.9686 H   0  0  0  0  0  0  0  0  0  0  0  0
   -5.2455   -0.8491    0.3056 H   0  0  0  0  0  0  0  0  0  0  0  0
   -5.4686    0.8794   -0.0616 H   0  0  0  0  0  0  0  0  0  0  0  0
   -5.4997    0.3711   -2.4522 H   0  0  0  0  0  0  0  0  0  0  0  0
   -5.2040   -1.4120   -2.1175 H   0  0  0  0  0  0  0  0  0  0  0  0
   -8.4998   -2.0271   -0.6544 H   0  0  0  0  0  0  0  0  0  0  0  0
   -7.4479   -1.2006    0.5105 H   0  0  0  0  0  0  0  0  0  0  0  0
   -6.8070   -2.5643   -0.5528 H   0  0  0  0  0  0  0  0  0  0  0  0
   -8.8649   -0.8183   -2.8558 H   0  0  0  0  0  0  0  0  0  0  0  0
   -7.8084   -2.2425   -2.9112 H   0  0  0  0  0  0  0  0  0  0  0  0
   -7.2386   -0.7383   -3.7121 H   0  0  0  0  0  0  0  0  0  0  0  0
    5.9616    1.9915   -1.5606 H   0  0  0  0  0  0  0  0  0  0  0  0
  3  4  1  0
  1  5  1  0
  4  5  1  0
  5  6  1  0
  6  7  1  0
  7  8  1  0
  8  9  1  0
  9 10  1  0
 10 11  1  0
  3 12  1  0
  7 12  1  0
 11 13  1  0
 13 14  1  0
 14 15  1  0
 10 16  1  0
 15 16  1  0
 16 17  1  0
 17 18  1  0
 15 19  1  0
 18 19  1  0
 15 20  1  1
 12 21  1  0
 19 22  1  0
 22 23  1  0
 22 24  1  0
 24 25  1  0
 25 26  1  0
 27  2  1  0
 26 27  1  0
 27 28  1  0
 27 29  1  0
  3 30  1  0
  1 31  1  0
  2 32  1  0
  3 33  1  6
  4 34  1  0
  4 35  1  0
  5 36  1  1
  6 37  1  0
  6 38  1  0
  7 39  1  6
  8 40  1  0
  8 41  1  0
  9 42  1  0
  9 43  1  0
 10 44  1  0
 11 45  1  0
 11 46  1  0
 12 47  1  6
 13 48  1  0
 13 49  1  0
 14 50  1  0
 14 51  1  0
 16 52  1  6
 17 53  1  0
 17 54  1  0
 18 55  1  0
 18 56  1  0
 19 57  1  6
 20 58  1  0
 20 59  1  0
 20 60  1  0
 21 61  1  0
 21 62  1  0
 21 63  1  0
 22 64  1  1
 23 65  1  0
 23 66  1  0
 23 67  1  0
 24 68  1  0
 24 69  1  0
 25 70  1  0
 25 71  1  0
 26 72  1  0
 26 73  1  0
 28 74  1  0
 28 75  1  0
 28 76  1  0
 29 77  1  0
 29 78  1  0
 29 79  1  0
 30 80  1  0
M  END
>  <PDBID>  (1) 
1IE9

>  <PDB ID>  (1) 
1IE9

>  <Generic Name>  (1) 
Calcitriol

>  <Brand Name>  (1) 
Calcijex#Calcitriol#Calcitriol Injection#Calcitriol Injection USP#Calcitriol-odan#Rocaltrol#Rocaltrol Cap 0.25mcg#Rocaltrol Cap 0.5mcg#Rocaltrol Oral Solution 1mcg/ml#Silkis#Vectical#Calcitriol Oral Solution#Decostriol

>  <DrugBank ID>  (1) 
DB00136

>  <ATC Codes>  (1) 
A11CC04#D05AX03

>  <Ligand ID>  (1) 
VDX

>  <Target Name>  (1) 
Vitamin D3 receptor

>  <UniProt ID>  (1) 
P11473

>  <PDB ID.1>  (1) 
1IE9

>  <Seq. Identity>  (1) 
84%

$$$$
