PDB_DB06603_05
     RDKit          3D

134138  0  0  0  0  0  0  0  0999 V2000
    8.1162    1.5216   -0.3181 O   0  0  0  0  0  0  0  0  0  0  0  0
    6.7744    1.0146   -0.0668 C   0  0  0  0  0  0  0  0  0  0  0  0
    6.3102    1.6795    1.1102 N   0  0  0  0  0  0  0  0  0  0  0  0
    6.3122    3.0236    0.9383 O   0  0  0  0  0  0  0  0  0  0  0  0
    6.8482   -0.4432    0.1111 C   0  0  0  0  0  0  0  0  0  0  0  0
    5.6980   -1.2775    0.4153 C   0  0  0  0  0  0  0  0  0  0  0  0
    4.5185   -1.4135   -0.4711 C   0  0  0  0  0  0  0  0  0  0  0  0
    3.5632   -2.4723    0.1646 C   0  0  0  0  0  0  0  0  0  0  0  0
    2.1600   -2.0193    0.2107 C   0  0  0  0  0  0  0  0  0  0  0  0
    3.7082   -0.2016   -0.7708 C   0  0  0  0  0  0  0  0  0  0  0  0
    2.8806    0.3123    0.3943 C   0  0  0  0  0  0  0  0  0  0  0  0
    2.0854   -0.7346    1.0577 C   0  0  0  0  0  0  0  0  0  0  0  0
    0.6508   -0.3565    1.2519 C   0  0  0  0  0  0  0  0  0  0  0  0
   -0.0165   -0.1255   -0.0124 N   0  0  0  0  0  0  0  0  0  0  0  0
   -1.4779   -0.0539    0.2448 C   0  0  0  0  0  0  0  0  0  0  0  0
   -2.1848    0.2150   -1.0198 C   0  0  0  0  0  0  0  0  0  0  0  0
   -3.6220    0.2597   -1.0803 C   0  0  0  0  0  0  0  0  0  0  0  0
   -4.3849    1.2433   -0.2327 C   0  0  0  0  0  0  0  0  0  0  0  0
   -5.7868    0.9009   -0.7668 C   0  0  0  0  0  0  0  0  0  0  0  0
   -5.7882   -0.5224   -0.7605 N   0  0  0  0  0  0  0  0  0  0  0  0
   -4.3992   -0.9929   -0.7840 C   0  0  0  0  0  0  0  0  0  0  0  0
   -4.2526   -1.9425   -1.9358 C   0  0  0  0  0  0  0  0  0  0  0  0
   -6.8899    1.5622   -0.0324 C   0  0  0  0  0  0  0  0  0  0  0  0
   -6.5710    1.8075    1.4333 C   0  0  0  0  0  0  0  0  0  0  0  0
   -5.6777    0.6771    1.8569 C   0  0  0  0  0  0  0  0  0  0  0  0
   -4.3146    0.9278    1.2412 C   0  0  0  0  0  0  0  0  0  0  0  0
    8.1162    1.5216   -0.3181 O   0  0  0  0  0  0  0  0  0  0  0  0
    6.7744    1.0146   -0.0668 C   0  0  0  0  0  0  0  0  0  0  0  0
    6.3102    1.6795    1.1102 N   0  0  0  0  0  0  0  0  0  0  0  0
    6.3122    3.0236    0.9383 O   0  0  0  0  0  0  0  0  0  0  0  0
    6.8482   -0.4432    0.1111 C   0  0  0  0  0  0  0  0  0  0  0  0
    5.6980   -1.2775    0.4153 C   0  0  0  0  0  0  0  0  0  0  0  0
    4.5185   -1.4135   -0.4711 C   0  0  0  0  0  0  0  0  0  0  0  0
    3.5632   -2.4723    0.1646 C   0  0  0  0  0  0  0  0  0  0  0  0
    2.1600   -2.0193    0.2107 C   0  0  0  0  0  0  0  0  0  0  0  0
    3.7082   -0.2016   -0.7708 C   0  0  0  0  0  0  0  0  0  0  0  0
    2.8806    0.3123    0.3943 C   0  0  0  0  0  0  0  0  0  0  0  0
    2.0854   -0.7346    1.0577 C   0  0  0  0  0  0  0  0  0  0  0  0
    0.6508   -0.3565    1.2519 C   0  0  0  0  0  0  0  0  0  0  0  0
   -0.0165   -0.1255   -0.0124 N   0  0  0  0  0  0  0  0  0  0  0  0
   -1.4779   -0.0539    0.2448 C   0  0  0  0  0  0  0  0  0  0  0  0
   -2.1848    0.2150   -1.0198 C   0  0  0  0  0  0  0  0  0  0  0  0
   -3.6220    0.2597   -1.0803 C   0  0  0  0  0  0  0  0  0  0  0  0
   -4.3849    1.2433   -0.2327 C   0  0  0  0  0  0  0  0  0  0  0  0
   -5.7868    0.9009   -0.7668 C   0  0  0  0  0  0  0  0  0  0  0  0
   -5.7882   -0.5224   -0.7605 N   0  0  0  0  0  0  0  0  0  0  0  0
   -4.3992   -0.9929   -0.7840 C   0  0  0  0  0  0  0  0  0  0  0  0
   -4.2526   -1.9425   -1.9358 C   0  0  0  0  0  0  0  0  0  0  0  0
   -6.8899    1.5622   -0.0324 C   0  0  0  0  0  0  0  0  0  0  0  0
   -6.5710    1.8075    1.4333 C   0  0  0  0  0  0  0  0  0  0  0  0
   -5.6777    0.6771    1.8569 C   0  0  0  0  0  0  0  0  0  0  0  0
   -4.3146    0.9278    1.2412 C   0  0  0  0  0  0  0  0  0  0  0  0
    8.5549    1.3734    0.5733 H   0  0  0  0  0  0  0  0  0  0  0  0
    6.2734    1.3570   -0.9988 H   0  0  0  0  0  0  0  0  0  0  0  0
    6.8397    1.4097    1.9631 H   0  0  0  0  0  0  0  0  0  0  0  0
    6.8572    3.2165    0.1414 H   0  0  0  0  0  0  0  0  0  0  0  0
    7.7037   -0.6243    0.8720 H   0  0  0  0  0  0  0  0  0  0  0  0
    7.3672   -0.8561   -0.8463 H   0  0  0  0  0  0  0  0  0  0  0  0
    5.2875   -1.0176    1.4659 H   0  0  0  0  0  0  0  0  0  0  0  0
    6.0805   -2.3524    0.5920 H   0  0  0  0  0  0  0  0  0  0  0  0
    4.8286   -1.8653   -1.4327 H   0  0  0  0  0  0  0  0  0  0  0  0
    3.6434   -3.4284   -0.3493 H   0  0  0  0  0  0  0  0  0  0  0  0
    3.9281   -2.6242    1.1956 H   0  0  0  0  0  0  0  0  0  0  0  0
    1.7007   -1.7726   -0.7448 H   0  0  0  0  0  0  0  0  0  0  0  0
    1.5643   -2.7966    0.7555 H   0  0  0  0  0  0  0  0  0  0  0  0
    4.2988    0.6098   -1.1619 H   0  0  0  0  0  0  0  0  0  0  0  0
    2.9943   -0.5010   -1.6108 H   0  0  0  0  0  0  0  0  0  0  0  0
    3.5447    0.8499    1.1309 H   0  0  0  0  0  0  0  0  0  0  0  0
    2.2264    1.1096   -0.0038 H   0  0  0  0  0  0  0  0  0  0  0  0
    2.5802   -1.0010    2.0278 H   0  0  0  0  0  0  0  0  0  0  0  0
    0.0688   -1.0566    1.8603 H   0  0  0  0  0  0  0  0  0  0  0  0
    0.6535    0.6562    1.7612 H   0  0  0  0  0  0  0  0  0  0  0  0
    0.3056    0.7244   -0.5002 H   0  0  0  0  0  0  0  0  0  0  0  0
   -1.5424    0.8467    0.9259 H   0  0  0  0  0  0  0  0  0  0  0  0
   -1.7005   -1.0002    0.7318 H   0  0  0  0  0  0  0  0  0  0  0  0
   -1.8182   -0.5662   -1.7615 H   0  0  0  0  0  0  0  0  0  0  0  0
   -1.7605    1.1657   -1.4597 H   0  0  0  0  0  0  0  0  0  0  0  0
   -3.9395    0.5250   -2.1479 H   0  0  0  0  0  0  0  0  0  0  0  0
   -4.1256    2.2856   -0.4648 H   0  0  0  0  0  0  0  0  0  0  0  0
   -5.7511    1.2314   -1.8472 H   0  0  0  0  0  0  0  0  0  0  0  0
   -6.3399   -0.9241   -1.5660 H   0  0  0  0  0  0  0  0  0  0  0  0
   -4.2159   -1.4399    0.2036 H   0  0  0  0  0  0  0  0  0  0  0  0
   -3.9926   -2.9768   -1.6232 H   0  0  0  0  0  0  0  0  0  0  0  0
   -5.1771   -1.9689   -2.5462 H   0  0  0  0  0  0  0  0  0  0  0  0
   -3.4491   -1.5885   -2.6145 H   0  0  0  0  0  0  0  0  0  0  0  0
   -7.0627    2.5598   -0.4897 H   0  0  0  0  0  0  0  0  0  0  0  0
   -7.8428    0.9762   -0.1314 H   0  0  0  0  0  0  0  0  0  0  0  0
   -6.0023    2.7524    1.5344 H   0  0  0  0  0  0  0  0  0  0  0  0
   -7.5157    1.8513    2.0012 H   0  0  0  0  0  0  0  0  0  0  0  0
   -6.1312   -0.2699    1.5541 H   0  0  0  0  0  0  0  0  0  0  0  0
   -5.6121    0.7140    2.9625 H   0  0  0  0  0  0  0  0  0  0  0  0
   -3.8809    1.7825    1.8022 H   0  0  0  0  0  0  0  0  0  0  0  0
   -3.7006    0.0445    1.4837 H   0  0  0  0  0  0  0  0  0  0  0  0
    8.5549    1.3734    0.5733 H   0  0  0  0  0  0  0  0  0  0  0  0
    6.2734    1.3570   -0.9988 H   0  0  0  0  0  0  0  0  0  0  0  0
    6.8397    1.4097    1.9631 H   0  0  0  0  0  0  0  0  0  0  0  0
    6.8572    3.2165    0.1414 H   0  0  0  0  0  0  0  0  0  0  0  0
    7.7037   -0.6243    0.8720 H   0  0  0  0  0  0  0  0  0  0  0  0
    7.3672   -0.8561   -0.8463 H   0  0  0  0  0  0  0  0  0  0  0  0
    5.2875   -1.0176    1.4659 H   0  0  0  0  0  0  0  0  0  0  0  0
    6.0805   -2.3524    0.5920 H   0  0  0  0  0  0  0  0  0  0  0  0
    4.8286   -1.8653   -1.4327 H   0  0  0  0  0  0  0  0  0  0  0  0
    3.6434   -3.4284   -0.3493 H   0  0  0  0  0  0  0  0  0  0  0  0
    3.9281   -2.6242    1.1956 H   0  0  0  0  0  0  0  0  0  0  0  0
    1.7007   -1.7726   -0.7448 H   0  0  0  0  0  0  0  0  0  0  0  0
    1.5643   -2.7966    0.7555 H   0  0  0  0  0  0  0  0  0  0  0  0
    4.2988    0.6098   -1.1619 H   0  0  0  0  0  0  0  0  0  0  0  0
    2.9943   -0.5010   -1.6108 H   0  0  0  0  0  0  0  0  0  0  0  0
    3.5447    0.8499    1.1309 H   0  0  0  0  0  0  0  0  0  0  0  0
    2.2264    1.1096   -0.0038 H   0  0  0  0  0  0  0  0  0  0  0  0
    2.5802   -1.0010    2.0278 H   0  0  0  0  0  0  0  0  0  0  0  0
    0.0688   -1.0566    1.8603 H   0  0  0  0  0  0  0  0  0  0  0  0
    0.6535    0.6562    1.7612 H   0  0  0  0  0  0  0  0  0  0  0  0
    0.3056    0.7244   -0.5002 H   0  0  0  0  0  0  0  0  0  0  0  0
   -1.5424    0.8467    0.9259 H   0  0  0  0  0  0  0  0  0  0  0  0
   -1.7005   -1.0002    0.7318 H   0  0  0  0  0  0  0  0  0  0  0  0
   -1.8182   -0.5662   -1.7615 H   0  0  0  0  0  0  0  0  0  0  0  0
   -1.7605    1.1657   -1.4597 H   0  0  0  0  0  0  0  0  0  0  0  0
   -3.9395    0.5250   -2.1479 H   0  0  0  0  0  0  0  0  0  0  0  0
   -4.1256    2.2856   -0.4648 H   0  0  0  0  0  0  0  0  0  0  0  0
   -5.7511    1.2314   -1.8472 H   0  0  0  0  0  0  0  0  0  0  0  0
   -6.3399   -0.9241   -1.5660 H   0  0  0  0  0  0  0  0  0  0  0  0
   -4.2159   -1.4399    0.2036 H   0  0  0  0  0  0  0  0  0  0  0  0
   -3.9926   -2.9768   -1.6232 H   0  0  0  0  0  0  0  0  0  0  0  0
   -5.1771   -1.9689   -2.5462 H   0  0  0  0  0  0  0  0  0  0  0  0
   -3.4491   -1.5885   -2.6145 H   0  0  0  0  0  0  0  0  0  0  0  0
   -7.0627    2.5598   -0.4897 H   0  0  0  0  0  0  0  0  0  0  0  0
   -7.8428    0.9762   -0.1314 H   0  0  0  0  0  0  0  0  0  0  0  0
   -6.0023    2.7524    1.5344 H   0  0  0  0  0  0  0  0  0  0  0  0
   -7.5157    1.8513    2.0012 H   0  0  0  0  0  0  0  0  0  0  0  0
   -6.1312   -0.2699    1.5541 H   0  0  0  0  0  0  0  0  0  0  0  0
   -5.6121    0.7140    2.9625 H   0  0  0  0  0  0  0  0  0  0  0  0
   -3.8809    1.7825    1.8022 H   0  0  0  0  0  0  0  0  0  0  0  0
   -3.7006    0.0445    1.4837 H   0  0  0  0  0  0  0  0  0  0  0  0
  1  2  1  0
  2  3  1  0
  4  3  1  0
  2  5  1  0
  5  6  1  0
  6  7  1  0
  7  8  1  0
  8  9  1  0
  7 10  1  0
 10 11  1  0
  9 12  1  0
 11 12  1  0
 12 13  1  0
 13 14  1  0
 14 15  1  0
 15 16  1  0
 16 17  1  0
 17 18  1  0
 18 19  1  0
 19 20  1  0
 17 21  1  0
 20 21  1  0
 21 22  1  0
 19 23  1  0
 23 24  1  0
 24 25  1  0
 18 26  1  0
 25 26  1  0
 27 28  1  0
 28 29  1  0
 30 29  1  0
 28 31  1  0
 31 32  1  0
 32 33  1  0
 33 34  1  0
 34 35  1  0
 33 36  1  0
 36 37  1  0
 35 38  1  0
 37 38  1  0
 38 39  1  0
 39 40  1  0
 40 41  1  0
 41 42  1  0
 42 43  1  0
 43 44  1  0
 44 45  1  0
 45 46  1  0
 43 47  1  0
 46 47  1  0
 47 48  1  0
 45 49  1  0
 49 50  1  0
 50 51  1  0
 44 52  1  0
 51 52  1  0
  1 53  1  0
  2 54  1  0
  3 55  1  0
  4 56  1  0
  5 57  1  0
  5 58  1  0
  6 59  1  0
  6 60  1  0
  7 61  1  0
  8 62  1  0
  8 63  1  0
  9 64  1  0
  9 65  1  0
 10 66  1  0
 10 67  1  0
 11 68  1  0
 11 69  1  0
 12 70  1  0
 13 71  1  0
 13 72  1  0
 14 73  1  0
 15 74  1  0
 15 75  1  0
 16 76  1  0
 16 77  1  0
 17 78  1  0
 18 79  1  0
 19 80  1  0
 20 81  1  0
 21 82  1  0
 22 83  1  0
 22 84  1  0
 22 85  1  0
 23 86  1  0
 23 87  1  0
 24 88  1  0
 24 89  1  0
 25 90  1  0
 25 91  1  0
 26 92  1  0
 26 93  1  0
 27 94  1  0
 28 95  1  0
 29 96  1  0
 30 97  1  0
 31 98  1  0
 31 99  1  0
 32100  1  0
 32101  1  0
 33102  1  0
 34103  1  0
 34104  1  0
 35105  1  0
 35106  1  0
 36107  1  0
 36108  1  0
 37109  1  0
 37110  1  0
 38111  1  0
 39112  1  0
 39113  1  0
 40114  1  0
 41115  1  0
 41116  1  0
 42117  1  0
 42118  1  0
 43119  1  0
 44120  1  0
 45121  1  0
 46122  1  0
 47123  1  0
 48124  1  0
 48125  1  0
 48126  1  0
 49127  1  0
 49128  1  0
 50129  1  0
 50130  1  0
 51131  1  0
 51132  1  0
 52133  1  0
 52134  1  0
M  END
>  <PDBID>  (1) 
5EF8

>  <PDB ID>  (1) 
5EF8

>  <Generic Name>  (1) 
Panobinostat

>  <Brand Name>  (1) 
Farydak

>  <DrugBank ID>  (1) 
DB06603

>  <ATC Codes>  (1) 
L01XX42

>  <Ligand ID>  (1) 
LBH

>  <Target Name>  (1) 
Histone deacetylase 9

>  <UniProt ID>  (1) 
Q9UKV0

>  <PDB ID.1>  (1) 
5EF8

>  <Seq. Identity>  (1) 
46%

$$$$
