PDB_DB01259_04
     RDKit          3D

 94 98  0  0  0  0  0  0  0  0999 V2000
   -9.8335    3.8858   -2.2042 C   0  0  0  0  0  0  0  0  0  0  0  0
   -9.5763    2.2915   -1.8542 S   0  0  0  0  0  0  0  0  0  0  0  0
  -11.0565    1.5266   -1.5701 O   0  0  0  0  0  0  0  0  0  0  0  0
   -8.8863    1.4239   -3.0377 O   0  0  0  0  0  0  0  0  0  0  0  0
   -8.6955    2.0930   -0.3716 C   0  0  0  0  0  0  0  0  0  0  0  0
   -8.5048    0.5861   -0.1841 C   0  0  0  0  0  0  0  0  0  0  0  0
   -7.7623    0.0374   -1.2586 N   0  0  0  0  0  0  0  0  0  0  0  0
   -6.4016    0.3889   -1.3959 C   0  0  0  0  0  0  0  0  0  0  0  0
   -5.4382   -0.1719   -0.4218 C   0  0  0  0  0  0  0  0  0  0  0  0
   -5.6582    0.1023    1.0276 C   0  0  0  0  0  0  0  0  0  0  0  0
   -4.2085   -0.0332    1.5468 C   0  0  0  0  0  0  0  0  0  0  0  0
   -3.4280    0.4617    0.4028 C   0  0  0  0  0  0  0  0  0  0  0  0
   -4.1796    0.3373   -0.7522 O   0  0  0  0  0  0  0  0  0  0  0  0
   -2.1384   -0.3151    0.1224 C   0  0  0  0  0  0  0  0  0  0  0  0
   -2.4803   -1.7023   -0.2894 C   0  0  0  0  0  0  0  0  0  0  0  0
   -1.3639   -2.6915    0.0580 C   0  0  0  0  0  0  0  0  0  0  0  0
   -1.2841   -2.6719    1.5518 C   0  0  0  0  0  0  0  0  0  0  0  0
   -0.6046   -3.7994    2.1454 N   0  0  0  0  0  0  0  0  0  0  0  0
    0.0012   -3.4022    3.4152 C   0  0  0  0  0  0  0  0  0  0  0  0
    1.0954   -2.5502    3.0367 N   0  0  0  0  0  0  0  0  0  0  0  0
    0.5410   -1.2612    2.6276 C   0  0  0  0  0  0  0  0  0  0  0  0
    1.5062   -0.5319    1.9371 N   0  0  0  0  0  0  0  0  0  0  0  0
    2.0442   -0.8274    0.7006 C   0  0  0  0  0  0  0  0  0  0  0  0
    2.7724    0.4721    0.2388 C   0  0  0  0  0  0  0  0  0  0  0  0
    4.1510    0.5068    0.8810 C   0  0  0  0  0  0  0  0  0  0  0  0
    5.0849   -0.4783    0.1823 C   0  0  0  0  0  0  0  0  0  0  0  0
    5.9886    0.1066   -0.6399 O   0  0  0  0  0  0  0  0  0  0  0  0
    7.3126   -0.0914   -0.3417 C   0  0  0  0  0  0  0  0  0  0  0  0
    8.2411    0.6348   -1.3005 C   0  0  0  0  0  0  0  0  0  0  0  0
    8.0280    2.1124   -1.2751 C   0  0  0  0  0  0  0  0  0  0  0  0
    9.2575    2.9207   -1.5666 C   0  0  0  0  0  0  0  0  0  0  0  0
   10.2817    2.1269   -2.3545 C   0  0  0  0  0  0  0  0  0  0  0  0
   10.7492    1.0281   -1.4281 C   0  0  0  0  0  0  0  0  0  0  0  0
   11.1389    1.6448   -0.2462 F   0  0  0  0  0  0  0  0  0  0  0  0
    9.6111    0.1257   -1.1492 C   0  0  0  0  0  0  0  0  0  0  0  0
    4.1942   -1.5260   -0.4322 C   0  0  0  0  0  0  0  0  0  0  0  0
    5.0993   -3.0365   -0.7090 Cl  0  0  0  0  0  0  0  0  0  0  0  0
    3.1493   -1.8733    0.6461 C   0  0  0  0  0  0  0  0  0  0  0  0
   -0.8537   -1.3582    2.0610 C   0  0  0  0  0  0  0  0  0  0  0  0
   -1.1493   -0.1678    1.2337 C   0  0  0  0  0  0  0  0  0  0  0  0
   -9.7725    4.5694   -1.3421 H   0  0  0  0  0  0  0  0  0  0  0  0
   -9.1039    4.2836   -2.9646 H   0  0  0  0  0  0  0  0  0  0  0  0
  -10.8553    4.0528   -2.6531 H   0  0  0  0  0  0  0  0  0  0  0  0
  -10.9516    0.5765   -1.7213 H   0  0  0  0  0  0  0  0  0  0  0  0
   -9.3508    0.5395   -3.1522 H   0  0  0  0  0  0  0  0  0  0  0  0
   -9.2946    2.4529    0.4753 H   0  0  0  0  0  0  0  0  0  0  0  0
   -7.7344    2.6397   -0.3854 H   0  0  0  0  0  0  0  0  0  0  0  0
   -9.5603    0.1707   -0.2985 H   0  0  0  0  0  0  0  0  0  0  0  0
   -8.1797    0.3078    0.7994 H   0  0  0  0  0  0  0  0  0  0  0  0
   -7.9225   -0.9872   -1.3142 H   0  0  0  0  0  0  0  0  0  0  0  0
   -6.2495    1.4935   -1.5369 H   0  0  0  0  0  0  0  0  0  0  0  0
   -6.0814   -0.0176   -2.4151 H   0  0  0  0  0  0  0  0  0  0  0  0
   -5.4549   -1.2916   -0.5719 H   0  0  0  0  0  0  0  0  0  0  0  0
   -6.2739   -0.6885    1.5254 H   0  0  0  0  0  0  0  0  0  0  0  0
   -6.0038    1.1268    1.2433 H   0  0  0  0  0  0  0  0  0  0  0  0
   -4.0941   -1.0693    1.8502 H   0  0  0  0  0  0  0  0  0  0  0  0
   -4.0894    0.6544    2.4190 H   0  0  0  0  0  0  0  0  0  0  0  0
   -3.1434    1.5272    0.5148 H   0  0  0  0  0  0  0  0  0  0  0  0
   -1.7095    0.1940   -0.7704 H   0  0  0  0  0  0  0  0  0  0  0  0
   -2.7144   -1.7907   -1.3786 H   0  0  0  0  0  0  0  0  0  0  0  0
   -3.3618   -2.0690    0.2751 H   0  0  0  0  0  0  0  0  0  0  0  0
   -1.6870   -3.7019   -0.3210 H   0  0  0  0  0  0  0  0  0  0  0  0
   -0.4799   -2.3331   -0.4814 H   0  0  0  0  0  0  0  0  0  0  0  0
   -2.3684   -2.8394    1.8815 H   0  0  0  0  0  0  0  0  0  0  0  0
    0.1772   -4.1502    1.5391 H   0  0  0  0  0  0  0  0  0  0  0  0
   -0.7408   -2.8408    4.0310 H   0  0  0  0  0  0  0  0  0  0  0  0
    0.3614   -4.2864    3.9385 H   0  0  0  0  0  0  0  0  0  0  0  0
    1.6328   -3.0324    2.3196 H   0  0  0  0  0  0  0  0  0  0  0  0
    0.4667   -0.7290    3.6610 H   0  0  0  0  0  0  0  0  0  0  0  0
    1.9476    0.2619    2.4665 H   0  0  0  0  0  0  0  0  0  0  0  0
    1.3136   -0.9955   -0.1030 H   0  0  0  0  0  0  0  0  0  0  0  0
    2.7742    0.5736   -0.8411 H   0  0  0  0  0  0  0  0  0  0  0  0
    2.2260    1.3473    0.6572 H   0  0  0  0  0  0  0  0  0  0  0  0
    4.0187    0.2435    1.9546 H   0  0  0  0  0  0  0  0  0  0  0  0
    4.5551    1.5214    0.8429 H   0  0  0  0  0  0  0  0  0  0  0  0
    5.6324   -1.0124    1.0002 H   0  0  0  0  0  0  0  0  0  0  0  0
    7.5028    0.3351    0.6652 H   0  0  0  0  0  0  0  0  0  0  0  0
    7.6333   -1.1465   -0.3065 H   0  0  0  0  0  0  0  0  0  0  0  0
    7.8792    0.2987   -2.3247 H   0  0  0  0  0  0  0  0  0  0  0  0
    7.6917    2.3753   -0.2441 H   0  0  0  0  0  0  0  0  0  0  0  0
    7.2084    2.4487   -1.9456 H   0  0  0  0  0  0  0  0  0  0  0  0
    8.9859    3.8015   -2.1795 H   0  0  0  0  0  0  0  0  0  0  0  0
    9.7786    3.2897   -0.6648 H   0  0  0  0  0  0  0  0  0  0  0  0
    9.7848    1.6753   -3.2439 H   0  0  0  0  0  0  0  0  0  0  0  0
   11.1107    2.8052   -2.5914 H   0  0  0  0  0  0  0  0  0  0  0  0
   11.5866    0.4452   -1.8689 H   0  0  0  0  0  0  0  0  0  0  0  0
    9.7517   -0.8147   -1.7526 H   0  0  0  0  0  0  0  0  0  0  0  0
    9.7513   -0.2481   -0.0859 H   0  0  0  0  0  0  0  0  0  0  0  0
    3.6126   -1.2061   -1.2942 H   0  0  0  0  0  0  0  0  0  0  0  0
    3.6577   -2.0208    1.6070 H   0  0  0  0  0  0  0  0  0  0  0  0
    2.7490   -2.8457    0.2533 H   0  0  0  0  0  0  0  0  0  0  0  0
   -1.5344   -1.1994    3.0079 H   0  0  0  0  0  0  0  0  0  0  0  0
   -0.2200    0.3334    0.8853 H   0  0  0  0  0  0  0  0  0  0  0  0
   -1.6018    0.6480    1.9070 H   0  0  0  0  0  0  0  0  0  0  0  0
  1  2  1  0
  2  3  1  0
  2  4  1  0
  2  5  1  0
  5  6  1  0
  6  7  1  0
  7  8  1  0
  8  9  1  0
  9 10  1  0
 10 11  1  0
 11 12  1  0
  9 13  1  0
 12 13  1  0
 12 14  1  0
 14 15  1  0
 15 16  1  0
 16 17  1  0
 17 18  1  0
 18 19  1  0
 19 20  1  0
 20 21  1  0
 21 22  1  0
 22 23  1  0
 23 24  1  0
 24 25  1  0
 25 26  1  0
 26 27  1  0
 27 28  1  0
 28 29  1  0
 29 30  1  0
 30 31  1  0
 31 32  1  0
 32 33  1  0
 33 34  1  0
 29 35  1  0
 33 35  1  0
 26 36  1  0
 36 37  1  0
 23 38  1  0
 36 38  1  0
 17 39  1  0
 21 39  1  0
 14 40  1  0
 39 40  1  0
  1 41  1  0
  1 42  1  0
  1 43  1  0
  3 44  1  0
  4 45  1  0
  5 46  1  0
  5 47  1  0
  6 48  1  0
  6 49  1  0
  7 50  1  0
  8 51  1  0
  8 52  1  0
  9 53  1  0
 10 54  1  0
 10 55  1  0
 11 56  1  0
 11 57  1  0
 12 58  1  0
 14 59  1  0
 15 60  1  0
 15 61  1  0
 16 62  1  0
 16 63  1  0
 17 64  1  0
 18 65  1  0
 19 66  1  0
 19 67  1  0
 20 68  1  0
 21 69  1  0
 22 70  1  0
 23 71  1  0
 24 72  1  0
 24 73  1  0
 25 74  1  0
 25 75  1  0
 26 76  1  0
 28 77  1  0
 28 78  1  0
 29 79  1  0
 30 80  1  0
 30 81  1  0
 31 82  1  0
 31 83  1  0
 32 84  1  0
 32 85  1  0
 33 86  1  0
 35 87  1  0
 35 88  1  0
 36 89  1  0
 38 90  1  0
 38 91  1  0
 39 92  1  0
 40 93  1  0
 40 94  1  0
M  END
>  <PDBID>  (1) 
1XKK

>  <PDB ID>  (1) 
1XKK

>  <Generic Name>  (1) 
Lapatinib

>  <Brand Name>  (1) 
Tykerb#Tycerb

>  <DrugBank ID>  (1) 
DB01259

>  <ATC Codes>  (1) 
L01XE07

>  <Ligand ID>  (1) 
FMM

>  <Target Name>  (1) 
Receptor tyrosine-protein kinase erbB-2

>  <UniProt ID>  (1) 
P04626

>  <PDB ID.1>  (1) 
1XKK

>  <Seq. Identity>  (1) 
78%

$$$$
