PDB_DB08882_08
     RDKit          3D

170178  0  0  0  0  0  0  0  0999 V2000
   -1.5485    0.3298    0.2844 C   0  0  0  0  0  0  0  0  0  0  0  0
   -2.8595    0.4773    0.7015 N   0  0  0  0  0  0  0  0  0  0  0  0
   -1.3156    1.5781   -0.5648 C   0  0  0  0  0  0  0  0  0  0  0  0
   -0.4223    0.2349    1.2161 C   0  0  0  0  0  0  0  0  0  0  0  0
   -3.5801    1.0384   -0.4343 C   0  0  0  0  0  0  0  0  0  0  0  0
   -3.2390    0.9820    1.9390 C   0  0  0  0  0  0  0  0  0  0  0  0
   -2.5725    1.7418   -1.2176 N   0  0  0  0  0  0  0  0  0  0  0  0
   -0.2063    1.3088   -1.4053 N   0  0  0  0  0  0  0  0  0  0  0  0
    0.7851    0.0774    0.4312 N   0  0  0  0  0  0  0  0  0  0  0  0
   -0.5954   -0.8048    2.1290 O   0  0  0  0  0  0  0  0  0  0  0  0
   -4.1555   -0.0236   -1.1910 N   0  0  0  0  0  0  0  0  0  0  0  0
   -3.0318    2.4258    2.2334 C   0  0  0  0  0  0  0  0  0  0  0  0
    0.6857    0.2823   -0.9513 C   0  0  0  0  0  0  0  0  0  0  0  0
   -0.6824    1.0952   -2.7540 C   0  0  0  0  0  0  0  0  0  0  0  0
    1.6662   -0.8915    0.9147 C   0  0  0  0  0  0  0  0  0  0  0  0
   -5.0482   -0.8683   -0.4767 C   0  0  0  0  0  0  0  0  0  0  0  0
   -4.5824    0.3463   -2.5059 C   0  0  0  0  0  0  0  0  0  0  0  0
   -3.5181    2.7812    3.6493 C   0  0  0  0  0  0  0  0  0  0  0  0
    0.3994   -0.8834   -1.6870 O   0  0  0  0  0  0  0  0  0  0  0  0
    2.9317   -1.1620    0.2026 C   0  0  0  0  0  0  0  0  0  0  0  0
   -5.6540   -1.9744   -1.2864 C   0  0  1  0  0  0  0  0  0  0  0  0
   -4.9403   -0.8399   -3.3575 C   0  0  0  0  0  0  0  0  0  0  0  0
   -2.7642    1.9881    4.6824 C   0  0  0  0  0  0  0  0  0  0  0  0
    3.7397    0.0398    0.1555 N   0  0  0  0  0  0  0  0  0  0  0  0
    3.6963   -2.2332    0.8666 N   0  0  0  0  0  0  0  0  0  0  0  0
   -6.0377   -1.5840   -2.6733 C   0  0  0  0  0  0  0  0  0  0  0  0
   -4.7755   -3.1394   -1.3847 N   0  0  0  0  0  0  0  0  0  0  0  0
    4.9002   -0.0380    1.0232 C   0  0  0  0  0  0  0  0  0  0  0  0
    5.0034   -2.3608    0.3015 C   0  0  0  0  0  0  0  0  0  0  0  0
    5.8202   -1.1155    0.4882 C   0  0  0  0  0  0  0  0  0  0  0  0
    5.5666    1.3040    1.0761 C   0  0  0  0  0  0  0  0  0  0  0  0
    4.8865   -2.8196   -1.1213 C   0  0  0  0  0  0  0  0  0  0  0  0
    6.5571   -0.7030   -0.7534 C   0  0  0  0  0  0  0  0  0  0  0  0
    6.3583    1.6373   -0.1472 C   0  0  0  0  0  0  0  0  0  0  0  0
    7.3745    0.5388   -0.3788 C   0  0  0  0  0  0  0  0  0  0  0  0
   -1.5485    0.3298    0.2844 C   0  0  0  0  0  0  0  0  0  0  0  0
   -2.8595    0.4773    0.7015 N   0  0  0  0  0  0  0  0  0  0  0  0
   -1.3156    1.5781   -0.5648 C   0  0  0  0  0  0  0  0  0  0  0  0
   -0.4223    0.2349    1.2161 C   0  0  0  0  0  0  0  0  0  0  0  0
   -3.5801    1.0384   -0.4343 C   0  0  0  0  0  0  0  0  0  0  0  0
   -3.2390    0.9820    1.9390 C   0  0  0  0  0  0  0  0  0  0  0  0
   -2.5725    1.7418   -1.2176 N   0  0  0  0  0  0  0  0  0  0  0  0
   -0.2063    1.3088   -1.4053 N   0  0  0  0  0  0  0  0  0  0  0  0
    0.7851    0.0774    0.4312 N   0  0  0  0  0  0  0  0  0  0  0  0
   -0.5954   -0.8048    2.1290 O   0  0  0  0  0  0  0  0  0  0  0  0
   -4.1555   -0.0236   -1.1910 N   0  0  0  0  0  0  0  0  0  0  0  0
   -3.0318    2.4258    2.2334 C   0  0  0  0  0  0  0  0  0  0  0  0
    0.6857    0.2823   -0.9513 C   0  0  0  0  0  0  0  0  0  0  0  0
   -0.6824    1.0952   -2.7540 C   0  0  0  0  0  0  0  0  0  0  0  0
    1.6662   -0.8915    0.9147 C   0  0  0  0  0  0  0  0  0  0  0  0
   -5.0482   -0.8683   -0.4767 C   0  0  0  0  0  0  0  0  0  0  0  0
   -4.5824    0.3463   -2.5059 C   0  0  0  0  0  0  0  0  0  0  0  0
   -3.5181    2.7812    3.6493 C   0  0  0  0  0  0  0  0  0  0  0  0
    0.3994   -0.8834   -1.6870 O   0  0  0  0  0  0  0  0  0  0  0  0
    2.9317   -1.1620    0.2026 C   0  0  0  0  0  0  0  0  0  0  0  0
   -5.6540   -1.9744   -1.2864 C   0  0  1  0  0  0  0  0  0  0  0  0
   -4.9403   -0.8399   -3.3575 C   0  0  0  0  0  0  0  0  0  0  0  0
   -2.7642    1.9881    4.6824 C   0  0  0  0  0  0  0  0  0  0  0  0
    3.7397    0.0398    0.1555 N   0  0  0  0  0  0  0  0  0  0  0  0
    3.6963   -2.2332    0.8666 N   0  0  0  0  0  0  0  0  0  0  0  0
   -6.0377   -1.5840   -2.6733 C   0  0  0  0  0  0  0  0  0  0  0  0
   -4.7755   -3.1394   -1.3847 N   0  0  0  0  0  0  0  0  0  0  0  0
    4.9002   -0.0380    1.0232 C   0  0  0  0  0  0  0  0  0  0  0  0
    5.0034   -2.3608    0.3015 C   0  0  0  0  0  0  0  0  0  0  0  0
    5.8202   -1.1155    0.4882 C   0  0  0  0  0  0  0  0  0  0  0  0
    5.5666    1.3040    1.0761 C   0  0  0  0  0  0  0  0  0  0  0  0
    4.8865   -2.8196   -1.1213 C   0  0  0  0  0  0  0  0  0  0  0  0
    6.5571   -0.7030   -0.7534 C   0  0  0  0  0  0  0  0  0  0  0  0
    6.3583    1.6373   -0.1472 C   0  0  0  0  0  0  0  0  0  0  0  0
    7.3745    0.5388   -0.3788 C   0  0  0  0  0  0  0  0  0  0  0  0
   -1.5145   -0.5222   -0.4597 H   0  0  0  0  0  0  0  0  0  0  0  0
   -1.0366    2.4445    0.0755 H   0  0  0  0  0  0  0  0  0  0  0  0
   -0.2604    1.1464    1.8186 H   0  0  0  0  0  0  0  0  0  0  0  0
   -4.3525    1.7644   -0.1550 H   0  0  0  0  0  0  0  0  0  0  0  0
   -2.8157    0.3274    2.7400 H   0  0  0  0  0  0  0  0  0  0  0  0
   -4.3555    0.8083    2.0463 H   0  0  0  0  0  0  0  0  0  0  0  0
   -2.8036    2.7371   -1.3697 H   0  0  0  0  0  0  0  0  0  0  0  0
   -0.3368   -0.5562    3.0511 H   0  0  0  0  0  0  0  0  0  0  0  0
   -1.9624    2.6924    2.2434 H   0  0  0  0  0  0  0  0  0  0  0  0
   -3.6003    3.1021    1.5696 H   0  0  0  0  0  0  0  0  0  0  0  0
    1.7105    0.6725   -1.2811 H   0  0  0  0  0  0  0  0  0  0  0  0
   -1.5518    1.7711   -2.9502 H   0  0  0  0  0  0  0  0  0  0  0  0
    0.0908    1.3773   -3.4893 H   0  0  0  0  0  0  0  0  0  0  0  0
   -1.0330    0.0770   -2.9377 H   0  0  0  0  0  0  0  0  0  0  0  0
    1.8581   -0.6626    2.0063 H   0  0  0  0  0  0  0  0  0  0  0  0
    1.1027   -1.8723    0.9766 H   0  0  0  0  0  0  0  0  0  0  0  0
   -4.4982   -1.3492    0.3607 H   0  0  0  0  0  0  0  0  0  0  0  0
   -5.8304   -0.2361   -0.0060 H   0  0  0  0  0  0  0  0  0  0  0  0
   -3.8281    1.0002   -2.9633 H   0  0  0  0  0  0  0  0  0  0  0  0
   -5.5393    0.9349   -2.3841 H   0  0  0  0  0  0  0  0  0  0  0  0
   -4.5964    2.6656    3.7474 H   0  0  0  0  0  0  0  0  0  0  0  0
   -3.2758    3.8491    3.7997 H   0  0  0  0  0  0  0  0  0  0  0  0
    0.4581   -1.6858   -1.1436 H   0  0  0  0  0  0  0  0  0  0  0  0
    2.8220   -1.5089   -0.8358 H   0  0  0  0  0  0  0  0  0  0  0  0
   -6.5654   -2.3246   -0.7603 H   0  0  0  0  0  0  0  0  0  0  0  0
   -4.0909   -1.5246   -3.5207 H   0  0  0  0  0  0  0  0  0  0  0  0
   -5.3256   -0.4713   -4.3321 H   0  0  0  0  0  0  0  0  0  0  0  0
   -2.4588    2.6021    5.5515 H   0  0  0  0  0  0  0  0  0  0  0  0
   -3.4736    1.2160    5.0855 H   0  0  0  0  0  0  0  0  0  0  0  0
   -1.9131    1.4110    4.2612 H   0  0  0  0  0  0  0  0  0  0  0  0
    4.0151    0.2992   -0.8200 H   0  0  0  0  0  0  0  0  0  0  0  0
    3.6736   -2.1337    1.8903 H   0  0  0  0  0  0  0  0  0  0  0  0
   -6.1851   -2.5486   -3.2431 H   0  0  0  0  0  0  0  0  0  0  0  0
   -7.0182   -1.0705   -2.6931 H   0  0  0  0  0  0  0  0  0  0  0  0
   -4.4453   -3.4619   -0.4509 H   0  0  0  0  0  0  0  0  0  0  0  0
   -3.9968   -2.9811   -2.0592 H   0  0  0  0  0  0  0  0  0  0  0  0
    4.5875   -0.3160    2.0275 H   0  0  0  0  0  0  0  0  0  0  0  0
    5.5172   -3.1931    0.8574 H   0  0  0  0  0  0  0  0  0  0  0  0
    6.6106   -1.2732    1.2800 H   0  0  0  0  0  0  0  0  0  0  0  0
    4.8032    2.0594    1.3096 H   0  0  0  0  0  0  0  0  0  0  0  0
    6.2871    1.2908    1.9365 H   0  0  0  0  0  0  0  0  0  0  0  0
    4.7320   -2.0272   -1.8542 H   0  0  0  0  0  0  0  0  0  0  0  0
    4.0262   -3.5212   -1.1727 H   0  0  0  0  0  0  0  0  0  0  0  0
    5.8032   -3.3850   -1.4289 H   0  0  0  0  0  0  0  0  0  0  0  0
    7.2473   -1.5005   -1.0246 H   0  0  0  0  0  0  0  0  0  0  0  0
    5.8985   -0.3810   -1.5780 H   0  0  0  0  0  0  0  0  0  0  0  0
    6.9177    2.5817    0.0707 H   0  0  0  0  0  0  0  0  0  0  0  0
    5.7137    1.7353   -1.0517 H   0  0  0  0  0  0  0  0  0  0  0  0
    7.9792    0.8046   -1.2728 H   0  0  0  0  0  0  0  0  0  0  0  0
    7.9688    0.3709    0.5282 H   0  0  0  0  0  0  0  0  0  0  0  0
   -1.5145   -0.5222   -0.4597 H   0  0  0  0  0  0  0  0  0  0  0  0
   -1.0366    2.4445    0.0755 H   0  0  0  0  0  0  0  0  0  0  0  0
   -0.2604    1.1464    1.8186 H   0  0  0  0  0  0  0  0  0  0  0  0
   -4.3525    1.7644   -0.1550 H   0  0  0  0  0  0  0  0  0  0  0  0
   -2.8157    0.3274    2.7400 H   0  0  0  0  0  0  0  0  0  0  0  0
   -4.3555    0.8083    2.0463 H   0  0  0  0  0  0  0  0  0  0  0  0
   -2.8036    2.7371   -1.3697 H   0  0  0  0  0  0  0  0  0  0  0  0
   -0.3368   -0.5562    3.0511 H   0  0  0  0  0  0  0  0  0  0  0  0
   -1.9624    2.6924    2.2434 H   0  0  0  0  0  0  0  0  0  0  0  0
   -3.6003    3.1021    1.5696 H   0  0  0  0  0  0  0  0  0  0  0  0
    1.7105    0.6725   -1.2811 H   0  0  0  0  0  0  0  0  0  0  0  0
   -1.5518    1.7711   -2.9502 H   0  0  0  0  0  0  0  0  0  0  0  0
    0.0908    1.3773   -3.4893 H   0  0  0  0  0  0  0  0  0  0  0  0
   -1.0330    0.0770   -2.9377 H   0  0  0  0  0  0  0  0  0  0  0  0
    1.8581   -0.6626    2.0063 H   0  0  0  0  0  0  0  0  0  0  0  0
    1.1027   -1.8723    0.9766 H   0  0  0  0  0  0  0  0  0  0  0  0
   -4.4982   -1.3492    0.3607 H   0  0  0  0  0  0  0  0  0  0  0  0
   -5.8304   -0.2361   -0.0060 H   0  0  0  0  0  0  0  0  0  0  0  0
   -3.8281    1.0002   -2.9633 H   0  0  0  0  0  0  0  0  0  0  0  0
   -5.5393    0.9349   -2.3841 H   0  0  0  0  0  0  0  0  0  0  0  0
   -4.5964    2.6656    3.7474 H   0  0  0  0  0  0  0  0  0  0  0  0
   -3.2758    3.8491    3.7997 H   0  0  0  0  0  0  0  0  0  0  0  0
    0.4581   -1.6858   -1.1436 H   0  0  0  0  0  0  0  0  0  0  0  0
    2.8220   -1.5089   -0.8358 H   0  0  0  0  0  0  0  0  0  0  0  0
   -6.5654   -2.3246   -0.7603 H   0  0  0  0  0  0  0  0  0  0  0  0
   -4.0909   -1.5246   -3.5207 H   0  0  0  0  0  0  0  0  0  0  0  0
   -5.3256   -0.4713   -4.3321 H   0  0  0  0  0  0  0  0  0  0  0  0
   -2.4588    2.6021    5.5515 H   0  0  0  0  0  0  0  0  0  0  0  0
   -3.4736    1.2160    5.0855 H   0  0  0  0  0  0  0  0  0  0  0  0
   -1.9131    1.4110    4.2612 H   0  0  0  0  0  0  0  0  0  0  0  0
    4.0151    0.2992   -0.8200 H   0  0  0  0  0  0  0  0  0  0  0  0
    3.6736   -2.1337    1.8903 H   0  0  0  0  0  0  0  0  0  0  0  0
   -6.1851   -2.5486   -3.2431 H   0  0  0  0  0  0  0  0  0  0  0  0
   -7.0182   -1.0705   -2.6931 H   0  0  0  0  0  0  0  0  0  0  0  0
   -4.4453   -3.4619   -0.4509 H   0  0  0  0  0  0  0  0  0  0  0  0
   -3.9968   -2.9811   -2.0592 H   0  0  0  0  0  0  0  0  0  0  0  0
    4.5875   -0.3160    2.0275 H   0  0  0  0  0  0  0  0  0  0  0  0
    5.5172   -3.1931    0.8574 H   0  0  0  0  0  0  0  0  0  0  0  0
    6.6106   -1.2732    1.2800 H   0  0  0  0  0  0  0  0  0  0  0  0
    4.8032    2.0594    1.3096 H   0  0  0  0  0  0  0  0  0  0  0  0
    6.2871    1.2908    1.9365 H   0  0  0  0  0  0  0  0  0  0  0  0
    4.7320   -2.0272   -1.8542 H   0  0  0  0  0  0  0  0  0  0  0  0
    4.0262   -3.5212   -1.1727 H   0  0  0  0  0  0  0  0  0  0  0  0
    5.8032   -3.3850   -1.4289 H   0  0  0  0  0  0  0  0  0  0  0  0
    7.2473   -1.5005   -1.0246 H   0  0  0  0  0  0  0  0  0  0  0  0
    5.8985   -0.3810   -1.5780 H   0  0  0  0  0  0  0  0  0  0  0  0
    6.9177    2.5817    0.0707 H   0  0  0  0  0  0  0  0  0  0  0  0
    5.7137    1.7353   -1.0517 H   0  0  0  0  0  0  0  0  0  0  0  0
    7.9792    0.8046   -1.2728 H   0  0  0  0  0  0  0  0  0  0  0  0
    7.9688    0.3709    0.5282 H   0  0  0  0  0  0  0  0  0  0  0  0
  1  2  1  0
  1  3  1  0
  1  4  1  0
  2  5  1  0
  2  6  1  0
  3  7  1  0
  5  7  1  0
  3  8  1  0
  4  9  1  0
  4 10  1  0
  5 11  1  0
  6 12  1  0
  8 13  1  0
  9 13  1  0
  8 14  1  0
  9 15  1  0
 11 16  1  0
 11 17  1  0
 12 18  1  0
 13 19  1  0
 15 20  1  0
 16 21  1  0
 17 22  1  0
 18 23  1  0
 20 24  1  0
 20 25  1  0
 21 26  1  0
 22 26  1  0
 21 27  1  0
 24 28  1  0
 25 29  1  0
 28 30  1  0
 29 30  1  0
 28 31  1  0
 29 32  1  0
 30 33  1  0
 31 34  1  0
 33 35  1  0
 34 35  1  0
 36 37  1  0
 36 38  1  0
 36 39  1  0
 37 40  1  0
 37 41  1  0
 38 42  1  0
 40 42  1  0
 38 43  1  0
 39 44  1  0
 39 45  1  0
 40 46  1  0
 41 47  1  0
 43 48  1  0
 44 48  1  0
 43 49  1  0
 44 50  1  0
 46 51  1  0
 46 52  1  0
 47 53  1  0
 48 54  1  0
 50 55  1  0
 51 56  1  0
 52 57  1  0
 53 58  1  0
 55 59  1  0
 55 60  1  0
 56 61  1  0
 57 61  1  0
 56 62  1  0
 59 63  1  0
 60 64  1  0
 63 65  1  0
 64 65  1  0
 63 66  1  0
 64 67  1  0
 65 68  1  0
 66 69  1  0
 68 70  1  0
 69 70  1  0
  1 71  1  0
  3 72  1  0
  4 73  1  0
  5 74  1  0
  6 75  1  0
  6 76  1  0
  7 77  1  0
 10 78  1  0
 12 79  1  0
 12 80  1  0
 13 81  1  0
 14 82  1  0
 14 83  1  0
 14 84  1  0
 15 85  1  0
 15 86  1  0
 16 87  1  0
 16 88  1  0
 17 89  1  0
 17 90  1  0
 18 91  1  0
 18 92  1  0
 19 93  1  0
 20 94  1  0
 21 95  1  1
 22 96  1  0
 22 97  1  0
 23 98  1  0
 23 99  1  0
 23100  1  0
 24101  1  0
 25102  1  0
 26103  1  0
 26104  1  0
 27105  1  0
 27106  1  0
 28107  1  0
 29108  1  0
 30109  1  0
 31110  1  0
 31111  1  0
 32112  1  0
 32113  1  0
 32114  1  0
 33115  1  0
 33116  1  0
 34117  1  0
 34118  1  0
 35119  1  0
 35120  1  0
 36121  1  0
 38122  1  0
 39123  1  0
 40124  1  0
 41125  1  0
 41126  1  0
 42127  1  0
 45128  1  0
 47129  1  0
 47130  1  0
 48131  1  0
 49132  1  0
 49133  1  0
 49134  1  0
 50135  1  0
 50136  1  0
 51137  1  0
 51138  1  0
 52139  1  0
 52140  1  0
 53141  1  0
 53142  1  0
 54143  1  0
 55144  1  0
 56145  1  1
 57146  1  0
 57147  1  0
 58148  1  0
 58149  1  0
 58150  1  0
 59151  1  0
 60152  1  0
 61153  1  0
 61154  1  0
 62155  1  0
 62156  1  0
 63157  1  0
 64158  1  0
 65159  1  0
 66160  1  0
 66161  1  0
 67162  1  0
 67163  1  0
 67164  1  0
 68165  1  0
 68166  1  0
 69167  1  0
 69168  1  0
 70169  1  0
 70170  1  0
M  END
>  <PDBID>  (1) 
2RGU

>  <PDB ID>  (1) 
2RGU

>  <Generic Name>  (1) 
Linagliptin

>  <Brand Name>  (1) 
Glyxambi#Jentadueto#Jentadueto XR#Tradjenta#Trajenta

>  <DrugBank ID>  (1) 
DB08882

>  <ATC Codes>  (1) 
A10BH05#A10BD19#A10BD11

>  <Ligand ID>  (1) 
356

>  <Target Name>  (1) 
Dipeptidyl peptidase 4

>  <UniProt ID>  (1) 
P27487

>  <PDB ID.1>  (1) 
2RGU

>  <Seq. Identity>  (1) 
100%

$$$$
