PDB_DB00147_03
     RDKit          3D

 58 58  0  0  0  0  0  0  0  0999 V2000
    2.5933    0.8016    0.9814 O   0  0  0  0  0  0  0  0  0  0  0  0
    1.6118    1.2106    0.1305 C   0  0  0  0  0  0  0  0  0  0  0  0
    1.1381    0.2385   -0.8893 C   0  0  0  0  0  0  0  0  0  0  0  0
    0.0579    1.0134   -1.6737 C   0  0  0  0  0  0  0  0  0  0  0  0
   -0.9355    1.3759   -0.6693 N   0  0  0  0  0  0  0  0  0  0  0  0
   -1.6101    0.1862   -0.2633 C   0  0  0  0  0  0  0  0  0  0  0  0
   -0.6855   -0.7062    0.5361 C   0  0  0  0  0  0  0  0  0  0  0  0
    0.4931   -1.0038   -0.3945 C   0  0  0  0  0  0  0  0  0  0  0  0
    1.3614   -2.0706    0.1417 C   0  0  0  0  0  0  0  0  0  0  0  0
    2.1275   -1.7021    1.2382 O   0  0  0  0  0  0  0  0  0  0  0  0
   -0.2880   -0.1580    1.7299 O   0  0  0  0  0  0  0  0  0  0  0  0
   -2.8778    0.5127    0.4501 C   0  0  0  0  0  0  0  0  0  0  0  0
    2.5933    0.8016    0.9814 O   0  0  0  0  0  0  0  0  0  0  0  0
    1.6118    1.2106    0.1305 C   0  0  0  0  0  0  0  0  0  0  0  0
    1.1381    0.2385   -0.8893 C   0  0  0  0  0  0  0  0  0  0  0  0
    0.0579    1.0134   -1.6737 C   0  0  0  0  0  0  0  0  0  0  0  0
   -0.9355    1.3759   -0.6693 N   0  0  0  0  0  0  0  0  0  0  0  0
   -1.6101    0.1862   -0.2633 C   0  0  0  0  0  0  0  0  0  0  0  0
   -0.6855   -0.7062    0.5361 C   0  0  0  0  0  0  0  0  0  0  0  0
    0.4931   -1.0038   -0.3945 C   0  0  0  0  0  0  0  0  0  0  0  0
    1.3614   -2.0706    0.1417 C   0  0  0  0  0  0  0  0  0  0  0  0
    2.1275   -1.7021    1.2382 O   0  0  0  0  0  0  0  0  0  0  0  0
   -0.2880   -0.1580    1.7299 O   0  0  0  0  0  0  0  0  0  0  0  0
   -2.8778    0.5127    0.4501 C   0  0  0  0  0  0  0  0  0  0  0  0
    3.0569    1.6191    1.3294 H   0  0  0  0  0  0  0  0  0  0  0  0
    2.0365    2.0842   -0.4504 H   0  0  0  0  0  0  0  0  0  0  0  0
    0.7219    1.6455    0.6395 H   0  0  0  0  0  0  0  0  0  0  0  0
    1.8911   -0.0414   -1.6510 H   0  0  0  0  0  0  0  0  0  0  0  0
   -0.3346    0.4520   -2.5158 H   0  0  0  0  0  0  0  0  0  0  0  0
    0.5425    1.9580   -1.9894 H   0  0  0  0  0  0  0  0  0  0  0  0
   -1.6257    2.0727   -1.0283 H   0  0  0  0  0  0  0  0  0  0  0  0
   -1.8737   -0.3935   -1.1866 H   0  0  0  0  0  0  0  0  0  0  0  0
   -1.2133   -1.6743    0.6866 H   0  0  0  0  0  0  0  0  0  0  0  0
   -0.0206   -1.4523   -1.3093 H   0  0  0  0  0  0  0  0  0  0  0  0
    0.7315   -2.9322    0.5222 H   0  0  0  0  0  0  0  0  0  0  0  0
    2.0081   -2.5572   -0.6258 H   0  0  0  0  0  0  0  0  0  0  0  0
    1.7304   -1.9762    2.0999 H   0  0  0  0  0  0  0  0  0  0  0  0
   -0.9214   -0.3598    2.4570 H   0  0  0  0  0  0  0  0  0  0  0  0
   -3.6068   -0.3270    0.2839 H   0  0  0  0  0  0  0  0  0  0  0  0
   -2.7673    0.7942    1.4954 H   0  0  0  0  0  0  0  0  0  0  0  0
   -3.3417    1.3898   -0.0750 H   0  0  0  0  0  0  0  0  0  0  0  0
    3.0569    1.6191    1.3294 H   0  0  0  0  0  0  0  0  0  0  0  0
    2.0365    2.0842   -0.4504 H   0  0  0  0  0  0  0  0  0  0  0  0
    0.7219    1.6455    0.6395 H   0  0  0  0  0  0  0  0  0  0  0  0
    1.8911   -0.0414   -1.6510 H   0  0  0  0  0  0  0  0  0  0  0  0
   -0.3346    0.4520   -2.5158 H   0  0  0  0  0  0  0  0  0  0  0  0
    0.5425    1.9580   -1.9894 H   0  0  0  0  0  0  0  0  0  0  0  0
   -1.6257    2.0727   -1.0283 H   0  0  0  0  0  0  0  0  0  0  0  0
   -1.8737   -0.3935   -1.1866 H   0  0  0  0  0  0  0  0  0  0  0  0
   -1.2133   -1.6743    0.6866 H   0  0  0  0  0  0  0  0  0  0  0  0
   -0.0206   -1.4523   -1.3093 H   0  0  0  0  0  0  0  0  0  0  0  0
    0.7315   -2.9322    0.5222 H   0  0  0  0  0  0  0  0  0  0  0  0
    2.0081   -2.5572   -0.6258 H   0  0  0  0  0  0  0  0  0  0  0  0
    1.7304   -1.9762    2.0999 H   0  0  0  0  0  0  0  0  0  0  0  0
   -0.9214   -0.3598    2.4570 H   0  0  0  0  0  0  0  0  0  0  0  0
   -3.6068   -0.3270    0.2839 H   0  0  0  0  0  0  0  0  0  0  0  0
   -2.7673    0.7942    1.4954 H   0  0  0  0  0  0  0  0  0  0  0  0
   -3.3417    1.3898   -0.0750 H   0  0  0  0  0  0  0  0  0  0  0  0
  1  2  1  0
  2  3  1  0
  3  4  1  0
  4  5  1  0
  5  6  1  0
  6  7  1  0
  3  8  1  0
  7  8  1  0
  8  9  1  0
  9 10  1  0
  7 11  1  0
  6 12  1  0
 13 14  1  0
 14 15  1  0
 15 16  1  0
 16 17  1  0
 17 18  1  0
 18 19  1  0
 15 20  1  0
 19 20  1  0
 20 21  1  0
 21 22  1  0
 19 23  1  0
 18 24  1  0
  1 25  1  0
  2 26  1  0
  2 27  1  0
  3 28  1  0
  4 29  1  0
  4 30  1  0
  5 31  1  0
  6 32  1  0
  7 33  1  0
  8 34  1  0
  9 35  1  0
  9 36  1  0
 10 37  1  0
 11 38  1  0
 12 39  1  0
 12 40  1  0
 12 41  1  0
 13 42  1  0
 14 43  1  0
 14 44  1  0
 15 45  1  0
 16 46  1  0
 16 47  1  0
 17 48  1  0
 18 49  1  0
 19 50  1  0
 20 51  1  0
 21 52  1  0
 21 53  1  0
 22 54  1  0
 23 55  1  0
 24 56  1  0
 24 57  1  0
 24 58  1  0
M  END
>  <PDBID>  (1) 
3FHX

>  <PDB ID>  (1) 
3FHX

>  <Generic Name>  (1) 
Pyridoxal

>  <Brand Name>  (1) 
nan

>  <DrugBank ID>  (1) 
DB00147

>  <ATC Codes>  (1) 
nan

>  <Ligand ID>  (1) 
PXL

>  <Target Name>  (1) 
Pyridoxal kinase

>  <UniProt ID>  (1) 
O00764

>  <PDB ID.1>  (1) 
3FHX

>  <Seq. Identity>  (1) 
100%

$$$$
