PDB_DB08901_00
     RDKit          3D

184192  0  0  0  0  0  0  0  0999 V2000
   -9.1598   -0.1541    0.8428 N   0  0  0  0  0  0  0  0  0  0  0  0
    7.3551    0.0360    0.0846 N   0  0  0  0  0  0  0  0  0  0  0  0
   -4.7730   -0.7452   -0.7756 C   0  0  0  0  0  0  0  0  0  0  0  0
   -3.5302   -1.5434   -0.5927 C   0  0  0  0  0  0  0  0  0  0  0  0
   -3.1461   -1.9397    0.7634 C   0  0  0  0  0  0  0  0  0  0  0  0
   -2.9778   -0.7199    1.6159 C   0  0  0  0  0  0  0  0  0  0  0  0
   -1.8641    0.1319    1.1013 C   0  0  0  0  0  0  0  0  0  0  0  0
   -2.3990   -0.7770   -1.2199 C   0  0  0  0  0  0  0  0  0  0  0  0
    2.1608    0.3734   -0.0757 C   0  0  0  0  0  0  0  0  0  0  0  0
    3.9499   -0.5680   -1.3951 C   0  0  0  0  0  0  0  0  0  0  0  0
    4.4523    0.5993    0.7737 C   0  0  0  0  0  0  0  0  0  0  0  0
    6.2444   -0.5142   -0.6344 C   0  0  0  0  0  0  0  0  0  0  0  0
    7.8224    1.2878   -0.4257 C   0  0  0  0  0  0  0  0  0  0  0  0
    9.3164    1.3602   -0.2407 C   0  0  0  0  0  0  0  0  0  0  0  0
    8.4056   -0.9259    0.3186 C   0  0  0  0  0  0  0  0  0  0  0  0
   -9.3543    1.2126   -1.0931 C   0  0  0  0  0  0  0  0  0  0  0  0
   -8.4857    2.0217   -2.0260 C   0  0  0  0  0  0  0  0  0  0  0  0
   -7.3375    2.6607   -1.2858 C   0  0  0  0  0  0  0  0  0  0  0  0
   -6.5305    1.7291   -0.5713 N   0  0  0  0  0  0  0  0  0  0  0  0
   -7.2495    0.7462    0.1086 N   0  0  0  0  0  0  0  0  0  0  0  0
   -8.6510    1.0892    0.2392 C   0  0  0  0  0  0  0  0  0  0  0  0
   -8.4849   -1.2046    0.0762 C   0  0  0  0  0  0  0  0  0  0  0  0
   -7.2640   -0.5152   -0.5470 C   0  0  0  0  0  0  0  0  0  0  0  0
   -6.0304   -1.3655   -0.3205 C   0  0  0  0  0  0  0  0  0  0  0  0
   -1.5614    0.0625   -0.3366 C   0  0  0  0  0  0  0  0  0  0  0  0
   -3.9854   -3.0089    1.4061 C   0  0  0  0  0  0  0  0  0  0  0  0
   -0.0631   -0.2224   -0.5645 C   0  0  0  0  0  0  0  0  0  0  0  0
    0.3390   -1.4173   -0.0111 O   0  0  0  0  0  0  0  0  0  0  0  0
    0.7782    0.8011    0.0242 N   0  0  0  0  0  0  0  0  0  0  0  0
    2.6424    0.2306   -1.5044 C   0  0  0  0  0  0  0  0  0  0  0  0
    4.9583    0.2026   -0.5556 C   0  0  0  0  0  0  0  0  0  0  0  0
    3.1097    1.2706    0.6312 C   0  0  0  0  0  0  0  0  0  0  0  0
    4.4903   -0.4223    1.8594 C   0  0  0  0  0  0  0  0  0  0  0  0
    5.8008   -0.8512    2.1182 F   0  0  0  0  0  0  0  0  0  0  0  0
    4.1064    0.2346    3.0388 F   0  0  0  0  0  0  0  0  0  0  0  0
    3.7738   -1.5555    1.6502 F   0  0  0  0  0  0  0  0  0  0  0  0
    9.3598   -0.4240    1.3574 C   0  0  0  0  0  0  0  0  0  0  0  0
   11.1010    1.1499    1.2980 C   0  0  0  0  0  0  0  0  0  0  0  0
    9.6782    0.9752    1.1190 N   0  0  0  0  0  0  0  0  0  0  0  0
   -5.6726    2.4006   -0.0543 N   0  0  0  0  0  0  0  0  0  0  0  0
    5.4479    0.9576    1.9007 N   0  0  0  0  0  0  0  0  0  0  0  0
   -3.9450   -0.3436   -0.5302 C   0  0  0  0  0  0  0  0  0  0  0  0
   -3.0478   -1.3631   -1.1671 C   0  0  0  0  0  0  0  0  0  0  0  0
   -3.4381   -1.4145   -2.6498 C   0  0  0  0  0  0  0  0  0  0  0  0
   -2.6937   -2.5852   -3.2234 C   0  0  0  0  0  0  0  0  0  0  0  0
   -1.5957   -3.1179   -2.3733 C   0  0  0  0  0  0  0  0  0  0  0  0
   -1.6004   -1.0237   -1.0457 C   0  0  0  0  0  0  0  0  0  0  0  0
    2.1435   -0.5427   -1.4842 C   0  0  0  0  0  0  0  0  0  0  0  0
    2.9693   -0.2661    0.7854 C   0  0  0  0  0  0  0  0  0  0  0  0
    4.4709   -1.2157   -0.9995 C   0  0  0  0  0  0  0  0  0  0  0  0
    5.4516   -0.1173    0.9717 C   0  0  0  0  0  0  0  0  0  0  0  0
    6.6062    0.8978    2.7953 C   0  0  0  0  0  0  0  0  0  0  0  0
    7.8424    1.4844    2.2130 C   0  0  0  0  0  0  0  0  0  0  0  0
    5.2935    2.2795    1.3670 C   0  0  0  0  0  0  0  0  0  0  0  0
   -7.9326    2.0671    0.7988 C   0  0  0  0  0  0  0  0  0  0  0  0
   -7.8000    2.2931    2.2950 C   0  0  0  0  0  0  0  0  0  0  0  0
   -7.5854    0.9886    2.9958 C   0  0  0  0  0  0  0  0  0  0  0  0
   -6.7596    0.0627    2.2979 N   0  0  0  0  0  0  0  0  0  0  0  0
   -6.0575    0.5113    1.2299 N   0  0  0  0  0  0  0  0  0  0  0  0
   -6.6623    1.4253    0.3362 C   0  0  0  0  0  0  0  0  0  0  0  0
   -4.4820    2.1833    0.7031 C   0  0  0  0  0  0  0  0  0  0  0  0
   -4.6979    0.8916    1.4427 C   0  0  0  0  0  0  0  0  0  0  0  0
   -3.7238   -0.1459    0.9288 C   0  0  0  0  0  0  0  0  0  0  0  0
   -0.7221   -2.0296   -1.7306 C   0  0  0  0  0  0  0  0  0  0  0  0
   -4.9569   -1.6284   -2.7171 C   0  0  0  0  0  0  0  0  0  0  0  0
    0.2153   -1.4412   -2.7494 C   0  0  1  0  0  0  0  0  0  0  0  0
   -0.6322   -0.8958   -3.7595 O   0  0  0  0  0  0  0  0  0  0  0  0
    1.0915   -0.4465   -2.3797 N   0  0  0  0  0  0  0  0  0  0  0  0
    1.8433   -0.8618   -0.0406 C   0  0  0  0  0  0  0  0  0  0  0  0
    4.2733   -0.1502    0.0313 C   0  0  0  0  0  0  0  0  0  0  0  0
    3.3424   -1.3335   -1.9721 C   0  0  0  0  0  0  0  0  0  0  0  0
    4.9312   -2.5415   -0.4577 C   0  0  0  0  0  0  0  0  0  0  0  0
    5.0656   -3.4556   -1.5154 F   0  0  0  0  0  0  0  0  0  0  0  0
    6.2364   -2.4629    0.0571 F   0  0  0  0  0  0  0  0  0  0  0  0
    4.1519   -3.0401    0.5575 F   0  0  0  0  0  0  0  0  0  0  0  0
    6.5043    2.7639    0.6296 C   0  0  0  0  0  0  0  0  0  0  0  0
    8.5240    1.6518   -0.1076 C   0  0  0  0  0  0  0  0  0  0  0  0
    7.7226    2.1330    0.9650 N   0  0  0  0  0  0  0  0  0  0  0  0
  -10.1766   -0.2770    0.6723 H   0  0  0  0  0  0  0  0  0  0  0  0
   -4.6976    0.2688   -0.2865 H   0  0  0  0  0  0  0  0  0  0  0  0
   -4.8603   -0.5226   -1.8604 H   0  0  0  0  0  0  0  0  0  0  0  0
   -3.6859   -2.4930   -1.1978 H   0  0  0  0  0  0  0  0  0  0  0  0
   -2.1133   -2.3987    0.6832 H   0  0  0  0  0  0  0  0  0  0  0  0
   -3.9476   -0.1756    1.6269 H   0  0  0  0  0  0  0  0  0  0  0  0
   -2.8145   -1.0625    2.6609 H   0  0  0  0  0  0  0  0  0  0  0  0
   -0.9490   -0.1541    1.6805 H   0  0  0  0  0  0  0  0  0  0  0  0
   -2.0616    1.1861    1.4696 H   0  0  0  0  0  0  0  0  0  0  0  0
   -1.7250   -1.5523   -1.7000 H   0  0  0  0  0  0  0  0  0  0  0  0
   -2.8250   -0.2324   -2.0947 H   0  0  0  0  0  0  0  0  0  0  0  0
    2.2099   -0.6868    0.3210 H   0  0  0  0  0  0  0  0  0  0  0  0
    4.3636   -0.6044   -2.4247 H   0  0  0  0  0  0  0  0  0  0  0  0
    3.7489   -1.5562   -0.9886 H   0  0  0  0  0  0  0  0  0  0  0  0
    5.1440    1.4529    1.1162 H   0  0  0  0  0  0  0  0  0  0  0  0
    6.5485   -0.5322   -1.7226 H   0  0  0  0  0  0  0  0  0  0  0  0
    6.1811   -1.5979   -0.3534 H   0  0  0  0  0  0  0  0  0  0  0  0
    7.6353    1.3163   -1.5340 H   0  0  0  0  0  0  0  0  0  0  0  0
    7.3930    2.1762    0.0812 H   0  0  0  0  0  0  0  0  0  0  0  0
    9.8394    0.6833   -0.9491 H   0  0  0  0  0  0  0  0  0  0  0  0
    9.6959    2.4001   -0.3562 H   0  0  0  0  0  0  0  0  0  0  0  0
    7.9910   -1.8919    0.6408 H   0  0  0  0  0  0  0  0  0  0  0  0
    8.9332   -1.1008   -0.6266 H   0  0  0  0  0  0  0  0  0  0  0  0
  -10.3412    1.6877   -0.8932 H   0  0  0  0  0  0  0  0  0  0  0  0
   -9.5404    0.2322   -1.5595 H   0  0  0  0  0  0  0  0  0  0  0  0
   -9.1207    2.8496   -2.4188 H   0  0  0  0  0  0  0  0  0  0  0  0
   -8.1643    1.4462   -2.9171 H   0  0  0  0  0  0  0  0  0  0  0  0
   -6.7091    3.1815   -2.0372 H   0  0  0  0  0  0  0  0  0  0  0  0
   -7.7512    3.4635   -0.6286 H   0  0  0  0  0  0  0  0  0  0  0  0
   -5.9741    2.2531    0.1404 H   0  0  0  0  0  0  0  0  0  0  0  0
   -8.8563    1.9008    0.9368 H   0  0  0  0  0  0  0  0  0  0  0  0
   -8.1516   -2.0029    0.7705 H   0  0  0  0  0  0  0  0  0  0  0  0
   -9.1117   -1.6149   -0.7263 H   0  0  0  0  0  0  0  0  0  0  0  0
   -7.4139   -0.4556   -1.6436 H   0  0  0  0  0  0  0  0  0  0  0  0
   -6.2590   -2.3520   -0.7547 H   0  0  0  0  0  0  0  0  0  0  0  0
   -6.0184   -1.5372    0.7976 H   0  0  0  0  0  0  0  0  0  0  0  0
   -1.6609    1.1233   -0.7355 H   0  0  0  0  0  0  0  0  0  0  0  0
   -3.3616   -3.8518    1.8354 H   0  0  0  0  0  0  0  0  0  0  0  0
   -4.5270   -2.6208    2.3198 H   0  0  0  0  0  0  0  0  0  0  0  0
   -4.6709   -3.5159    0.6961 H   0  0  0  0  0  0  0  0  0  0  0  0
    0.0654   -0.2369   -1.6722 H   0  0  0  0  0  0  0  0  0  0  0  0
    0.4328   -1.4416    0.9492 H   0  0  0  0  0  0  0  0  0  0  0  0
    0.6452    1.7009   -0.4966 H   0  0  0  0  0  0  0  0  0  0  0  0
    1.9922   -0.3401   -2.1587 H   0  0  0  0  0  0  0  0  0  0  0  0
    2.8806    1.2478   -1.8725 H   0  0  0  0  0  0  0  0  0  0  0  0
    5.0913    1.1704   -1.1364 H   0  0  0  0  0  0  0  0  0  0  0  0
    2.7334    1.6744    1.5894 H   0  0  0  0  0  0  0  0  0  0  0  0
    3.2578    2.1756   -0.0254 H   0  0  0  0  0  0  0  0  0  0  0  0
    8.9128   -0.5587    2.3553 H   0  0  0  0  0  0  0  0  0  0  0  0
   10.2972   -1.0312    1.2823 H   0  0  0  0  0  0  0  0  0  0  0  0
   11.3221    1.3993    2.3524 H   0  0  0  0  0  0  0  0  0  0  0  0
   11.6470    0.1906    1.0989 H   0  0  0  0  0  0  0  0  0  0  0  0
   11.5301    1.9165    0.6380 H   0  0  0  0  0  0  0  0  0  0  0  0
   -5.4522    2.3486   -1.0667 H   0  0  0  0  0  0  0  0  0  0  0  0
   -3.8159    0.6080   -1.0594 H   0  0  0  0  0  0  0  0  0  0  0  0
   -5.0030   -0.7307   -0.6366 H   0  0  0  0  0  0  0  0  0  0  0  0
   -3.2685   -2.3480   -0.7355 H   0  0  0  0  0  0  0  0  0  0  0  0
   -3.2602   -0.4565   -3.1626 H   0  0  0  0  0  0  0  0  0  0  0  0
   -3.4476   -3.4045   -3.3354 H   0  0  0  0  0  0  0  0  0  0  0  0
   -2.3575   -2.3471   -4.2508 H   0  0  0  0  0  0  0  0  0  0  0  0
   -1.9445   -3.7955   -1.5674 H   0  0  0  0  0  0  0  0  0  0  0  0
   -0.9084   -3.7140   -3.0274 H   0  0  0  0  0  0  0  0  0  0  0  0
   -1.3847   -0.9765    0.0626 H   0  0  0  0  0  0  0  0  0  0  0  0
   -1.4460    0.0208   -1.4140 H   0  0  0  0  0  0  0  0  0  0  0  0
    2.5759    0.5216   -1.4167 H   0  0  0  0  0  0  0  0  0  0  0  0
    3.0943   -0.8048    1.7493 H   0  0  0  0  0  0  0  0  0  0  0  0
    2.6610    0.7614    1.0660 H   0  0  0  0  0  0  0  0  0  0  0  0
    5.3557   -0.8486   -1.6234 H   0  0  0  0  0  0  0  0  0  0  0  0
    5.3487   -1.0618    1.5928 H   0  0  0  0  0  0  0  0  0  0  0  0
    6.3939   -0.2162    0.4114 H   0  0  0  0  0  0  0  0  0  0  0  0
    6.7665   -0.1263    3.1363 H   0  0  0  0  0  0  0  0  0  0  0  0
    6.3093    1.5432    3.6740 H   0  0  0  0  0  0  0  0  0  0  0  0
    8.3629    2.1771    2.9214 H   0  0  0  0  0  0  0  0  0  0  0  0
    8.5764    0.6371    2.0747 H   0  0  0  0  0  0  0  0  0  0  0  0
    4.4283    2.3136    0.6998 H   0  0  0  0  0  0  0  0  0  0  0  0
    5.0186    2.9927    2.2089 H   0  0  0  0  0  0  0  0  0  0  0  0
   -8.0504    3.0302    0.2836 H   0  0  0  0  0  0  0  0  0  0  0  0
   -8.7638    1.3578    0.6361 H   0  0  0  0  0  0  0  0  0  0  0  0
   -8.7378    2.7866    2.6328 H   0  0  0  0  0  0  0  0  0  0  0  0
   -6.9752    2.9842    2.5198 H   0  0  0  0  0  0  0  0  0  0  0  0
   -8.5998    0.4940    3.0899 H   0  0  0  0  0  0  0  0  0  0  0  0
   -7.2644    1.1395    4.0499 H   0  0  0  0  0  0  0  0  0  0  0  0
   -6.2525   -0.6095    2.8759 H   0  0  0  0  0  0  0  0  0  0  0  0
   -6.9318    0.8508   -0.5965 H   0  0  0  0  0  0  0  0  0  0  0  0
   -3.5372    2.2050    0.1045 H   0  0  0  0  0  0  0  0  0  0  0  0
   -4.4112    3.0367    1.4377 H   0  0  0  0  0  0  0  0  0  0  0  0
   -4.5075    1.0480    2.5424 H   0  0  0  0  0  0  0  0  0  0  0  0
   -3.9496   -1.1144    1.4571 H   0  0  0  0  0  0  0  0  0  0  0  0
   -2.6815    0.1039    1.1990 H   0  0  0  0  0  0  0  0  0  0  0  0
   -0.1756   -2.5903   -0.9251 H   0  0  0  0  0  0  0  0  0  0  0  0
   -5.4380   -0.6495   -2.6488 H   0  0  0  0  0  0  0  0  0  0  0  0
   -5.2917   -2.3557   -1.9680 H   0  0  0  0  0  0  0  0  0  0  0  0
   -5.1355   -2.0043   -3.7609 H   0  0  0  0  0  0  0  0  0  0  0  0
    0.6638   -2.3268   -3.2728 H   0  0  0  0  0  0  0  0  0  0  0  0
   -0.3081   -0.0455   -4.0931 H   0  0  0  0  0  0  0  0  0  0  0  0
    0.6132    0.4756   -2.3175 H   0  0  0  0  0  0  0  0  0  0  0  0
    1.7440   -1.9502    0.1581 H   0  0  0  0  0  0  0  0  0  0  0  0
    0.9017   -0.3498    0.2355 H   0  0  0  0  0  0  0  0  0  0  0  0
    4.3326    0.8234   -0.5423 H   0  0  0  0  0  0  0  0  0  0  0  0
    3.5826   -0.9396   -2.9789 H   0  0  0  0  0  0  0  0  0  0  0  0
    3.1175   -2.4096   -2.0862 H   0  0  0  0  0  0  0  0  0  0  0  0
    6.3530    2.7504   -0.4815 H   0  0  0  0  0  0  0  0  0  0  0  0
    6.6108    3.8632    0.8686 H   0  0  0  0  0  0  0  0  0  0  0  0
    9.5554    2.0951    0.0154 H   0  0  0  0  0  0  0  0  0  0  0  0
    8.1450    2.0697   -1.0748 H   0  0  0  0  0  0  0  0  0  0  0  0
    8.6672    0.5693   -0.1439 H   0  0  0  0  0  0  0  0  0  0  0  0
  3  4  1  0
  4  5  1  0
  5  6  1  0
  6  7  1  0
  4  8  1  0
  2 12  1  0
  2 13  1  0
 13 14  1  0
  2 15  1  0
 16 17  1  0
 17 18  1  0
 18 19  1  0
 19 20  1  0
  1 21  1  0
 16 21  1  0
 20 21  1  0
  1 22  1  0
 20 23  1  0
 22 23  1  0
  3 24  1  0
 23 24  1  0
  7 25  1  0
  8 25  1  0
  5 26  1  0
 25 27  1  0
 27 28  1  0
  9 29  1  0
 27 29  1  0
  9 30  1  0
 10 30  1  0
 10 31  1  0
 11 31  1  0
 12 31  1  0
  9 32  1  0
 11 32  1  0
 11 33  1  0
 33 34  1  0
 33 35  1  0
 33 36  1  0
 15 37  1  0
 14 39  1  0
 37 39  1  0
 38 39  1  0
 42 43  1  0
 43 44  1  0
 44 45  1  0
 45 46  1  0
 43 47  1  0
 41 51  1  0
 41 52  1  0
 52 53  1  0
 41 54  1  0
 55 56  1  0
 56 57  1  0
 57 58  1  0
 58 59  1  0
 40 60  1  0
 55 60  1  0
 59 60  1  0
 40 61  1  0
 59 62  1  0
 61 62  1  0
 42 63  1  0
 62 63  1  0
 46 64  1  0
 47 64  1  0
 44 65  1  0
 64 66  1  0
 66 67  1  0
 48 68  1  0
 66 68  1  0
 48 69  1  0
 49 69  1  0
 49 70  1  0
 50 70  1  0
 51 70  1  0
 48 71  1  0
 50 71  1  0
 50 72  1  0
 72 73  1  0
 72 74  1  0
 72 75  1  0
 54 76  1  0
 53 78  1  0
 76 78  1  0
 77 78  1  0
  1 79  1  0
  3 80  1  0
  3 81  1  0
  4 82  1  0
  5 83  1  0
  6 84  1  0
  6 85  1  0
  7 86  1  0
  7 87  1  0
  8 88  1  0
  8 89  1  0
  9 90  1  0
 10 91  1  0
 10 92  1  0
 11 93  1  0
 12 94  1  0
 12 95  1  0
 13 96  1  0
 13 97  1  0
 14 98  1  0
 14 99  1  0
 15100  1  0
 15101  1  0
 16102  1  0
 16103  1  0
 17104  1  0
 17105  1  0
 18106  1  0
 18107  1  0
 19108  1  0
 21109  1  0
 22110  1  0
 22111  1  0
 23112  1  0
 24113  1  0
 24114  1  0
 25115  1  0
 26116  1  0
 26117  1  0
 26118  1  0
 27119  1  0
 28120  1  0
 29121  1  0
 30122  1  0
 30123  1  0
 31124  1  0
 32125  1  0
 32126  1  0
 37127  1  0
 37128  1  0
 38129  1  0
 38130  1  0
 38131  1  0
 40132  1  0
 42133  1  0
 42134  1  0
 43135  1  0
 44136  1  0
 45137  1  0
 45138  1  0
 46139  1  0
 46140  1  0
 47141  1  0
 47142  1  0
 48143  1  0
 49144  1  0
 49145  1  0
 50146  1  0
 51147  1  0
 51148  1  0
 52149  1  0
 52150  1  0
 53151  1  0
 53152  1  0
 54153  1  0
 54154  1  0
 55155  1  0
 55156  1  0
 56157  1  0
 56158  1  0
 57159  1  0
 57160  1  0
 58161  1  0
 60162  1  0
 61163  1  0
 61164  1  0
 62165  1  0
 63166  1  0
 63167  1  0
 64168  1  0
 65169  1  0
 65170  1  0
 65171  1  0
 66172  1  6
 67173  1  0
 68174  1  0
 69175  1  0
 69176  1  0
 70177  1  0
 71178  1  0
 71179  1  0
 76180  1  0
 76181  1  0
 77182  1  0
 77183  1  0
 77184  1  0
M  END
>  <PDBID>  (1) 
3IK3

>  <PDB ID>  (1) 
3IK3

>  <Generic Name>  (1) 
Ponatinib

>  <Brand Name>  (1) 
Iclusig

>  <DrugBank ID>  (1) 
DB08901

>  <ATC Codes>  (1) 
L01XE24

>  <Ligand ID>  (1) 
0LI

>  <Target Name>  (1) 
Tyrosine-protein kinase ABL1

>  <UniProt ID>  (1) 
P00519

>  <PDB ID.1>  (1) 
3IK3

>  <Seq. Identity>  (1) 
95%

$$$$
