PDB_DB00712_02
     RDKit          3D

 90 92  0  0  0  0  0  0  0  0999 V2000
    4.1340   -0.9029   -0.4407 C   0  0  0  0  0  0  0  0  0  0  0  0
    2.6210   -0.9106   -0.1789 C   0  0  0  0  0  0  0  0  0  0  0  0
    2.1476    0.4981   -0.3957 C   0  0  0  0  0  0  0  0  0  0  0  0
    2.9970    1.4155    0.4241 C   0  0  0  0  0  0  0  0  0  0  0  0
    3.8549    0.6344    1.4303 C   0  0  0  0  0  0  0  0  0  0  0  0
    4.8569   -0.1897    0.6809 C   0  0  0  0  0  0  0  0  0  0  0  0
    0.6760    0.6738   -0.1946 C   0  0  0  0  0  0  0  0  0  0  0  0
    0.2416    0.3080    1.1956 C   0  0  0  0  0  0  0  0  0  0  0  0
   -1.2564    0.2655    1.3266 C   0  0  0  0  0  0  0  0  0  0  0  0
   -1.8767   -0.6232    0.2815 C   0  0  0  0  0  0  0  0  0  0  0  0
   -1.5630   -0.0487   -1.0594 C   0  0  0  0  0  0  0  0  0  0  0  0
   -0.0596   -0.1117   -1.2686 C   0  0  0  0  0  0  0  0  0  0  0  0
   -3.3377   -0.7998    0.5579 C   0  0  2  0  0  0  0  0  0  0  0  0
   -4.0311   -1.6744   -0.4422 C   0  0  0  0  0  0  0  0  0  0  0  0
   -4.0970    0.4978    0.6691 C   0  0  0  0  0  0  0  0  0  0  0  0
   -4.0448    1.2689   -0.4687 O   0  0  0  0  0  0  0  0  0  0  0  0
   -5.4403    0.1679    0.8886 O   0  0  0  0  0  0  0  0  0  0  0  0
    0.1821    0.5433   -2.4643 F   0  0  0  0  0  0  0  0  0  0  0  0
    4.1340   -0.9029   -0.4407 C   0  0  0  0  0  0  0  0  0  0  0  0
    2.6210   -0.9106   -0.1789 C   0  0  0  0  0  0  0  0  0  0  0  0
    2.1476    0.4981   -0.3957 C   0  0  0  0  0  0  0  0  0  0  0  0
    2.9970    1.4155    0.4241 C   0  0  0  0  0  0  0  0  0  0  0  0
    3.8549    0.6344    1.4303 C   0  0  0  0  0  0  0  0  0  0  0  0
    4.8569   -0.1897    0.6809 C   0  0  0  0  0  0  0  0  0  0  0  0
    0.6760    0.6738   -0.1946 C   0  0  0  0  0  0  0  0  0  0  0  0
    0.2416    0.3080    1.1956 C   0  0  0  0  0  0  0  0  0  0  0  0
   -1.2564    0.2655    1.3266 C   0  0  0  0  0  0  0  0  0  0  0  0
   -1.8767   -0.6232    0.2815 C   0  0  0  0  0  0  0  0  0  0  0  0
   -1.5630   -0.0487   -1.0594 C   0  0  0  0  0  0  0  0  0  0  0  0
   -0.0596   -0.1117   -1.2686 C   0  0  0  0  0  0  0  0  0  0  0  0
   -3.3377   -0.7998    0.5579 C   0  0  2  0  0  0  0  0  0  0  0  0
   -4.0311   -1.6744   -0.4422 C   0  0  0  0  0  0  0  0  0  0  0  0
   -4.0970    0.4978    0.6691 C   0  0  0  0  0  0  0  0  0  0  0  0
   -4.0448    1.2689   -0.4687 O   0  0  0  0  0  0  0  0  0  0  0  0
   -5.4403    0.1679    0.8886 O   0  0  0  0  0  0  0  0  0  0  0  0
    0.1821    0.5433   -2.4643 F   0  0  0  0  0  0  0  0  0  0  0  0
    4.2863   -0.2961   -1.3625 H   0  0  0  0  0  0  0  0  0  0  0  0
    4.5254   -1.9018   -0.6370 H   0  0  0  0  0  0  0  0  0  0  0  0
    2.2086   -1.6327   -0.9208 H   0  0  0  0  0  0  0  0  0  0  0  0
    2.4120   -1.3176    0.8107 H   0  0  0  0  0  0  0  0  0  0  0  0
    2.3617    0.7375   -1.4767 H   0  0  0  0  0  0  0  0  0  0  0  0
    2.4461    2.1535    1.0084 H   0  0  0  0  0  0  0  0  0  0  0  0
    3.7404    1.9878   -0.1910 H   0  0  0  0  0  0  0  0  0  0  0  0
    4.3795    1.4129    2.0401 H   0  0  0  0  0  0  0  0  0  0  0  0
    3.2346    0.0604    2.1224 H   0  0  0  0  0  0  0  0  0  0  0  0
    5.3612   -0.9032    1.3494 H   0  0  0  0  0  0  0  0  0  0  0  0
    5.6312    0.5251    0.2837 H   0  0  0  0  0  0  0  0  0  0  0  0
    0.3989    1.7370   -0.3543 H   0  0  0  0  0  0  0  0  0  0  0  0
    0.5738    1.1594    1.8611 H   0  0  0  0  0  0  0  0  0  0  0  0
    0.6324   -0.6561    1.5522 H   0  0  0  0  0  0  0  0  0  0  0  0
   -1.4909   -0.0852    2.3556 H   0  0  0  0  0  0  0  0  0  0  0  0
   -1.6350    1.3131    1.2657 H   0  0  0  0  0  0  0  0  0  0  0  0
   -1.3822   -1.6184    0.3883 H   0  0  0  0  0  0  0  0  0  0  0  0
   -1.8071    1.0503   -1.0843 H   0  0  0  0  0  0  0  0  0  0  0  0
   -2.0444   -0.5377   -1.9034 H   0  0  0  0  0  0  0  0  0  0  0  0
    0.2614   -1.1700   -1.3124 H   0  0  0  0  0  0  0  0  0  0  0  0
   -3.4397   -1.3149    1.5511 H   0  0  0  0  0  0  0  0  0  0  0  0
   -3.9567   -1.2775   -1.4768 H   0  0  0  0  0  0  0  0  0  0  0  0
   -5.1220   -1.6557   -0.1932 H   0  0  0  0  0  0  0  0  0  0  0  0
   -3.7213   -2.7361   -0.3615 H   0  0  0  0  0  0  0  0  0  0  0  0
   -3.7466    1.0381    1.5737 H   0  0  0  0  0  0  0  0  0  0  0  0
   -4.0611    2.2431   -0.2995 H   0  0  0  0  0  0  0  0  0  0  0  0
   -6.0509    0.6725    0.2939 H   0  0  0  0  0  0  0  0  0  0  0  0
    4.2863   -0.2961   -1.3625 H   0  0  0  0  0  0  0  0  0  0  0  0
    4.5254   -1.9018   -0.6370 H   0  0  0  0  0  0  0  0  0  0  0  0
    2.2086   -1.6327   -0.9208 H   0  0  0  0  0  0  0  0  0  0  0  0
    2.4120   -1.3176    0.8107 H   0  0  0  0  0  0  0  0  0  0  0  0
    2.3617    0.7375   -1.4767 H   0  0  0  0  0  0  0  0  0  0  0  0
    2.4461    2.1535    1.0084 H   0  0  0  0  0  0  0  0  0  0  0  0
    3.7404    1.9878   -0.1910 H   0  0  0  0  0  0  0  0  0  0  0  0
    4.3795    1.4129    2.0401 H   0  0  0  0  0  0  0  0  0  0  0  0
    3.2346    0.0604    2.1224 H   0  0  0  0  0  0  0  0  0  0  0  0
    5.3612   -0.9032    1.3494 H   0  0  0  0  0  0  0  0  0  0  0  0
    5.6312    0.5251    0.2837 H   0  0  0  0  0  0  0  0  0  0  0  0
    0.3989    1.7370   -0.3543 H   0  0  0  0  0  0  0  0  0  0  0  0
    0.5738    1.1594    1.8611 H   0  0  0  0  0  0  0  0  0  0  0  0
    0.6324   -0.6561    1.5522 H   0  0  0  0  0  0  0  0  0  0  0  0
   -1.4909   -0.0852    2.3556 H   0  0  0  0  0  0  0  0  0  0  0  0
   -1.6350    1.3131    1.2657 H   0  0  0  0  0  0  0  0  0  0  0  0
   -1.3822   -1.6184    0.3883 H   0  0  0  0  0  0  0  0  0  0  0  0
   -1.8071    1.0503   -1.0843 H   0  0  0  0  0  0  0  0  0  0  0  0
   -2.0444   -0.5377   -1.9034 H   0  0  0  0  0  0  0  0  0  0  0  0
    0.2614   -1.1700   -1.3124 H   0  0  0  0  0  0  0  0  0  0  0  0
   -3.4397   -1.3149    1.5511 H   0  0  0  0  0  0  0  0  0  0  0  0
   -3.9567   -1.2775   -1.4768 H   0  0  0  0  0  0  0  0  0  0  0  0
   -5.1220   -1.6557   -0.1932 H   0  0  0  0  0  0  0  0  0  0  0  0
   -3.7213   -2.7361   -0.3615 H   0  0  0  0  0  0  0  0  0  0  0  0
   -3.7466    1.0381    1.5737 H   0  0  0  0  0  0  0  0  0  0  0  0
   -4.0611    2.2431   -0.2995 H   0  0  0  0  0  0  0  0  0  0  0  0
   -6.0509    0.6725    0.2939 H   0  0  0  0  0  0  0  0  0  0  0  0
  1  2  1  0
  2  3  1  0
  3  4  1  0
  4  5  1  0
  1  6  1  0
  5  6  1  0
  3  7  1  0
  7  8  1  0
  8  9  1  0
  9 10  1  0
 10 11  1  0
  7 12  1  0
 11 12  1  0
 10 13  1  0
 13 14  1  0
 13 15  1  0
 15 16  1  0
 15 17  1  0
 12 18  1  0
 19 20  1  0
 20 21  1  0
 21 22  1  0
 22 23  1  0
 19 24  1  0
 23 24  1  0
 21 25  1  0
 25 26  1  0
 26 27  1  0
 27 28  1  0
 28 29  1  0
 25 30  1  0
 29 30  1  0
 28 31  1  0
 31 32  1  0
 31 33  1  0
 33 34  1  0
 33 35  1  0
 30 36  1  0
  1 37  1  0
  1 38  1  0
  2 39  1  0
  2 40  1  0
  3 41  1  0
  4 42  1  0
  4 43  1  0
  5 44  1  0
  5 45  1  0
  6 46  1  0
  6 47  1  0
  7 48  1  0
  8 49  1  0
  8 50  1  0
  9 51  1  0
  9 52  1  0
 10 53  1  0
 11 54  1  0
 11 55  1  0
 12 56  1  0
 13 57  1  1
 14 58  1  0
 14 59  1  0
 14 60  1  0
 15 61  1  0
 16 62  1  0
 17 63  1  0
 19 64  1  0
 19 65  1  0
 20 66  1  0
 20 67  1  0
 21 68  1  0
 22 69  1  0
 22 70  1  0
 23 71  1  0
 23 72  1  0
 24 73  1  0
 24 74  1  0
 25 75  1  0
 26 76  1  0
 26 77  1  0
 27 78  1  0
 27 79  1  0
 28 80  1  0
 29 81  1  0
 29 82  1  0
 30 83  1  0
 31 84  1  1
 32 85  1  0
 32 86  1  0
 32 87  1  0
 33 88  1  0
 34 89  1  0
 35 90  1  0
M  END
>  <PDBID>  (1) 
5JVZ

>  <PDB ID>  (1) 
5JVZ

>  <Generic Name>  (1) 
Flurbiprofen

>  <Brand Name>  (1) 
Ansaid Tablets 100 mg#Ansaid Tablets 50 mg#Antiphlamine Pain Relieving#Apo-flurbiprofen Fc Tablets 100mg#Apo-flurbiprofen Fc Tablets 50mg#Flurbiprofen#Flurbiprofen Sodium#Flurbiprofen-100 Tab 100mg#Flurbiprofen-50 Tab 50mg#Froben#Froben SR#Froben Tab 100mg#Froben Tab 50mg#Froben-SR Cap 200mg#Novo-flurprofen SR#Nu-flurbiprofen Tab 100mg#Nu-flurbiprofen Tab 50mg#Ocufen#Ocufen Oph Soln 0.03%#Ratio-flurbiprofen Tablets 100mg#Ratio-flurbiprofen Tablets 50mg#Teva-flurbiprofen#Acustop Cataplasma#Adofeed#Ansaid#Antadys#Cebutid#Flurofen#Ocuflur#Stayban#Strefen#Strepfen#Strepsils#Strepsils Intensive#TransAct#Urbifen#Zepolas

>  <DrugBank ID>  (1) 
DB00712

>  <ATC Codes>  (1) 
M02AA19#R02AX01#M01AE09#S01BC04

>  <Ligand ID>  (1) 
FLP,FLR

>  <Target Name>  (1) 
Prostaglandin G/H synthase 2

>  <UniProt ID>  (1) 
P35354

>  <PDB ID.1>  (1) 
5JVZ

>  <Seq. Identity>  (1) 
85%

$$$$
