PDB_DB00412_08
     RDKit          3D

 60 62  0  0  0  0  0  0  0  0999 V2000
    7.1743   -1.5022    0.1043 S   0  0  0  0  0  0  0  0  0  0  0  0
    8.9673    0.3100    0.7984 O   0  0  0  0  0  0  0  0  0  0  0  0
    7.1709    1.4588   -0.5358 O   0  0  0  0  0  0  0  0  0  0  0  0
   -0.7855   -0.0284   -1.4922 O   0  0  0  0  0  0  0  0  0  0  0  0
    6.7072    0.5388    1.4750 N   0  0  0  0  0  0  0  0  0  0  0  0
   -3.6199    0.2671    0.7500 N   0  0  0  0  0  0  0  0  0  0  0  0
   -5.2126    1.9670    0.7198 N   0  0  0  0  0  0  0  0  0  0  0  0
    7.8342   -0.3115    1.3046 C   0  0  0  0  0  0  0  0  0  0  0  0
    6.1118    0.8088    0.1895 C   0  0  0  0  0  0  0  0  0  0  0  0
    5.7891   -0.4025   -0.5416 C   0  0  2  0  0  0  0  0  0  0  0  0
    4.5463   -1.1311   -0.4633 C   0  0  0  0  0  0  0  0  0  0  0  0
    3.2273   -0.6901   -0.8931 C   0  0  0  0  0  0  0  0  0  0  0  0
    2.6742    0.4871   -0.2207 C   0  0  0  0  0  0  0  0  0  0  0  0
    1.2708    0.7998   -0.7022 C   0  0  0  0  0  0  0  0  0  0  0  0
    0.3058   -0.3143   -0.6962 C   0  0  0  0  0  0  0  0  0  0  0  0
    0.9487   -1.6050   -1.2797 C   0  0  0  0  0  0  0  0  0  0  0  0
    2.2350   -1.8680   -0.5768 C   0  0  0  0  0  0  0  0  0  0  0  0
   -2.0300   -0.2546   -0.9853 C   0  0  0  0  0  0  0  0  0  0  0  0
   -2.3197    0.5456    0.2412 C   0  0  0  0  0  0  0  0  0  0  0  0
   -3.7560   -1.0565    1.2899 C   0  0  0  0  0  0  0  0  0  0  0  0
   -4.7439    0.7859    0.0544 C   0  0  0  0  0  0  0  0  0  0  0  0
   -6.1651    1.7323    1.7664 C   0  0  0  0  0  0  0  0  0  0  0  0
   -7.3867    1.0980    1.1564 C   0  0  0  0  0  0  0  0  0  0  0  0
   -6.9793   -0.2272    0.5914 C   0  0  0  0  0  0  0  0  0  0  0  0
   -5.7935   -0.1849   -0.3301 C   0  0  0  0  0  0  0  0  0  0  0  0
    8.9366    1.2578    0.9799 H   0  0  0  0  0  0  0  0  0  0  0  0
    6.9492    1.2887   -1.4938 H   0  0  0  0  0  0  0  0  0  0  0  0
    6.0646    0.3352    2.2391 H   0  0  0  0  0  0  0  0  0  0  0  0
   -5.5492    2.7027    0.0527 H   0  0  0  0  0  0  0  0  0  0  0  0
    8.0397   -0.7888    2.3021 H   0  0  0  0  0  0  0  0  0  0  0  0
    5.3839    1.5915    0.3439 H   0  0  0  0  0  0  0  0  0  0  0  0
    6.1217   -0.2888   -1.6304 H   0  0  0  0  0  0  0  0  0  0  0  0
    4.7346   -2.1284   -1.0352 H   0  0  0  0  0  0  0  0  0  0  0  0
    4.4172   -1.6026    0.6014 H   0  0  0  0  0  0  0  0  0  0  0  0
    3.1156   -0.6436   -2.0199 H   0  0  0  0  0  0  0  0  0  0  0  0
    2.6372    0.3457    0.8783 H   0  0  0  0  0  0  0  0  0  0  0  0
    3.2382    1.4336   -0.3767 H   0  0  0  0  0  0  0  0  0  0  0  0
    1.3110    1.2663   -1.7073 H   0  0  0  0  0  0  0  0  0  0  0  0
    0.9045    1.5958    0.0180 H   0  0  0  0  0  0  0  0  0  0  0  0
    0.0394   -0.5917    0.3494 H   0  0  0  0  0  0  0  0  0  0  0  0
    1.0620   -1.4340   -2.3418 H   0  0  0  0  0  0  0  0  0  0  0  0
    0.2318   -2.3976   -1.0350 H   0  0  0  0  0  0  0  0  0  0  0  0
    2.1726   -1.9469    0.5037 H   0  0  0  0  0  0  0  0  0  0  0  0
    2.6915   -2.7865   -0.9870 H   0  0  0  0  0  0  0  0  0  0  0  0
   -2.2635   -1.3392   -0.8790 H   0  0  0  0  0  0  0  0  0  0  0  0
   -2.7522    0.0769   -1.8080 H   0  0  0  0  0  0  0  0  0  0  0  0
   -2.2766    1.6443   -0.0057 H   0  0  0  0  0  0  0  0  0  0  0  0
   -1.5362    0.4292    1.0411 H   0  0  0  0  0  0  0  0  0  0  0  0
   -2.7930   -1.2435    1.8549 H   0  0  0  0  0  0  0  0  0  0  0  0
   -3.7124   -1.8465    0.4798 H   0  0  0  0  0  0  0  0  0  0  0  0
   -4.5436   -1.2083    2.0126 H   0  0  0  0  0  0  0  0  0  0  0  0
   -4.3147    1.1684   -0.9338 H   0  0  0  0  0  0  0  0  0  0  0  0
   -6.4767    2.7552    2.1266 H   0  0  0  0  0  0  0  0  0  0  0  0
   -5.7744    1.1940    2.6241 H   0  0  0  0  0  0  0  0  0  0  0  0
   -7.7839    1.7795    0.3733 H   0  0  0  0  0  0  0  0  0  0  0  0
   -8.1617    0.9058    1.9337 H   0  0  0  0  0  0  0  0  0  0  0  0
   -7.8732   -0.6384    0.0385 H   0  0  0  0  0  0  0  0  0  0  0  0
   -6.8278   -0.9318    1.4322 H   0  0  0  0  0  0  0  0  0  0  0  0
   -5.3751   -1.2002   -0.3997 H   0  0  0  0  0  0  0  0  0  0  0  0
   -6.2078    0.0234   -1.3497 H   0  0  0  0  0  0  0  0  0  0  0  0
  1  8  1  0
  2  8  1  0
  5  8  1  0
  3  9  1  0
  5  9  1  0
  1 10  1  0
  9 10  1  0
 10 11  1  0
 11 12  1  0
 12 13  1  0
 13 14  1  0
  4 15  1  0
 14 15  1  0
 15 16  1  0
 12 17  1  0
 16 17  1  0
  4 18  1  0
  6 19  1  0
 18 19  1  0
  6 20  1  0
  6 21  1  0
  7 21  1  0
  7 22  1  0
 22 23  1  0
 23 24  1  0
 21 25  1  0
 24 25  1  0
  2 26  1  0
  3 27  1  0
  5 28  1  0
  7 29  1  0
  8 30  1  0
  9 31  1  0
 10 32  1  6
 11 33  1  0
 11 34  1  0
 12 35  1  0
 13 36  1  0
 13 37  1  0
 14 38  1  0
 14 39  1  0
 15 40  1  0
 16 41  1  0
 16 42  1  0
 17 43  1  0
 17 44  1  0
 18 45  1  0
 18 46  1  0
 19 47  1  0
 19 48  1  0
 20 49  1  0
 20 50  1  0
 20 51  1  0
 21 52  1  0
 22 53  1  0
 22 54  1  0
 23 55  1  0
 23 56  1  0
 24 57  1  0
 24 58  1  0
 25 59  1  0
 25 60  1  0
M  END
>  <PDBID>  (1) 
3DZY

>  <PDB ID>  (1) 
3DZY

>  <Generic Name>  (1) 
Rosiglitazone

>  <Brand Name>  (1) 
Apo-rosiglitazone#Avandamet#Avandaryl#Avandia#Avandia 2mg#Avandia 4mg#Avandia 8mg#Dom-rosiglitazone#Mylan-rosiglitazone#PHL-rosiglitazone#PMS-rosiglitazone#PMS-rosiglitazone-metformin#Teva-rosiglitazone#Blutab#DH-Rosidia#Diaben#Diaglinex#Gaudil#Gliximina#Naidi#Rogelin#Roglit#Romerol#Rosit#Rosix#Rossini#Sensulin#Sheng Ao#Sheng Min

>  <DrugBank ID>  (1) 
DB00412

>  <ATC Codes>  (1) 
A10BD03#A10BG02#A10BD04

>  <Ligand ID>  (1) 
BRL,RGZ

>  <Target Name>  (1) 
Peroxisome proliferator-activated receptor gamma

>  <UniProt ID>  (1) 
P37231

>  <PDB ID.1>  (1) 
3DZY

>  <Seq. Identity>  (1) 
97%

$$$$
