PDB_DB00877_03
     RDKit          3D

162165  0  0  0  0  0  0  0  0999 V2000
    2.2829   -1.9581    0.0724 C   0  0  0  0  0  0  0  0  0  0  0  0
    3.2462   -1.1446   -0.5000 O   0  0  0  0  0  0  0  0  0  0  0  0
    1.0407   -1.8417   -0.5099 O   0  0  0  0  0  0  0  0  0  0  0  0
    2.8173   -3.3720    0.0712 C   0  0  2  0  0  0  0  0  0  0  0  0
    3.6068   -3.7058   -1.1736 C   0  0  0  0  0  0  0  0  0  0  0  0
    4.3552   -4.9923   -0.8601 C   0  0  0  0  0  0  0  0  0  0  0  0
    4.1327   -5.4777    0.5336 C   0  0  0  0  0  0  0  0  0  0  0  0
    2.7218   -5.4872    1.0042 C   0  0  0  0  0  0  0  0  0  0  0  0
    1.9289   -4.3779    0.4994 N   0  0  0  0  0  0  0  0  0  0  0  0
    0.9282   -4.8628   -0.3692 C   0  0  2  0  0  0  0  0  0  0  0  0
    0.7827   -4.2192   -1.5805 O   0  0  0  0  0  0  0  0  0  0  0  0
   -0.3718   -4.9306    0.4123 C   0  0  0  0  0  0  0  0  0  0  0  0
   -0.3525   -6.0601    1.2495 O   0  0  0  0  0  0  0  0  0  0  0  0
   -1.5870   -4.9834   -0.4588 C   0  0  1  0  0  0  0  0  0  0  0  0
   -2.6617   -4.3154    0.1807 O   0  0  0  0  0  0  0  0  0  0  0  0
   -1.4250   -4.2886   -1.6622 O   0  0  0  0  0  0  0  0  0  0  0  0
   -2.0007   -6.3932   -0.8253 C   0  0  1  0  0  0  0  0  0  0  0  0
   -3.2513   -6.8488   -0.1278 C   0  0  0  0  0  0  0  0  0  0  0  0
   -4.3737   -5.8407   -0.1599 C   0  0  0  0  0  0  0  0  0  0  0  0
   -3.8388   -4.5054   -0.5469 C   0  0  1  0  0  0  0  0  0  0  0  0
   -4.7853   -3.3647   -0.4851 C   0  0  0  0  0  0  0  0  0  0  0  0
   -5.9028   -3.4620    0.4881 C   0  0  2  0  0  0  0  0  0  0  0  0
   -7.1210   -3.8041   -0.1268 O   0  0  0  0  0  0  0  0  0  0  0  0
   -6.1608   -2.0397    1.0323 C   0  0  0  0  0  0  0  0  0  0  0  0
   -6.2573   -1.0870   -0.1535 C   0  0  0  0  0  0  0  0  0  0  0  0
   -7.1678    0.1014    0.1794 C   0  0  0  0  0  0  0  0  0  0  0  0
   -6.5866    1.3346   -0.4349 C   0  0  0  0  0  0  0  0  0  0  0  0
   -6.9974    2.5341    0.3869 C   0  0  0  0  0  0  0  0  0  0  0  0
   -5.7697    3.3092    0.8634 C   0  0  0  0  0  0  0  0  0  0  0  0
   -5.3939    4.2517   -0.2868 C   0  0  2  0  0  0  0  0  0  0  0  0
   -4.2908    5.1444    0.1901 C   0  0  0  0  0  0  0  0  0  0  0  0
   -3.3502    5.5953   -0.9054 C   0  0  2  0  0  0  0  0  0  0  0  0
   -2.5297    6.7191   -0.3539 C   0  0  0  0  0  0  0  0  0  0  0  0
   -2.1568    7.6771   -1.2612 O   0  0  0  0  0  0  0  0  0  0  0  0
   -1.2866    6.1503    0.3437 C   0  0  2  0  0  0  0  0  0  0  0  0
   -1.0066    6.9680    1.4476 O   0  0  0  0  0  0  0  0  0  0  0  0
   -0.1185    6.0303   -0.5809 C   0  0  2  0  0  0  0  0  0  0  0  0
   -0.4149    6.5193   -1.8354 O   0  0  0  0  0  0  0  0  0  0  0  0
    0.4291    4.6001   -0.6707 C   0  0  0  0  0  0  0  0  0  0  0  0
    1.6463    4.4845    0.1792 C   0  0  0  0  0  0  0  0  0  0  0  0
    1.8495    3.1765    0.8632 C   0  0  2  0  0  0  0  0  0  0  0  0
    2.3331    2.0795   -0.0725 C   0  0  0  0  0  0  0  0  0  0  0  0
    3.5623    2.4619   -0.6052 O   0  0  0  0  0  0  0  0  0  0  0  0
    2.4371    0.7552    0.6713 C   0  0  0  0  0  0  0  0  0  0  0  0
    3.6096   -0.0490    0.2346 C   0  0  1  0  0  0  0  0  0  0  0  0
    4.5537   -0.4209    1.3566 C   0  0  1  0  0  0  0  0  0  0  0  0
    5.8053   -1.0389    0.8532 C   0  0  0  0  0  0  0  0  0  0  0  0
    6.6497   -0.2552   -0.0737 C   0  0  1  0  0  0  0  0  0  0  0  0
    7.2068    1.0294    0.4086 C   0  0  0  0  0  0  0  0  0  0  0  0
    8.6112    1.2954   -0.1241 C   0  0  1  0  0  0  0  0  0  0  0  0
    9.5814    0.7360    0.6839 O   0  0  0  0  0  0  0  0  0  0  0  0
    8.7265    0.9015   -1.5586 C   0  0  2  0  0  0  0  0  0  0  0  0
    7.7380    1.5547   -2.2908 O   0  0  0  0  0  0  0  0  0  0  0  0
    8.5055   -0.5867   -1.7109 C   0  0  0  0  0  0  0  0  0  0  0  0
    7.8192   -1.1636   -0.4857 C   0  0  0  0  0  0  0  0  0  0  0  0
   -2.0959   -6.5885   -2.3162 C   0  0  0  0  0  0  0  0  0  0  0  0
   -5.0655   -1.6175    1.9575 C   0  0  0  0  0  0  0  0  0  0  0  0
   -6.6087    5.1199   -0.5336 C   0  0  0  0  0  0  0  0  0  0  0  0
   -4.0897    5.9855   -2.1684 C   0  0  0  0  0  0  0  0  0  0  0  0
    0.8819    4.4041   -2.1227 C   0  0  0  0  0  0  0  0  0  0  0  0
    0.7123    2.7173    1.7227 C   0  0  0  0  0  0  0  0  0  0  0  0
    4.8217    0.6601    2.3340 C   0  0  0  0  0  0  0  0  0  0  0  0
   -7.7408   -4.8075    0.5908 C   0  0  0  0  0  0  0  0  0  0  0  0
   -1.1170    6.2618    2.6395 C   0  0  0  0  0  0  0  0  0  0  0  0
   10.4033    1.7165    1.2830 C   0  0  0  0  0  0  0  0  0  0  0  0
   -1.5030   -3.3090   -1.5348 H   0  0  0  0  0  0  0  0  0  0  0  0
   -1.0240    5.9551   -2.3648 H   0  0  0  0  0  0  0  0  0  0  0  0
    8.0428    2.4778   -2.5644 H   0  0  0  0  0  0  0  0  0  0  0  0
    2.1589   -1.5778    1.1298 H   0  0  0  0  0  0  0  0  0  0  0  0
    0.2923   -1.9793    0.1443 H   0  0  0  0  0  0  0  0  0  0  0  0
    3.6198   -3.3410    0.8815 H   0  0  0  0  0  0  0  0  0  0  0  0
    4.2874   -2.8608   -1.4037 H   0  0  0  0  0  0  0  0  0  0  0  0
    3.0228   -3.8841   -2.0689 H   0  0  0  0  0  0  0  0  0  0  0  0
    4.2012   -5.7560   -1.6442 H   0  0  0  0  0  0  0  0  0  0  0  0
    5.4521   -4.7272   -0.9344 H   0  0  0  0  0  0  0  0  0  0  0  0
    4.4888   -6.5506    0.5533 H   0  0  0  0  0  0  0  0  0  0  0  0
    4.8292   -4.9640    1.2600 H   0  0  0  0  0  0  0  0  0  0  0  0
    2.7312   -5.4562    2.1144 H   0  0  0  0  0  0  0  0  0  0  0  0
    2.2396   -6.4685    0.7483 H   0  0  0  0  0  0  0  0  0  0  0  0
    1.1814   -5.9308   -0.6372 H   0  0  0  0  0  0  0  0  0  0  0  0
    0.7410   -4.8254   -2.3626 H   0  0  0  0  0  0  0  0  0  0  0  0
   -0.4457   -4.0556    1.1007 H   0  0  0  0  0  0  0  0  0  0  0  0
   -0.7213   -5.8623    2.1420 H   0  0  0  0  0  0  0  0  0  0  0  0
   -1.1858   -7.0928   -0.4713 H   0  0  0  0  0  0  0  0  0  0  0  0
   -3.6141   -7.7564   -0.6547 H   0  0  0  0  0  0  0  0  0  0  0  0
   -2.9907   -7.1783    0.9005 H   0  0  0  0  0  0  0  0  0  0  0  0
   -5.1982   -6.1360   -0.8518 H   0  0  0  0  0  0  0  0  0  0  0  0
   -4.7544   -5.7780    0.8803 H   0  0  0  0  0  0  0  0  0  0  0  0
   -3.5369   -4.5987   -1.6361 H   0  0  0  0  0  0  0  0  0  0  0  0
   -5.2480   -3.1380   -1.4904 H   0  0  0  0  0  0  0  0  0  0  0  0
   -4.1862   -2.4511   -0.2512 H   0  0  0  0  0  0  0  0  0  0  0  0
   -5.6889   -4.0583    1.3865 H   0  0  0  0  0  0  0  0  0  0  0  0
   -7.1205   -1.9854    1.5610 H   0  0  0  0  0  0  0  0  0  0  0  0
   -5.2388   -0.7203   -0.4257 H   0  0  0  0  0  0  0  0  0  0  0  0
   -6.7596   -1.6008   -1.0179 H   0  0  0  0  0  0  0  0  0  0  0  0
   -7.2556    0.1601    1.2930 H   0  0  0  0  0  0  0  0  0  0  0  0
   -8.1990   -0.0675   -0.2106 H   0  0  0  0  0  0  0  0  0  0  0  0
   -6.9357    1.4248   -1.4950 H   0  0  0  0  0  0  0  0  0  0  0  0
   -5.4620    1.2792   -0.4197 H   0  0  0  0  0  0  0  0  0  0  0  0
   -7.6384    3.1805   -0.2722 H   0  0  0  0  0  0  0  0  0  0  0  0
   -7.6221    2.2159    1.2325 H   0  0  0  0  0  0  0  0  0  0  0  0
   -5.9849    3.9035    1.7726 H   0  0  0  0  0  0  0  0  0  0  0  0
   -4.9600    2.5788    1.0464 H   0  0  0  0  0  0  0  0  0  0  0  0
   -5.1361    3.6022   -1.1303 H   0  0  0  0  0  0  0  0  0  0  0  0
   -3.6585    4.5280    0.8932 H   0  0  0  0  0  0  0  0  0  0  0  0
   -4.7034    5.9797    0.7709 H   0  0  0  0  0  0  0  0  0  0  0  0
   -2.7082    4.7317   -1.1663 H   0  0  0  0  0  0  0  0  0  0  0  0
   -3.1269    7.2495    0.4450 H   0  0  0  0  0  0  0  0  0  0  0  0
   -2.6724    7.7063   -2.0811 H   0  0  0  0  0  0  0  0  0  0  0  0
   -1.5270    5.1455    0.7413 H   0  0  0  0  0  0  0  0  0  0  0  0
    0.6943    6.6906   -0.1690 H   0  0  0  0  0  0  0  0  0  0  0  0
   -0.3922    3.9215   -0.4396 H   0  0  0  0  0  0  0  0  0  0  0  0
    1.6170    5.2724    0.9890 H   0  0  0  0  0  0  0  0  0  0  0  0
    2.5907    4.6825   -0.4058 H   0  0  0  0  0  0  0  0  0  0  0  0
    2.7225    3.3335    1.5687 H   0  0  0  0  0  0  0  0  0  0  0  0
    1.6138    2.0225   -0.9061 H   0  0  0  0  0  0  0  0  0  0  0  0
    3.9799    3.1853   -0.0437 H   0  0  0  0  0  0  0  0  0  0  0  0
    1.4872    0.2249    0.4575 H   0  0  0  0  0  0  0  0  0  0  0  0
    2.4140    0.9310    1.7845 H   0  0  0  0  0  0  0  0  0  0  0  0
    4.2136    0.6060   -0.4552 H   0  0  0  0  0  0  0  0  0  0  0  0
    4.0564   -1.2525    1.9756 H   0  0  0  0  0  0  0  0  0  0  0  0
    5.5760   -2.0574    0.4380 H   0  0  0  0  0  0  0  0  0  0  0  0
    6.4566   -1.2715    1.7544 H   0  0  0  0  0  0  0  0  0  0  0  0
    6.1299   -0.0497   -1.0556 H   0  0  0  0  0  0  0  0  0  0  0  0
    6.5905    1.8965    0.0960 H   0  0  0  0  0  0  0  0  0  0  0  0
    7.3210    1.0996    1.5149 H   0  0  0  0  0  0  0  0  0  0  0  0
    8.7574    2.4007   -0.0715 H   0  0  0  0  0  0  0  0  0  0  0  0
    9.7530    1.1930   -1.9188 H   0  0  0  0  0  0  0  0  0  0  0  0
    7.8614   -0.8189   -2.5871 H   0  0  0  0  0  0  0  0  0  0  0  0
    9.4792   -1.0701   -1.8053 H   0  0  0  0  0  0  0  0  0  0  0  0
    7.3862   -2.1269   -0.7721 H   0  0  0  0  0  0  0  0  0  0  0  0
    8.5062   -1.3168    0.3566 H   0  0  0  0  0  0  0  0  0  0  0  0
   -1.7594   -5.7203   -2.9015 H   0  0  0  0  0  0  0  0  0  0  0  0
   -1.4798   -7.4579   -2.6756 H   0  0  0  0  0  0  0  0  0  0  0  0
   -3.1425   -6.8433   -2.6428 H   0  0  0  0  0  0  0  0  0  0  0  0
   -4.5939   -2.5337    2.3895 H   0  0  0  0  0  0  0  0  0  0  0  0
   -4.3126   -0.9683    1.4560 H   0  0  0  0  0  0  0  0  0  0  0  0
   -5.4888   -1.0375    2.7810 H   0  0  0  0  0  0  0  0  0  0  0  0
   -6.3316    6.2055   -0.6354 H   0  0  0  0  0  0  0  0  0  0  0  0
   -7.3099    5.1027    0.3461 H   0  0  0  0  0  0  0  0  0  0  0  0
   -7.1607    4.7844   -1.4369 H   0  0  0  0  0  0  0  0  0  0  0  0
   -4.9034    5.2452   -2.3110 H   0  0  0  0  0  0  0  0  0  0  0  0
   -3.4222    5.8931   -3.0420 H   0  0  0  0  0  0  0  0  0  0  0  0
   -4.5770    6.9770   -2.0939 H   0  0  0  0  0  0  0  0  0  0  0  0
    0.9143    5.3833   -2.6410 H   0  0  0  0  0  0  0  0  0  0  0  0
    1.9333    4.0214   -2.1766 H   0  0  0  0  0  0  0  0  0  0  0  0
    0.1877    3.7450   -2.6652 H   0  0  0  0  0  0  0  0  0  0  0  0
    0.9110    2.8965    2.8087 H   0  0  0  0  0  0  0  0  0  0  0  0
    0.4635    1.6350    1.5449 H   0  0  0  0  0  0  0  0  0  0  0  0
   -0.1821    3.3161    1.4812 H   0  0  0  0  0  0  0  0  0  0  0  0
    5.0314    1.6133    1.8537 H   0  0  0  0  0  0  0  0  0  0  0  0
    3.9729    0.7786    3.0838 H   0  0  0  0  0  0  0  0  0  0  0  0
    5.6578    0.3072    2.9905 H   0  0  0  0  0  0  0  0  0  0  0  0
   -8.6967   -5.0520    0.0792 H   0  0  0  0  0  0  0  0  0  0  0  0
   -7.9169   -4.5346    1.6659 H   0  0  0  0  0  0  0  0  0  0  0  0
   -7.1463   -5.7410    0.6215 H   0  0  0  0  0  0  0  0  0  0  0  0
   -2.1795    5.8945    2.6751 H   0  0  0  0  0  0  0  0  0  0  0  0
   -0.4724    5.3685    2.6763 H   0  0  0  0  0  0  0  0  0  0  0  0
   -0.9945    6.8948    3.5229 H   0  0  0  0  0  0  0  0  0  0  0  0
   10.8890    2.2809    0.4393 H   0  0  0  0  0  0  0  0  0  0  0  0
   11.1472    1.2324    1.9140 H   0  0  0  0  0  0  0  0  0  0  0  0
    9.8150    2.4251    1.8777 H   0  0  0  0  0  0  0  0  0  0  0  0
  1  2  1  0
  1  3  1  0
  1  4  1  0
  4  5  1  0
  5  6  1  0
  6  7  1  0
  7  8  1  0
  4  9  1  0
  8  9  1  0
  9 10  1  0
 10 11  1  0
 10 12  1  0
 12 13  1  0
 12 14  1  0
 14 15  1  0
 14 16  1  6
 14 17  1  0
 17 18  1  0
 18 19  1  0
 15 20  1  0
 19 20  1  0
 20 21  1  0
 21 22  1  0
 22 23  1  0
 22 24  1  0
 24 25  1  0
 25 26  1  0
 26 27  1  0
 27 28  1  0
 28 29  1  0
 29 30  1  0
 30 31  1  0
 31 32  1  0
 32 33  1  0
 33 34  1  0
 33 35  1  0
 35 36  1  0
 35 37  1  0
 37 38  1  0
 37 39  1  0
 39 40  1  0
 40 41  1  0
 41 42  1  0
 42 43  1  0
 42 44  1  0
  2 45  1  0
 44 45  1  0
 45 46  1  0
 46 47  1  0
 47 48  1  0
 48 49  1  0
 49 50  1  0
 50 51  1  0
 50 52  1  0
 52 53  1  0
 52 54  1  0
 48 55  1  0
 54 55  1  0
 17 56  1  0
 24 57  1  0
 30 58  1  0
 32 59  1  0
 39 60  1  0
 41 61  1  0
 46 62  1  0
 23 63  1  0
 36 64  1  0
 51 65  1  0
 16 66  1  0
 38 67  1  0
 53 68  1  0
  1 69  1  0
  3 70  1  0
  4 71  1  1
  5 72  1  0
  5 73  1  0
  6 74  1  0
  6 75  1  0
  7 76  1  0
  7 77  1  0
  8 78  1  0
  8 79  1  0
 10 80  1  6
 11 81  1  0
 12 82  1  0
 13 83  1  0
 17 84  1  1
 18 85  1  0
 18 86  1  0
 19 87  1  0
 19 88  1  0
 20 89  1  6
 21 90  1  0
 21 91  1  0
 22 92  1  1
 24 93  1  0
 25 94  1  0
 25 95  1  0
 26 96  1  0
 26 97  1  0
 27 98  1  0
 27 99  1  0
 28100  1  0
 28101  1  0
 29102  1  0
 29103  1  0
 30104  1  6
 31105  1  0
 31106  1  0
 32107  1  6
 33108  1  0
 34109  1  0
 35110  1  1
 37111  1  1
 39112  1  0
 40113  1  0
 40114  1  0
 41115  1  1
 42116  1  0
 43117  1  0
 44118  1  0
 44119  1  0
 45120  1  6
 46121  1  1
 47122  1  0
 47123  1  0
 48124  1  6
 49125  1  0
 49126  1  0
 50127  1  6
 52128  1  6
 54129  1  0
 54130  1  0
 55131  1  0
 55132  1  0
 56133  1  0
 56134  1  0
 56135  1  0
 57136  1  0
 57137  1  0
 57138  1  0
 58139  1  0
 58140  1  0
 58141  1  0
 59142  1  0
 59143  1  0
 59144  1  0
 60145  1  0
 60146  1  0
 60147  1  0
 61148  1  0
 61149  1  0
 61150  1  0
 62151  1  0
 62152  1  0
 62153  1  0
 63154  1  0
 63155  1  0
 63156  1  0
 64157  1  0
 64158  1  0
 64159  1  0
 65160  1  0
 65161  1  0
 65162  1  0
M  END
>  <PDBID>  (1) 
1FKB

>  <PDB ID>  (1) 
1FKB

>  <Generic Name>  (1) 
Sirolimus

>  <Brand Name>  (1) 
Gd-sirolimus#Rapamune#Rapamune Oral Solution#Sirolimus

>  <DrugBank ID>  (1) 
DB00877

>  <ATC Codes>  (1) 
S01XA23#L04AA10

>  <Ligand ID>  (1) 
RAP

>  <Target Name>  (1) 
Peptidyl-prolyl cis-trans isomerase FKBP1A

>  <UniProt ID>  (1) 
P62942

>  <PDB ID.1>  (1) 
1FKB

>  <Seq. Identity>  (1) 
100%

$$$$
