PDB_DB00367_05
     RDKit          3D

118124  0  0  0  0  0  0  0  0999 V2000
    2.9697   -1.5931   -0.8993 C   0  0  0  0  0  0  0  0  0  0  0  0
    4.3182   -1.9066   -0.2848 C   0  0  0  0  0  0  0  0  0  0  0  0
    5.1150   -0.5991   -0.3456 C   0  0  1  0  0  0  0  0  0  0  0  0
    4.4285    0.3803    0.5368 C   0  0  0  0  0  0  0  0  0  0  0  0
    2.9711    0.5453    0.2970 C   0  0  1  0  0  0  0  0  0  0  0  0
    2.6404    1.4999   -0.8283 C   0  0  0  0  0  0  0  0  0  0  0  0
    1.1990    1.9771   -0.6943 C   0  0  0  0  0  0  0  0  0  0  0  0
    0.3512    0.8996    0.0038 C   0  0  2  0  0  0  0  0  0  0  0  0
    0.8647   -0.4171   -0.4905 C   0  0  1  0  0  0  0  0  0  0  0  0
    2.2199   -0.7400    0.1049 C   0  0  1  0  0  0  0  0  0  0  0  0
   -0.0226   -1.5790   -0.3197 C   0  0  0  0  0  0  0  0  0  0  0  0
   -1.4959   -1.2808   -0.5698 C   0  0  0  0  0  0  0  0  0  0  0  0
   -1.8554   -0.1047    0.2598 C   0  0  1  0  0  0  0  0  0  0  0  0
   -1.0577    1.0309   -0.3526 C   0  0  1  0  0  0  0  0  0  0  0  0
   -1.7954    2.2351    0.0909 C   0  0  0  0  0  0  0  0  0  0  0  0
   -3.2032    1.8425   -0.3270 C   0  0  0  0  0  0  0  0  0  0  0  0
   -3.2522    0.3963    0.1264 C   0  0  1  0  0  0  0  0  0  0  0  0
   -1.5319   -0.3336    1.6936 C   0  0  0  0  0  0  0  0  0  0  0  0
   -2.2761   -1.5083    2.2313 C   0  0  0  0  0  0  0  0  0  0  0  0
   -4.1168   -0.4480   -0.7709 C   0  0  0  0  0  0  0  0  0  0  0  0
   -5.4979    0.1774   -0.8110 C   0  0  0  0  0  0  0  0  0  0  0  0
    6.3975   -0.8399    0.1910 O   0  0  0  0  0  0  0  0  0  0  0  0
   -3.8736    0.4287    1.3782 O   0  0  0  0  0  0  0  0  0  0  0  0
    2.9697   -1.5931   -0.8993 C   0  0  0  0  0  0  0  0  0  0  0  0
    4.3182   -1.9066   -0.2848 C   0  0  0  0  0  0  0  0  0  0  0  0
    5.1150   -0.5991   -0.3456 C   0  0  1  0  0  0  0  0  0  0  0  0
    4.4285    0.3803    0.5368 C   0  0  0  0  0  0  0  0  0  0  0  0
    2.9711    0.5453    0.2970 C   0  0  1  0  0  0  0  0  0  0  0  0
    2.6404    1.4999   -0.8283 C   0  0  0  0  0  0  0  0  0  0  0  0
    1.1990    1.9771   -0.6943 C   0  0  0  0  0  0  0  0  0  0  0  0
    0.3512    0.8996    0.0038 C   0  0  2  0  0  0  0  0  0  0  0  0
    0.8647   -0.4171   -0.4905 C   0  0  1  0  0  0  0  0  0  0  0  0
    2.2199   -0.7400    0.1049 C   0  0  1  0  0  0  0  0  0  0  0  0
   -0.0226   -1.5790   -0.3197 C   0  0  0  0  0  0  0  0  0  0  0  0
   -1.4959   -1.2808   -0.5698 C   0  0  0  0  0  0  0  0  0  0  0  0
   -1.8554   -0.1047    0.2598 C   0  0  1  0  0  0  0  0  0  0  0  0
   -1.0577    1.0309   -0.3526 C   0  0  1  0  0  0  0  0  0  0  0  0
   -1.7954    2.2351    0.0909 C   0  0  0  0  0  0  0  0  0  0  0  0
   -3.2032    1.8425   -0.3270 C   0  0  0  0  0  0  0  0  0  0  0  0
   -3.2522    0.3963    0.1264 C   0  0  1  0  0  0  0  0  0  0  0  0
   -1.5319   -0.3336    1.6936 C   0  0  0  0  0  0  0  0  0  0  0  0
   -2.2761   -1.5083    2.2313 C   0  0  0  0  0  0  0  0  0  0  0  0
   -4.1168   -0.4480   -0.7709 C   0  0  0  0  0  0  0  0  0  0  0  0
   -5.4979    0.1774   -0.8110 C   0  0  0  0  0  0  0  0  0  0  0  0
    6.3975   -0.8399    0.1910 O   0  0  0  0  0  0  0  0  0  0  0  0
   -3.8736    0.4287    1.3782 O   0  0  0  0  0  0  0  0  0  0  0  0
    3.1796   -1.0178   -1.8385 H   0  0  0  0  0  0  0  0  0  0  0  0
    2.4344   -2.5328   -1.1332 H   0  0  0  0  0  0  0  0  0  0  0  0
    4.1656   -2.1288    0.7933 H   0  0  0  0  0  0  0  0  0  0  0  0
    4.8470   -2.7180   -0.8206 H   0  0  0  0  0  0  0  0  0  0  0  0
    5.1573   -0.3101   -1.3997 H   0  0  0  0  0  0  0  0  0  0  0  0
    4.5816    0.0380    1.6003 H   0  0  0  0  0  0  0  0  0  0  0  0
    4.9130    1.3752    0.4169 H   0  0  0  0  0  0  0  0  0  0  0  0
    2.5440    1.0216    1.2292 H   0  0  0  0  0  0  0  0  0  0  0  0
    3.3371    2.3726   -0.7047 H   0  0  0  0  0  0  0  0  0  0  0  0
    2.7813    1.0785   -1.8217 H   0  0  0  0  0  0  0  0  0  0  0  0
    0.7751    2.2448   -1.6785 H   0  0  0  0  0  0  0  0  0  0  0  0
    1.2254    2.8916   -0.0664 H   0  0  0  0  0  0  0  0  0  0  0  0
    0.5105    1.0757    1.0824 H   0  0  0  0  0  0  0  0  0  0  0  0
    1.0522   -0.2818   -1.5973 H   0  0  0  0  0  0  0  0  0  0  0  0
    2.1497   -1.3347    1.0333 H   0  0  0  0  0  0  0  0  0  0  0  0
    0.2479   -2.3475   -1.0963 H   0  0  0  0  0  0  0  0  0  0  0  0
    0.1091   -2.1230    0.6542 H   0  0  0  0  0  0  0  0  0  0  0  0
   -2.0961   -2.1699   -0.4665 H   0  0  0  0  0  0  0  0  0  0  0  0
   -1.5471   -0.9780   -1.6566 H   0  0  0  0  0  0  0  0  0  0  0  0
   -1.1539    0.9704   -1.4766 H   0  0  0  0  0  0  0  0  0  0  0  0
   -1.7343    2.4451    1.1595 H   0  0  0  0  0  0  0  0  0  0  0  0
   -1.4379    3.1136   -0.5076 H   0  0  0  0  0  0  0  0  0  0  0  0
   -3.9662    2.4680    0.1702 H   0  0  0  0  0  0  0  0  0  0  0  0
   -3.2368    1.9299   -1.4323 H   0  0  0  0  0  0  0  0  0  0  0  0
   -1.8285    0.5681    2.2836 H   0  0  0  0  0  0  0  0  0  0  0  0
   -0.4488   -0.5305    1.8798 H   0  0  0  0  0  0  0  0  0  0  0  0
   -1.6269   -2.1536    2.8954 H   0  0  0  0  0  0  0  0  0  0  0  0
   -2.6908   -2.1885    1.4807 H   0  0  0  0  0  0  0  0  0  0  0  0
   -3.1243   -1.2116    2.9106 H   0  0  0  0  0  0  0  0  0  0  0  0
   -3.7129   -0.5787   -1.7844 H   0  0  0  0  0  0  0  0  0  0  0  0
   -4.2302   -1.4346   -0.2796 H   0  0  0  0  0  0  0  0  0  0  0  0
   -5.7659    0.5038   -1.8491 H   0  0  0  0  0  0  0  0  0  0  0  0
   -5.5706    1.0705   -0.1439 H   0  0  0  0  0  0  0  0  0  0  0  0
   -6.2873   -0.5187   -0.4617 H   0  0  0  0  0  0  0  0  0  0  0  0
    6.6921    0.0354    0.5601 H   0  0  0  0  0  0  0  0  0  0  0  0
   -3.7405    1.2931    1.8453 H   0  0  0  0  0  0  0  0  0  0  0  0
    3.1796   -1.0178   -1.8385 H   0  0  0  0  0  0  0  0  0  0  0  0
    2.4344   -2.5328   -1.1332 H   0  0  0  0  0  0  0  0  0  0  0  0
    4.1656   -2.1288    0.7933 H   0  0  0  0  0  0  0  0  0  0  0  0
    4.8470   -2.7180   -0.8206 H   0  0  0  0  0  0  0  0  0  0  0  0
    5.1573   -0.3101   -1.3997 H   0  0  0  0  0  0  0  0  0  0  0  0
    4.5816    0.0380    1.6003 H   0  0  0  0  0  0  0  0  0  0  0  0
    4.9130    1.3752    0.4169 H   0  0  0  0  0  0  0  0  0  0  0  0
    2.5440    1.0216    1.2292 H   0  0  0  0  0  0  0  0  0  0  0  0
    3.3371    2.3726   -0.7047 H   0  0  0  0  0  0  0  0  0  0  0  0
    2.7813    1.0785   -1.8217 H   0  0  0  0  0  0  0  0  0  0  0  0
    0.7751    2.2448   -1.6785 H   0  0  0  0  0  0  0  0  0  0  0  0
    1.2254    2.8916   -0.0664 H   0  0  0  0  0  0  0  0  0  0  0  0
    0.5105    1.0757    1.0824 H   0  0  0  0  0  0  0  0  0  0  0  0
    1.0522   -0.2818   -1.5973 H   0  0  0  0  0  0  0  0  0  0  0  0
    2.1497   -1.3347    1.0333 H   0  0  0  0  0  0  0  0  0  0  0  0
    0.2479   -2.3475   -1.0963 H   0  0  0  0  0  0  0  0  0  0  0  0
    0.1091   -2.1230    0.6542 H   0  0  0  0  0  0  0  0  0  0  0  0
   -2.0961   -2.1699   -0.4665 H   0  0  0  0  0  0  0  0  0  0  0  0
   -1.5471   -0.9780   -1.6566 H   0  0  0  0  0  0  0  0  0  0  0  0
   -1.1539    0.9704   -1.4766 H   0  0  0  0  0  0  0  0  0  0  0  0
   -1.7343    2.4451    1.1595 H   0  0  0  0  0  0  0  0  0  0  0  0
   -1.4379    3.1136   -0.5076 H   0  0  0  0  0  0  0  0  0  0  0  0
   -3.9662    2.4680    0.1702 H   0  0  0  0  0  0  0  0  0  0  0  0
   -3.2368    1.9299   -1.4323 H   0  0  0  0  0  0  0  0  0  0  0  0
   -1.8285    0.5681    2.2836 H   0  0  0  0  0  0  0  0  0  0  0  0
   -0.4488   -0.5305    1.8798 H   0  0  0  0  0  0  0  0  0  0  0  0
   -1.6269   -2.1536    2.8954 H   0  0  0  0  0  0  0  0  0  0  0  0
   -2.6908   -2.1885    1.4807 H   0  0  0  0  0  0  0  0  0  0  0  0
   -3.1243   -1.2116    2.9106 H   0  0  0  0  0  0  0  0  0  0  0  0
   -3.7129   -0.5787   -1.7844 H   0  0  0  0  0  0  0  0  0  0  0  0
   -4.2302   -1.4346   -0.2796 H   0  0  0  0  0  0  0  0  0  0  0  0
   -5.7659    0.5038   -1.8491 H   0  0  0  0  0  0  0  0  0  0  0  0
   -5.5706    1.0705   -0.1439 H   0  0  0  0  0  0  0  0  0  0  0  0
   -6.2873   -0.5187   -0.4617 H   0  0  0  0  0  0  0  0  0  0  0  0
    6.6921    0.0354    0.5601 H   0  0  0  0  0  0  0  0  0  0  0  0
   -3.7405    1.2931    1.8453 H   0  0  0  0  0  0  0  0  0  0  0  0
  1  2  1  0
  2  3  1  0
  3  4  1  0
  4  5  1  0
  5  6  1  0
  6  7  1  0
  7  8  1  0
  8  9  1  0
  1 10  1  0
  5 10  1  0
  9 10  1  0
  9 11  1  0
 11 12  1  0
 12 13  1  0
  8 14  1  0
 13 14  1  0
 14 15  1  0
 15 16  1  0
 13 17  1  0
 16 17  1  0
 13 18  1  1
 18 19  1  0
 17 20  1  0
 20 21  1  0
  3 22  1  0
 17 23  1  1
 24 25  1  0
 25 26  1  0
 26 27  1  0
 27 28  1  0
 28 29  1  0
 29 30  1  0
 30 31  1  0
 31 32  1  0
 24 33  1  0
 28 33  1  0
 32 33  1  0
 32 34  1  0
 34 35  1  0
 35 36  1  0
 31 37  1  0
 36 37  1  0
 37 38  1  0
 38 39  1  0
 36 40  1  0
 39 40  1  0
 36 41  1  1
 41 42  1  0
 40 43  1  0
 43 44  1  0
 26 45  1  0
 40 46  1  1
  1 47  1  0
  1 48  1  0
  2 49  1  0
  2 50  1  0
  3 51  1  6
  4 52  1  0
  4 53  1  0
  5 54  1  1
  6 55  1  0
  6 56  1  0
  7 57  1  0
  7 58  1  0
  8 59  1  1
  9 60  1  6
 10 61  1  1
 11 62  1  0
 11 63  1  0
 12 64  1  0
 12 65  1  0
 14 66  1  6
 15 67  1  0
 15 68  1  0
 16 69  1  0
 16 70  1  0
 18 71  1  0
 18 72  1  0
 19 73  1  0
 19 74  1  0
 19 75  1  0
 20 76  1  0
 20 77  1  0
 21 78  1  0
 21 79  1  0
 21 80  1  0
 22 81  1  0
 23 82  1  0
 24 83  1  0
 24 84  1  0
 25 85  1  0
 25 86  1  0
 26 87  1  6
 27 88  1  0
 27 89  1  0
 28 90  1  1
 29 91  1  0
 29 92  1  0
 30 93  1  0
 30 94  1  0
 31 95  1  1
 32 96  1  6
 33 97  1  1
 34 98  1  0
 34 99  1  0
 35100  1  0
 35101  1  0
 37102  1  6
 38103  1  0
 38104  1  0
 39105  1  0
 39106  1  0
 41107  1  0
 41108  1  0
 42109  1  0
 42110  1  0
 42111  1  0
 43112  1  0
 43113  1  0
 44114  1  0
 44115  1  0
 44116  1  0
 45117  1  0
 46118  1  0
M  END
>  <PDBID>  (1) 
3D90

>  <PDB ID>  (1) 
3D90

>  <Generic Name>  (1) 
Levonorgestrel

>  <Brand Name>  (1) 
Afirmelle#Aftera#Afterpill#Alesse 21#Alesse 28#Altavera#Alysena 21#Alysena 28#Amethia#Amethyst#Athentia Next#Aubra#Aviane#Aviane 21#Aviane 28#Aviane 28 Day#Ayuna#Backup Plan#Backup Plan Onestep#Camrese#Camrese Lo#Chateal#Climara Pro#Contingency#Contingency One#Daysee#Delyla#Econtra Ez#Enpresse#Esme 21#Esme 28#Falessa#Fallback Solo#Falmina#Her Style#Indayo#Introvale#Jaydess#Jolessa#Kurvelo#Kyleena#Larissia#Lessina#Levonest#Levonorgestrel#Levonorgestrel Emergency Contraceptive#Levonorgestrel Tablets, 0.75mg#Levonorgestrel and Ethinyl Estradiol#Levonorgestrel and Ethinyl Estradiol Tablets, 0.1 Mg/0.02 mg#Levonorgestrel and Ethinyl Estradiol and Ethinyl Estradiol#Levora#Liletta#Lillow#Lutera#Lutera 21#Lutera 28#Marlissa#Min-ovral 21#Min-ovral 21 Tab#Min-ovral 28#Min-ovral 28 Tab#Mirena#Morning After#My Way#Myzilra#Next Choice#Next Choice One Dose#Norlevo#Norplant System Kit 36mg/implant#Opcicon One-step#Option 2#Orsythia#Ovima 21#Ovima 28#Plan B#Plan B One-step#Portia#Portia 21#Portia 28#Preven Emergency Contraceptive#Preven Tablets#Quasense#React#Seasonale#Seasonique#Setlakin#Skyla#Sronyx#Take Action#Teva-levonorgestrel#Triphasil 21#Triphasil 21 Tab#Triphasil 28#Triphasil 28 Tab#Triquilar 21#Triquilar 28#Trivora#Vienva Tm#Jadelle#Levonelle#Medonor#Microlut#Microval#Neogest#Norgeston#Norplant#Postinor

>  <DrugBank ID>  (1) 
DB00367

>  <ATC Codes>  (1) 
G03FA11#G03FB09#G03AC03#G03AB03#G03AA07#G03AD01

>  <Ligand ID>  (1) 
NOG

>  <Target Name>  (1) 
Estrogen receptor

>  <UniProt ID>  (1) 
P03372

>  <PDB ID.1>  (1) 
3D90

>  <Seq. Identity>  (1) 
31%

$$$$
