PDB_DB00685_05
     RDKit          3D

124132  0  0  0  0  0  0  0  0999 V2000
   -3.5035   -0.9324    0.6133 C   0  0  0  0  0  0  0  0  0  0  0  0
   -4.1082   -2.2938    0.9904 C   0  0  0  0  0  0  0  0  0  0  0  0
   -4.2875   -3.0548   -0.2926 C   0  0  0  0  0  0  0  0  0  0  0  0
   -4.3566   -4.3920   -0.0562 F   0  0  0  0  0  0  0  0  0  0  0  0
   -3.2567   -2.6327   -1.2981 C   0  0  0  0  0  0  0  0  0  0  0  0
   -1.9281   -2.2393   -0.6472 C   0  0  0  0  0  0  0  0  0  0  0  0
   -0.9968   -2.1795   -1.6292 F   0  0  0  0  0  0  0  0  0  0  0  0
   -2.0402   -1.0507    0.2413 C   0  0  0  0  0  0  0  0  0  0  0  0
   -1.6226    0.2091   -0.3225 N   0  0  0  0  0  0  0  0  0  0  0  0
   -0.2952    0.6261   -0.0292 C   0  0  0  0  0  0  0  0  0  0  0  0
    0.7579   -0.3338   -0.2104 N   0  0  0  0  0  0  0  0  0  0  0  0
    2.0586    0.2846   -0.0039 C   0  0  0  0  0  0  0  0  0  0  0  0
    2.7852   -0.5993    0.8854 N   0  0  0  0  0  0  0  0  0  0  0  0
    4.1405   -0.1615    1.1242 C   0  0  0  0  0  0  0  0  0  0  0  0
    4.9570   -0.5393   -0.0658 C   0  0  1  0  0  0  0  0  0  0  0  0
    5.6047   -1.9232   -0.0189 C   0  0  0  0  0  0  0  0  0  0  0  0
    6.7516   -2.0962   -0.8743 N   0  0  0  0  0  0  0  0  0  0  0  0
    4.2658   -1.7301   -0.6174 C   0  0  1  0  0  0  0  0  0  0  0  0
    3.0064   -1.8936    0.2093 C   0  0  0  0  0  0  0  0  0  0  0  0
    1.9819    1.6835    0.5156 C   0  0  0  0  0  0  0  0  0  0  0  0
    1.1282    2.5479   -0.3649 C   0  0  0  0  0  0  0  0  0  0  0  0
    0.0424    1.7601   -1.0127 C   0  0  0  0  0  0  0  0  0  0  0  0
   -1.2004    2.5968   -1.1985 C   0  0  0  0  0  0  0  0  0  0  0  0
   -1.9013    2.6049    0.1389 C   0  0  0  0  0  0  0  0  0  0  0  0
   -2.4587    1.2184    0.3795 C   0  0  0  0  0  0  0  0  0  0  0  0
   -2.9857    3.6277    0.2219 C   0  0  0  0  0  0  0  0  0  0  0  0
   -3.5486    3.5301    1.5125 O   0  0  0  0  0  0  0  0  0  0  0  0
   -2.3972    4.9016    0.1604 O   0  0  0  0  0  0  0  0  0  0  0  0
   -2.0513    2.0641   -2.1713 O   0  0  0  0  0  0  0  0  0  0  0  0
    1.5994    1.8258    1.8091 F   0  0  0  0  0  0  0  0  0  0  0  0
   -3.7260   -0.2798    1.4476 H   0  0  0  0  0  0  0  0  0  0  0  0
   -3.4739   -2.7955    1.7171 H   0  0  0  0  0  0  0  0  0  0  0  0
   -3.0293   -3.5381   -1.9185 H   0  0  0  0  0  0  0  0  0  0  0  0
    4.5159   -0.7732    1.9933 H   0  0  0  0  0  0  0  0  0  0  0  0
    4.2336    0.8811    1.4474 H   0  0  0  0  0  0  0  0  0  0  0  0
    5.3507    0.1998   -0.7725 H   0  0  0  0  0  0  0  0  0  0  0  0
    5.7370   -2.3923    0.9943 H   0  0  0  0  0  0  0  0  0  0  0  0
    7.6429   -1.8715   -0.3388 H   0  0  0  0  0  0  0  0  0  0  0  0
    6.7281   -1.5114   -1.7345 H   0  0  0  0  0  0  0  0  0  0  0  0
    4.2167   -1.9206   -1.7209 H   0  0  0  0  0  0  0  0  0  0  0  0
    2.1810   -2.1462   -0.4699 H   0  0  0  0  0  0  0  0  0  0  0  0
    3.1730   -2.6626    0.9837 H   0  0  0  0  0  0  0  0  0  0  0  0
    1.7102    3.0271   -1.1862 H   0  0  0  0  0  0  0  0  0  0  0  0
   -3.4958    1.1961    0.0844 H   0  0  0  0  0  0  0  0  0  0  0  0
   -3.4700   -0.9651    0.6225 C   0  0  0  0  0  0  0  0  0  0  0  0
   -3.9886   -2.3630    0.9866 C   0  0  0  0  0  0  0  0  0  0  0  0
   -4.2545   -3.0787   -0.3122 C   0  0  0  0  0  0  0  0  0  0  0  0
   -4.3683   -4.4271   -0.1736 F   0  0  0  0  0  0  0  0  0  0  0  0
   -3.2462   -2.6251   -1.3244 C   0  0  0  0  0  0  0  0  0  0  0  0
   -1.9108   -2.2248   -0.7061 C   0  0  0  0  0  0  0  0  0  0  0  0
   -1.0058   -2.1200   -1.7146 F   0  0  0  0  0  0  0  0  0  0  0  0
   -2.0102   -1.0623    0.2187 C   0  0  0  0  0  0  0  0  0  0  0  0
   -1.6234    0.2157   -0.3298 N   0  0  0  0  0  0  0  0  0  0  0  0
   -0.2879    0.6363   -0.0337 C   0  0  0  0  0  0  0  0  0  0  0  0
    0.7577   -0.3145   -0.2195 N   0  0  0  0  0  0  0  0  0  0  0  0
    2.0511    0.3148    0.0076 C   0  0  0  0  0  0  0  0  0  0  0  0
    2.7859   -0.5727    0.8800 N   0  0  0  0  0  0  0  0  0  0  0  0
    4.1450   -0.1434    1.1171 C   0  0  0  0  0  0  0  0  0  0  0  0
    4.9837   -0.5602   -0.0541 C   0  0  1  0  0  0  0  0  0  0  0  0
    5.5893   -1.9536    0.0316 C   0  0  0  0  0  0  0  0  0  0  0  0
    6.7538   -2.1614   -0.7983 N   0  0  0  0  0  0  0  0  0  0  0  0
    4.2626   -1.7360   -0.5988 C   0  0  1  0  0  0  0  0  0  0  0  0
    3.0006   -1.8670    0.2263 C   0  0  0  0  0  0  0  0  0  0  0  0
    1.9724    1.7115    0.5376 C   0  0  0  0  0  0  0  0  0  0  0  0
    1.1092    2.5890   -0.3109 C   0  0  0  0  0  0  0  0  0  0  0  0
    0.0371    1.7885   -1.0031 C   0  0  0  0  0  0  0  0  0  0  0  0
   -1.2148    2.6186   -1.1866 C   0  0  0  0  0  0  0  0  0  0  0  0
   -1.9327    2.6002    0.1341 C   0  0  0  0  0  0  0  0  0  0  0  0
   -2.4538    1.2099    0.3989 C   0  0  0  0  0  0  0  0  0  0  0  0
   -3.0749    3.5751    0.2207 C   0  0  0  0  0  0  0  0  0  0  0  0
   -2.6050    4.8823    0.0266 O   0  0  0  0  0  0  0  0  0  0  0  0
   -3.5394    3.5332    1.5476 O   0  0  0  0  0  0  0  0  0  0  0  0
   -2.0123    2.1092   -2.2114 O   0  0  0  0  0  0  0  0  0  0  0  0
    1.6059    1.8285    1.8422 F   0  0  0  0  0  0  0  0  0  0  0  0
   -3.6685   -0.3433    1.4882 H   0  0  0  0  0  0  0  0  0  0  0  0
   -3.2694   -2.8713    1.6275 H   0  0  0  0  0  0  0  0  0  0  0  0
   -3.0331   -3.5017   -1.9818 H   0  0  0  0  0  0  0  0  0  0  0  0
    4.5019   -0.7405    2.0042 H   0  0  0  0  0  0  0  0  0  0  0  0
    4.2519    0.8987    1.4158 H   0  0  0  0  0  0  0  0  0  0  0  0
    5.3835    0.1692   -0.7634 H   0  0  0  0  0  0  0  0  0  0  0  0
    5.6503   -2.4223    1.0274 H   0  0  0  0  0  0  0  0  0  0  0  0
    7.6054   -1.7376   -0.3425 H   0  0  0  0  0  0  0  0  0  0  0  0
    6.6389   -1.7925   -1.7670 H   0  0  0  0  0  0  0  0  0  0  0  0
    4.2319   -1.9431   -1.6866 H   0  0  0  0  0  0  0  0  0  0  0  0
    2.2041   -2.1331   -0.4870 H   0  0  0  0  0  0  0  0  0  0  0  0
    3.1210   -2.6419    1.0005 H   0  0  0  0  0  0  0  0  0  0  0  0
    1.6857    3.0870   -1.1370 H   0  0  0  0  0  0  0  0  0  0  0  0
   -3.4980    1.1722    0.1309 H   0  0  0  0  0  0  0  0  0  0  0  0
   -4.0531   -0.6686   -0.3378 H   0  0  0  0  0  0  0  0  0  0  0  0
   -5.1185   -2.0258    1.4244 H   0  0  0  0  0  0  0  0  0  0  0  0
   -5.2970   -2.7525   -0.7075 H   0  0  0  0  0  0  0  0  0  0  0  0
   -3.6180   -1.8573   -1.9811 H   0  0  0  0  0  0  0  0  0  0  0  0
   -1.6916   -3.1281    0.0154 H   0  0  0  0  0  0  0  0  0  0  0  0
   -1.5078   -1.2348    1.2201 H   0  0  0  0  0  0  0  0  0  0  0  0
   -0.2703    0.9544    1.0190 H   0  0  0  0  0  0  0  0  0  0  0  0
    0.6180   -1.1982    0.3576 H   0  0  0  0  0  0  0  0  0  0  0  0
    2.5802    0.2967   -0.9699 H   0  0  0  0  0  0  0  0  0  0  0  0
    3.0357    2.1013    0.3565 H   0  0  0  0  0  0  0  0  0  0  0  0
    0.6541    3.3958    0.1927 H   0  0  0  0  0  0  0  0  0  0  0  0
    0.3616    1.2993   -1.9634 H   0  0  0  0  0  0  0  0  0  0  0  0
   -0.9134    3.6343   -1.4499 H   0  0  0  0  0  0  0  0  0  0  0  0
   -1.1446    2.8799    0.9134 H   0  0  0  0  0  0  0  0  0  0  0  0
   -2.2469    1.0121    1.4618 H   0  0  0  0  0  0  0  0  0  0  0  0
   -3.7379    3.4643   -0.5561 H   0  0  0  0  0  0  0  0  0  0  0  0
   -3.7038    4.4214    1.8886 H   0  0  0  0  0  0  0  0  0  0  0  0
   -1.8518    2.5643   -3.0033 H   0  0  0  0  0  0  0  0  0  0  0  0
   -4.0964   -0.6921   -0.2811 H   0  0  0  0  0  0  0  0  0  0  0  0
   -4.9638   -2.1777    1.4923 H   0  0  0  0  0  0  0  0  0  0  0  0
   -5.2622   -2.7138   -0.6726 H   0  0  0  0  0  0  0  0  0  0  0  0
   -3.6568   -1.8448   -1.9840 H   0  0  0  0  0  0  0  0  0  0  0  0
   -1.6458   -3.1165   -0.0537 H   0  0  0  0  0  0  0  0  0  0  0  0
   -1.4441   -1.2106    1.1658 H   0  0  0  0  0  0  0  0  0  0  0  0
   -0.2612    0.9666    1.0064 H   0  0  0  0  0  0  0  0  0  0  0  0
    0.6262   -1.1944    0.2907 H   0  0  0  0  0  0  0  0  0  0  0  0
    2.5727    0.3416   -0.9660 H   0  0  0  0  0  0  0  0  0  0  0  0
    3.0225    2.1322    0.3803 H   0  0  0  0  0  0  0  0  0  0  0  0
    0.6449    3.4149    0.2607 H   0  0  0  0  0  0  0  0  0  0  0  0
    0.4050    1.3889   -1.9647 H   0  0  0  0  0  0  0  0  0  0  0  0
   -0.9133    3.6696   -1.3790 H   0  0  0  0  0  0  0  0  0  0  0  0
   -1.1984    2.9161    0.9090 H   0  0  0  0  0  0  0  0  0  0  0  0
   -2.2107    1.0069    1.4702 H   0  0  0  0  0  0  0  0  0  0  0  0
   -3.8977    3.3800   -0.4678 H   0  0  0  0  0  0  0  0  0  0  0  0
   -3.7743    4.4539    1.8591 H   0  0  0  0  0  0  0  0  0  0  0  0
   -1.8079    2.6419   -3.0201 H   0  0  0  0  0  0  0  0  0  0  0  0
  1  2  1  0
  2  3  1  0
  3  4  1  0
  3  5  1  0
  5  6  1  0
  6  7  1  0
  1  8  1  0
  6  8  1  0
  8  9  1  0
  9 10  1  0
 10 11  1  0
 11 12  1  0
 12 13  1  0
 13 14  1  0
 14 15  1  0
 15 16  1  0
 16 17  1  0
 15 18  1  0
 16 18  1  0
 13 19  1  0
 18 19  1  0
 12 20  1  0
 20 21  1  0
 10 22  1  0
 21 22  1  0
 22 23  1  0
 23 24  1  0
  9 25  1  0
 24 25  1  0
 24 26  1  0
 26 27  1  0
 26 28  1  0
 23 29  1  0
 20 30  1  0
  1 31  1  0
  2 32  1  0
  5 33  1  0
 14 34  1  0
 14 35  1  0
 15 36  1  6
 16 37  1  0
 17 38  1  0
 17 39  1  0
 18 40  1  6
 19 41  1  0
 19 42  1  0
 21 43  1  0
 25 44  1  0
 45 46  1  0
 46 47  1  0
 47 48  1  0
 47 49  1  0
 49 50  1  0
 50 51  1  0
 45 52  1  0
 50 52  1  0
 52 53  1  0
 53 54  1  0
 54 55  1  0
 55 56  1  0
 56 57  1  0
 57 58  1  0
 58 59  1  0
 59 60  1  0
 60 61  1  0
 59 62  1  0
 60 62  1  0
 57 63  1  0
 62 63  1  0
 56 64  1  0
 64 65  1  0
 54 66  1  0
 65 66  1  0
 66 67  1  0
 67 68  1  0
 53 69  1  0
 68 69  1  0
 68 70  1  0
 70 71  1  0
 70 72  1  0
 67 73  1  0
 64 74  1  0
 45 75  1  0
 46 76  1  0
 49 77  1  0
 58 78  1  0
 58 79  1  0
 59 80  1  6
 60 81  1  0
 61 82  1  0
 61 83  1  0
 62 84  1  6
 63 85  1  0
 63 86  1  0
 65 87  1  0
 69 88  1  0
  1 89  1  0
  2 90  1  0
  3 91  1  0
  5 92  1  0
  6 93  1  0
  8 94  1  0
 10 95  1  0
 11 96  1  0
 12 97  1  0
 20 98  1  0
 21 99  1  0
 22100  1  0
 23101  1  0
 24102  1  0
 25103  1  0
 26104  1  0
 27105  1  0
 29106  1  0
 45107  1  0
 46108  1  0
 47109  1  0
 49110  1  0
 50111  1  0
 52112  1  0
 54113  1  0
 55114  1  0
 56115  1  0
 64116  1  0
 65117  1  0
 66118  1  0
 67119  1  0
 68120  1  0
 69121  1  0
 70122  1  0
 72123  1  0
 73124  1  0
M  CHG  2  28  -1  71  -1
M  END
>  <PDBID>  (1) 
4Z2E

>  <PDB ID>  (1) 
4Z2E

>  <Generic Name>  (1) 
Trovafloxacin

>  <Brand Name>  (1) 
Trovan I.V.#Trovan Tablets 100mg#Trovan Tablets 200mg#Trovan

>  <DrugBank ID>  (1) 
DB00685

>  <ATC Codes>  (1) 
J01MA13

>  <Ligand ID>  (1) 
TR6

>  <Target Name>  (1) 
DNA gyrase subunit A

>  <UniProt ID>  (1) 
P43700

>  <PDB ID.1>  (1) 
4Z2E

>  <Seq. Identity>  (1) 
50%

$$$$
