PDB_DB00215_09
     RDKit          3D

 61 63  0  0  0  0  0  0  0  0999 V2000
   -0.4124    1.6816    0.0605 C   0  0  0  0  0  0  0  0  0  0  0  0
    2.3182    0.0638   -0.9696 C   0  0  0  0  0  0  0  0  0  0  0  0
   -1.8126    2.0420    0.3196 C   0  0  0  0  0  0  0  0  0  0  0  0
    3.1020   -1.2238   -1.0512 C   0  0  0  0  0  0  0  0  0  0  0  0
   -0.0448    3.8969   -0.9011 C   0  0  0  0  0  0  0  0  0  0  0  0
   -1.4203    4.2837   -0.4914 C   0  0  0  0  0  0  0  0  0  0  0  0
   -4.3981   -2.1528    0.1160 C   0  0  0  0  0  0  0  0  0  0  0  0
    4.8963   -2.4239    0.1367 C   0  0  0  0  0  0  0  0  0  0  0  0
   -1.4450    5.6269   -0.2748 F   0  0  0  0  0  0  0  0  0  0  0  0
   -0.3152   -0.0371    1.5545 O   0  0  0  0  0  0  0  0  0  0  0  0
   -4.0736   -1.6584   -1.1876 N   0  0  0  0  0  0  0  0  0  0  0  0
    5.6644   -2.5930    1.3550 N   0  0  0  0  0  0  0  0  0  0  0  0
    0.0701    0.2935    0.2108 C   0  0  1  0  0  0  0  0  0  0  0  0
   -0.4329   -0.7656   -0.6085 C   0  0  0  0  0  0  0  0  0  0  0  0
    1.6063    0.3375    0.2897 C   0  0  0  0  0  0  0  0  0  0  0  0
    1.9430   -0.4976    1.4552 C   0  0  0  0  0  0  0  0  0  0  0  0
   -1.7655   -1.3423   -0.7123 C   0  0  0  0  0  0  0  0  0  0  0  0
    0.6105   -0.8939    2.0472 C   0  0  0  0  0  0  0  0  0  0  0  0
   -2.9775   -0.6188   -1.1068 C   0  0  0  0  0  0  0  0  0  0  0  0
    2.7623   -1.7173    1.2476 C   0  0  0  0  0  0  0  0  0  0  0  0
    0.1332    2.4041   -1.1809 C   0  0  0  0  0  0  0  0  0  0  0  0
    3.8579   -1.3375    0.2562 C   0  0  0  0  0  0  0  0  0  0  0  0
   -1.7876    3.5235    0.7943 C   0  0  0  0  0  0  0  0  0  0  0  0
   -5.2123   -0.9328   -1.7086 C   0  0  0  0  0  0  0  0  0  0  0  0
    0.1809    2.2509    0.8985 H   0  0  0  0  0  0  0  0  0  0  0  0
    3.1294    0.8437   -1.1558 H   0  0  0  0  0  0  0  0  0  0  0  0
    1.7114    0.1036   -1.8918 H   0  0  0  0  0  0  0  0  0  0  0  0
   -2.2339    1.4753    1.1369 H   0  0  0  0  0  0  0  0  0  0  0  0
   -2.4399    2.1176   -0.6044 H   0  0  0  0  0  0  0  0  0  0  0  0
    3.8315   -1.1509   -1.8834 H   0  0  0  0  0  0  0  0  0  0  0  0
    2.5182   -2.1317   -1.1618 H   0  0  0  0  0  0  0  0  0  0  0  0
    0.3479    4.4934   -1.7434 H   0  0  0  0  0  0  0  0  0  0  0  0
    0.6354    4.1279   -0.0354 H   0  0  0  0  0  0  0  0  0  0  0  0
   -2.1312    4.0162   -1.3036 H   0  0  0  0  0  0  0  0  0  0  0  0
   -4.2703   -3.2736    0.0820 H   0  0  0  0  0  0  0  0  0  0  0  0
   -3.8432   -1.6986    0.9461 H   0  0  0  0  0  0  0  0  0  0  0  0
   -5.4888   -2.0082    0.3483 H   0  0  0  0  0  0  0  0  0  0  0  0
    4.3862   -3.3463   -0.1718 H   0  0  0  0  0  0  0  0  0  0  0  0
    5.6202   -2.0705   -0.6429 H   0  0  0  0  0  0  0  0  0  0  0  0
    6.4230   -3.2743    1.1192 H   0  0  0  0  0  0  0  0  0  0  0  0
    5.0256   -3.1366    2.0106 H   0  0  0  0  0  0  0  0  0  0  0  0
   -0.1803   -0.5141   -1.7423 H   0  0  0  0  0  0  0  0  0  0  0  0
    0.2608   -1.7036   -0.5620 H   0  0  0  0  0  0  0  0  0  0  0  0
    1.8447    1.3902    0.5859 H   0  0  0  0  0  0  0  0  0  0  0  0
    2.4604    0.0746    2.2875 H   0  0  0  0  0  0  0  0  0  0  0  0
   -1.9909   -2.0304    0.1913 H   0  0  0  0  0  0  0  0  0  0  0  0
   -1.6822   -2.1881   -1.5190 H   0  0  0  0  0  0  0  0  0  0  0  0
    0.5894   -0.8176    3.1605 H   0  0  0  0  0  0  0  0  0  0  0  0
    0.4090   -1.9734    1.8319 H   0  0  0  0  0  0  0  0  0  0  0  0
   -3.4334    0.0601   -0.3518 H   0  0  0  0  0  0  0  0  0  0  0  0
   -2.9087   -0.2267   -2.1205 H   0  0  0  0  0  0  0  0  0  0  0  0
    2.2066   -2.5512    0.7714 H   0  0  0  0  0  0  0  0  0  0  0  0
    3.2430   -2.0350    2.1712 H   0  0  0  0  0  0  0  0  0  0  0  0
   -0.3321    2.0734   -2.1097 H   0  0  0  0  0  0  0  0  0  0  0  0
    1.2380    2.2630   -1.1440 H   0  0  0  0  0  0  0  0  0  0  0  0
    4.2583   -0.3616    0.5699 H   0  0  0  0  0  0  0  0  0  0  0  0
   -0.9673    3.6547    1.5070 H   0  0  0  0  0  0  0  0  0  0  0  0
   -2.7805    3.8183    1.1265 H   0  0  0  0  0  0  0  0  0  0  0  0
   -6.0766   -1.6213   -1.6877 H   0  0  0  0  0  0  0  0  0  0  0  0
   -5.0190   -0.5368   -2.7306 H   0  0  0  0  0  0  0  0  0  0  0  0
   -5.4080   -0.0711   -1.0242 H   0  0  0  0  0  0  0  0  0  0  0  0
  1  3  1  0
  2  4  1  0
  5  6  1  0
  6  9  1  0
  7 11  1  0
  8 12  1  0
  1 13  1  0
 10 13  1  0
 13 14  1  6
  2 15  1  0
 13 15  1  0
 15 16  1  0
 14 17  1  0
 10 18  1  0
 16 18  1  0
 11 19  1  0
 17 19  1  0
 16 20  1  0
  1 21  1  0
  5 21  1  0
  4 22  1  0
  8 22  1  0
 20 22  1  0
  3 23  1  0
  6 23  1  0
 11 24  1  0
  1 25  1  0
  2 26  1  0
  2 27  1  0
  3 28  1  0
  3 29  1  0
  4 30  1  0
  4 31  1  0
  5 32  1  0
  5 33  1  0
  6 34  1  0
  7 35  1  0
  7 36  1  0
  7 37  1  0
  8 38  1  0
  8 39  1  0
 12 40  1  0
 12 41  1  0
 14 42  1  0
 14 43  1  0
 15 44  1  0
 16 45  1  0
 17 46  1  0
 17 47  1  0
 18 48  1  0
 18 49  1  0
 19 50  1  0
 19 51  1  0
 20 52  1  0
 20 53  1  0
 21 54  1  0
 21 55  1  0
 22 56  1  0
 23 57  1  0
 23 58  1  0
 24 59  1  0
 24 60  1  0
 24 61  1  0
M  END
>  <PDBID>  (1) 
5I71

>  <PDB ID>  (1) 
5I71

>  <Generic Name>  (1) 
Citalopram

>  <Brand Name>  (1) 
Abbott-citalopram#Accel-citalopram Tablets#Act Citalopram#Ag-citalopram#Apo-citalopram#Auro-citalopram#Ava-citalopram#Bio-citalopram#Celexa#Celexa 10 mg#Celexa 20 mg#Celexa 40 mg#Citalopram#Citalopram Hydrobromide#Citalopram Tablets#Citalopram Tablets USP#Citalopram-10#Citalopram-20#Citalopram-40#Citalopram-odan#Ctp 30#Dom-citalopram#Ecl-citalopram#Ipg-citalopram#Jamp-citalopram#Manda-citalopram#Mar-citalopram#Mint-citalopram#Mylan-citalopram#Nat-citalopram#Nat-citalopram Tablets#Ng Citalopram#Novo-citalopram#Ntp-citalopram#Nu-citalopram#PHL-citalopram#PMS-citalopram#Pendo-citalopram#Perrigo Citalopram#Priva-citalopram#Q-citalopram#Ran-citalo#Ran-citalopram#Ratio-citalopram#Riva-citalopram#Sandoz Citalopram#Sentralopram Am-10#Septa-citalopram#Teva-citalopram#Van-citalopram#Akarin#Celapram#Ciazil#Cilift#Cipram#Cipramil#Ciprapine#Citabax#Citalec#Citol#Citopam#Citox#Citrol#Dalsan#Elopram#Humorup#Oropram#Pramcit#Recital#Seropram#Talam#Talohexal#Temperax#Vodelax#Zentius#Zetalo

>  <DrugBank ID>  (1) 
DB00215

>  <ATC Codes>  (1) 
N06AB04

>  <Ligand ID>  (1) 
68P

>  <Target Name>  (1) 
Sodium-dependent serotonin transporter

>  <UniProt ID>  (1) 
P31645

>  <PDB ID.1>  (1) 
5I71

>  <Seq. Identity>  (1) 
99%

$$$$
