PDB_DB00509_09
     RDKit          3D

 49 50  0  0  0  0  0  0  0  0999 V2000
   -2.3771    1.1478    0.7170 C   0  0  2  0  0  0  0  0  0  0  0  0
   -1.7029    1.6642   -0.4993 C   0  0  0  0  0  0  0  0  0  0  0  0
   -0.5443    0.7747   -0.8619 C   0  0  2  0  0  0  0  0  0  0  0  0
    0.5972    1.0597    0.1179 C   0  0  0  0  0  0  0  0  0  0  0  0
    0.0053    1.6142    1.3633 C   0  0  0  0  0  0  0  0  0  0  0  0
   -1.3066    0.9691    1.7773 C   0  0  0  0  0  0  0  0  0  0  0  0
   -3.0865   -0.1487    0.4570 C   0  0  0  0  0  0  0  0  0  0  0  0
   -4.1487   -0.0117   -0.5963 C   0  0  1  0  0  0  0  0  0  0  0  0
   -4.8614   -1.3422   -0.8299 C   0  0  0  0  0  0  0  0  0  0  0  0
    2.6089   -0.1023   -0.2668 C   0  0  0  0  0  0  0  0  0  0  0  0
    3.5875   -0.2432    0.9053 C   0  0  0  0  0  0  0  0  0  0  0  0
    4.8637   -0.9522    0.5062 C   0  0  0  0  0  0  0  0  0  0  0  0
    5.1900   -0.4900   -0.8967 C   0  0  0  0  0  0  0  0  0  0  0  0
    4.2344   -1.2395   -1.7980 C   0  0  0  0  0  0  0  0  0  0  0  0
    2.8244   -1.2242   -1.2666 C   0  0  0  0  0  0  0  0  0  0  0  0
   -5.1556    0.9723   -0.2454 N   0  0  0  0  0  0  0  0  0  0  0  0
    1.3604   -0.0731    0.2561 O   0  0  0  0  0  0  0  0  0  0  0  0
    6.5080   -0.8564   -1.1636 O   0  0  0  0  0  0  0  0  0  0  0  0
   -5.5385   -1.7556    0.3131 O   0  0  0  0  0  0  0  0  0  0  0  0
   -5.7945   -1.1451   -1.8369 O   0  0  0  0  0  0  0  0  0  0  0  0
    0.0111    1.2995   -2.8527 I   0  0  0  0  0  0  0  0  0  0  0  0
    6.3947   -0.4103    1.8686 I   0  0  0  0  0  0  0  0  0  0  0  0
    1.2609    1.4383    3.0839 I   0  0  0  0  0  0  0  0  0  0  0  0
    4.9340   -3.2528   -1.9324 I   0  0  0  0  0  0  0  0  0  0  0  0
   -3.1631    1.8498    1.1087 H   0  0  0  0  0  0  0  0  0  0  0  0
   -1.3472    2.7105   -0.3066 H   0  0  0  0  0  0  0  0  0  0  0  0
   -2.4152    1.6870   -1.3774 H   0  0  0  0  0  0  0  0  0  0  0  0
   -0.8018   -0.2883   -0.8800 H   0  0  0  0  0  0  0  0  0  0  0  0
    1.1528    1.8891   -0.4105 H   0  0  0  0  0  0  0  0  0  0  0  0
   -0.2071    2.7222    1.2853 H   0  0  0  0  0  0  0  0  0  0  0  0
   -1.1699   -0.0989    2.0435 H   0  0  0  0  0  0  0  0  0  0  0  0
   -1.6493    1.4886    2.6890 H   0  0  0  0  0  0  0  0  0  0  0  0
   -2.4100   -0.9688    0.1124 H   0  0  0  0  0  0  0  0  0  0  0  0
   -3.5390   -0.5457    1.4054 H   0  0  0  0  0  0  0  0  0  0  0  0
   -3.7341    0.2558   -1.5900 H   0  0  0  0  0  0  0  0  0  0  0  0
   -4.1175   -2.0723   -1.1741 H   0  0  0  0  0  0  0  0  0  0  0  0
    2.9324    0.8240   -0.7905 H   0  0  0  0  0  0  0  0  0  0  0  0
    3.1700   -0.8231    1.7326 H   0  0  0  0  0  0  0  0  0  0  0  0
    3.9092    0.7384    1.3047 H   0  0  0  0  0  0  0  0  0  0  0  0
    4.6897   -2.0455    0.5220 H   0  0  0  0  0  0  0  0  0  0  0  0
    5.0254    0.5940   -1.0115 H   0  0  0  0  0  0  0  0  0  0  0  0
    4.3335   -0.8020   -2.8124 H   0  0  0  0  0  0  0  0  0  0  0  0
    2.1778   -1.0159   -2.1369 H   0  0  0  0  0  0  0  0  0  0  0  0
    2.5823   -2.2110   -0.8759 H   0  0  0  0  0  0  0  0  0  0  0  0
   -4.8938    1.9135   -0.6342 H   0  0  0  0  0  0  0  0  0  0  0  0
   -5.1283    1.0816    0.8018 H   0  0  0  0  0  0  0  0  0  0  0  0
    6.6717   -1.7596   -0.7823 H   0  0  0  0  0  0  0  0  0  0  0  0
   -5.9504   -2.6241    0.0953 H   0  0  0  0  0  0  0  0  0  0  0  0
   -5.9826   -0.1917   -1.9946 H   0  0  0  0  0  0  0  0  0  0  0  0
  1  2  1  0
  2  3  1  0
  3  4  1  0
  4  5  1  0
  1  6  1  0
  5  6  1  0
  1  7  1  0
  7  8  1  0
  8  9  1  0
 10 11  1  0
 11 12  1  0
 12 13  1  0
 13 14  1  0
 10 15  1  0
 14 15  1  0
  8 16  1  0
  4 17  1  0
 10 17  1  0
 13 18  1  0
  9 19  1  0
  9 20  1  0
  3 21  1  0
 12 22  1  0
  5 23  1  0
 14 24  1  0
  1 25  1  1
  2 26  1  0
  2 27  1  0
  3 28  1  6
  4 29  1  0
  5 30  1  0
  6 31  1  0
  6 32  1  0
  7 33  1  0
  7 34  1  0
  8 35  1  6
  9 36  1  0
 10 37  1  0
 11 38  1  0
 11 39  1  0
 12 40  1  0
 13 41  1  0
 14 42  1  0
 15 43  1  0
 15 44  1  0
 16 45  1  0
 16 46  1  0
 18 47  1  0
 19 48  1  0
 20 49  1  0
M  END
>  <PDBID>  (1) 
1Y0X

>  <PDB ID>  (1) 
1Y0X

>  <Generic Name>  (1) 
Dextrothyroxine

>  <Brand Name>  (1) 
Choloxin - Tab 4mg#Choloxin Tab 2mg#Choloxin Tablet 4mg#Choloxin#Dynothel#Eulipos#Lisolipin

>  <DrugBank ID>  (1) 
DB00509

>  <ATC Codes>  (1) 
C10AX01

>  <Ligand ID>  (1) 
T44

>  <Target Name>  (1) 
Thyroid hormone receptor beta

>  <UniProt ID>  (1) 
P10828

>  <PDB ID.1>  (1) 
1Y0X

>  <Seq. Identity>  (1) 
100%

$$$$
