PDB_DB01113_07
     RDKit          3D

 62 64  0  0  0  0  0  0  0  0999 V2000
   -6.1057   -2.0707   -0.9414 C   0  0  0  0  0  0  0  0  0  0  0  0
   -4.9637   -1.3666   -1.2502 O   0  0  0  0  0  0  0  0  0  0  0  0
   -4.3968   -0.7146   -0.1606 C   0  0  0  0  0  0  0  0  0  0  0  0
   -4.4316    0.7805   -0.2778 C   0  0  0  0  0  0  0  0  0  0  0  0
   -4.2442    1.3069    0.9930 O   0  0  0  0  0  0  0  0  0  0  0  0
   -5.3772    1.9965    1.3785 C   0  0  0  0  0  0  0  0  0  0  0  0
   -3.4434    1.3422   -1.2598 C   0  0  0  0  0  0  0  0  0  0  0  0
   -2.4208    0.2566   -1.5544 C   0  0  0  0  0  0  0  0  0  0  0  0
   -3.0619   -1.2969    0.1744 C   0  0  0  0  0  0  0  0  0  0  0  0
   -1.9937   -0.2934   -0.2179 C   0  0  0  0  0  0  0  0  0  0  0  0
   -0.6234   -0.8388   -0.1530 C   0  0  0  0  0  0  0  0  0  0  0  0
    0.3869    0.2158   -0.4789 C   0  0  0  0  0  0  0  0  0  0  0  0
    0.3983    1.3552    0.3762 N   0  0  0  0  0  0  0  0  0  0  0  0
    0.9252    2.4839   -0.3842 C   0  0  0  0  0  0  0  0  0  0  0  0
    2.0359    2.0121   -1.3193 C   0  0  0  0  0  0  0  0  0  0  0  0
    2.7358    0.7977   -0.7603 C   0  0  0  0  0  0  0  0  0  0  0  0
    1.7994   -0.3691   -0.5447 C   0  0  0  0  0  0  0  0  0  0  0  0
    2.1878   -1.0430    0.7357 C   0  0  0  0  0  0  0  0  0  0  0  0
    3.7044   -1.2607    0.6773 C   0  0  0  0  0  0  0  0  0  0  0  0
    4.1167   -2.2048    1.5850 O   0  0  0  0  0  0  0  0  0  0  0  0
    4.6479   -3.3099    0.9290 C   0  0  0  0  0  0  0  0  0  0  0  0
    4.3955    0.0753    0.8654 C   0  0  0  0  0  0  0  0  0  0  0  0
    3.3950    1.1676    0.5641 C   0  0  0  0  0  0  0  0  0  0  0  0
    5.4224    0.1594   -0.0614 O   0  0  0  0  0  0  0  0  0  0  0  0
    6.6585    0.4013    0.5061 C   0  0  0  0  0  0  0  0  0  0  0  0
   -6.4653   -2.5434   -1.8763 H   0  0  0  0  0  0  0  0  0  0  0  0
   -6.8803   -1.3457   -0.6239 H   0  0  0  0  0  0  0  0  0  0  0  0
   -5.9464   -2.8720   -0.1988 H   0  0  0  0  0  0  0  0  0  0  0  0
   -5.0718   -0.9627    0.7127 H   0  0  0  0  0  0  0  0  0  0  0  0
   -5.4302    1.0570   -0.6285 H   0  0  0  0  0  0  0  0  0  0  0  0
   -5.1951    2.4060    2.4008 H   0  0  0  0  0  0  0  0  0  0  0  0
   -6.2716    1.3489    1.4426 H   0  0  0  0  0  0  0  0  0  0  0  0
   -5.5311    2.8666    0.6965 H   0  0  0  0  0  0  0  0  0  0  0  0
   -2.8884    2.1627   -0.7490 H   0  0  0  0  0  0  0  0  0  0  0  0
   -3.8896    1.7635   -2.1606 H   0  0  0  0  0  0  0  0  0  0  0  0
   -2.9657   -0.5514   -2.1366 H   0  0  0  0  0  0  0  0  0  0  0  0
   -1.6254    0.5929   -2.2093 H   0  0  0  0  0  0  0  0  0  0  0  0
   -2.9247   -2.2584   -0.3824 H   0  0  0  0  0  0  0  0  0  0  0  0
   -2.9422   -1.4918    1.2574 H   0  0  0  0  0  0  0  0  0  0  0  0
   -2.0904    0.5261    0.5548 H   0  0  0  0  0  0  0  0  0  0  0  0
   -0.5062   -1.6696   -0.9107 H   0  0  0  0  0  0  0  0  0  0  0  0
   -0.4390   -1.2392    0.8695 H   0  0  0  0  0  0  0  0  0  0  0  0
    0.2071    0.5835   -1.5167 H   0  0  0  0  0  0  0  0  0  0  0  0
   -0.4623    1.6081    0.8546 H   0  0  0  0  0  0  0  0  0  0  0  0
    0.1479    2.9308   -1.0464 H   0  0  0  0  0  0  0  0  0  0  0  0
    1.3258    3.2727    0.2940 H   0  0  0  0  0  0  0  0  0  0  0  0
    1.6433    1.7813   -2.3310 H   0  0  0  0  0  0  0  0  0  0  0  0
    2.8010    2.7943   -1.4521 H   0  0  0  0  0  0  0  0  0  0  0  0
    3.5629    0.5542   -1.4538 H   0  0  0  0  0  0  0  0  0  0  0  0
    1.8992   -1.0584   -1.3828 H   0  0  0  0  0  0  0  0  0  0  0  0
    1.8745   -0.5282    1.6417 H   0  0  0  0  0  0  0  0  0  0  0  0
    1.6907   -2.0446    0.7426 H   0  0  0  0  0  0  0  0  0  0  0  0
    3.9054   -1.6316   -0.3481 H   0  0  0  0  0  0  0  0  0  0  0  0
    3.8392   -3.7341    0.2735 H   0  0  0  0  0  0  0  0  0  0  0  0
    5.0615   -4.0595    1.6043 H   0  0  0  0  0  0  0  0  0  0  0  0
    5.4267   -2.9471    0.2071 H   0  0  0  0  0  0  0  0  0  0  0  0
    4.7718    0.2205    1.8941 H   0  0  0  0  0  0  0  0  0  0  0  0
    2.6685    1.3309    1.3676 H   0  0  0  0  0  0  0  0  0  0  0  0
    3.9312    2.1368    0.4190 H   0  0  0  0  0  0  0  0  0  0  0  0
    6.9007   -0.4097    1.1943 H   0  0  0  0  0  0  0  0  0  0  0  0
    7.4001    0.4167   -0.3163 H   0  0  0  0  0  0  0  0  0  0  0  0
    6.7208    1.4112    0.9840 H   0  0  0  0  0  0  0  0  0  0  0  0
  1  2  1  0
  2  3  1  0
  3  4  1  0
  4  5  1  0
  5  6  1  0
  4  7  1  0
  7  8  1  0
  3  9  1  0
  8 10  1  0
  9 10  1  0
 10 11  1  0
 11 12  1  0
 12 13  1  0
 13 14  1  0
 14 15  1  0
 15 16  1  0
 12 17  1  0
 16 17  1  0
 17 18  1  0
 18 19  1  0
 19 20  1  0
 20 21  1  0
 19 22  1  0
 16 23  1  0
 22 23  1  0
 22 24  1  0
 24 25  1  0
  1 26  1  0
  1 27  1  0
  1 28  1  0
  3 29  1  0
  4 30  1  0
  6 31  1  0
  6 32  1  0
  6 33  1  0
  7 34  1  0
  7 35  1  0
  8 36  1  0
  8 37  1  0
  9 38  1  0
  9 39  1  0
 10 40  1  0
 11 41  1  0
 11 42  1  0
 12 43  1  0
 13 44  1  0
 14 45  1  0
 14 46  1  0
 15 47  1  0
 15 48  1  0
 16 49  1  0
 17 50  1  0
 18 51  1  0
 18 52  1  0
 19 53  1  0
 21 54  1  0
 21 55  1  0
 21 56  1  0
 22 57  1  0
 23 58  1  0
 23 59  1  0
 25 60  1  0
 25 61  1  0
 25 62  1  0
M  END
>  <PDBID>  (1) 
3IAK

>  <PDB ID>  (1) 
3IAK

>  <Generic Name>  (1) 
Papaverine

>  <Brand Name>  (1) 
Papaverine Hydrochloride#Papaverine Hydrochloride Injection USP#Alapav#Albatran#Artegodan#Cardioverina#Cerebid#Cerespan#Delapav#Dilaves#Dispamil#Drapavel#Durapav#Dynovas#Mesotina#Myobid#Optenyl#Pameion#Pamelon#Panergon#Papacon#Papalease#Papaversan#Papital T.R.#Paptial T.R.#Pavabid#Pavacap#Pavacen#Pavadel#Pavagen#Pavakey#Pavased#Pavatest#Paverolan#Paveron#Pavnell#Qua Bid#Ro-Papav#Therapav#Vasal#Vaso-Pav

>  <DrugBank ID>  (1) 
DB01113

>  <ATC Codes>  (1) 
G04BE52#G04BE02#A03AD01

>  <Ligand ID>  (1) 
EV1

>  <Target Name>  (1) 
cAMP-specific 3',5'-cyclic phosphodiesterase 4B

>  <UniProt ID>  (1) 
Q07343

>  <PDB ID.1>  (1) 
3IAK

>  <Seq. Identity>  (1) 
85%

$$$$
