PDB_DB00390_09
     RDKit          3D

246260  0  0  0  0  0  0  0  0999 V2000
   -3.8109    1.6375    0.3211 C   0  0  0  0  0  0  0  0  0  0  0  0
   -2.3224    1.7619    0.3367 C   0  0  0  0  0  0  0  0  0  0  0  0
   -1.6340    0.5076    0.8237 C   0  0  2  0  0  0  0  0  0  0  0  0
   -0.4886    0.3113    0.0700 O   0  0  0  0  0  0  0  0  0  0  0  0
   -2.5146   -0.6759    0.9697 C   0  0  0  0  0  0  0  0  0  0  0  0
   -3.6170   -0.8322   -0.0169 C   0  0  1  0  0  0  0  0  0  0  0  0
   -4.6032   -1.8227    0.5913 C   0  0  0  0  0  0  0  0  0  0  0  0
   -5.7220   -2.1534   -0.3689 C   0  0  0  0  0  0  0  0  0  0  0  0
   -6.2541   -0.9064   -0.9827 C   0  0  2  0  0  0  0  0  0  0  0  0
   -5.7601    0.2994   -0.2497 C   0  0  1  0  0  0  0  0  0  0  0  0
   -4.2695    0.4318   -0.4740 C   0  0  1  0  0  0  0  0  0  0  0  0
   -6.5366    1.4683   -0.7954 C   0  0  0  0  0  0  0  0  0  0  0  0
   -7.9691    1.3532   -0.2700 C   0  0  1  0  0  0  0  0  0  0  0  0
   -8.6514    2.2939   -1.1046 O   0  0  0  0  0  0  0  0  0  0  0  0
   -8.5619    0.0052   -0.3817 C   0  0  1  0  0  0  0  0  0  0  0  0
   -7.7005   -0.9014   -1.3001 C   0  0  1  0  0  0  0  0  0  0  0  0
   -7.9310   -0.3983   -2.5934 O   0  0  0  0  0  0  0  0  0  0  0  0
   -8.4164   -2.1953   -1.1985 C   0  0  0  0  0  0  0  0  0  0  0  0
   -9.1622   -2.1951    0.1127 C   0  0  0  0  0  0  0  0  0  0  0  0
   -8.7666   -0.8433    0.7669 C   0  0  2  0  0  0  0  0  0  0  0  0
   -9.8685    0.1415   -1.1982 C   0  0  0  0  0  0  0  0  0  0  0  0
   -3.9096    0.7043   -1.9170 C   0  0  0  0  0  0  0  0  0  0  0  0
    0.6406    0.5176    0.8554 C   0  0  1  0  0  0  0  0  0  0  0  0
    5.6701    0.0545   -0.0745 C   0  0  2  0  0  0  0  0  0  0  0  0
   10.7328   -0.3784   -0.7764 C   0  0  2  0  0  0  0  0  0  0  0  0
   -9.6123   -0.6185    1.9069 C   0  0  1  0  0  0  0  0  0  0  0  0
   -9.2336    0.5672    2.7665 C   0  0  0  0  0  0  0  0  0  0  0  0
  -10.1011    1.5731    2.3418 O   0  0  0  0  0  0  0  0  0  0  0  0
  -11.0674   -0.4227    1.7664 C   0  0  0  0  0  0  0  0  0  0  0  0
  -11.3309    0.9447    2.3224 C   0  0  0  0  0  0  0  0  0  0  0  0
  -12.2595    1.6527    1.5503 O   0  0  0  0  0  0  0  0  0  0  0  0
    1.4691   -0.7432    0.8197 C   0  0  0  0  0  0  0  0  0  0  0  0
    6.5883    0.8741    0.7999 C   0  0  0  0  0  0  0  0  0  0  0  0
   11.4834   -1.3250   -1.6832 C   0  0  0  0  0  0  0  0  0  0  0  0
    2.3420   -0.6405   -0.4412 C   0  0  2  0  0  0  0  0  0  0  0  0
    2.9055   -1.8420   -0.7788 O   0  0  0  0  0  0  0  0  0  0  0  0
    7.8447    1.1810   -0.0011 C   0  0  2  0  0  0  0  0  0  0  0  0
    7.4765    1.9899   -1.0591 O   0  0  0  0  0  0  0  0  0  0  0  0
   12.6893   -1.8329   -0.8990 C   0  0  2  0  0  0  0  0  0  0  0  0
   12.2620   -2.7245    0.0663 O   0  0  0  0  0  0  0  0  0  0  0  0
    3.3705    0.4320   -0.1181 C   0  0  2  0  0  0  0  0  0  0  0  0
    4.4571   -0.0672    0.5470 O   0  0  0  0  0  0  0  0  0  0  0  0
    8.4414   -0.1263   -0.4412 C   0  0  2  0  0  0  0  0  0  0  0  0
    9.5299    0.0601   -1.2922 O   0  0  0  0  0  0  0  0  0  0  0  0
   13.4551   -0.7237   -0.2560 C   0  0  2  0  0  0  0  0  0  0  0  0
   14.2297   -1.2284    0.7835 O   0  0  0  0  0  0  0  0  0  0  0  0
    2.7087    1.5775    0.6423 C   0  0  2  0  0  0  0  0  0  0  0  0
    1.3491    1.6058    0.3424 O   0  0  0  0  0  0  0  0  0  0  0  0
    7.4455   -1.0406   -1.0588 C   0  0  2  0  0  0  0  0  0  0  0  0
    6.2477   -1.1724   -0.3971 O   0  0  0  0  0  0  0  0  0  0  0  0
   12.5703    0.3578    0.3071 C   0  0  2  0  0  0  0  0  0  0  0  0
   11.5885    0.7443   -0.6244 O   0  0  0  0  0  0  0  0  0  0  0  0
    3.2763    2.8706    0.0896 C   0  0  0  0  0  0  0  0  0  0  0  0
    8.0692   -2.4089   -1.3381 C   0  0  0  0  0  0  0  0  0  0  0  0
   13.3987    1.5819    0.6052 C   0  0  0  0  0  0  0  0  0  0  0  0
   -3.8109    1.6375    0.3211 C   0  0  0  0  0  0  0  0  0  0  0  0
   -2.3224    1.7619    0.3367 C   0  0  0  0  0  0  0  0  0  0  0  0
   -1.6340    0.5076    0.8237 C   0  0  2  0  0  0  0  0  0  0  0  0
   -0.4886    0.3113    0.0700 O   0  0  0  0  0  0  0  0  0  0  0  0
   -2.5146   -0.6759    0.9697 C   0  0  0  0  0  0  0  0  0  0  0  0
   -3.6170   -0.8322   -0.0169 C   0  0  1  0  0  0  0  0  0  0  0  0
   -4.6032   -1.8227    0.5913 C   0  0  0  0  0  0  0  0  0  0  0  0
   -5.7220   -2.1534   -0.3689 C   0  0  0  0  0  0  0  0  0  0  0  0
   -6.2541   -0.9064   -0.9827 C   0  0  2  0  0  0  0  0  0  0  0  0
   -5.7601    0.2994   -0.2497 C   0  0  1  0  0  0  0  0  0  0  0  0
   -4.2695    0.4318   -0.4740 C   0  0  1  0  0  0  0  0  0  0  0  0
   -6.5366    1.4683   -0.7954 C   0  0  0  0  0  0  0  0  0  0  0  0
   -7.9691    1.3532   -0.2700 C   0  0  1  0  0  0  0  0  0  0  0  0
   -8.6514    2.2939   -1.1046 O   0  0  0  0  0  0  0  0  0  0  0  0
   -8.5619    0.0052   -0.3817 C   0  0  1  0  0  0  0  0  0  0  0  0
   -7.7005   -0.9014   -1.3001 C   0  0  1  0  0  0  0  0  0  0  0  0
   -7.9310   -0.3983   -2.5934 O   0  0  0  0  0  0  0  0  0  0  0  0
   -8.4164   -2.1953   -1.1985 C   0  0  0  0  0  0  0  0  0  0  0  0
   -9.1622   -2.1951    0.1127 C   0  0  0  0  0  0  0  0  0  0  0  0
   -8.7666   -0.8433    0.7669 C   0  0  2  0  0  0  0  0  0  0  0  0
   -9.8685    0.1415   -1.1982 C   0  0  0  0  0  0  0  0  0  0  0  0
   -3.9096    0.7043   -1.9170 C   0  0  0  0  0  0  0  0  0  0  0  0
    0.6406    0.5176    0.8554 C   0  0  1  0  0  0  0  0  0  0  0  0
    5.6701    0.0545   -0.0745 C   0  0  2  0  0  0  0  0  0  0  0  0
   10.7328   -0.3784   -0.7764 C   0  0  2  0  0  0  0  0  0  0  0  0
   -9.6123   -0.6185    1.9069 C   0  0  1  0  0  0  0  0  0  0  0  0
   -9.2336    0.5672    2.7665 C   0  0  0  0  0  0  0  0  0  0  0  0
  -10.1011    1.5731    2.3418 O   0  0  0  0  0  0  0  0  0  0  0  0
  -11.0674   -0.4227    1.7664 C   0  0  0  0  0  0  0  0  0  0  0  0
  -11.3309    0.9447    2.3224 C   0  0  0  0  0  0  0  0  0  0  0  0
  -12.2595    1.6527    1.5503 O   0  0  0  0  0  0  0  0  0  0  0  0
    1.4691   -0.7432    0.8197 C   0  0  0  0  0  0  0  0  0  0  0  0
    6.5883    0.8741    0.7999 C   0  0  0  0  0  0  0  0  0  0  0  0
   11.4834   -1.3250   -1.6832 C   0  0  0  0  0  0  0  0  0  0  0  0
    2.3420   -0.6405   -0.4412 C   0  0  2  0  0  0  0  0  0  0  0  0
    2.9055   -1.8420   -0.7788 O   0  0  0  0  0  0  0  0  0  0  0  0
    7.8447    1.1810   -0.0011 C   0  0  2  0  0  0  0  0  0  0  0  0
    7.4765    1.9899   -1.0591 O   0  0  0  0  0  0  0  0  0  0  0  0
   12.6893   -1.8329   -0.8990 C   0  0  2  0  0  0  0  0  0  0  0  0
   12.2620   -2.7245    0.0663 O   0  0  0  0  0  0  0  0  0  0  0  0
    3.3705    0.4320   -0.1181 C   0  0  2  0  0  0  0  0  0  0  0  0
    4.4571   -0.0672    0.5470 O   0  0  0  0  0  0  0  0  0  0  0  0
    8.4414   -0.1263   -0.4412 C   0  0  2  0  0  0  0  0  0  0  0  0
    9.5299    0.0601   -1.2922 O   0  0  0  0  0  0  0  0  0  0  0  0
   13.4551   -0.7237   -0.2560 C   0  0  2  0  0  0  0  0  0  0  0  0
   14.2297   -1.2284    0.7835 O   0  0  0  0  0  0  0  0  0  0  0  0
    2.7087    1.5775    0.6423 C   0  0  2  0  0  0  0  0  0  0  0  0
    1.3491    1.6058    0.3424 O   0  0  0  0  0  0  0  0  0  0  0  0
    7.4455   -1.0406   -1.0588 C   0  0  2  0  0  0  0  0  0  0  0  0
    6.2477   -1.1724   -0.3971 O   0  0  0  0  0  0  0  0  0  0  0  0
   12.5703    0.3578    0.3071 C   0  0  2  0  0  0  0  0  0  0  0  0
   11.5885    0.7443   -0.6244 O   0  0  0  0  0  0  0  0  0  0  0  0
    3.2763    2.8706    0.0896 C   0  0  0  0  0  0  0  0  0  0  0  0
    8.0692   -2.4089   -1.3381 C   0  0  0  0  0  0  0  0  0  0  0  0
   13.3987    1.5819    0.6052 C   0  0  0  0  0  0  0  0  0  0  0  0
   -4.1768    1.6423    1.3602 H   0  0  0  0  0  0  0  0  0  0  0  0
   -4.2037    2.5426   -0.2262 H   0  0  0  0  0  0  0  0  0  0  0  0
   -2.0861    2.6449    1.0027 H   0  0  0  0  0  0  0  0  0  0  0  0
   -1.8923    2.0463   -0.6410 H   0  0  0  0  0  0  0  0  0  0  0  0
   -1.2900    0.7666    1.8714 H   0  0  0  0  0  0  0  0  0  0  0  0
   -1.8477   -1.5856    0.8847 H   0  0  0  0  0  0  0  0  0  0  0  0
   -2.9522   -0.7775    1.9972 H   0  0  0  0  0  0  0  0  0  0  0  0
   -3.1897   -1.3772   -0.9076 H   0  0  0  0  0  0  0  0  0  0  0  0
   -4.9706   -1.4837    1.5791 H   0  0  0  0  0  0  0  0  0  0  0  0
   -4.0331   -2.7596    0.7689 H   0  0  0  0  0  0  0  0  0  0  0  0
   -6.4293   -2.7949    0.1534 H   0  0  0  0  0  0  0  0  0  0  0  0
   -5.2393   -2.8447   -1.1282 H   0  0  0  0  0  0  0  0  0  0  0  0
   -5.7181   -0.8429   -1.9876 H   0  0  0  0  0  0  0  0  0  0  0  0
   -5.8872    0.2948    0.8401 H   0  0  0  0  0  0  0  0  0  0  0  0
   -6.1762    2.4512   -0.4992 H   0  0  0  0  0  0  0  0  0  0  0  0
   -6.6190    1.4015   -1.8922 H   0  0  0  0  0  0  0  0  0  0  0  0
   -7.9571    1.8313    0.7101 H   0  0  0  0  0  0  0  0  0  0  0  0
   -8.0829    3.0921   -1.2448 H   0  0  0  0  0  0  0  0  0  0  0  0
   -7.5526   -1.0290   -3.2743 H   0  0  0  0  0  0  0  0  0  0  0  0
   -9.2002   -2.3023   -2.0073 H   0  0  0  0  0  0  0  0  0  0  0  0
   -7.7821   -3.0941   -1.3330 H   0  0  0  0  0  0  0  0  0  0  0  0
   -8.8284   -3.0240    0.7895 H   0  0  0  0  0  0  0  0  0  0  0  0
  -10.2425   -2.2971    0.0325 H   0  0  0  0  0  0  0  0  0  0  0  0
   -7.7439   -1.1291    1.2066 H   0  0  0  0  0  0  0  0  0  0  0  0
  -10.3851   -0.8042   -1.3210 H   0  0  0  0  0  0  0  0  0  0  0  0
   -9.6047    0.4553   -2.2571 H   0  0  0  0  0  0  0  0  0  0  0  0
  -10.4746    0.9979   -0.8435 H   0  0  0  0  0  0  0  0  0  0  0  0
   -4.7876    0.8575   -2.5754 H   0  0  0  0  0  0  0  0  0  0  0  0
   -3.3143    1.6562   -2.0395 H   0  0  0  0  0  0  0  0  0  0  0  0
   -3.2202   -0.0900   -2.3143 H   0  0  0  0  0  0  0  0  0  0  0  0
    0.3752    0.7627    1.9114 H   0  0  0  0  0  0  0  0  0  0  0  0
    5.5905    0.5890   -1.0580 H   0  0  0  0  0  0  0  0  0  0  0  0
   10.6668   -0.8203    0.2136 H   0  0  0  0  0  0  0  0  0  0  0  0
   -9.4823   -1.5111    2.6069 H   0  0  0  0  0  0  0  0  0  0  0  0
   -8.1911    0.8353    2.7192 H   0  0  0  0  0  0  0  0  0  0  0  0
   -9.4548    0.3707    3.8467 H   0  0  0  0  0  0  0  0  0  0  0  0
  -11.4782   -0.4323    0.7390 H   0  0  0  0  0  0  0  0  0  0  0  0
  -11.6690   -1.1357    2.4218 H   0  0  0  0  0  0  0  0  0  0  0  0
  -11.7612    0.8391    3.3452 H   0  0  0  0  0  0  0  0  0  0  0  0
  -12.4260    2.5253    1.9376 H   0  0  0  0  0  0  0  0  0  0  0  0
    0.8512   -1.6492    0.8313 H   0  0  0  0  0  0  0  0  0  0  0  0
    2.1366   -0.7570    1.7182 H   0  0  0  0  0  0  0  0  0  0  0  0
    6.8341    0.3512    1.7488 H   0  0  0  0  0  0  0  0  0  0  0  0
    6.1628    1.8408    1.0901 H   0  0  0  0  0  0  0  0  0  0  0  0
   11.8728   -0.7817   -2.5717 H   0  0  0  0  0  0  0  0  0  0  0  0
   10.8813   -2.1960   -1.9348 H   0  0  0  0  0  0  0  0  0  0  0  0
    1.6579   -0.3285   -1.2547 H   0  0  0  0  0  0  0  0  0  0  0  0
    2.6190   -2.5387   -0.1159 H   0  0  0  0  0  0  0  0  0  0  0  0
    8.5220    1.7180    0.7259 H   0  0  0  0  0  0  0  0  0  0  0  0
    8.3279    2.1911   -1.5640 H   0  0  0  0  0  0  0  0  0  0  0  0
   13.3881   -2.3854   -1.5726 H   0  0  0  0  0  0  0  0  0  0  0  0
   11.8956   -2.2951    0.8777 H   0  0  0  0  0  0  0  0  0  0  0  0
    3.7057    0.8477   -1.0878 H   0  0  0  0  0  0  0  0  0  0  0  0
    8.8426   -0.6174    0.4852 H   0  0  0  0  0  0  0  0  0  0  0  0
   14.1591   -0.2767   -1.0172 H   0  0  0  0  0  0  0  0  0  0  0  0
   13.8844   -2.0251    1.2143 H   0  0  0  0  0  0  0  0  0  0  0  0
    2.9273    1.5503    1.7157 H   0  0  0  0  0  0  0  0  0  0  0  0
    7.1982   -0.6335   -2.0835 H   0  0  0  0  0  0  0  0  0  0  0  0
   12.0637   -0.0164    1.2180 H   0  0  0  0  0  0  0  0  0  0  0  0
    4.2666    3.1290    0.5091 H   0  0  0  0  0  0  0  0  0  0  0  0
    3.2492    2.9008   -1.0258 H   0  0  0  0  0  0  0  0  0  0  0  0
    2.6200    3.7425    0.3911 H   0  0  0  0  0  0  0  0  0  0  0  0
    8.9117   -2.6022   -0.6330 H   0  0  0  0  0  0  0  0  0  0  0  0
    7.2934   -3.2076   -1.2711 H   0  0  0  0  0  0  0  0  0  0  0  0
    8.4936   -2.4660   -2.3591 H   0  0  0  0  0  0  0  0  0  0  0  0
   14.2071    1.7257   -0.1228 H   0  0  0  0  0  0  0  0  0  0  0  0
   12.7484    2.4766    0.6507 H   0  0  0  0  0  0  0  0  0  0  0  0
   13.8300    1.4689    1.6359 H   0  0  0  0  0  0  0  0  0  0  0  0
   -4.1768    1.6423    1.3602 H   0  0  0  0  0  0  0  0  0  0  0  0
   -4.2037    2.5426   -0.2262 H   0  0  0  0  0  0  0  0  0  0  0  0
   -2.0861    2.6449    1.0027 H   0  0  0  0  0  0  0  0  0  0  0  0
   -1.8923    2.0463   -0.6410 H   0  0  0  0  0  0  0  0  0  0  0  0
   -1.2900    0.7666    1.8714 H   0  0  0  0  0  0  0  0  0  0  0  0
   -1.8477   -1.5856    0.8847 H   0  0  0  0  0  0  0  0  0  0  0  0
   -2.9522   -0.7775    1.9972 H   0  0  0  0  0  0  0  0  0  0  0  0
   -3.1897   -1.3772   -0.9076 H   0  0  0  0  0  0  0  0  0  0  0  0
   -4.9706   -1.4837    1.5791 H   0  0  0  0  0  0  0  0  0  0  0  0
   -4.0331   -2.7596    0.7689 H   0  0  0  0  0  0  0  0  0  0  0  0
   -6.4293   -2.7949    0.1534 H   0  0  0  0  0  0  0  0  0  0  0  0
   -5.2393   -2.8447   -1.1282 H   0  0  0  0  0  0  0  0  0  0  0  0
   -5.7181   -0.8429   -1.9876 H   0  0  0  0  0  0  0  0  0  0  0  0
   -5.8872    0.2948    0.8401 H   0  0  0  0  0  0  0  0  0  0  0  0
   -6.1762    2.4512   -0.4992 H   0  0  0  0  0  0  0  0  0  0  0  0
   -6.6190    1.4015   -1.8922 H   0  0  0  0  0  0  0  0  0  0  0  0
   -7.9571    1.8313    0.7101 H   0  0  0  0  0  0  0  0  0  0  0  0
   -8.0829    3.0921   -1.2448 H   0  0  0  0  0  0  0  0  0  0  0  0
   -7.5526   -1.0290   -3.2743 H   0  0  0  0  0  0  0  0  0  0  0  0
   -9.2002   -2.3023   -2.0073 H   0  0  0  0  0  0  0  0  0  0  0  0
   -7.7821   -3.0941   -1.3330 H   0  0  0  0  0  0  0  0  0  0  0  0
   -8.8284   -3.0240    0.7895 H   0  0  0  0  0  0  0  0  0  0  0  0
  -10.2425   -2.2971    0.0325 H   0  0  0  0  0  0  0  0  0  0  0  0
   -7.7439   -1.1291    1.2066 H   0  0  0  0  0  0  0  0  0  0  0  0
  -10.3851   -0.8042   -1.3210 H   0  0  0  0  0  0  0  0  0  0  0  0
   -9.6047    0.4553   -2.2571 H   0  0  0  0  0  0  0  0  0  0  0  0
  -10.4746    0.9979   -0.8435 H   0  0  0  0  0  0  0  0  0  0  0  0
   -4.7876    0.8575   -2.5754 H   0  0  0  0  0  0  0  0  0  0  0  0
   -3.3143    1.6562   -2.0395 H   0  0  0  0  0  0  0  0  0  0  0  0
   -3.2202   -0.0900   -2.3143 H   0  0  0  0  0  0  0  0  0  0  0  0
    0.3752    0.7627    1.9114 H   0  0  0  0  0  0  0  0  0  0  0  0
    5.5905    0.5890   -1.0580 H   0  0  0  0  0  0  0  0  0  0  0  0
   10.6668   -0.8203    0.2136 H   0  0  0  0  0  0  0  0  0  0  0  0
   -9.4823   -1.5111    2.6069 H   0  0  0  0  0  0  0  0  0  0  0  0
   -8.1911    0.8353    2.7192 H   0  0  0  0  0  0  0  0  0  0  0  0
   -9.4548    0.3707    3.8467 H   0  0  0  0  0  0  0  0  0  0  0  0
  -11.4782   -0.4323    0.7390 H   0  0  0  0  0  0  0  0  0  0  0  0
  -11.6690   -1.1357    2.4218 H   0  0  0  0  0  0  0  0  0  0  0  0
  -11.7612    0.8391    3.3452 H   0  0  0  0  0  0  0  0  0  0  0  0
  -12.4260    2.5253    1.9376 H   0  0  0  0  0  0  0  0  0  0  0  0
    0.8512   -1.6492    0.8313 H   0  0  0  0  0  0  0  0  0  0  0  0
    2.1366   -0.7570    1.7182 H   0  0  0  0  0  0  0  0  0  0  0  0
    6.8341    0.3512    1.7488 H   0  0  0  0  0  0  0  0  0  0  0  0
    6.1628    1.8408    1.0901 H   0  0  0  0  0  0  0  0  0  0  0  0
   11.8728   -0.7817   -2.5717 H   0  0  0  0  0  0  0  0  0  0  0  0
   10.8813   -2.1960   -1.9348 H   0  0  0  0  0  0  0  0  0  0  0  0
    1.6579   -0.3285   -1.2547 H   0  0  0  0  0  0  0  0  0  0  0  0
    2.6190   -2.5387   -0.1159 H   0  0  0  0  0  0  0  0  0  0  0  0
    8.5220    1.7180    0.7259 H   0  0  0  0  0  0  0  0  0  0  0  0
    8.3279    2.1911   -1.5640 H   0  0  0  0  0  0  0  0  0  0  0  0
   13.3881   -2.3854   -1.5726 H   0  0  0  0  0  0  0  0  0  0  0  0
   11.8956   -2.2951    0.8777 H   0  0  0  0  0  0  0  0  0  0  0  0
    3.7057    0.8477   -1.0878 H   0  0  0  0  0  0  0  0  0  0  0  0
    8.8426   -0.6174    0.4852 H   0  0  0  0  0  0  0  0  0  0  0  0
   14.1591   -0.2767   -1.0172 H   0  0  0  0  0  0  0  0  0  0  0  0
   13.8844   -2.0251    1.2143 H   0  0  0  0  0  0  0  0  0  0  0  0
    2.9273    1.5503    1.7157 H   0  0  0  0  0  0  0  0  0  0  0  0
    7.1982   -0.6335   -2.0835 H   0  0  0  0  0  0  0  0  0  0  0  0
   12.0637   -0.0164    1.2180 H   0  0  0  0  0  0  0  0  0  0  0  0
    4.2666    3.1290    0.5091 H   0  0  0  0  0  0  0  0  0  0  0  0
    3.2492    2.9008   -1.0258 H   0  0  0  0  0  0  0  0  0  0  0  0
    2.6200    3.7425    0.3911 H   0  0  0  0  0  0  0  0  0  0  0  0
    8.9117   -2.6022   -0.6330 H   0  0  0  0  0  0  0  0  0  0  0  0
    7.2934   -3.2076   -1.2711 H   0  0  0  0  0  0  0  0  0  0  0  0
    8.4936   -2.4660   -2.3591 H   0  0  0  0  0  0  0  0  0  0  0  0
   14.2071    1.7257   -0.1228 H   0  0  0  0  0  0  0  0  0  0  0  0
   12.7484    2.4766    0.6507 H   0  0  0  0  0  0  0  0  0  0  0  0
   13.8300    1.4689    1.6359 H   0  0  0  0  0  0  0  0  0  0  0  0
  1  2  1  0
  2  3  1  0
  3  4  1  0
  3  5  1  0
  5  6  1  0
  6  7  1  0
  7  8  1  0
  8  9  1  0
  9 10  1  0
  1 11  1  0
  6 11  1  0
 10 11  1  0
 10 12  1  0
 12 13  1  0
 13 14  1  0
 13 15  1  0
  9 16  1  0
 15 16  1  0
 16 17  1  6
 16 18  1  0
 18 19  1  0
 15 20  1  0
 19 20  1  0
 15 21  1  6
 11 22  1  6
  4 23  1  0
 20 26  1  0
 26 27  1  0
 27 28  1  0
 26 29  1  0
 28 30  1  0
 29 30  1  0
 30 31  1  0
 23 32  1  0
 24 33  1  0
 25 34  1  0
 32 35  1  0
 35 36  1  0
 33 37  1  0
 37 38  1  0
 34 39  1  0
 39 40  1  0
 35 41  1  0
 24 42  1  0
 41 42  1  0
 37 43  1  0
 25 44  1  0
 43 44  1  0
 39 45  1  0
 45 46  1  0
 41 47  1  0
 23 48  1  0
 47 48  1  0
 43 49  1  0
 24 50  1  0
 49 50  1  0
 45 51  1  0
 25 52  1  0
 51 52  1  0
 47 53  1  0
 49 54  1  0
 51 55  1  0
 56 57  1  0
 57 58  1  0
 58 59  1  0
 58 60  1  0
 60 61  1  0
 61 62  1  0
 62 63  1  0
 63 64  1  0
 64 65  1  0
 56 66  1  0
 61 66  1  0
 65 66  1  0
 65 67  1  0
 67 68  1  0
 68 69  1  0
 68 70  1  0
 64 71  1  0
 70 71  1  0
 71 72  1  6
 71 73  1  0
 73 74  1  0
 70 75  1  0
 74 75  1  0
 70 76  1  6
 66 77  1  6
 59 78  1  0
 75 81  1  0
 81 82  1  0
 82 83  1  0
 81 84  1  0
 83 85  1  0
 84 85  1  0
 85 86  1  0
 78 87  1  0
 79 88  1  0
 80 89  1  0
 87 90  1  0
 90 91  1  0
 88 92  1  0
 92 93  1  0
 89 94  1  0
 94 95  1  0
 90 96  1  0
 79 97  1  0
 96 97  1  0
 92 98  1  0
 80 99  1  0
 98 99  1  0
 94100  1  0
100101  1  0
 96102  1  0
 78103  1  0
102103  1  0
 98104  1  0
 79105  1  0
104105  1  0
100106  1  0
 80107  1  0
106107  1  0
102108  1  0
104109  1  0
106110  1  0
  1111  1  0
  1112  1  0
  2113  1  0
  2114  1  0
  3115  1  1
  5116  1  0
  5117  1  0
  6118  1  6
  7119  1  0
  7120  1  0
  8121  1  0
  8122  1  0
  9123  1  6
 10124  1  1
 12125  1  0
 12126  1  0
 13127  1  1
 14128  1  0
 17129  1  0
 18130  1  0
 18131  1  0
 19132  1  0
 19133  1  0
 20134  1  1
 21135  1  0
 21136  1  0
 21137  1  0
 22138  1  0
 22139  1  0
 22140  1  0
 23141  1  1
 24142  1  6
 25143  1  1
 26144  1  1
 27145  1  0
 27146  1  0
 29147  1  0
 29148  1  0
 30149  1  0
 31150  1  0
 32151  1  0
 32152  1  0
 33153  1  0
 33154  1  0
 34155  1  0
 34156  1  0
 35157  1  6
 36158  1  0
 37159  1  1
 38160  1  0
 39161  1  6
 40162  1  0
 41163  1  6
 43164  1  1
 45165  1  6
 46166  1  0
 47167  1  1
 49168  1  6
 51169  1  1
 53170  1  0
 53171  1  0
 53172  1  0
 54173  1  0
 54174  1  0
 54175  1  0
 55176  1  0
 55177  1  0
 55178  1  0
 56179  1  0
 56180  1  0
 57181  1  0
 57182  1  0
 58183  1  1
 60184  1  0
 60185  1  0
 61186  1  6
 62187  1  0
 62188  1  0
 63189  1  0
 63190  1  0
 64191  1  6
 65192  1  1
 67193  1  0
 67194  1  0
 68195  1  1
 69196  1  0
 72197  1  0
 73198  1  0
 73199  1  0
 74200  1  0
 74201  1  0
 75202  1  1
 76203  1  0
 76204  1  0
 76205  1  0
 77206  1  0
 77207  1  0
 77208  1  0
 78209  1  1
 79210  1  6
 80211  1  1
 81212  1  1
 82213  1  0
 82214  1  0
 84215  1  0
 84216  1  0
 85217  1  0
 86218  1  0
 87219  1  0
 87220  1  0
 88221  1  0
 88222  1  0
 89223  1  0
 89224  1  0
 90225  1  6
 91226  1  0
 92227  1  1
 93228  1  0
 94229  1  6
 95230  1  0
 96231  1  6
 98232  1  1
100233  1  6
101234  1  0
102235  1  1
104236  1  6
106237  1  1
108238  1  0
108239  1  0
108240  1  0
109241  1  0
109242  1  0
109243  1  0
110244  1  0
110245  1  0
110246  1  0
M  END
>  <PDBID>  (1) 
4RET

>  <PDB ID>  (1) 
4RET

>  <Generic Name>  (1) 
Digoxin

>  <Brand Name>  (1) 
Apo-digoxin#Digitek#Digox#Digoxin#Digoxin Injection C.S.D.#Lanoxin#Lanoxin Elx 0.05mg/ml Pediatric#Lanoxin Inj 0.05mg/ml Pediatric#Lanoxin Inj 0.25mg/ml#Lanoxin Tab 0.0625mg#Lanoxin Tab 0.125mg#Lanoxin Tab 0.25mg#Novo-digoxin Tab 0.25mg#PMS-digoxin#Pediatric Digoxin Injection C.S.D.#Toloxin#Agoxin#Cardiacin#Cardiogoxin#Cardioxin#Cardoxin#Celoxin#Centoxin#Digacin#Digocard-G#Digoxina#Eudigox#Lanacordin#Lanacrist#Lanicor#Lanoxicaps#Lenoxin

>  <DrugBank ID>  (1) 
DB00390

>  <ATC Codes>  (1) 
C01AA05

>  <Ligand ID>  (1) 
DGX

>  <Target Name>  (1) 
Sodium/potassium-transporting ATPase subunit alpha-1

>  <UniProt ID>  (1) 
P05023

>  <PDB ID.1>  (1) 
4RET

>  <Seq. Identity>  (1) 
94%

$$$$
