PDB_DB00220_03
     RDKit          3D

101104  0  0  0  0  0  0  0  0999 V2000
    3.0017    2.5902   -0.7213 C   0  0  2  0  0  0  0  0  0  0  0  0
    3.9353    1.7426   -1.5111 C   0  0  1  0  0  0  0  0  0  0  0  0
    5.3941    2.1059   -1.3946 C   0  0  0  0  0  0  0  0  0  0  0  0
    5.8009    2.8764   -0.2036 C   0  0  0  0  0  0  0  0  0  0  0  0
    4.8821    3.9435    0.2722 C   0  0  0  0  0  0  0  0  0  0  0  0
    3.6116    3.9754   -0.4909 C   0  0  0  0  0  0  0  0  0  0  0  0
    2.0009    0.7106    0.3669 N   0  0  0  0  0  0  0  0  0  0  0  0
    2.7463   -0.2252   -0.3930 C   0  0  1  0  0  0  0  0  0  0  0  0
    3.6873    0.2664   -1.4091 C   0  0  0  0  0  0  0  0  0  0  0  0
    2.4916    2.0069    0.5466 C   0  0  0  0  0  0  0  0  0  0  0  0
    3.4450   -1.1157    0.6614 C   0  0  1  0  0  0  0  0  0  0  0  0
    3.9675   -2.2851    0.0471 N   0  0  0  0  0  0  0  0  0  0  0  0
    4.7976   -3.0831    0.9278 C   0  0  0  0  0  0  0  0  0  0  0  0
    3.8526   -3.4975    2.0755 C   0  0  0  0  0  0  0  0  0  0  0  0
    5.1557   -4.3554    0.2134 C   0  0  0  0  0  0  0  0  0  0  0  0
    5.9382   -2.3676    1.5515 C   0  0  0  0  0  0  0  0  0  0  0  0
    4.2688   -0.4115    1.4823 O   0  0  0  0  0  0  0  0  0  0  0  0
    0.5963    0.4973    0.4992 C   0  0  0  0  0  0  0  0  0  0  0  0
   -0.2439    0.7450   -0.6743 C   0  0  2  0  0  0  0  0  0  0  0  0
   -1.7139    0.8789   -0.4931 C   0  0  1  0  0  0  0  0  0  0  0  0
    0.0372   -0.0930   -1.7318 O   0  0  0  0  0  0  0  0  0  0  0  0
   -2.4099   -0.2987   -0.3280 N   0  0  0  0  0  0  0  0  0  0  0  0
   -2.0298    1.9572    0.5353 C   0  0  0  0  0  0  0  0  0  0  0  0
   -2.3368   -1.2092    0.7004 C   0  0  0  0  0  0  0  0  0  0  0  0
   -3.5256   -1.1575    1.4753 O   0  0  0  0  0  0  0  0  0  0  0  0
   -2.3759   -2.6395    0.1106 C   0  0  0  0  0  0  0  0  0  0  0  0
   -2.2803   -3.6261    1.2474 C   0  0  0  0  0  0  0  0  0  0  0  0
   -2.4617   -5.0384    0.7469 C   0  0  0  0  0  0  0  0  0  0  0  0
   -3.7666   -5.2386    0.0457 C   0  0  0  0  0  0  0  0  0  0  0  0
   -4.4601   -3.9250   -0.1192 C   0  0  1  0  0  0  0  0  0  0  0  0
   -3.5785   -2.8624   -0.7505 C   0  0  2  0  0  0  0  0  0  0  0  0
   -5.6574   -4.0697   -0.8465 O   0  0  0  0  0  0  0  0  0  0  0  0
   -3.2395   -3.2582   -2.1764 C   0  0  0  0  0  0  0  0  0  0  0  0
   -3.7876    2.1843    0.7919 S   0  0  0  0  0  0  0  0  0  0  0  0
   -4.5061    2.9297   -0.7070 C   0  0  0  0  0  0  0  0  0  0  0  0
   -3.8570    4.2933   -0.8672 C   0  0  0  0  0  0  0  0  0  0  0  0
   -4.1746    5.1901    0.2921 C   0  0  0  0  0  0  0  0  0  0  0  0
   -5.6811    5.4449    0.2244 C   0  0  0  0  0  0  0  0  0  0  0  0
   -6.3415    4.1058    0.5032 C   0  0  0  0  0  0  0  0  0  0  0  0
   -6.0116    3.0861   -0.5288 C   0  0  0  0  0  0  0  0  0  0  0  0
    3.1385   -2.8629   -0.2757 H   0  0  0  0  0  0  0  0  0  0  0  0
   -0.4344   -0.9572   -1.6693 H   0  0  0  0  0  0  0  0  0  0  0  0
   -2.6652   -0.7938   -1.2341 H   0  0  0  0  0  0  0  0  0  0  0  0
   -6.4371   -3.9983   -0.2807 H   0  0  0  0  0  0  0  0  0  0  0  0
    2.0859    2.8488   -1.3480 H   0  0  0  0  0  0  0  0  0  0  0  0
    3.6849    1.9862   -2.5999 H   0  0  0  0  0  0  0  0  0  0  0  0
    5.7863    2.6136   -2.3040 H   0  0  0  0  0  0  0  0  0  0  0  0
    5.9442    1.1318   -1.3685 H   0  0  0  0  0  0  0  0  0  0  0  0
    6.7763    3.3850   -0.4562 H   0  0  0  0  0  0  0  0  0  0  0  0
    6.1101    2.1737    0.6275 H   0  0  0  0  0  0  0  0  0  0  0  0
    4.6821    3.8141    1.3685 H   0  0  0  0  0  0  0  0  0  0  0  0
    5.3378    4.9757    0.1698 H   0  0  0  0  0  0  0  0  0  0  0  0
    3.7378    4.4681   -1.4791 H   0  0  0  0  0  0  0  0  0  0  0  0
    2.8384    4.5471    0.0507 H   0  0  0  0  0  0  0  0  0  0  0  0
    2.0088   -0.9342   -0.8549 H   0  0  0  0  0  0  0  0  0  0  0  0
    4.7033   -0.1901   -1.1771 H   0  0  0  0  0  0  0  0  0  0  0  0
    3.4534   -0.2004   -2.4072 H   0  0  0  0  0  0  0  0  0  0  0  0
    1.6789    2.6726    0.9138 H   0  0  0  0  0  0  0  0  0  0  0  0
    3.2588    2.0094    1.3719 H   0  0  0  0  0  0  0  0  0  0  0  0
    2.5750   -1.4681    1.2999 H   0  0  0  0  0  0  0  0  0  0  0  0
    4.3751   -4.1969    2.7578 H   0  0  0  0  0  0  0  0  0  0  0  0
    3.6601   -2.5514    2.6487 H   0  0  0  0  0  0  0  0  0  0  0  0
    2.8775   -3.8292    1.7124 H   0  0  0  0  0  0  0  0  0  0  0  0
    5.9671   -4.9163    0.7228 H   0  0  0  0  0  0  0  0  0  0  0  0
    4.2497   -5.0104    0.2275 H   0  0  0  0  0  0  0  0  0  0  0  0
    5.4408   -4.2081   -0.8305 H   0  0  0  0  0  0  0  0  0  0  0  0
    6.7350   -3.1363    1.8048 H   0  0  0  0  0  0  0  0  0  0  0  0
    6.4829   -1.6625    0.8836 H   0  0  0  0  0  0  0  0  0  0  0  0
    5.6898   -1.9198    2.5420 H   0  0  0  0  0  0  0  0  0  0  0  0
    4.9303    0.1495    1.0569 H   0  0  0  0  0  0  0  0  0  0  0  0
    0.2643    0.8974    1.4687 H   0  0  0  0  0  0  0  0  0  0  0  0
    0.5446   -0.6423    0.6749 H   0  0  0  0  0  0  0  0  0  0  0  0
    0.0234    1.8373   -1.0731 H   0  0  0  0  0  0  0  0  0  0  0  0
   -2.0919    1.3557   -1.4675 H   0  0  0  0  0  0  0  0  0  0  0  0
   -1.5671    1.7767    1.5193 H   0  0  0  0  0  0  0  0  0  0  0  0
   -1.6103    2.9410    0.2044 H   0  0  0  0  0  0  0  0  0  0  0  0
   -1.4650   -1.2311    1.3691 H   0  0  0  0  0  0  0  0  0  0  0  0
   -4.2626   -0.8664    0.8826 H   0  0  0  0  0  0  0  0  0  0  0  0
   -1.4682   -2.7852   -0.5105 H   0  0  0  0  0  0  0  0  0  0  0  0
   -3.0433   -3.4255    2.0221 H   0  0  0  0  0  0  0  0  0  0  0  0
   -1.2883   -3.5875    1.7298 H   0  0  0  0  0  0  0  0  0  0  0  0
   -2.3964   -5.7137    1.6450 H   0  0  0  0  0  0  0  0  0  0  0  0
   -1.6377   -5.3538    0.0729 H   0  0  0  0  0  0  0  0  0  0  0  0
   -4.4263   -5.9002    0.6824 H   0  0  0  0  0  0  0  0  0  0  0  0
   -3.6801   -5.8021   -0.9132 H   0  0  0  0  0  0  0  0  0  0  0  0
   -4.7266   -3.5500    0.8884 H   0  0  0  0  0  0  0  0  0  0  0  0
   -4.1975   -1.9403   -0.8261 H   0  0  0  0  0  0  0  0  0  0  0  0
   -2.1635   -3.2948   -2.3646 H   0  0  0  0  0  0  0  0  0  0  0  0
   -3.6816   -2.5402   -2.9303 H   0  0  0  0  0  0  0  0  0  0  0  0
   -3.7325   -4.2298   -2.4117 H   0  0  0  0  0  0  0  0  0  0  0  0
   -4.3351    2.3552   -1.6213 H   0  0  0  0  0  0  0  0  0  0  0  0
   -2.7639    4.1347   -0.9454 H   0  0  0  0  0  0  0  0  0  0  0  0
   -4.2751    4.7395   -1.7966 H   0  0  0  0  0  0  0  0  0  0  0  0
   -3.5739    6.1068    0.1889 H   0  0  0  0  0  0  0  0  0  0  0  0
   -3.9812    4.6255    1.2347 H   0  0  0  0  0  0  0  0  0  0  0  0
   -5.9941    6.1789    0.9792 H   0  0  0  0  0  0  0  0  0  0  0  0
   -5.9946    5.7553   -0.7992 H   0  0  0  0  0  0  0  0  0  0  0  0
   -7.4486    4.2968    0.4333 H   0  0  0  0  0  0  0  0  0  0  0  0
   -6.0349    3.7119    1.4976 H   0  0  0  0  0  0  0  0  0  0  0  0
   -6.4511    3.3411   -1.4890 H   0  0  0  0  0  0  0  0  0  0  0  0
   -6.3841    2.0961   -0.1888 H   0  0  0  0  0  0  0  0  0  0  0  0
  1  2  1  0
  2  3  1  0
  3  4  1  0
  4  5  1  0
  1  6  1  0
  5  6  1  0
  7  8  1  0
  2  9  1  0
  8  9  1  0
  1 10  1  0
  7 10  1  0
  8 11  1  0
 11 12  1  0
 13 12  1  0
 13 14  1  0
 13 15  1  0
 13 16  1  0
 11 17  1  0
  7 18  1  0
 18 19  1  0
 19 20  1  0
 19 21  1  0
 20 22  1  0
 20 23  1  0
 22 24  1  0
 24 25  1  0
 24 26  1  0
 26 27  1  0
 27 28  1  0
 28 29  1  0
 29 30  1  0
 26 31  1  0
 30 31  1  0
 30 32  1  0
 31 33  1  0
 23 34  1  0
 34 35  1  0
 35 36  1  0
 36 37  1  0
 37 38  1  0
 38 39  1  0
 35 40  1  0
 39 40  1  0
 12 41  1  0
 21 42  1  0
 22 43  1  0
 32 44  1  0
  1 45  1  6
  2 46  1  6
  3 47  1  0
  3 48  1  0
  4 49  1  0
  4 50  1  0
  5 51  1  0
  5 52  1  0
  6 53  1  0
  6 54  1  0
  8 55  1  6
  9 56  1  0
  9 57  1  0
 10 58  1  0
 10 59  1  0
 11 60  1  1
 14 61  1  0
 14 62  1  0
 14 63  1  0
 15 64  1  0
 15 65  1  0
 15 66  1  0
 16 67  1  0
 16 68  1  0
 16 69  1  0
 17 70  1  0
 18 71  1  0
 18 72  1  0
 19 73  1  6
 20 74  1  6
 23 75  1  0
 23 76  1  0
 24 77  1  0
 25 78  1  0
 26 79  1  0
 27 80  1  0
 27 81  1  0
 28 82  1  0
 28 83  1  0
 29 84  1  0
 29 85  1  0
 30 86  1  1
 31 87  1  6
 33 88  1  0
 33 89  1  0
 33 90  1  0
 35 91  1  0
 36 92  1  0
 36 93  1  0
 37 94  1  0
 37 95  1  0
 38 96  1  0
 38 97  1  0
 39 98  1  0
 39 99  1  0
 40100  1  0
 40101  1  0
M  END
>  <PDBID>  (1) 
1OHR

>  <PDB ID>  (1) 
1OHR

>  <Generic Name>  (1) 
Nelfinavir

>  <Brand Name>  (1) 
Viracept#Viracept -250mg#Viracept -50mg

>  <DrugBank ID>  (1) 
DB00220

>  <ATC Codes>  (1) 
J05AE04

>  <Ligand ID>  (1) 
1UN

>  <Target Name>  (1) 
HIV-1 protease

>  <UniProt ID>  (1) 
O90777

>  <PDB ID.1>  (1) 
1OHR

>  <Seq. Identity>  (1) 
93%

$$$$
