PDB_DB00705_04
     RDKit          3D

 78 81  0  0  0  0  0  0  0  0999 V2000
   -4.4937   -1.3481    0.2149 C   0  0  0  0  0  0  0  0  0  0  0  0
   -5.7952   -0.6817    0.4131 C   0  0  0  0  0  0  0  0  0  0  0  0
   -6.6473   -1.6455    1.2726 C   0  0  0  0  0  0  0  0  0  0  0  0
   -6.4526   -3.0086    0.6856 C   0  0  0  0  0  0  0  0  0  0  0  0
   -5.9489   -2.9635   -0.7354 C   0  0  0  0  0  0  0  0  0  0  0  0
   -2.3804   -1.2411   -0.8949 C   0  0  0  0  0  0  0  0  0  0  0  0
   -1.0595   -1.5199   -0.1619 C   0  0  0  0  0  0  0  0  0  0  0  0
   -1.4626    0.6112    0.8225 C   0  0  0  0  0  0  0  0  0  0  0  0
   -2.6955   -0.1931    1.2283 C   0  0  0  0  0  0  0  0  0  0  0  0
    0.4939    0.3015   -0.5613 C   0  0  0  0  0  0  0  0  0  0  0  0
    1.7218   -0.5604   -0.7335 C   0  0  0  0  0  0  0  0  0  0  0  0
    2.7500    0.0572   -1.6561 C   0  0  0  0  0  0  0  0  0  0  0  0
    4.9918    1.0744   -1.1846 C   0  0  0  0  0  0  0  0  0  0  0  0
    5.9712    1.3268   -0.0766 C   0  0  0  0  0  0  0  0  0  0  0  0
    5.3465    1.4858    1.2824 C   0  0  0  0  0  0  0  0  0  0  0  0
    4.4157    0.2966    1.5646 C   0  0  0  0  0  0  0  0  0  0  0  0
    3.3377    0.3808    0.5438 C   0  0  0  0  0  0  0  0  0  0  0  0
    4.0004    0.0529   -0.7984 C   0  0  0  0  0  0  0  0  0  0  0  0
   -5.3644    1.6970    0.1692 C   0  0  0  0  0  0  0  0  0  0  0  0
   -5.3942    2.9334    1.0981 C   0  0  0  0  0  0  0  0  0  0  0  0
   -6.2673    2.0355   -1.0355 C   0  0  0  0  0  0  0  0  0  0  0  0
    9.7343    0.5712   -0.0252 C   0  0  0  0  0  0  0  0  0  0  0  0
   -5.8641    0.6206    0.9241 N   0  0  0  0  0  0  0  0  0  0  0  0
   -4.6901   -2.3200   -0.8948 N   0  0  0  0  0  0  0  0  0  0  0  0
   -3.3312   -0.5666   -0.0167 N   0  0  0  0  0  0  0  0  0  0  0  0
   -0.4796   -0.3202    0.3318 N   0  0  0  0  0  0  0  0  0  0  0  0
    2.3586   -0.6849    0.5903 N   0  0  0  0  0  0  0  0  0  0  0  0
    7.0451    0.3726   -0.0001 N   0  0  0  0  0  0  0  0  0  0  0  0
   -0.1106    0.4770   -1.8329 O   0  0  0  0  0  0  0  0  0  0  0  0
    8.4654   -1.0518    1.6761 O   0  0  0  0  0  0  0  0  0  0  0  0
    8.4027    1.5426    2.0614 O   0  0  0  0  0  0  0  0  0  0  0  0
    8.2260    0.5006    0.9819 S   0  0  0  0  0  0  0  0  0  0  0  0
   -4.2773   -1.9834    1.1248 H   0  0  0  0  0  0  0  0  0  0  0  0
   -6.3615   -0.7059   -0.5806 H   0  0  0  0  0  0  0  0  0  0  0  0
   -7.7081   -1.3139    1.1650 H   0  0  0  0  0  0  0  0  0  0  0  0
   -6.3729   -1.5851    2.3268 H   0  0  0  0  0  0  0  0  0  0  0  0
   -5.7913   -3.6318    1.3282 H   0  0  0  0  0  0  0  0  0  0  0  0
   -7.4421   -3.5061    0.6454 H   0  0  0  0  0  0  0  0  0  0  0  0
   -5.8445   -4.0338   -1.0617 H   0  0  0  0  0  0  0  0  0  0  0  0
   -6.7728   -2.5297   -1.3669 H   0  0  0  0  0  0  0  0  0  0  0  0
   -2.1896   -0.6629   -1.8237 H   0  0  0  0  0  0  0  0  0  0  0  0
   -2.7770   -2.2437   -1.1382 H   0  0  0  0  0  0  0  0  0  0  0  0
   -0.4258   -2.0582   -0.9070 H   0  0  0  0  0  0  0  0  0  0  0  0
   -1.2744   -2.2158    0.6604 H   0  0  0  0  0  0  0  0  0  0  0  0
   -1.0619    1.2327    1.6167 H   0  0  0  0  0  0  0  0  0  0  0  0
   -1.7592    1.2795   -0.0405 H   0  0  0  0  0  0  0  0  0  0  0  0
   -3.3535    0.4904    1.8145 H   0  0  0  0  0  0  0  0  0  0  0  0
   -2.3544   -1.0546    1.8225 H   0  0  0  0  0  0  0  0  0  0  0  0
    0.6936    1.3109   -0.1739 H   0  0  0  0  0  0  0  0  0  0  0  0
    1.4488   -1.5909   -1.0913 H   0  0  0  0  0  0  0  0  0  0  0  0
    2.4308    1.0729   -1.9329 H   0  0  0  0  0  0  0  0  0  0  0  0
    2.9735   -0.5993   -2.5198 H   0  0  0  0  0  0  0  0  0  0  0  0
    4.4916    2.0470   -1.3874 H   0  0  0  0  0  0  0  0  0  0  0  0
    5.5723    0.7171   -2.0624 H   0  0  0  0  0  0  0  0  0  0  0  0
    6.4752    2.3200   -0.3028 H   0  0  0  0  0  0  0  0  0  0  0  0
    4.6923    2.4059    1.2959 H   0  0  0  0  0  0  0  0  0  0  0  0
    6.1196    1.5999    2.0345 H   0  0  0  0  0  0  0  0  0  0  0  0
    4.0428    0.3369    2.5963 H   0  0  0  0  0  0  0  0  0  0  0  0
    5.0395   -0.5931    1.3791 H   0  0  0  0  0  0  0  0  0  0  0  0
    2.8492    1.3621    0.4617 H   0  0  0  0  0  0  0  0  0  0  0  0
    4.4074   -0.9696   -0.8068 H   0  0  0  0  0  0  0  0  0  0  0  0
   -4.3751    1.5321   -0.2296 H   0  0  0  0  0  0  0  0  0  0  0  0
   -4.5318    2.8355    1.7598 H   0  0  0  0  0  0  0  0  0  0  0  0
   -5.3913    3.8169    0.4447 H   0  0  0  0  0  0  0  0  0  0  0  0
   -6.3823    2.8696    1.6443 H   0  0  0  0  0  0  0  0  0  0  0  0
   -7.1381    2.6181   -0.7113 H   0  0  0  0  0  0  0  0  0  0  0  0
   -5.6640    2.5852   -1.7683 H   0  0  0  0  0  0  0  0  0  0  0  0
   -6.5923    1.1027   -1.4908 H   0  0  0  0  0  0  0  0  0  0  0  0
    9.9923   -0.4497   -0.3528 H   0  0  0  0  0  0  0  0  0  0  0  0
   10.5140    1.0395    0.6133 H   0  0  0  0  0  0  0  0  0  0  0  0
    9.4593    1.1762   -0.8849 H   0  0  0  0  0  0  0  0  0  0  0  0
   -6.7902    0.8214    1.3462 H   0  0  0  0  0  0  0  0  0  0  0  0
   -4.7644   -1.6998   -1.7613 H   0  0  0  0  0  0  0  0  0  0  0  0
    2.9157   -1.5883    0.5119 H   0  0  0  0  0  0  0  0  0  0  0  0
    6.7500   -0.5974   -0.2737 H   0  0  0  0  0  0  0  0  0  0  0  0
    0.3737    1.1587   -2.3699 H   0  0  0  0  0  0  0  0  0  0  0  0
    8.6746   -1.6822    0.9351 H   0  0  0  0  0  0  0  0  0  0  0  0
    8.6556    1.3315    2.9891 H   0  0  0  0  0  0  0  0  0  0  0  0
  1  2  1  0
  2  3  1  0
  3  4  1  0
  4  5  1  0
  6  7  1  0
  8  9  1  0
 10 11  1  0
 11 12  1  0
 13 14  1  0
 14 15  1  0
 15 16  1  0
 16 17  1  0
 12 18  1  0
 13 18  1  0
 17 18  1  0
 19 20  1  0
 19 21  1  0
  2 23  1  0
 19 23  1  0
  1 24  1  0
  5 24  1  0
  1 25  1  0
  6 25  1  0
  9 25  1  0
  7 26  1  0
  8 26  1  0
 10 26  1  0
 11 27  1  0
 17 27  1  0
 14 28  1  0
 10 29  1  0
 22 32  1  0
 28 32  1  0
 32 30  1  0
 31 32  1  0
  1 33  1  0
  2 34  1  0
  3 35  1  0
  3 36  1  0
  4 37  1  0
  4 38  1  0
  5 39  1  0
  5 40  1  0
  6 41  1  0
  6 42  1  0
  7 43  1  0
  7 44  1  0
  8 45  1  0
  8 46  1  0
  9 47  1  0
  9 48  1  0
 10 49  1  0
 11 50  1  0
 12 51  1  0
 12 52  1  0
 13 53  1  0
 13 54  1  0
 14 55  1  0
 15 56  1  0
 15 57  1  0
 16 58  1  0
 16 59  1  0
 17 60  1  0
 18 61  1  0
 19 62  1  0
 20 63  1  0
 20 64  1  0
 20 65  1  0
 21 66  1  0
 21 67  1  0
 21 68  1  0
 22 69  1  0
 22 70  1  0
 22 71  1  0
 23 72  1  0
 24 73  1  0
 27 74  1  0
 28 75  1  0
 29 76  1  0
 30 77  1  0
 31 78  1  0
M  END
>  <PDBID>  (1) 
1KLM

>  <PDB ID>  (1) 
1KLM

>  <Generic Name>  (1) 
Delavirdine

>  <Brand Name>  (1) 
Rescriptor

>  <DrugBank ID>  (1) 
DB00705

>  <ATC Codes>  (1) 
J05AG02

>  <Ligand ID>  (1) 
SPP

>  <Target Name>  (1) 
Reverse transcriptase/RNaseH

>  <UniProt ID>  (1) 
Q72547

>  <PDB ID.1>  (1) 
1KLM

>  <Seq. Identity>  (1) 
95%

$$$$
