PDB_DB00293_02
     RDKit          3D

296304  0  0  0  0  0  0  0  0999 V2000
    7.0261    0.7877    0.5228 N   0  0  0  0  0  0  0  0  0  0  0  0
    7.9113   -0.2451    0.0857 C   0  0  0  0  0  0  0  0  0  0  0  0
    7.9314   -1.3551    1.1158 C   0  0  0  0  0  0  0  0  0  0  0  0
    7.6984   -0.6960   -1.2530 N   0  0  0  0  0  0  0  0  0  0  0  0
    6.3130   -0.8862   -1.6182 C   0  0  0  0  0  0  0  0  0  0  0  0
    6.2836   -1.1429   -2.9888 O   0  0  0  0  0  0  0  0  0  0  0  0
    5.4926    0.3395   -1.2578 C   0  0  0  0  0  0  0  0  0  0  0  0
    4.0825    0.2099   -1.7260 C   0  0  0  0  0  0  0  0  0  0  0  0
    3.0615    0.8932   -0.8471 C   0  0  0  0  0  0  0  0  0  0  0  0
    3.5881    1.9952   -0.0157 C   0  0  0  0  0  0  0  0  0  0  0  0
    4.8434    1.7158    0.7418 C   0  0  0  0  0  0  0  0  0  0  0  0
    5.6217    0.5184    0.2368 C   0  0  0  0  0  0  0  0  0  0  0  0
    2.1325   -0.0917   -0.1809 C   0  0  0  0  0  0  0  0  0  0  0  0
    1.1613    0.5394    0.6783 N   0  0  0  0  0  0  0  0  0  0  0  0
   -2.7706   -0.2069    1.0143 C   0  0  0  0  0  0  0  0  0  0  0  0
   -1.2808    0.5695    1.7988 S   0  0  0  0  0  0  0  0  0  0  0  0
    0.0173   -0.3541    0.9060 C   0  0  0  0  0  0  0  0  0  0  0  0
   -0.7557   -0.6580   -0.3418 C   0  0  0  0  0  0  0  0  0  0  0  0
   -2.1117   -1.1683    0.1058 C   0  0  0  0  0  0  0  0  0  0  0  0
   -3.5133    0.8481    0.2332 C   0  0  0  0  0  0  0  0  0  0  0  0
   -3.7087    1.8529    1.3316 O   0  0  0  0  0  0  0  0  0  0  0  0
   -4.8247    0.6574   -0.1667 N   0  0  0  0  0  0  0  0  0  0  0  0
   -5.3809   -0.3041   -0.9779 C   0  0  1  0  0  0  0  0  0  0  0  0
   -6.5236   -0.9947   -0.1942 C   0  0  0  0  0  0  0  0  0  0  0  0
   -7.5892   -0.0146    0.2191 C   0  0  0  0  0  0  0  0  0  0  0  0
   -8.7080   -0.6840    0.9825 C   0  0  0  0  0  0  0  0  0  0  0  0
   -9.3285   -1.6702    0.2191 O   0  0  0  0  0  0  0  0  0  0  0  0
   -9.6836    0.3216    1.1920 O   0  0  0  0  0  0  0  0  0  0  0  0
   -5.9937    0.1899   -2.2734 C   0  0  0  0  0  0  0  0  0  0  0  0
   -5.0269    0.8057   -3.0782 O   0  0  0  0  0  0  0  0  0  0  0  0
   -6.5261   -0.8709   -3.0016 O   0  0  0  0  0  0  0  0  0  0  0  0
    1.8099    0.5598    2.0255 C   0  0  0  0  0  0  0  0  0  0  0  0
    7.0261    0.7877    0.5228 N   0  0  0  0  0  0  0  0  0  0  0  0
    7.9113   -0.2451    0.0857 C   0  0  0  0  0  0  0  0  0  0  0  0
    7.9314   -1.3551    1.1158 C   0  0  0  0  0  0  0  0  0  0  0  0
    7.6984   -0.6960   -1.2530 N   0  0  0  0  0  0  0  0  0  0  0  0
    6.3130   -0.8862   -1.6182 C   0  0  0  0  0  0  0  0  0  0  0  0
    6.2836   -1.1429   -2.9888 O   0  0  0  0  0  0  0  0  0  0  0  0
    5.4926    0.3395   -1.2578 C   0  0  0  0  0  0  0  0  0  0  0  0
    4.0825    0.2099   -1.7260 C   0  0  0  0  0  0  0  0  0  0  0  0
    3.0615    0.8932   -0.8471 C   0  0  0  0  0  0  0  0  0  0  0  0
    3.5881    1.9952   -0.0157 C   0  0  0  0  0  0  0  0  0  0  0  0
    4.8434    1.7158    0.7418 C   0  0  0  0  0  0  0  0  0  0  0  0
    5.6217    0.5184    0.2368 C   0  0  0  0  0  0  0  0  0  0  0  0
    2.1325   -0.0917   -0.1809 C   0  0  0  0  0  0  0  0  0  0  0  0
    1.1613    0.5394    0.6783 N   0  0  0  0  0  0  0  0  0  0  0  0
   -2.7706   -0.2069    1.0143 C   0  0  0  0  0  0  0  0  0  0  0  0
   -1.2808    0.5695    1.7988 S   0  0  0  0  0  0  0  0  0  0  0  0
    0.0173   -0.3541    0.9060 C   0  0  0  0  0  0  0  0  0  0  0  0
   -0.7557   -0.6580   -0.3418 C   0  0  0  0  0  0  0  0  0  0  0  0
   -2.1117   -1.1683    0.1058 C   0  0  0  0  0  0  0  0  0  0  0  0
   -3.5133    0.8481    0.2332 C   0  0  0  0  0  0  0  0  0  0  0  0
   -3.7087    1.8529    1.3316 O   0  0  0  0  0  0  0  0  0  0  0  0
   -4.8247    0.6574   -0.1667 N   0  0  0  0  0  0  0  0  0  0  0  0
   -5.3809   -0.3041   -0.9779 C   0  0  1  0  0  0  0  0  0  0  0  0
   -6.5236   -0.9947   -0.1942 C   0  0  0  0  0  0  0  0  0  0  0  0
   -7.5892   -0.0146    0.2191 C   0  0  0  0  0  0  0  0  0  0  0  0
   -8.7080   -0.6840    0.9825 C   0  0  0  0  0  0  0  0  0  0  0  0
   -9.3285   -1.6702    0.2191 O   0  0  0  0  0  0  0  0  0  0  0  0
   -9.6836    0.3216    1.1920 O   0  0  0  0  0  0  0  0  0  0  0  0
   -5.9937    0.1899   -2.2734 C   0  0  0  0  0  0  0  0  0  0  0  0
   -5.0269    0.8057   -3.0782 O   0  0  0  0  0  0  0  0  0  0  0  0
   -6.5261   -0.8709   -3.0016 O   0  0  0  0  0  0  0  0  0  0  0  0
    1.8099    0.5598    2.0255 C   0  0  0  0  0  0  0  0  0  0  0  0
    7.0261    0.7877    0.5228 N   0  0  0  0  0  0  0  0  0  0  0  0
    7.9113   -0.2451    0.0857 C   0  0  0  0  0  0  0  0  0  0  0  0
    7.9314   -1.3551    1.1158 C   0  0  0  0  0  0  0  0  0  0  0  0
    7.6984   -0.6960   -1.2530 N   0  0  0  0  0  0  0  0  0  0  0  0
    6.3130   -0.8862   -1.6182 C   0  0  0  0  0  0  0  0  0  0  0  0
    6.2836   -1.1429   -2.9888 O   0  0  0  0  0  0  0  0  0  0  0  0
    5.4926    0.3395   -1.2578 C   0  0  0  0  0  0  0  0  0  0  0  0
    4.0825    0.2099   -1.7260 C   0  0  0  0  0  0  0  0  0  0  0  0
    3.0615    0.8932   -0.8471 C   0  0  0  0  0  0  0  0  0  0  0  0
    3.5881    1.9952   -0.0157 C   0  0  0  0  0  0  0  0  0  0  0  0
    4.8434    1.7158    0.7418 C   0  0  0  0  0  0  0  0  0  0  0  0
    5.6217    0.5184    0.2368 C   0  0  0  0  0  0  0  0  0  0  0  0
    2.1325   -0.0917   -0.1809 C   0  0  0  0  0  0  0  0  0  0  0  0
    1.1613    0.5394    0.6783 N   0  0  0  0  0  0  0  0  0  0  0  0
   -2.7706   -0.2069    1.0143 C   0  0  0  0  0  0  0  0  0  0  0  0
   -1.2808    0.5695    1.7988 S   0  0  0  0  0  0  0  0  0  0  0  0
    0.0173   -0.3541    0.9060 C   0  0  0  0  0  0  0  0  0  0  0  0
   -0.7557   -0.6580   -0.3418 C   0  0  0  0  0  0  0  0  0  0  0  0
   -2.1117   -1.1683    0.1058 C   0  0  0  0  0  0  0  0  0  0  0  0
   -3.5133    0.8481    0.2332 C   0  0  0  0  0  0  0  0  0  0  0  0
   -3.7087    1.8529    1.3316 O   0  0  0  0  0  0  0  0  0  0  0  0
   -4.8247    0.6574   -0.1667 N   0  0  0  0  0  0  0  0  0  0  0  0
   -5.3809   -0.3041   -0.9779 C   0  0  1  0  0  0  0  0  0  0  0  0
   -6.5236   -0.9947   -0.1942 C   0  0  0  0  0  0  0  0  0  0  0  0
   -7.5892   -0.0146    0.2191 C   0  0  0  0  0  0  0  0  0  0  0  0
   -8.7080   -0.6840    0.9825 C   0  0  0  0  0  0  0  0  0  0  0  0
   -9.3285   -1.6702    0.2191 O   0  0  0  0  0  0  0  0  0  0  0  0
   -9.6836    0.3216    1.1920 O   0  0  0  0  0  0  0  0  0  0  0  0
   -5.9937    0.1899   -2.2734 C   0  0  0  0  0  0  0  0  0  0  0  0
   -5.0269    0.8057   -3.0782 O   0  0  0  0  0  0  0  0  0  0  0  0
   -6.5261   -0.8709   -3.0016 O   0  0  0  0  0  0  0  0  0  0  0  0
    1.8099    0.5598    2.0255 C   0  0  0  0  0  0  0  0  0  0  0  0
    7.0261    0.7877    0.5228 N   0  0  0  0  0  0  0  0  0  0  0  0
    7.9113   -0.2451    0.0857 C   0  0  0  0  0  0  0  0  0  0  0  0
    7.9314   -1.3551    1.1158 C   0  0  0  0  0  0  0  0  0  0  0  0
    7.6984   -0.6960   -1.2530 N   0  0  0  0  0  0  0  0  0  0  0  0
    6.3130   -0.8862   -1.6182 C   0  0  0  0  0  0  0  0  0  0  0  0
    6.2836   -1.1429   -2.9888 O   0  0  0  0  0  0  0  0  0  0  0  0
    5.4926    0.3395   -1.2578 C   0  0  0  0  0  0  0  0  0  0  0  0
    4.0825    0.2099   -1.7260 C   0  0  0  0  0  0  0  0  0  0  0  0
    3.0615    0.8932   -0.8471 C   0  0  0  0  0  0  0  0  0  0  0  0
    3.5881    1.9952   -0.0157 C   0  0  0  0  0  0  0  0  0  0  0  0
    4.8434    1.7158    0.7418 C   0  0  0  0  0  0  0  0  0  0  0  0
    5.6217    0.5184    0.2368 C   0  0  0  0  0  0  0  0  0  0  0  0
    2.1325   -0.0917   -0.1809 C   0  0  0  0  0  0  0  0  0  0  0  0
    1.1613    0.5394    0.6783 N   0  0  0  0  0  0  0  0  0  0  0  0
   -2.7706   -0.2069    1.0143 C   0  0  0  0  0  0  0  0  0  0  0  0
   -1.2808    0.5695    1.7988 S   0  0  0  0  0  0  0  0  0  0  0  0
    0.0173   -0.3541    0.9060 C   0  0  0  0  0  0  0  0  0  0  0  0
   -0.7557   -0.6580   -0.3418 C   0  0  0  0  0  0  0  0  0  0  0  0
   -2.1117   -1.1683    0.1058 C   0  0  0  0  0  0  0  0  0  0  0  0
   -3.5133    0.8481    0.2332 C   0  0  0  0  0  0  0  0  0  0  0  0
   -3.7087    1.8529    1.3316 O   0  0  0  0  0  0  0  0  0  0  0  0
   -4.8247    0.6574   -0.1667 N   0  0  0  0  0  0  0  0  0  0  0  0
   -5.3809   -0.3041   -0.9779 C   0  0  1  0  0  0  0  0  0  0  0  0
   -6.5236   -0.9947   -0.1942 C   0  0  0  0  0  0  0  0  0  0  0  0
   -7.5892   -0.0146    0.2191 C   0  0  0  0  0  0  0  0  0  0  0  0
   -8.7080   -0.6840    0.9825 C   0  0  0  0  0  0  0  0  0  0  0  0
   -9.3285   -1.6702    0.2191 O   0  0  0  0  0  0  0  0  0  0  0  0
   -9.6836    0.3216    1.1920 O   0  0  0  0  0  0  0  0  0  0  0  0
   -5.9937    0.1899   -2.2734 C   0  0  0  0  0  0  0  0  0  0  0  0
   -5.0269    0.8057   -3.0782 O   0  0  0  0  0  0  0  0  0  0  0  0
   -6.5261   -0.8709   -3.0016 O   0  0  0  0  0  0  0  0  0  0  0  0
    1.8099    0.5598    2.0255 C   0  0  0  0  0  0  0  0  0  0  0  0
    7.2371    1.7308    0.1221 H   0  0  0  0  0  0  0  0  0  0  0  0
    8.9496    0.2052    0.1015 H   0  0  0  0  0  0  0  0  0  0  0  0
    8.1129   -0.8439    2.0926 H   0  0  0  0  0  0  0  0  0  0  0  0
    8.8187   -2.0075    0.9484 H   0  0  0  0  0  0  0  0  0  0  0  0
    6.9910   -1.9208    1.1744 H   0  0  0  0  0  0  0  0  0  0  0  0
    8.1427   -0.0329   -1.9043 H   0  0  0  0  0  0  0  0  0  0  0  0
    5.9048   -1.7592   -1.0791 H   0  0  0  0  0  0  0  0  0  0  0  0
    5.6877   -1.9030   -3.1746 H   0  0  0  0  0  0  0  0  0  0  0  0
    6.0279    1.2115   -1.7386 H   0  0  0  0  0  0  0  0  0  0  0  0
    3.8252   -0.8378   -1.9657 H   0  0  0  0  0  0  0  0  0  0  0  0
    4.0475    0.7315   -2.7292 H   0  0  0  0  0  0  0  0  0  0  0  0
    2.3301    1.4354   -1.5830 H   0  0  0  0  0  0  0  0  0  0  0  0
    3.7740    2.8896   -0.7106 H   0  0  0  0  0  0  0  0  0  0  0  0
    2.8032    2.3677    0.6722 H   0  0  0  0  0  0  0  0  0  0  0  0
    4.6065    1.5482    1.8038 H   0  0  0  0  0  0  0  0  0  0  0  0
    5.4789    2.6370    0.7219 H   0  0  0  0  0  0  0  0  0  0  0  0
    5.3523   -0.4211    0.7495 H   0  0  0  0  0  0  0  0  0  0  0  0
    2.7536   -0.8403    0.3825 H   0  0  0  0  0  0  0  0  0  0  0  0
    1.6386   -0.6752   -1.0085 H   0  0  0  0  0  0  0  0  0  0  0  0
   -3.3317   -0.6054    1.8562 H   0  0  0  0  0  0  0  0  0  0  0  0
    0.3322   -1.2400    1.4715 H   0  0  0  0  0  0  0  0  0  0  0  0
   -0.2643   -1.4708   -0.9009 H   0  0  0  0  0  0  0  0  0  0  0  0
   -0.8586    0.2673   -0.9314 H   0  0  0  0  0  0  0  0  0  0  0  0
   -1.9491   -2.1841    0.5381 H   0  0  0  0  0  0  0  0  0  0  0  0
   -2.6709   -1.3166   -0.8297 H   0  0  0  0  0  0  0  0  0  0  0  0
   -2.8878    1.4114   -0.4693 H   0  0  0  0  0  0  0  0  0  0  0  0
   -4.1915    1.2718    1.9993 H   0  0  0  0  0  0  0  0  0  0  0  0
   -5.4788    1.4698    0.0461 H   0  0  0  0  0  0  0  0  0  0  0  0
   -4.7619   -1.1767   -1.2959 H   0  0  0  0  0  0  0  0  0  0  0  0
   -6.0877   -1.4509    0.7237 H   0  0  0  0  0  0  0  0  0  0  0  0
   -6.9627   -1.7533   -0.8733 H   0  0  0  0  0  0  0  0  0  0  0  0
   -8.0546    0.4670   -0.6453 H   0  0  0  0  0  0  0  0  0  0  0  0
   -7.1837    0.7631    0.9031 H   0  0  0  0  0  0  0  0  0  0  0  0
   -8.3699   -1.0129    1.9642 H   0  0  0  0  0  0  0  0  0  0  0  0
  -10.0209   -2.1453    0.7327 H   0  0  0  0  0  0  0  0  0  0  0  0
   -9.2715    1.1503    1.4822 H   0  0  0  0  0  0  0  0  0  0  0  0
   -6.8195    0.9121   -2.1019 H   0  0  0  0  0  0  0  0  0  0  0  0
   -4.7809    1.6723   -2.6778 H   0  0  0  0  0  0  0  0  0  0  0  0
   -5.8112   -1.4992   -3.3157 H   0  0  0  0  0  0  0  0  0  0  0  0
    2.8015    0.1177    1.9874 H   0  0  0  0  0  0  0  0  0  0  0  0
    1.6880    1.5308    2.4866 H   0  0  0  0  0  0  0  0  0  0  0  0
    1.2052   -0.1549    2.6634 H   0  0  0  0  0  0  0  0  0  0  0  0
    7.2371    1.7308    0.1221 H   0  0  0  0  0  0  0  0  0  0  0  0
    8.9496    0.2052    0.1015 H   0  0  0  0  0  0  0  0  0  0  0  0
    8.1129   -0.8439    2.0926 H   0  0  0  0  0  0  0  0  0  0  0  0
    8.8187   -2.0075    0.9484 H   0  0  0  0  0  0  0  0  0  0  0  0
    6.9910   -1.9208    1.1744 H   0  0  0  0  0  0  0  0  0  0  0  0
    8.1427   -0.0329   -1.9043 H   0  0  0  0  0  0  0  0  0  0  0  0
    5.9048   -1.7592   -1.0791 H   0  0  0  0  0  0  0  0  0  0  0  0
    5.6877   -1.9030   -3.1746 H   0  0  0  0  0  0  0  0  0  0  0  0
    6.0279    1.2115   -1.7386 H   0  0  0  0  0  0  0  0  0  0  0  0
    3.8252   -0.8378   -1.9657 H   0  0  0  0  0  0  0  0  0  0  0  0
    4.0475    0.7315   -2.7292 H   0  0  0  0  0  0  0  0  0  0  0  0
    2.3301    1.4354   -1.5830 H   0  0  0  0  0  0  0  0  0  0  0  0
    3.7740    2.8896   -0.7106 H   0  0  0  0  0  0  0  0  0  0  0  0
    2.8032    2.3677    0.6722 H   0  0  0  0  0  0  0  0  0  0  0  0
    4.6065    1.5482    1.8038 H   0  0  0  0  0  0  0  0  0  0  0  0
    5.4789    2.6370    0.7219 H   0  0  0  0  0  0  0  0  0  0  0  0
    5.3523   -0.4211    0.7495 H   0  0  0  0  0  0  0  0  0  0  0  0
    2.7536   -0.8403    0.3825 H   0  0  0  0  0  0  0  0  0  0  0  0
    1.6386   -0.6752   -1.0085 H   0  0  0  0  0  0  0  0  0  0  0  0
   -3.3317   -0.6054    1.8562 H   0  0  0  0  0  0  0  0  0  0  0  0
    0.3322   -1.2400    1.4715 H   0  0  0  0  0  0  0  0  0  0  0  0
   -0.2643   -1.4708   -0.9009 H   0  0  0  0  0  0  0  0  0  0  0  0
   -0.8586    0.2673   -0.9314 H   0  0  0  0  0  0  0  0  0  0  0  0
   -1.9491   -2.1841    0.5381 H   0  0  0  0  0  0  0  0  0  0  0  0
   -2.6709   -1.3166   -0.8297 H   0  0  0  0  0  0  0  0  0  0  0  0
   -2.8878    1.4114   -0.4693 H   0  0  0  0  0  0  0  0  0  0  0  0
   -4.1915    1.2718    1.9993 H   0  0  0  0  0  0  0  0  0  0  0  0
   -5.4788    1.4698    0.0461 H   0  0  0  0  0  0  0  0  0  0  0  0
   -4.7619   -1.1767   -1.2959 H   0  0  0  0  0  0  0  0  0  0  0  0
   -6.0877   -1.4509    0.7237 H   0  0  0  0  0  0  0  0  0  0  0  0
   -6.9627   -1.7533   -0.8733 H   0  0  0  0  0  0  0  0  0  0  0  0
   -8.0546    0.4670   -0.6453 H   0  0  0  0  0  0  0  0  0  0  0  0
   -7.1837    0.7631    0.9031 H   0  0  0  0  0  0  0  0  0  0  0  0
   -8.3699   -1.0129    1.9642 H   0  0  0  0  0  0  0  0  0  0  0  0
  -10.0209   -2.1453    0.7327 H   0  0  0  0  0  0  0  0  0  0  0  0
   -9.2715    1.1503    1.4822 H   0  0  0  0  0  0  0  0  0  0  0  0
   -6.8195    0.9121   -2.1019 H   0  0  0  0  0  0  0  0  0  0  0  0
   -4.7809    1.6723   -2.6778 H   0  0  0  0  0  0  0  0  0  0  0  0
   -5.8112   -1.4992   -3.3157 H   0  0  0  0  0  0  0  0  0  0  0  0
    2.8015    0.1177    1.9874 H   0  0  0  0  0  0  0  0  0  0  0  0
    1.6880    1.5308    2.4866 H   0  0  0  0  0  0  0  0  0  0  0  0
    1.2052   -0.1549    2.6634 H   0  0  0  0  0  0  0  0  0  0  0  0
    7.2371    1.7308    0.1221 H   0  0  0  0  0  0  0  0  0  0  0  0
    8.9496    0.2052    0.1015 H   0  0  0  0  0  0  0  0  0  0  0  0
    8.1129   -0.8439    2.0926 H   0  0  0  0  0  0  0  0  0  0  0  0
    8.8187   -2.0075    0.9484 H   0  0  0  0  0  0  0  0  0  0  0  0
    6.9910   -1.9208    1.1744 H   0  0  0  0  0  0  0  0  0  0  0  0
    8.1427   -0.0329   -1.9043 H   0  0  0  0  0  0  0  0  0  0  0  0
    5.9048   -1.7592   -1.0791 H   0  0  0  0  0  0  0  0  0  0  0  0
    5.6877   -1.9030   -3.1746 H   0  0  0  0  0  0  0  0  0  0  0  0
    6.0279    1.2115   -1.7386 H   0  0  0  0  0  0  0  0  0  0  0  0
    3.8252   -0.8378   -1.9657 H   0  0  0  0  0  0  0  0  0  0  0  0
    4.0475    0.7315   -2.7292 H   0  0  0  0  0  0  0  0  0  0  0  0
    2.3301    1.4354   -1.5830 H   0  0  0  0  0  0  0  0  0  0  0  0
    3.7740    2.8896   -0.7106 H   0  0  0  0  0  0  0  0  0  0  0  0
    2.8032    2.3677    0.6722 H   0  0  0  0  0  0  0  0  0  0  0  0
    4.6065    1.5482    1.8038 H   0  0  0  0  0  0  0  0  0  0  0  0
    5.4789    2.6370    0.7219 H   0  0  0  0  0  0  0  0  0  0  0  0
    5.3523   -0.4211    0.7495 H   0  0  0  0  0  0  0  0  0  0  0  0
    2.7536   -0.8403    0.3825 H   0  0  0  0  0  0  0  0  0  0  0  0
    1.6386   -0.6752   -1.0085 H   0  0  0  0  0  0  0  0  0  0  0  0
   -3.3317   -0.6054    1.8562 H   0  0  0  0  0  0  0  0  0  0  0  0
    0.3322   -1.2400    1.4715 H   0  0  0  0  0  0  0  0  0  0  0  0
   -0.2643   -1.4708   -0.9009 H   0  0  0  0  0  0  0  0  0  0  0  0
   -0.8586    0.2673   -0.9314 H   0  0  0  0  0  0  0  0  0  0  0  0
   -1.9491   -2.1841    0.5381 H   0  0  0  0  0  0  0  0  0  0  0  0
   -2.6709   -1.3166   -0.8297 H   0  0  0  0  0  0  0  0  0  0  0  0
   -2.8878    1.4114   -0.4693 H   0  0  0  0  0  0  0  0  0  0  0  0
   -4.1915    1.2718    1.9993 H   0  0  0  0  0  0  0  0  0  0  0  0
   -5.4788    1.4698    0.0461 H   0  0  0  0  0  0  0  0  0  0  0  0
   -4.7619   -1.1767   -1.2959 H   0  0  0  0  0  0  0  0  0  0  0  0
   -6.0877   -1.4509    0.7237 H   0  0  0  0  0  0  0  0  0  0  0  0
   -6.9627   -1.7533   -0.8733 H   0  0  0  0  0  0  0  0  0  0  0  0
   -8.0546    0.4670   -0.6453 H   0  0  0  0  0  0  0  0  0  0  0  0
   -7.1837    0.7631    0.9031 H   0  0  0  0  0  0  0  0  0  0  0  0
   -8.3699   -1.0129    1.9642 H   0  0  0  0  0  0  0  0  0  0  0  0
  -10.0209   -2.1453    0.7327 H   0  0  0  0  0  0  0  0  0  0  0  0
   -9.2715    1.1503    1.4822 H   0  0  0  0  0  0  0  0  0  0  0  0
   -6.8195    0.9121   -2.1019 H   0  0  0  0  0  0  0  0  0  0  0  0
   -4.7809    1.6723   -2.6778 H   0  0  0  0  0  0  0  0  0  0  0  0
   -5.8112   -1.4992   -3.3157 H   0  0  0  0  0  0  0  0  0  0  0  0
    2.8015    0.1177    1.9874 H   0  0  0  0  0  0  0  0  0  0  0  0
    1.6880    1.5308    2.4866 H   0  0  0  0  0  0  0  0  0  0  0  0
    1.2052   -0.1549    2.6634 H   0  0  0  0  0  0  0  0  0  0  0  0
    7.2371    1.7308    0.1221 H   0  0  0  0  0  0  0  0  0  0  0  0
    8.9496    0.2052    0.1015 H   0  0  0  0  0  0  0  0  0  0  0  0
    8.1129   -0.8439    2.0926 H   0  0  0  0  0  0  0  0  0  0  0  0
    8.8187   -2.0075    0.9484 H   0  0  0  0  0  0  0  0  0  0  0  0
    6.9910   -1.9208    1.1744 H   0  0  0  0  0  0  0  0  0  0  0  0
    8.1427   -0.0329   -1.9043 H   0  0  0  0  0  0  0  0  0  0  0  0
    5.9048   -1.7592   -1.0791 H   0  0  0  0  0  0  0  0  0  0  0  0
    5.6877   -1.9030   -3.1746 H   0  0  0  0  0  0  0  0  0  0  0  0
    6.0279    1.2115   -1.7386 H   0  0  0  0  0  0  0  0  0  0  0  0
    3.8252   -0.8378   -1.9657 H   0  0  0  0  0  0  0  0  0  0  0  0
    4.0475    0.7315   -2.7292 H   0  0  0  0  0  0  0  0  0  0  0  0
    2.3301    1.4354   -1.5830 H   0  0  0  0  0  0  0  0  0  0  0  0
    3.7740    2.8896   -0.7106 H   0  0  0  0  0  0  0  0  0  0  0  0
    2.8032    2.3677    0.6722 H   0  0  0  0  0  0  0  0  0  0  0  0
    4.6065    1.5482    1.8038 H   0  0  0  0  0  0  0  0  0  0  0  0
    5.4789    2.6370    0.7219 H   0  0  0  0  0  0  0  0  0  0  0  0
    5.3523   -0.4211    0.7495 H   0  0  0  0  0  0  0  0  0  0  0  0
    2.7536   -0.8403    0.3825 H   0  0  0  0  0  0  0  0  0  0  0  0
    1.6386   -0.6752   -1.0085 H   0  0  0  0  0  0  0  0  0  0  0  0
   -3.3317   -0.6054    1.8562 H   0  0  0  0  0  0  0  0  0  0  0  0
    0.3322   -1.2400    1.4715 H   0  0  0  0  0  0  0  0  0  0  0  0
   -0.2643   -1.4708   -0.9009 H   0  0  0  0  0  0  0  0  0  0  0  0
   -0.8586    0.2673   -0.9314 H   0  0  0  0  0  0  0  0  0  0  0  0
   -1.9491   -2.1841    0.5381 H   0  0  0  0  0  0  0  0  0  0  0  0
   -2.6709   -1.3166   -0.8297 H   0  0  0  0  0  0  0  0  0  0  0  0
   -2.8878    1.4114   -0.4693 H   0  0  0  0  0  0  0  0  0  0  0  0
   -4.1915    1.2718    1.9993 H   0  0  0  0  0  0  0  0  0  0  0  0
   -5.4788    1.4698    0.0461 H   0  0  0  0  0  0  0  0  0  0  0  0
   -4.7619   -1.1767   -1.2959 H   0  0  0  0  0  0  0  0  0  0  0  0
   -6.0877   -1.4509    0.7237 H   0  0  0  0  0  0  0  0  0  0  0  0
   -6.9627   -1.7533   -0.8733 H   0  0  0  0  0  0  0  0  0  0  0  0
   -8.0546    0.4670   -0.6453 H   0  0  0  0  0  0  0  0  0  0  0  0
   -7.1837    0.7631    0.9031 H   0  0  0  0  0  0  0  0  0  0  0  0
   -8.3699   -1.0129    1.9642 H   0  0  0  0  0  0  0  0  0  0  0  0
  -10.0209   -2.1453    0.7327 H   0  0  0  0  0  0  0  0  0  0  0  0
   -9.2715    1.1503    1.4822 H   0  0  0  0  0  0  0  0  0  0  0  0
   -6.8195    0.9121   -2.1019 H   0  0  0  0  0  0  0  0  0  0  0  0
   -4.7809    1.6723   -2.6778 H   0  0  0  0  0  0  0  0  0  0  0  0
   -5.8112   -1.4992   -3.3157 H   0  0  0  0  0  0  0  0  0  0  0  0
    2.8015    0.1177    1.9874 H   0  0  0  0  0  0  0  0  0  0  0  0
    1.6880    1.5308    2.4866 H   0  0  0  0  0  0  0  0  0  0  0  0
    1.2052   -0.1549    2.6634 H   0  0  0  0  0  0  0  0  0  0  0  0
  1  2  1  0
  2  3  1  0
  2  4  1  0
  4  5  1  0
  5  6  1  0
  5  7  1  0
  7  8  1  0
  8  9  1  0
  9 10  1  0
 10 11  1  0
  1 12  1  0
  7 12  1  0
 11 12  1  0
  9 13  1  0
 13 14  1  0
 15 16  1  0
 14 17  1  0
 16 17  1  0
 17 18  1  0
 15 19  1  0
 18 19  1  0
 15 20  1  0
 20 21  1  0
 20 22  1  0
 22 23  1  0
 23 24  1  0
 24 25  1  0
 25 26  1  0
 26 27  1  0
 26 28  1  0
 23 29  1  0
 29 30  1  0
 29 31  1  0
 14 32  1  0
 33 34  1  0
 34 35  1  0
 34 36  1  0
 36 37  1  0
 37 38  1  0
 37 39  1  0
 39 40  1  0
 40 41  1  0
 41 42  1  0
 42 43  1  0
 33 44  1  0
 39 44  1  0
 43 44  1  0
 41 45  1  0
 45 46  1  0
 47 48  1  0
 46 49  1  0
 48 49  1  0
 49 50  1  0
 47 51  1  0
 50 51  1  0
 47 52  1  0
 52 53  1  0
 52 54  1  0
 54 55  1  0
 55 56  1  0
 56 57  1  0
 57 58  1  0
 58 59  1  0
 58 60  1  0
 55 61  1  0
 61 62  1  0
 61 63  1  0
 46 64  1  0
 65 66  1  0
 66 67  1  0
 66 68  1  0
 68 69  1  0
 69 70  1  0
 69 71  1  0
 71 72  1  0
 72 73  1  0
 73 74  1  0
 74 75  1  0
 65 76  1  0
 71 76  1  0
 75 76  1  0
 73 77  1  0
 77 78  1  0
 79 80  1  0
 78 81  1  0
 80 81  1  0
 81 82  1  0
 79 83  1  0
 82 83  1  0
 79 84  1  0
 84 85  1  0
 84 86  1  0
 86 87  1  0
 87 88  1  0
 88 89  1  0
 89 90  1  0
 90 91  1  0
 90 92  1  0
 87 93  1  0
 93 94  1  0
 93 95  1  0
 78 96  1  0
 97 98  1  0
 98 99  1  0
 98100  1  0
100101  1  0
101102  1  0
101103  1  0
103104  1  0
104105  1  0
105106  1  0
106107  1  0
 97108  1  0
103108  1  0
107108  1  0
105109  1  0
109110  1  0
111112  1  0
110113  1  0
112113  1  0
113114  1  0
111115  1  0
114115  1  0
111116  1  0
116117  1  0
116118  1  0
118119  1  0
119120  1  0
120121  1  0
121122  1  0
122123  1  0
122124  1  0
119125  1  0
125126  1  0
125127  1  0
110128  1  0
  1129  1  0
  2130  1  0
  3131  1  0
  3132  1  0
  3133  1  0
  4134  1  0
  5135  1  0
  6136  1  0
  7137  1  0
  8138  1  0
  8139  1  0
  9140  1  0
 10141  1  0
 10142  1  0
 11143  1  0
 11144  1  0
 12145  1  0
 13146  1  0
 13147  1  0
 15148  1  0
 17149  1  0
 18150  1  0
 18151  1  0
 19152  1  0
 19153  1  0
 20154  1  0
 21155  1  0
 22156  1  0
 23157  1  6
 24158  1  0
 24159  1  0
 25160  1  0
 25161  1  0
 26162  1  0
 27163  1  0
 28164  1  0
 29165  1  0
 30166  1  0
 31167  1  0
 32168  1  0
 32169  1  0
 32170  1  0
 33171  1  0
 34172  1  0
 35173  1  0
 35174  1  0
 35175  1  0
 36176  1  0
 37177  1  0
 38178  1  0
 39179  1  0
 40180  1  0
 40181  1  0
 41182  1  0
 42183  1  0
 42184  1  0
 43185  1  0
 43186  1  0
 44187  1  0
 45188  1  0
 45189  1  0
 47190  1  0
 49191  1  0
 50192  1  0
 50193  1  0
 51194  1  0
 51195  1  0
 52196  1  0
 53197  1  0
 54198  1  0
 55199  1  6
 56200  1  0
 56201  1  0
 57202  1  0
 57203  1  0
 58204  1  0
 59205  1  0
 60206  1  0
 61207  1  0
 62208  1  0
 63209  1  0
 64210  1  0
 64211  1  0
 64212  1  0
 65213  1  0
 66214  1  0
 67215  1  0
 67216  1  0
 67217  1  0
 68218  1  0
 69219  1  0
 70220  1  0
 71221  1  0
 72222  1  0
 72223  1  0
 73224  1  0
 74225  1  0
 74226  1  0
 75227  1  0
 75228  1  0
 76229  1  0
 77230  1  0
 77231  1  0
 79232  1  0
 81233  1  0
 82234  1  0
 82235  1  0
 83236  1  0
 83237  1  0
 84238  1  0
 85239  1  0
 86240  1  0
 87241  1  6
 88242  1  0
 88243  1  0
 89244  1  0
 89245  1  0
 90246  1  0
 91247  1  0
 92248  1  0
 93249  1  0
 94250  1  0
 95251  1  0
 96252  1  0
 96253  1  0
 96254  1  0
 97255  1  0
 98256  1  0
 99257  1  0
 99258  1  0
 99259  1  0
100260  1  0
101261  1  0
102262  1  0
103263  1  0
104264  1  0
104265  1  0
105266  1  0
106267  1  0
106268  1  0
107269  1  0
107270  1  0
108271  1  0
109272  1  0
109273  1  0
111274  1  0
113275  1  0
114276  1  0
114277  1  0
115278  1  0
115279  1  0
116280  1  0
117281  1  0
118282  1  0
119283  1  6
120284  1  0
120285  1  0
121286  1  0
121287  1  0
122288  1  0
123289  1  0
124290  1  0
125291  1  0
126292  1  0
127293  1  0
128294  1  0
128295  1  0
128296  1  0
M  END
>  <PDBID>  (1) 
1HVY

>  <PDB ID>  (1) 
1HVY

>  <Generic Name>  (1) 
Raltitrexed

>  <Brand Name>  (1) 
Tomudex

>  <DrugBank ID>  (1) 
DB00293

>  <ATC Codes>  (1) 
L01BA03

>  <Ligand ID>  (1) 
D16

>  <Target Name>  (1) 
Thymidylate synthase

>  <UniProt ID>  (1) 
P04818

>  <PDB ID.1>  (1) 
1HVY

>  <Seq. Identity>  (1) 
100%

$$$$
