PDB_DB01232_00
     RDKit          3D

123127  0  0  0  0  0  0  0  0999 V2000
    4.0840    0.2778    2.0447 C   0  0  0  0  0  0  0  0  0  0  0  0
    3.2570    0.7907    3.0388 O   0  0  0  0  0  0  0  0  0  0  0  0
    5.6822    2.0865    2.0566 N   0  0  0  0  0  0  0  0  0  0  0  0
    4.7532    1.3031    1.1879 C   0  0  2  0  0  0  0  0  0  0  0  0
    3.8983    2.3317    0.5391 C   0  0  0  0  0  0  0  0  0  0  0  0
    4.7786    2.9791   -0.5496 C   0  0  0  0  0  0  0  0  0  0  0  0
    6.9454    4.2137   -0.7201 C   0  0  0  0  0  0  0  0  0  0  0  0
    7.1233    5.3668    0.2420 C   0  0  0  0  0  0  0  0  0  0  0  0
    7.9413    4.9475    1.4454 C   0  0  0  0  0  0  0  0  0  0  0  0
    7.5509    3.5552    1.9123 C   0  0  0  0  0  0  0  0  0  0  0  0
    6.2118    3.0639   -0.0675 C   0  0  0  0  0  0  0  0  0  0  0  0
    6.1462    3.2802    1.4239 C   0  0  0  0  0  0  0  0  0  0  0  0
    3.7337   -0.9664    1.4852 N   0  0  0  0  0  0  0  0  0  0  0  0
    2.7560   -1.0847    0.4657 C   0  0  2  0  0  0  0  0  0  0  0  0
    1.3619   -0.7519    0.7713 C   0  0  0  0  0  0  0  0  0  0  0  0
    1.2882    0.5142    1.3290 O   0  0  0  0  0  0  0  0  0  0  0  0
    3.1170   -2.2677   -0.3628 C   0  0  0  0  0  0  0  0  0  0  0  0
    3.3027   -3.5719    0.3116 C   0  0  1  0  0  0  0  0  0  0  0  0
    2.3121   -4.1370    1.0242 O   0  0  0  0  0  0  0  0  0  0  0  0
    3.7961   -4.4971   -0.7518 N   0  0  0  0  0  0  0  0  0  0  0  0
   -1.3620   -1.9290   -0.5582 C   0  0  1  0  0  0  0  0  0  0  0  0
   -1.8030   -2.8329   -1.5030 O   0  0  0  0  0  0  0  0  0  0  0  0
   -0.3073   -2.5129    0.3410 C   0  0  1  0  0  0  0  0  0  0  0  0
    0.3771   -1.6006    1.2150 N   0  0  0  0  0  0  0  0  0  0  0  0
   -0.8832   -3.5586    1.2608 C   0  0  0  0  0  0  0  0  0  0  0  0
   -1.5223   -4.7405    0.6128 C   0  0  0  0  0  0  0  0  0  0  0  0
   -2.0833   -5.6895    1.6539 C   0  0  0  0  0  0  0  0  0  0  0  0
   -0.7190   -5.3546   -0.4486 C   0  0  0  0  0  0  0  0  0  0  0  0
   -1.4485   -7.0020    1.7919 C   0  0  0  0  0  0  0  0  0  0  0  0
   -0.0441   -6.6697   -0.1240 C   0  0  0  0  0  0  0  0  0  0  0  0
   -1.1227   -7.5800    0.4172 C   0  0  0  0  0  0  0  0  0  0  0  0
   -2.8008   -0.1405   -1.2309 N   0  0  0  0  0  0  0  0  0  0  0  0
   -1.3752   -0.5017   -0.8721 C   0  0  0  0  0  0  0  0  0  0  0  0
   -2.9250    1.3164   -0.9854 C   0  0  2  0  0  0  0  0  0  0  0  0
   -3.5326    1.4637    0.4145 C   0  0  0  0  0  0  0  0  0  0  0  0
   -2.7406    0.6194    1.2956 O   0  0  0  0  0  0  0  0  0  0  0  0
   -3.8508    1.9802   -1.9143 C   0  0  0  0  0  0  0  0  0  0  0  0
   -4.4353    1.3033   -3.0895 C   0  0  2  0  0  0  0  0  0  0  0  0
   -5.8893    1.5993   -3.2392 C   0  0  0  0  0  0  0  0  0  0  0  0
   -6.8223    0.7018   -2.5112 C   0  0  0  0  0  0  0  0  0  0  0  0
   -6.5204   -0.7661   -2.7287 C   0  0  0  0  0  0  0  0  0  0  0  0
   -5.0847   -1.0221   -2.3152 C   0  0  0  0  0  0  0  0  0  0  0  0
   -4.1985   -0.1790   -3.1838 C   0  0  2  0  0  0  0  0  0  0  0  0
   -2.7914   -0.3297   -2.6737 C   0  0  0  0  0  0  0  0  0  0  0  0
   -3.4936    2.6800    1.0073 N   0  0  0  0  0  0  0  0  0  0  0  0
   -3.9901    3.9301    0.8279 C   0  0  0  0  0  0  0  0  0  0  0  0
   -3.5120    4.7081   -0.3338 C   0  0  0  0  0  0  0  0  0  0  0  0
   -5.5236    4.0278    0.8370 C   0  0  0  0  0  0  0  0  0  0  0  0
   -3.6067    4.7614    2.1106 C   0  0  0  0  0  0  0  0  0  0  0  0
    5.0015   -0.0457    2.7380 H   0  0  0  0  0  0  0  0  0  0  0  0
    3.1473    1.7482    3.0568 H   0  0  0  0  0  0  0  0  0  0  0  0
    5.0673    2.4071    2.8673 H   0  0  0  0  0  0  0  0  0  0  0  0
    5.3829    0.8105    0.4456 H   0  0  0  0  0  0  0  0  0  0  0  0
    3.6477    3.1785    1.2287 H   0  0  0  0  0  0  0  0  0  0  0  0
    3.0132    2.0124   -0.0088 H   0  0  0  0  0  0  0  0  0  0  0  0
    4.6503    2.4822   -1.5076 H   0  0  0  0  0  0  0  0  0  0  0  0
    4.4205    4.0210   -0.6495 H   0  0  0  0  0  0  0  0  0  0  0  0
    6.3008    4.5636   -1.5645 H   0  0  0  0  0  0  0  0  0  0  0  0
    7.9110    3.8493   -1.1195 H   0  0  0  0  0  0  0  0  0  0  0  0
    6.1539    5.8164    0.4915 H   0  0  0  0  0  0  0  0  0  0  0  0
    7.7166    6.1331   -0.3025 H   0  0  0  0  0  0  0  0  0  0  0  0
    9.0064    4.9980    1.1503 H   0  0  0  0  0  0  0  0  0  0  0  0
    7.7554    5.6857    2.2472 H   0  0  0  0  0  0  0  0  0  0  0  0
    8.2311    2.8387    1.4125 H   0  0  0  0  0  0  0  0  0  0  0  0
    7.6218    3.4843    3.0190 H   0  0  0  0  0  0  0  0  0  0  0  0
    6.7129    2.1159   -0.2916 H   0  0  0  0  0  0  0  0  0  0  0  0
    5.5471    4.1783    1.6887 H   0  0  0  0  0  0  0  0  0  0  0  0
    3.7040   -1.7562    2.1571 H   0  0  0  0  0  0  0  0  0  0  0  0
    3.0703   -0.2085   -0.2625 H   0  0  0  0  0  0  0  0  0  0  0  0
    0.9952   -0.5220   -0.3883 H   0  0  0  0  0  0  0  0  0  0  0  0
    0.9011    1.2030    0.7444 H   0  0  0  0  0  0  0  0  0  0  0  0
    2.5033   -2.3498   -1.3095 H   0  0  0  0  0  0  0  0  0  0  0  0
    4.1441   -2.0251   -0.8108 H   0  0  0  0  0  0  0  0  0  0  0  0
    4.2128   -3.5507    1.0060 H   0  0  0  0  0  0  0  0  0  0  0  0
    2.5572   -4.5491    1.8884 H   0  0  0  0  0  0  0  0  0  0  0  0
    4.5677   -3.9604   -1.2005 H   0  0  0  0  0  0  0  0  0  0  0  0
    4.2285   -5.3011   -0.2479 H   0  0  0  0  0  0  0  0  0  0  0  0
   -2.3083   -1.9998    0.1996 H   0  0  0  0  0  0  0  0  0  0  0  0
   -2.7821   -2.8887   -1.6227 H   0  0  0  0  0  0  0  0  0  0  0  0
    0.4401   -2.9555   -0.3083 H   0  0  0  0  0  0  0  0  0  0  0  0
   -0.2222   -1.2870    2.0108 H   0  0  0  0  0  0  0  0  0  0  0  0
   -1.7533   -3.0140    1.7810 H   0  0  0  0  0  0  0  0  0  0  0  0
   -0.1489   -3.8520    2.0526 H   0  0  0  0  0  0  0  0  0  0  0  0
   -2.4665   -4.3397    0.1117 H   0  0  0  0  0  0  0  0  0  0  0  0
   -3.1818   -5.8336    1.5200 H   0  0  0  0  0  0  0  0  0  0  0  0
   -2.0117   -5.1641    2.6543 H   0  0  0  0  0  0  0  0  0  0  0  0
    0.0905   -4.6939   -0.7990 H   0  0  0  0  0  0  0  0  0  0  0  0
   -1.3338   -5.5381   -1.3746 H   0  0  0  0  0  0  0  0  0  0  0  0
   -0.5502   -7.0668    2.4266 H   0  0  0  0  0  0  0  0  0  0  0  0
   -2.2105   -7.7144    2.2309 H   0  0  0  0  0  0  0  0  0  0  0  0
    0.3440   -7.0540   -1.0972 H   0  0  0  0  0  0  0  0  0  0  0  0
    0.7310   -6.5696    0.6380 H   0  0  0  0  0  0  0  0  0  0  0  0
   -2.0383   -7.4349   -0.2228 H   0  0  0  0  0  0  0  0  0  0  0  0
   -0.8563   -8.6332    0.4337 H   0  0  0  0  0  0  0  0  0  0  0  0
   -1.0686    0.1132   -0.0342 H   0  0  0  0  0  0  0  0  0  0  0  0
   -0.7788   -0.1917   -1.7631 H   0  0  0  0  0  0  0  0  0  0  0  0
   -1.9223    1.7248   -0.9586 H   0  0  0  0  0  0  0  0  0  0  0  0
   -4.4949    0.9112    0.3703 H   0  0  0  0  0  0  0  0  0  0  0  0
   -3.2539    0.6055    2.1169 H   0  0  0  0  0  0  0  0  0  0  0  0
   -3.2892    2.8753   -2.3379 H   0  0  0  0  0  0  0  0  0  0  0  0
   -4.7298    2.4438   -1.3747 H   0  0  0  0  0  0  0  0  0  0  0  0
   -3.9439    1.7137   -4.0342 H   0  0  0  0  0  0  0  0  0  0  0  0
   -6.0461    2.6361   -2.8230 H   0  0  0  0  0  0  0  0  0  0  0  0
   -6.2011    1.6036   -4.3194 H   0  0  0  0  0  0  0  0  0  0  0  0
   -6.9167    0.8998   -1.4299 H   0  0  0  0  0  0  0  0  0  0  0  0
   -7.8469    0.8678   -2.9533 H   0  0  0  0  0  0  0  0  0  0  0  0
   -7.1849   -1.3456   -2.0775 H   0  0  0  0  0  0  0  0  0  0  0  0
   -6.5945   -1.0049   -3.8066 H   0  0  0  0  0  0  0  0  0  0  0  0
   -4.8267   -2.0821   -2.5483 H   0  0  0  0  0  0  0  0  0  0  0  0
   -4.8858   -0.7832   -1.2647 H   0  0  0  0  0  0  0  0  0  0  0  0
   -4.2540   -0.4785   -4.2575 H   0  0  0  0  0  0  0  0  0  0  0  0
   -2.2704   -1.1828   -3.0544 H   0  0  0  0  0  0  0  0  0  0  0  0
   -2.2080    0.5690   -3.0584 H   0  0  0  0  0  0  0  0  0  0  0  0
   -2.7121    2.6950    1.8020 H   0  0  0  0  0  0  0  0  0  0  0  0
   -4.2325    4.7439   -1.1827 H   0  0  0  0  0  0  0  0  0  0  0  0
   -3.4341    5.7980   -0.0258 H   0  0  0  0  0  0  0  0  0  0  0  0
   -2.5103    4.4033   -0.7035 H   0  0  0  0  0  0  0  0  0  0  0  0
   -5.9683    3.2285    1.4701 H   0  0  0  0  0  0  0  0  0  0  0  0
   -5.9475    4.0856   -0.1807 H   0  0  0  0  0  0  0  0  0  0  0  0
   -5.7736    4.9904    1.3145 H   0  0  0  0  0  0  0  0  0  0  0  0
   -4.2493    5.6541    2.0551 H   0  0  0  0  0  0  0  0  0  0  0  0
   -2.5532    5.0446    2.0732 H   0  0  0  0  0  0  0  0  0  0  0  0
   -3.8450    4.1278    2.9742 H   0  0  0  0  0  0  0  0  0  0  0  0
  1  2  1  0
  1  4  1  0
  3  4  1  0
  4  5  1  0
  5  6  1  0
  7  8  1  0
  8  9  1  0
  9 10  1  0
  6 11  1  0
  7 11  1  0
  3 12  1  0
 10 12  1  0
 11 12  1  0
  1 13  1  0
 13 14  1  0
 14 15  1  0
 15 16  1  0
 14 17  1  0
 17 18  1  0
 18 19  1  0
 18 20  1  0
 21 22  1  0
 21 23  1  0
 15 24  1  0
 23 24  1  0
 23 25  1  0
 25 26  1  0
 26 27  1  0
 26 28  1  0
 27 29  1  0
 28 30  1  0
 29 31  1  0
 30 31  1  0
 21 33  1  0
 32 33  1  0
 32 34  1  0
 34 35  1  0
 35 36  1  0
 34 37  1  0
 37 38  1  0
 38 39  1  0
 39 40  1  0
 40 41  1  0
 41 42  1  0
 38 43  1  0
 42 43  1  0
 32 44  1  0
 43 44  1  0
 35 45  1  0
 46 45  1  0
 46 47  1  0
 46 48  1  0
 46 49  1  0
  1 50  1  0
  2 51  1  0
  3 52  1  0
  4 53  1  6
  5 54  1  0
  5 55  1  0
  6 56  1  0
  6 57  1  0
  7 58  1  0
  7 59  1  0
  8 60  1  0
  8 61  1  0
  9 62  1  0
  9 63  1  0
 10 64  1  0
 10 65  1  0
 11 66  1  0
 12 67  1  0
 13 68  1  0
 14 69  1  6
 15 70  1  0
 16 71  1  0
 17 72  1  0
 17 73  1  0
 18 74  1  1
 19 75  1  0
 20 76  1  0
 20 77  1  0
 21 78  1  1
 22 79  1  0
 23 80  1  6
 24 81  1  0
 25 82  1  0
 25 83  1  0
 26 84  1  0
 27 85  1  0
 27 86  1  0
 28 87  1  0
 28 88  1  0
 29 89  1  0
 29 90  1  0
 30 91  1  0
 30 92  1  0
 31 93  1  0
 31 94  1  0
 33 95  1  0
 33 96  1  0
 34 97  1  1
 35 98  1  0
 36 99  1  0
 37100  1  0
 37101  1  0
 38102  1  6
 39103  1  0
 39104  1  0
 40105  1  0
 40106  1  0
 41107  1  0
 41108  1  0
 42109  1  0
 42110  1  0
 43111  1  6
 44112  1  0
 44113  1  0
 45114  1  0
 47115  1  0
 47116  1  0
 47117  1  0
 48118  1  0
 48119  1  0
 48120  1  0
 49121  1  0
 49122  1  0
 49123  1  0
M  END
>  <PDBID>  (1) 
1HXB

>  <PDB ID>  (1) 
1HXB

>  <Generic Name>  (1) 
Saquinavir

>  <Brand Name>  (1) 
Fortovase Roche#Invirase#Invirase - Cap 200mg#Fortovase#ROC

>  <DrugBank ID>  (1) 
DB01232

>  <ATC Codes>  (1) 
J05AE01

>  <Ligand ID>  (1) 
ROC

>  <Target Name>  (1) 
Pol polyprotein

>  <UniProt ID>  (1) 
Q72874

>  <PDB ID.1>  (1) 
1HXB

>  <Seq. Identity>  (1) 
100%

$$$$
