PDB_DB04573_02
     RDKit          3D

102108  0  0  0  0  0  0  0  0999 V2000
    0.3460   -0.6635    0.1560 C   0  0  1  0  0  0  0  0  0  0  0  0
   -0.4671   -1.6336    0.9373 C   0  0  0  0  0  0  0  0  0  0  0  0
   -1.8651   -1.8231    0.4581 C   0  0  0  0  0  0  0  0  0  0  0  0
   -2.5219   -0.5047    0.2165 C   0  0  2  0  0  0  0  0  0  0  0  0
   -2.6676    0.3033    1.4768 C   0  0  0  0  0  0  0  0  0  0  0  0
   -3.8292   -0.5664   -0.4829 C   0  0  1  0  0  0  0  0  0  0  0  0
   -4.8690   -0.2839    0.4196 O   0  0  0  0  0  0  0  0  0  0  0  0
   -3.8349    0.5654   -1.5061 C   0  0  2  0  0  0  0  0  0  0  0  0
   -3.7673   -0.0361   -2.7621 O   0  0  0  0  0  0  0  0  0  0  0  0
   -2.5182    1.3123   -1.2650 C   0  0  0  0  0  0  0  0  0  0  0  0
   -1.6450    0.2175   -0.8158 C   0  0  1  0  0  0  0  0  0  0  0  0
   -0.4007    0.6207   -0.0806 C   0  0  2  0  0  0  0  0  0  0  0  0
    0.3870    1.6714   -0.7620 C   0  0  0  0  0  0  0  0  0  0  0  0
    1.8800    1.4064   -0.7709 C   0  0  0  0  0  0  0  0  0  0  0  0
    2.2192    0.8959    0.6324 C   0  0  0  0  0  0  0  0  0  0  0  0
    3.6599    1.0442    0.9547 C   0  0  0  0  0  0  0  0  0  0  0  0
    4.5421   -0.0452    0.4828 C   0  0  0  0  0  0  0  0  0  0  0  0
    5.4775    0.4565   -0.4501 O   0  0  0  0  0  0  0  0  0  0  0  0
    3.8425   -1.1918   -0.1678 C   0  0  0  0  0  0  0  0  0  0  0  0
    2.5685   -1.5902    0.5017 C   0  0  0  0  0  0  0  0  0  0  0  0
    1.6639   -0.4669    0.8560 C   0  0  2  0  0  0  0  0  0  0  0  0
    0.3642   -0.6300    0.1546 C   0  0  1  0  0  0  0  0  0  0  0  0
   -0.4146   -1.5875    0.9806 C   0  0  0  0  0  0  0  0  0  0  0  0
   -1.8319   -1.7724    0.5962 C   0  0  0  0  0  0  0  0  0  0  0  0
   -2.5308   -0.4970    0.2180 C   0  0  2  0  0  0  0  0  0  0  0  0
   -2.6788    0.4425    1.3960 C   0  0  0  0  0  0  0  0  0  0  0  0
   -3.8169   -0.6861   -0.4878 C   0  0  1  0  0  0  0  0  0  0  0  0
   -4.8474   -0.2447    0.3744 O   0  0  0  0  0  0  0  0  0  0  0  0
   -3.8328    0.3015   -1.6626 C   0  0  2  0  0  0  0  0  0  0  0  0
   -3.6308   -0.4615   -2.8070 O   0  0  0  0  0  0  0  0  0  0  0  0
   -2.5574    1.1367   -1.4635 C   0  0  0  0  0  0  0  0  0  0  0  0
   -1.6545    0.1324   -0.8767 C   0  0  1  0  0  0  0  0  0  0  0  0
   -0.4477    0.6265   -0.1793 C   0  0  2  0  0  0  0  0  0  0  0  0
    0.3742    1.6115   -0.9264 C   0  0  0  0  0  0  0  0  0  0  0  0
    1.5214    2.0304    0.0048 C   0  0  0  0  0  0  0  0  0  0  0  0
    2.4117    0.8248    0.1343 C   0  0  1  0  0  0  0  0  0  0  0  0
    3.6723    1.0796    0.8893 C   0  0  0  0  0  0  0  0  0  0  0  0
    4.6122   -0.0985    0.6053 C   0  0  0  0  0  0  0  0  0  0  0  0
    5.5723    0.3316   -0.3159 O   0  0  0  0  0  0  0  0  0  0  0  0
    3.8776   -1.2477   -0.0064 C   0  0  0  0  0  0  0  0  0  0  0  0
    2.5589   -1.5467    0.6620 C   0  0  0  0  0  0  0  0  0  0  0  0
    1.6820   -0.3138    0.7710 C   0  0  2  0  0  0  0  0  0  0  0  0
    0.5616   -1.1021   -0.8464 H   0  0  0  0  0  0  0  0  0  0  0  0
   -0.4221   -1.3947    2.0376 H   0  0  0  0  0  0  0  0  0  0  0  0
    0.0437   -2.6382    0.8644 H   0  0  0  0  0  0  0  0  0  0  0  0
   -2.4128   -2.3984    1.2555 H   0  0  0  0  0  0  0  0  0  0  0  0
   -1.8832   -2.4169   -0.4640 H   0  0  0  0  0  0  0  0  0  0  0  0
   -1.9266   -0.0235    2.2099 H   0  0  0  0  0  0  0  0  0  0  0  0
   -3.6755    0.0350    1.9086 H   0  0  0  0  0  0  0  0  0  0  0  0
   -2.6696    1.3814    1.3297 H   0  0  0  0  0  0  0  0  0  0  0  0
   -4.0681   -1.5359   -0.9376 H   0  0  0  0  0  0  0  0  0  0  0  0
   -5.0007    0.7118    0.4710 H   0  0  0  0  0  0  0  0  0  0  0  0
   -4.6985    1.2265   -1.3931 H   0  0  0  0  0  0  0  0  0  0  0  0
   -4.3638   -0.8390   -2.7254 H   0  0  0  0  0  0  0  0  0  0  0  0
   -2.6338    2.1416   -0.5630 H   0  0  0  0  0  0  0  0  0  0  0  0
   -2.1746    1.6643   -2.2647 H   0  0  0  0  0  0  0  0  0  0  0  0
   -1.4394   -0.4857   -1.6260 H   0  0  0  0  0  0  0  0  0  0  0  0
   -0.7037    1.0050    0.9355 H   0  0  0  0  0  0  0  0  0  0  0  0
    0.0750    1.8291   -1.8200 H   0  0  0  0  0  0  0  0  0  0  0  0
    0.2524    2.6689   -0.2658 H   0  0  0  0  0  0  0  0  0  0  0  0
    2.3996    2.3740   -0.8887 H   0  0  0  0  0  0  0  0  0  0  0  0
    2.0784    0.6732   -1.5472 H   0  0  0  0  0  0  0  0  0  0  0  0
    1.6551    1.5963    1.3194 H   0  0  0  0  0  0  0  0  0  0  0  0
    4.0168    2.0228    0.5598 H   0  0  0  0  0  0  0  0  0  0  0  0
    3.7473    1.1417    2.0766 H   0  0  0  0  0  0  0  0  0  0  0  0
    5.1761   -0.4409    1.3241 H   0  0  0  0  0  0  0  0  0  0  0  0
    5.2383    1.3512   -0.7603 H   0  0  0  0  0  0  0  0  0  0  0  0
    3.7259   -1.0514   -1.2831 H   0  0  0  0  0  0  0  0  0  0  0  0
    4.5405   -2.0795   -0.0951 H   0  0  0  0  0  0  0  0  0  0  0  0
    2.8561   -2.2169    1.3970 H   0  0  0  0  0  0  0  0  0  0  0  0
    2.0632   -2.3341   -0.1829 H   0  0  0  0  0  0  0  0  0  0  0  0
    1.4419   -0.5543    1.9608 H   0  0  0  0  0  0  0  0  0  0  0  0
    0.5734   -1.1001   -0.8492 H   0  0  0  0  0  0  0  0  0  0  0  0
   -0.3334   -1.3470    2.0802 H   0  0  0  0  0  0  0  0  0  0  0  0
    0.0946   -2.5926    0.8951 H   0  0  0  0  0  0  0  0  0  0  0  0
   -2.3671   -2.2402    1.4647 H   0  0  0  0  0  0  0  0  0  0  0  0
   -1.9317   -2.4826   -0.2355 H   0  0  0  0  0  0  0  0  0  0  0  0
   -1.9517    0.2366    2.1987 H   0  0  0  0  0  0  0  0  0  0  0  0
   -3.6933    0.2518    1.8518 H   0  0  0  0  0  0  0  0  0  0  0  0
   -2.6669    1.4987    1.1200 H   0  0  0  0  0  0  0  0  0  0  0  0
   -4.0678   -1.6982   -0.7885 H   0  0  0  0  0  0  0  0  0  0  0  0
   -4.9246    0.7589    0.3015 H   0  0  0  0  0  0  0  0  0  0  0  0
   -4.7309    0.9154   -1.6820 H   0  0  0  0  0  0  0  0  0  0  0  0
   -4.4599   -0.9195   -3.0704 H   0  0  0  0  0  0  0  0  0  0  0  0
   -2.7337    2.0174   -0.8530 H   0  0  0  0  0  0  0  0  0  0  0  0
   -2.1993    1.3964   -2.4988 H   0  0  0  0  0  0  0  0  0  0  0  0
   -1.4422   -0.6729   -1.5920 H   0  0  0  0  0  0  0  0  0  0  0  0
   -0.6916    1.0776    0.8204 H   0  0  0  0  0  0  0  0  0  0  0  0
   -0.2346    2.5097   -1.1167 H   0  0  0  0  0  0  0  0  0  0  0  0
    0.7796    1.1972   -1.8748 H   0  0  0  0  0  0  0  0  0  0  0  0
    1.0329    2.1986    1.0067 H   0  0  0  0  0  0  0  0  0  0  0  0
    2.0542    2.9044   -0.3649 H   0  0  0  0  0  0  0  0  0  0  0  0
    2.7046    0.5396   -0.9176 H   0  0  0  0  0  0  0  0  0  0  0  0
    4.1378    2.0242    0.5865 H   0  0  0  0  0  0  0  0  0  0  0  0
    3.4916    1.0549    1.9977 H   0  0  0  0  0  0  0  0  0  0  0  0
    5.1162   -0.4437    1.5210 H   0  0  0  0  0  0  0  0  0  0  0  0
    5.3713    1.2438   -0.6276 H   0  0  0  0  0  0  0  0  0  0  0  0
    4.5173   -2.1636    0.1593 H   0  0  0  0  0  0  0  0  0  0  0  0
    3.7878   -1.1771   -1.1191 H   0  0  0  0  0  0  0  0  0  0  0  0
    2.7797   -1.9952    1.6486 H   0  0  0  0  0  0  0  0  0  0  0  0
    2.0722   -2.3480    0.0495 H   0  0  0  0  0  0  0  0  0  0  0  0
    1.5123   -0.0760    1.8423 H   0  0  0  0  0  0  0  0  0  0  0  0
  1  2  1  0
  2  3  1  0
  3  4  1  0
  4  5  1  1
  4  6  1  0
  6  7  1  0
  6  8  1  0
  8  9  1  0
  8 10  1  0
  4 11  1  0
 10 11  1  0
  1 12  1  0
 11 12  1  0
 12 13  1  0
 13 14  1  0
 14 15  1  0
 15 16  1  0
 16 17  1  0
 17 18  1  0
 17 19  1  0
 19 20  1  0
  1 21  1  0
 15 21  1  0
 20 21  1  0
 22 23  1  0
 23 24  1  0
 24 25  1  0
 25 26  1  1
 25 27  1  0
 27 28  1  0
 27 29  1  0
 29 30  1  0
 29 31  1  0
 25 32  1  0
 31 32  1  0
 22 33  1  0
 32 33  1  0
 33 34  1  0
 34 35  1  0
 35 36  1  0
 36 37  1  0
 37 38  1  0
 38 39  1  0
 38 40  1  0
 40 41  1  0
 22 42  1  0
 36 42  1  0
 41 42  1  0
  1 43  1  6
  2 44  1  0
  2 45  1  0
  3 46  1  0
  3 47  1  0
  5 48  1  0
  5 49  1  0
  5 50  1  0
  6 51  1  6
  7 52  1  0
  8 53  1  6
  9 54  1  0
 10 55  1  0
 10 56  1  0
 11 57  1  6
 12 58  1  1
 13 59  1  0
 13 60  1  0
 14 61  1  0
 14 62  1  0
 15 63  1  0
 16 64  1  0
 16 65  1  0
 17 66  1  0
 18 67  1  0
 19 68  1  0
 19 69  1  0
 20 70  1  0
 20 71  1  0
 21 72  1  1
 22 73  1  6
 23 74  1  0
 23 75  1  0
 24 76  1  0
 24 77  1  0
 26 78  1  0
 26 79  1  0
 26 80  1  0
 27 81  1  6
 28 82  1  0
 29 83  1  6
 30 84  1  0
 31 85  1  0
 31 86  1  0
 32 87  1  6
 33 88  1  1
 34 89  1  0
 34 90  1  0
 35 91  1  0
 35 92  1  0
 36 93  1  6
 37 94  1  0
 37 95  1  0
 38 96  1  0
 39 97  1  0
 40 98  1  0
 40 99  1  0
 41100  1  0
 41101  1  0
 42102  1  1
M  END
>  <PDBID>  (1) 
3Q95

>  <PDB ID>  (1) 
3Q95

>  <Generic Name>  (1) 
Estriol

>  <Brand Name>  (1) 
Aacifemine#Colpoestriol#Ovestin#Synapause E

>  <DrugBank ID>  (1) 
DB04573

>  <ATC Codes>  (1) 
G03CC06#G03CA04

>  <Ligand ID>  (1) 
ESL

>  <Target Name>  (1) 
Estrogen receptor

>  <UniProt ID>  (1) 
P03372

>  <PDB ID.1>  (1) 
3Q95

>  <Seq. Identity>  (1) 
93%

$$$$
