PDB_DB00806_00
     RDKit          3D

 96 98  0  0  0  0  0  0  0  0999 V2000
    5.8733    1.3832   -0.7883 C   0  0  0  0  0  0  0  0  0  0  0  0
    5.1519    0.7644    0.3620 C   0  0  0  0  0  0  0  0  0  0  0  0
    5.9246   -0.2659    0.8872 O   0  0  0  0  0  0  0  0  0  0  0  0
    3.8022    0.2318   -0.1023 C   0  0  0  0  0  0  0  0  0  0  0  0
    3.0608   -0.3977    1.0522 C   0  0  0  0  0  0  0  0  0  0  0  0
    1.7212   -0.9634    0.6743 C   0  0  0  0  0  0  0  0  0  0  0  0
    0.8464    0.1151    0.1466 C   0  0  0  0  0  0  0  0  0  0  0  0
   -0.4726   -0.3296   -0.2278 N   0  0  0  0  0  0  0  0  0  0  0  0
   -1.2157    0.7732   -0.7142 C   0  0  0  0  0  0  0  0  0  0  0  0
   -0.5044    1.4376   -1.7275 O   0  0  0  0  0  0  0  0  0  0  0  0
   -2.6212    0.4524   -1.1358 C   0  0  0  0  0  0  0  0  0  0  0  0
   -3.5365    1.5071   -0.8223 N   0  0  0  0  0  0  0  0  0  0  0  0
   -3.3888    2.0353    0.5159 C   0  0  0  0  0  0  0  0  0  0  0  0
   -4.8255    0.8055   -0.8625 C   0  0  0  0  0  0  0  0  0  0  0  0
   -4.5502   -0.4351   -0.1651 N   0  0  0  0  0  0  0  0  0  0  0  0
   -3.1742   -0.7744   -0.4665 C   0  0  0  0  0  0  0  0  0  0  0  0
   -2.5115   -1.0696    0.7834 N   0  0  0  0  0  0  0  0  0  0  0  0
   -3.0503   -2.3233    1.2781 C   0  0  0  0  0  0  0  0  0  0  0  0
   -1.0973   -1.2072    0.6777 C   0  0  0  0  0  0  0  0  0  0  0  0
   -0.8058   -2.5546    0.4747 O   0  0  0  0  0  0  0  0  0  0  0  0
    5.8733    1.3832   -0.7883 C   0  0  0  0  0  0  0  0  0  0  0  0
    5.1519    0.7644    0.3620 C   0  0  0  0  0  0  0  0  0  0  0  0
    5.9246   -0.2659    0.8872 O   0  0  0  0  0  0  0  0  0  0  0  0
    3.8022    0.2318   -0.1023 C   0  0  0  0  0  0  0  0  0  0  0  0
    3.0608   -0.3977    1.0522 C   0  0  0  0  0  0  0  0  0  0  0  0
    1.7212   -0.9634    0.6743 C   0  0  0  0  0  0  0  0  0  0  0  0
    0.8464    0.1151    0.1466 C   0  0  0  0  0  0  0  0  0  0  0  0
   -0.4726   -0.3296   -0.2278 N   0  0  0  0  0  0  0  0  0  0  0  0
   -1.2157    0.7732   -0.7142 C   0  0  0  0  0  0  0  0  0  0  0  0
   -0.5044    1.4376   -1.7275 O   0  0  0  0  0  0  0  0  0  0  0  0
   -2.6212    0.4524   -1.1358 C   0  0  0  0  0  0  0  0  0  0  0  0
   -3.5365    1.5071   -0.8223 N   0  0  0  0  0  0  0  0  0  0  0  0
   -3.3888    2.0353    0.5159 C   0  0  0  0  0  0  0  0  0  0  0  0
   -4.8255    0.8055   -0.8625 C   0  0  0  0  0  0  0  0  0  0  0  0
   -4.5502   -0.4351   -0.1651 N   0  0  0  0  0  0  0  0  0  0  0  0
   -3.1742   -0.7744   -0.4665 C   0  0  0  0  0  0  0  0  0  0  0  0
   -2.5115   -1.0696    0.7834 N   0  0  0  0  0  0  0  0  0  0  0  0
   -3.0503   -2.3233    1.2781 C   0  0  0  0  0  0  0  0  0  0  0  0
   -1.0973   -1.2072    0.6777 C   0  0  0  0  0  0  0  0  0  0  0  0
   -0.8058   -2.5546    0.4747 O   0  0  0  0  0  0  0  0  0  0  0  0
    6.4213    2.3190   -0.4910 H   0  0  0  0  0  0  0  0  0  0  0  0
    6.6393    0.6779   -1.1608 H   0  0  0  0  0  0  0  0  0  0  0  0
    5.1464    1.6807   -1.5620 H   0  0  0  0  0  0  0  0  0  0  0  0
    4.9658    1.4962    1.1715 H   0  0  0  0  0  0  0  0  0  0  0  0
    6.8695   -0.0943    0.7068 H   0  0  0  0  0  0  0  0  0  0  0  0
    4.0180   -0.5799   -0.8387 H   0  0  0  0  0  0  0  0  0  0  0  0
    3.2586    1.0093   -0.6338 H   0  0  0  0  0  0  0  0  0  0  0  0
    3.7018   -1.1546    1.5572 H   0  0  0  0  0  0  0  0  0  0  0  0
    2.9453    0.4334    1.8085 H   0  0  0  0  0  0  0  0  0  0  0  0
    1.2845   -1.5004    1.5441 H   0  0  0  0  0  0  0  0  0  0  0  0
    1.9409   -1.7253   -0.1346 H   0  0  0  0  0  0  0  0  0  0  0  0
    0.7626    0.9191    0.8843 H   0  0  0  0  0  0  0  0  0  0  0  0
    1.3475    0.5492   -0.7660 H   0  0  0  0  0  0  0  0  0  0  0  0
   -1.3000    1.5208    0.1091 H   0  0  0  0  0  0  0  0  0  0  0  0
   -0.2766    0.8503   -2.4766 H   0  0  0  0  0  0  0  0  0  0  0  0
   -2.6405    0.2993   -2.2329 H   0  0  0  0  0  0  0  0  0  0  0  0
   -3.0212    1.2344    1.1640 H   0  0  0  0  0  0  0  0  0  0  0  0
   -4.4144    2.3700    0.8284 H   0  0  0  0  0  0  0  0  0  0  0  0
   -2.7227    2.9066    0.5699 H   0  0  0  0  0  0  0  0  0  0  0  0
   -5.5410    1.4507   -0.3249 H   0  0  0  0  0  0  0  0  0  0  0  0
   -5.1422    0.6632   -1.9003 H   0  0  0  0  0  0  0  0  0  0  0  0
   -5.2149   -1.1549   -0.5170 H   0  0  0  0  0  0  0  0  0  0  0  0
   -3.1588   -1.6245   -1.1702 H   0  0  0  0  0  0  0  0  0  0  0  0
   -4.1254   -2.2710    1.4872 H   0  0  0  0  0  0  0  0  0  0  0  0
   -2.9245   -3.0587    0.4346 H   0  0  0  0  0  0  0  0  0  0  0  0
   -2.4359   -2.7007    2.1016 H   0  0  0  0  0  0  0  0  0  0  0  0
   -0.6811   -0.9802    1.7066 H   0  0  0  0  0  0  0  0  0  0  0  0
   -0.3291   -2.7204   -0.3593 H   0  0  0  0  0  0  0  0  0  0  0  0
    6.4213    2.3190   -0.4910 H   0  0  0  0  0  0  0  0  0  0  0  0
    6.6393    0.6779   -1.1608 H   0  0  0  0  0  0  0  0  0  0  0  0
    5.1464    1.6807   -1.5620 H   0  0  0  0  0  0  0  0  0  0  0  0
    4.9658    1.4962    1.1715 H   0  0  0  0  0  0  0  0  0  0  0  0
    6.8695   -0.0943    0.7068 H   0  0  0  0  0  0  0  0  0  0  0  0
    4.0180   -0.5799   -0.8387 H   0  0  0  0  0  0  0  0  0  0  0  0
    3.2586    1.0093   -0.6338 H   0  0  0  0  0  0  0  0  0  0  0  0
    3.7018   -1.1546    1.5572 H   0  0  0  0  0  0  0  0  0  0  0  0
    2.9453    0.4334    1.8085 H   0  0  0  0  0  0  0  0  0  0  0  0
    1.2845   -1.5004    1.5441 H   0  0  0  0  0  0  0  0  0  0  0  0
    1.9409   -1.7253   -0.1346 H   0  0  0  0  0  0  0  0  0  0  0  0
    0.7626    0.9191    0.8843 H   0  0  0  0  0  0  0  0  0  0  0  0
    1.3475    0.5492   -0.7660 H   0  0  0  0  0  0  0  0  0  0  0  0
   -1.3000    1.5208    0.1091 H   0  0  0  0  0  0  0  0  0  0  0  0
   -0.2766    0.8503   -2.4766 H   0  0  0  0  0  0  0  0  0  0  0  0
   -2.6405    0.2993   -2.2329 H   0  0  0  0  0  0  0  0  0  0  0  0
   -3.0212    1.2344    1.1640 H   0  0  0  0  0  0  0  0  0  0  0  0
   -4.4144    2.3700    0.8284 H   0  0  0  0  0  0  0  0  0  0  0  0
   -2.7227    2.9066    0.5699 H   0  0  0  0  0  0  0  0  0  0  0  0
   -5.5410    1.4507   -0.3249 H   0  0  0  0  0  0  0  0  0  0  0  0
   -5.1422    0.6632   -1.9003 H   0  0  0  0  0  0  0  0  0  0  0  0
   -5.2149   -1.1549   -0.5170 H   0  0  0  0  0  0  0  0  0  0  0  0
   -3.1588   -1.6245   -1.1702 H   0  0  0  0  0  0  0  0  0  0  0  0
   -4.1254   -2.2710    1.4872 H   0  0  0  0  0  0  0  0  0  0  0  0
   -2.9245   -3.0587    0.4346 H   0  0  0  0  0  0  0  0  0  0  0  0
   -2.4359   -2.7007    2.1016 H   0  0  0  0  0  0  0  0  0  0  0  0
   -0.6811   -0.9802    1.7066 H   0  0  0  0  0  0  0  0  0  0  0  0
   -0.3291   -2.7204   -0.3593 H   0  0  0  0  0  0  0  0  0  0  0  0
  1  2  1  0
  2  3  1  0
  2  4  1  0
  4  5  1  0
  5  6  1  0
  6  7  1  0
  7  8  1  0
  8  9  1  0
  9 10  1  0
  9 11  1  0
 11 12  1  0
 12 13  1  0
 12 14  1  0
 14 15  1  0
 11 16  1  0
 15 16  1  0
 16 17  1  0
 17 18  1  0
  8 19  1  0
 17 19  1  0
 19 20  1  0
 21 22  1  0
 22 23  1  0
 22 24  1  0
 24 25  1  0
 25 26  1  0
 26 27  1  0
 27 28  1  0
 28 29  1  0
 29 30  1  0
 29 31  1  0
 31 32  1  0
 32 33  1  0
 32 34  1  0
 34 35  1  0
 31 36  1  0
 35 36  1  0
 36 37  1  0
 37 38  1  0
 28 39  1  0
 37 39  1  0
 39 40  1  0
  1 41  1  0
  1 42  1  0
  1 43  1  0
  2 44  1  0
  3 45  1  0
  4 46  1  0
  4 47  1  0
  5 48  1  0
  5 49  1  0
  6 50  1  0
  6 51  1  0
  7 52  1  0
  7 53  1  0
  9 54  1  0
 10 55  1  0
 11 56  1  0
 13 57  1  0
 13 58  1  0
 13 59  1  0
 14 60  1  0
 14 61  1  0
 15 62  1  0
 16 63  1  0
 18 64  1  0
 18 65  1  0
 18 66  1  0
 19 67  1  0
 20 68  1  0
 21 69  1  0
 21 70  1  0
 21 71  1  0
 22 72  1  0
 23 73  1  0
 24 74  1  0
 24 75  1  0
 25 76  1  0
 25 77  1  0
 26 78  1  0
 26 79  1  0
 27 80  1  0
 27 81  1  0
 29 82  1  0
 30 83  1  0
 31 84  1  0
 33 85  1  0
 33 86  1  0
 33 87  1  0
 34 88  1  0
 34 89  1  0
 35 90  1  0
 36 91  1  0
 38 92  1  0
 38 93  1  0
 38 94  1  0
 39 95  1  0
 40 96  1  0
M  END
>  <PDBID>  (1) 
3TVX

>  <PDB ID>  (1) 
3TVX

>  <Generic Name>  (1) 
Pentoxifylline

>  <Brand Name>  (1) 
Gapeam Budibac#Nu-pentoxifylline-SR 400 mg#Pentoxifylline#Pentoxifylline SR#Ratio-pentoxifylline#Trental#Trental Srt 400mg#Trental Tab 400mg#Agapurin#Agapurin SR#An Ruo Ning#Angiopent#Ao Le Ni#Ao Nuo Hong#Aotong#Azupentat#Behrifil#Bo Shu Te#Claudicat#Durapental#Elorgan#Endopentoksas#Pentilin#Pentilin Retard#Pentoflux#Pentofyllin#Pentoksifilin#Pentolab#Pentomer#Pentoxil#Rentylin#Torental#Trentilin Retard

>  <DrugBank ID>  (1) 
DB00806

>  <ATC Codes>  (1) 
C04AD03

>  <Ligand ID>  (1) 
PNX

>  <Target Name>  (1) 
cAMP-specific 3',5'-cyclic phosphodiesterase 4B

>  <UniProt ID>  (1) 
Q07343

>  <PDB ID.1>  (1) 
3TVX

>  <Seq. Identity>  (1) 
84%

$$$$
