PDB_DB06700_02
     RDKit          3D

 50 51  0  0  0  0  0  0  0  0999 V2000
   -2.7919   -0.0613    0.0761 O   0  0  0  0  0  0  0  0  0  0  0  0
   -1.4879   -0.6605    0.0922 C   0  0  0  0  0  0  0  0  0  0  0  0
   -1.6416   -1.7283   -0.9772 C   0  0  0  0  0  0  0  0  0  0  0  0
   -1.3643   -1.2866    1.4237 C   0  0  0  0  0  0  0  0  0  0  0  0
   -1.3521   -2.8190    1.2979 C   0  0  0  0  0  0  0  0  0  0  0  0
   -2.6161   -3.2437    0.6385 C   0  0  0  0  0  0  0  0  0  0  0  0
   -2.9546   -2.4428   -0.6078 C   0  0  0  0  0  0  0  0  0  0  0  0
   -0.5952    0.4471   -0.2702 C   0  0  1  0  0  0  0  0  0  0  0  0
   -0.7628    1.5527    0.7867 C   0  0  0  0  0  0  0  0  0  0  0  0
    0.1041    2.6857    0.4516 N   0  0  0  0  0  0  0  0  0  0  0  0
   -0.0948    3.6390    1.5520 C   0  0  0  0  0  0  0  0  0  0  0  0
   -0.5635    3.3214   -0.6983 C   0  0  0  0  0  0  0  0  0  0  0  0
    0.8266    0.2612   -0.5101 C   0  0  0  0  0  0  0  0  0  0  0  0
    1.2555   -0.6624   -1.6120 C   0  0  0  0  0  0  0  0  0  0  0  0
    2.6977   -0.2659   -1.9888 C   0  0  0  0  0  0  0  0  0  0  0  0
    3.5623   -0.5762   -0.7928 C   0  0  0  0  0  0  0  0  0  0  0  0
    4.8989   -0.3595   -1.0638 O   0  0  0  0  0  0  0  0  0  0  0  0
    3.1569    0.3669    0.3149 C   0  0  0  0  0  0  0  0  0  0  0  0
    1.7049    0.1039    0.7301 C   0  0  0  0  0  0  0  0  0  0  0  0
   -3.0887    0.1424    0.9814 H   0  0  0  0  0  0  0  0  0  0  0  0
   -1.7684   -1.2179   -1.9701 H   0  0  0  0  0  0  0  0  0  0  0  0
   -0.8888   -2.5038   -0.9678 H   0  0  0  0  0  0  0  0  0  0  0  0
   -2.2531   -1.0997    2.1040 H   0  0  0  0  0  0  0  0  0  0  0  0
   -0.5054   -1.0322    2.0294 H   0  0  0  0  0  0  0  0  0  0  0  0
   -1.3951   -3.1793    2.3670 H   0  0  0  0  0  0  0  0  0  0  0  0
   -0.4278   -3.2026    0.8851 H   0  0  0  0  0  0  0  0  0  0  0  0
   -3.4526   -3.0556    1.3706 H   0  0  0  0  0  0  0  0  0  0  0  0
   -2.6543   -4.3066    0.3849 H   0  0  0  0  0  0  0  0  0  0  0  0
   -3.7277   -1.6747   -0.4193 H   0  0  0  0  0  0  0  0  0  0  0  0
   -3.2817   -3.0791   -1.4374 H   0  0  0  0  0  0  0  0  0  0  0  0
   -1.0539    0.9130   -1.1877 H   0  0  0  0  0  0  0  0  0  0  0  0
   -1.8018    1.9426    0.7108 H   0  0  0  0  0  0  0  0  0  0  0  0
   -0.5990    1.1753    1.7934 H   0  0  0  0  0  0  0  0  0  0  0  0
    0.2471    4.6522    1.2605 H   0  0  0  0  0  0  0  0  0  0  0  0
    0.4297    3.2497    2.4375 H   0  0  0  0  0  0  0  0  0  0  0  0
   -1.1870    3.6629    1.7568 H   0  0  0  0  0  0  0  0  0  0  0  0
   -0.4819    4.4378   -0.5704 H   0  0  0  0  0  0  0  0  0  0  0  0
   -1.6387    3.1056   -0.7117 H   0  0  0  0  0  0  0  0  0  0  0  0
   -0.0531    3.1156   -1.6525 H   0  0  0  0  0  0  0  0  0  0  0  0
    1.2130    1.2699   -0.8843 H   0  0  0  0  0  0  0  0  0  0  0  0
    0.6594   -0.4171   -2.5117 H   0  0  0  0  0  0  0  0  0  0  0  0
    1.3097   -1.7174   -1.3449 H   0  0  0  0  0  0  0  0  0  0  0  0
    3.0251   -0.8038   -2.8889 H   0  0  0  0  0  0  0  0  0  0  0  0
    2.6857    0.8255   -2.1873 H   0  0  0  0  0  0  0  0  0  0  0  0
    3.4337   -1.6413   -0.5254 H   0  0  0  0  0  0  0  0  0  0  0  0
    5.0852    0.5564   -1.3898 H   0  0  0  0  0  0  0  0  0  0  0  0
    3.8059    0.1806    1.1807 H   0  0  0  0  0  0  0  0  0  0  0  0
    3.2313    1.3907   -0.0500 H   0  0  0  0  0  0  0  0  0  0  0  0
    1.7018   -0.8795    1.1593 H   0  0  0  0  0  0  0  0  0  0  0  0
    1.4494    0.9188    1.4348 H   0  0  0  0  0  0  0  0  0  0  0  0
  2  1  1  0
  2  3  1  0
  2  4  1  0
  4  5  1  0
  5  6  1  0
  3  7  1  0
  6  7  1  0
  2  8  1  0
  8  9  1  0
  9 10  1  0
 10 11  1  0
 10 12  1  0
  8 13  1  0
 13 14  1  0
 14 15  1  0
 15 16  1  0
 16 17  1  0
 16 18  1  0
 13 19  1  0
 18 19  1  0
  1 20  1  0
  3 21  1  0
  3 22  1  0
  4 23  1  0
  4 24  1  0
  5 25  1  0
  5 26  1  0
  6 27  1  0
  6 28  1  0
  7 29  1  0
  7 30  1  0
  8 31  1  6
  9 32  1  0
  9 33  1  0
 11 34  1  0
 11 35  1  0
 11 36  1  0
 12 37  1  0
 12 38  1  0
 12 39  1  0
 13 40  1  0
 14 41  1  0
 14 42  1  0
 15 43  1  0
 15 44  1  0
 16 45  1  0
 17 46  1  0
 18 47  1  0
 18 48  1  0
 19 49  1  0
 19 50  1  0
M  END
>  <PDBID>  (1) 
4MM7

>  <PDB ID>  (1) 
4MM7

>  <Generic Name>  (1) 
Desvenlafaxine

>  <Brand Name>  (1) 
Desvenlafaxine#Desvenlafaxine Extended-release#Desvenlafaxine Succinate#Gd-desvenlafaxine#Khedezla Extended-release#Pristiq#Pristiq Extended Release#Pristiq Extended-release#Pristiq Extended-release Extended-release#Zyven-OD

>  <DrugBank ID>  (1) 
DB06700

>  <ATC Codes>  (1) 
N06AX23

>  <Ligand ID>  (1) 
29J

>  <Target Name>  (1) 
Sodium-dependent noradrenaline transporter

>  <UniProt ID>  (1) 
P23975

>  <PDB ID.1>  (1) 
4MM7

>  <Seq. Identity>  (1) 
30%

$$$$
