PDB_DB04839_02
     RDKit          3D

 68 72  0  0  0  0  0  0  0  0999 V2000
    4.7973   -1.0798    0.7021 C   0  0  0  0  0  0  0  0  0  0  0  0
   -0.6545    0.4189    1.1518 C   0  0  1  0  0  0  0  0  0  0  0  0
    3.4427   -0.4734    0.8796 C   0  0  2  0  0  0  0  0  0  0  0  0
    2.6995   -0.9927    2.0906 C   0  0  0  0  0  0  0  0  0  0  0  0
    0.5422    0.3638   -1.3199 C   0  0  0  0  0  0  0  0  0  0  0  0
    1.5069   -0.0799    2.2970 C   0  0  0  0  0  0  0  0  0  0  0  0
    0.5875   -0.3473    1.0929 C   0  0  2  0  0  0  0  0  0  0  0  0
    1.3442    0.2342   -0.1067 C   0  0  1  0  0  0  0  0  0  0  0  0
    2.6312   -0.5112   -0.3786 C   0  0  2  0  0  0  0  0  0  0  0  0
   -0.9184    0.6918   -1.1869 C   0  0  0  0  0  0  0  0  0  0  0  0
   -1.5746   -0.0091    0.0081 C   0  0  1  0  0  0  0  0  0  0  0  0
    5.5452   -0.3098   -0.3231 C   0  0  0  0  0  0  0  0  0  0  0  0
    2.4047   -1.9051   -0.8965 C   0  0  0  0  0  0  0  0  0  0  0  0
    3.3590    0.2464   -1.4581 C   0  0  1  0  0  0  0  0  0  0  0  0
    4.0408    1.5167   -1.2319 C   0  0  0  0  0  0  0  0  0  0  0  0
    4.7924    0.1786   -1.4782 C   0  0  1  0  0  0  0  0  0  0  0  0
    6.1594    0.7945    0.3109 O   0  0  0  0  0  0  0  0  0  0  0  0
    2.1739   -2.6682    1.9208 Cl  0  0  0  0  0  0  0  0  0  0  0  0
   -1.4997   -1.4726   -0.2915 C   0  0  0  0  0  0  0  0  0  0  0  0
   -1.5015    0.3434    2.3409 C   0  0  0  0  0  0  0  0  0  0  0  0
   -2.7178    1.1161    1.8114 C   0  0  0  0  0  0  0  0  0  0  0  0
   -2.8894    0.5013    0.4100 C   0  0  2  0  0  0  0  0  0  0  0  0
   -3.9094   -0.6345    0.6738 C   0  0  0  0  0  0  0  0  0  0  0  0
   -5.1102   -0.0983    1.4102 C   0  0  0  0  0  0  0  0  0  0  0  0
   -3.3705   -1.6463    1.4420 O   0  0  0  0  0  0  0  0  0  0  0  0
   -3.5161    1.4348   -0.3435 O   0  0  0  0  0  0  0  0  0  0  0  0
   -3.8983    1.1702   -1.6075 C   0  0  0  0  0  0  0  0  0  0  0  0
   -5.4300    1.3105   -1.7945 C   0  0  0  0  0  0  0  0  0  0  0  0
   -3.3804    2.1366   -2.4698 O   0  0  0  0  0  0  0  0  0  0  0  0
    5.3384   -0.9429    1.6855 H   0  0  0  0  0  0  0  0  0  0  0  0
    4.7904   -2.1675    0.5341 H   0  0  0  0  0  0  0  0  0  0  0  0
   -0.3835    1.5090    1.0087 H   0  0  0  0  0  0  0  0  0  0  0  0
    3.6178    0.6210    1.1027 H   0  0  0  0  0  0  0  0  0  0  0  0
    3.4137   -0.9281    2.9394 H   0  0  0  0  0  0  0  0  0  0  0  0
    0.7091   -0.5499   -1.9645 H   0  0  0  0  0  0  0  0  0  0  0  0
    0.9831    1.1955   -1.9494 H   0  0  0  0  0  0  0  0  0  0  0  0
    1.8879    0.9610    2.2263 H   0  0  0  0  0  0  0  0  0  0  0  0
    0.9969   -0.2389    3.2464 H   0  0  0  0  0  0  0  0  0  0  0  0
    0.5352   -1.4296    1.0101 H   0  0  0  0  0  0  0  0  0  0  0  0
    1.6598    1.2603    0.2348 H   0  0  0  0  0  0  0  0  0  0  0  0
   -1.0481    1.7837   -1.0998 H   0  0  0  0  0  0  0  0  0  0  0  0
   -1.3506    0.3504   -2.1596 H   0  0  0  0  0  0  0  0  0  0  0  0
    6.4144   -0.9506   -0.6547 H   0  0  0  0  0  0  0  0  0  0  0  0
    1.5028   -2.3975   -0.5157 H   0  0  0  0  0  0  0  0  0  0  0  0
    2.2708   -1.8602   -2.0180 H   0  0  0  0  0  0  0  0  0  0  0  0
    3.2463   -2.5795   -0.7287 H   0  0  0  0  0  0  0  0  0  0  0  0
    2.8319    0.1465   -2.4549 H   0  0  0  0  0  0  0  0  0  0  0  0
    4.1856    2.0089   -0.2732 H   0  0  0  0  0  0  0  0  0  0  0  0
    4.1087    2.2448   -2.0927 H   0  0  0  0  0  0  0  0  0  0  0  0
    5.3182    0.1039   -2.4738 H   0  0  0  0  0  0  0  0  0  0  0  0
    5.9309    0.8190    1.2731 H   0  0  0  0  0  0  0  0  0  0  0  0
   -1.2962   -2.1383    0.5379 H   0  0  0  0  0  0  0  0  0  0  0  0
   -0.7127   -1.7012   -1.0694 H   0  0  0  0  0  0  0  0  0  0  0  0
   -2.4490   -1.7659   -0.8108 H   0  0  0  0  0  0  0  0  0  0  0  0
   -1.7470   -0.6328    2.7453 H   0  0  0  0  0  0  0  0  0  0  0  0
   -1.0904    1.0259    3.1463 H   0  0  0  0  0  0  0  0  0  0  0  0
   -2.4253    2.1625    1.6901 H   0  0  0  0  0  0  0  0  0  0  0  0
   -3.5491    0.9338    2.4779 H   0  0  0  0  0  0  0  0  0  0  0  0
   -4.2690   -1.0706   -0.2724 H   0  0  0  0  0  0  0  0  0  0  0  0
   -6.0459   -0.6036    1.0252 H   0  0  0  0  0  0  0  0  0  0  0  0
   -5.2403    0.9794    1.3505 H   0  0  0  0  0  0  0  0  0  0  0  0
   -5.1059   -0.3724    2.4998 H   0  0  0  0  0  0  0  0  0  0  0  0
   -3.9640   -2.0263    2.1092 H   0  0  0  0  0  0  0  0  0  0  0  0
   -3.6861    0.1763   -2.0187 H   0  0  0  0  0  0  0  0  0  0  0  0
   -5.6672    1.6441   -2.8176 H   0  0  0  0  0  0  0  0  0  0  0  0
   -5.8058    2.0223   -1.0608 H   0  0  0  0  0  0  0  0  0  0  0  0
   -5.9158    0.3101   -1.6743 H   0  0  0  0  0  0  0  0  0  0  0  0
   -3.6460    1.8678   -3.3899 H   0  0  0  0  0  0  0  0  0  0  0  0
  1  3  1  0
  3  4  1  0
  4  6  1  0
  2  7  1  0
  6  7  1  0
  5  8  1  0
  7  8  1  0
  3  9  1  0
  8  9  1  0
  5 10  1  0
  2 11  1  0
 10 11  1  0
  1 12  1  0
  9 13  1  6
  9 14  1  0
 14 15  1  0
 12 16  1  0
 14 16  1  0
 15 16  1  0
 12 17  1  0
  4 18  1  0
 11 19  1  6
  2 20  1  0
 20 21  1  0
 11 22  1  0
 21 22  1  0
 22 23  1  0
 23 24  1  0
 23 25  1  0
 22 26  1  6
 26 27  1  0
 27 28  1  0
 27 29  1  0
  1 30  1  0
  1 31  1  0
  2 32  1  6
  3 33  1  1
  4 34  1  0
  5 35  1  0
  5 36  1  0
  6 37  1  0
  6 38  1  0
  7 39  1  6
  8 40  1  1
 10 41  1  0
 10 42  1  0
 12 43  1  0
 13 44  1  0
 13 45  1  0
 13 46  1  0
 14 47  1  6
 15 48  1  0
 15 49  1  0
 16 50  1  6
 17 51  1  0
 19 52  1  0
 19 53  1  0
 19 54  1  0
 20 55  1  0
 20 56  1  0
 21 57  1  0
 21 58  1  0
 23 59  1  0
 24 60  1  0
 24 61  1  0
 24 62  1  0
 25 63  1  0
 27 64  1  0
 28 65  1  0
 28 66  1  0
 28 67  1  0
 29 68  1  0
M  END
>  <PDBID>  (1) 
2OZ7

>  <PDB ID>  (1) 
2OZ7

>  <Generic Name>  (1) 
Cyproterone acetate

>  <Brand Name>  (1) 
Alti-cpa#Androcur#Androcur Depot#ClÃ©o -35#Cyestra-35#Cyproterone#Diane-35#Med-cyproterone#Mylan-cyproterone#Novo-cyproterone#Novo-cyproterone/ethinyl Estradiol#Ran-cyproterone/ethinyl Estradiol#Riva-cyproterone#Riva-cyproterone 50 mg#Cyprostat

>  <DrugBank ID>  (1) 
DB04839

>  <ATC Codes>  (1) 
G03HB01#G03HA01

>  <Ligand ID>  (1) 
CA4

>  <Target Name>  (1) 
Androgen receptor

>  <UniProt ID>  (1) 
P10275

>  <PDB ID.1>  (1) 
2OZ7

>  <Seq. Identity>  (1) 
100%

$$$$
