PDB_DB01273_00
     RDKit          3D

195210  0  0  0  0  0  0  0  0999 V2000
   -2.6917    0.7389   -1.1099 C   0  0  0  0  0  0  0  0  0  0  0  0
   -3.4522   -0.4943   -1.0634 N   0  0  0  0  0  0  0  0  0  0  0  0
   -2.5884   -1.5083   -0.4952 C   0  0  0  0  0  0  0  0  0  0  0  0
   -2.0164   -1.0741    0.7905 C   0  0  2  0  0  0  0  0  0  0  0  0
   -2.7061    0.2220    1.2543 C   0  0  0  0  0  0  0  0  0  0  0  0
   -2.1249    1.1579    0.1771 C   0  0  1  0  0  0  0  0  0  0  0  0
   -0.6533    0.8815    0.3892 C   0  0  0  0  0  0  0  0  0  0  0  0
    0.2469    1.3796   -0.6493 C   0  0  0  0  0  0  0  0  0  0  0  0
    1.3966    0.5087   -1.0489 C   0  0  0  0  0  0  0  0  0  0  0  0
    2.6396    1.2426   -1.2253 N   0  0  0  0  0  0  0  0  0  0  0  0
    3.6383    0.8801   -0.2465 C   0  0  0  0  0  0  0  0  0  0  0  0
    3.9713   -0.5953   -0.2707 C   0  0  0  0  0  0  0  0  0  0  0  0
    2.7820   -1.3892   -0.3580 N   0  0  0  0  0  0  0  0  0  0  0  0
    1.6562   -0.5827   -0.0552 C   0  0  0  0  0  0  0  0  0  0  0  0
    0.3489   -1.3925   -0.0277 C   0  0  0  0  0  0  0  0  0  0  0  0
   -0.5987   -0.5557    0.7594 C   0  0  0  0  0  0  0  0  0  0  0  0
   -2.6917    0.7389   -1.1099 C   0  0  0  0  0  0  0  0  0  0  0  0
   -3.4522   -0.4943   -1.0634 N   0  0  0  0  0  0  0  0  0  0  0  0
   -2.5884   -1.5083   -0.4952 C   0  0  0  0  0  0  0  0  0  0  0  0
   -2.0164   -1.0741    0.7905 C   0  0  2  0  0  0  0  0  0  0  0  0
   -2.7061    0.2220    1.2543 C   0  0  0  0  0  0  0  0  0  0  0  0
   -2.1249    1.1579    0.1771 C   0  0  1  0  0  0  0  0  0  0  0  0
   -0.6533    0.8815    0.3892 C   0  0  0  0  0  0  0  0  0  0  0  0
    0.2469    1.3796   -0.6493 C   0  0  0  0  0  0  0  0  0  0  0  0
    1.3966    0.5087   -1.0489 C   0  0  0  0  0  0  0  0  0  0  0  0
    2.6396    1.2426   -1.2253 N   0  0  0  0  0  0  0  0  0  0  0  0
    3.6383    0.8801   -0.2465 C   0  0  0  0  0  0  0  0  0  0  0  0
    3.9713   -0.5953   -0.2707 C   0  0  0  0  0  0  0  0  0  0  0  0
    2.7820   -1.3892   -0.3580 N   0  0  0  0  0  0  0  0  0  0  0  0
    1.6562   -0.5827   -0.0552 C   0  0  0  0  0  0  0  0  0  0  0  0
    0.3489   -1.3925   -0.0277 C   0  0  0  0  0  0  0  0  0  0  0  0
   -0.5987   -0.5557    0.7594 C   0  0  0  0  0  0  0  0  0  0  0  0
   -2.6917    0.7389   -1.1099 C   0  0  0  0  0  0  0  0  0  0  0  0
   -3.4522   -0.4943   -1.0634 N   0  0  0  0  0  0  0  0  0  0  0  0
   -2.5884   -1.5083   -0.4952 C   0  0  0  0  0  0  0  0  0  0  0  0
   -2.0164   -1.0741    0.7905 C   0  0  2  0  0  0  0  0  0  0  0  0
   -2.7061    0.2220    1.2543 C   0  0  0  0  0  0  0  0  0  0  0  0
   -2.1249    1.1579    0.1771 C   0  0  1  0  0  0  0  0  0  0  0  0
   -0.6533    0.8815    0.3892 C   0  0  0  0  0  0  0  0  0  0  0  0
    0.2469    1.3796   -0.6493 C   0  0  0  0  0  0  0  0  0  0  0  0
    1.3966    0.5087   -1.0489 C   0  0  0  0  0  0  0  0  0  0  0  0
    2.6396    1.2426   -1.2253 N   0  0  0  0  0  0  0  0  0  0  0  0
    3.6383    0.8801   -0.2465 C   0  0  0  0  0  0  0  0  0  0  0  0
    3.9713   -0.5953   -0.2707 C   0  0  0  0  0  0  0  0  0  0  0  0
    2.7820   -1.3892   -0.3580 N   0  0  0  0  0  0  0  0  0  0  0  0
    1.6562   -0.5827   -0.0552 C   0  0  0  0  0  0  0  0  0  0  0  0
    0.3489   -1.3925   -0.0277 C   0  0  0  0  0  0  0  0  0  0  0  0
   -0.5987   -0.5557    0.7594 C   0  0  0  0  0  0  0  0  0  0  0  0
   -2.6917    0.7389   -1.1099 C   0  0  0  0  0  0  0  0  0  0  0  0
   -3.4522   -0.4943   -1.0634 N   0  0  0  0  0  0  0  0  0  0  0  0
   -2.5884   -1.5083   -0.4952 C   0  0  0  0  0  0  0  0  0  0  0  0
   -2.0164   -1.0741    0.7905 C   0  0  2  0  0  0  0  0  0  0  0  0
   -2.7061    0.2220    1.2543 C   0  0  0  0  0  0  0  0  0  0  0  0
   -2.1249    1.1579    0.1771 C   0  0  1  0  0  0  0  0  0  0  0  0
   -0.6533    0.8815    0.3892 C   0  0  0  0  0  0  0  0  0  0  0  0
    0.2469    1.3796   -0.6493 C   0  0  0  0  0  0  0  0  0  0  0  0
    1.3966    0.5087   -1.0489 C   0  0  0  0  0  0  0  0  0  0  0  0
    2.6396    1.2426   -1.2253 N   0  0  0  0  0  0  0  0  0  0  0  0
    3.6383    0.8801   -0.2465 C   0  0  0  0  0  0  0  0  0  0  0  0
    3.9713   -0.5953   -0.2707 C   0  0  0  0  0  0  0  0  0  0  0  0
    2.7820   -1.3892   -0.3580 N   0  0  0  0  0  0  0  0  0  0  0  0
    1.6562   -0.5827   -0.0552 C   0  0  0  0  0  0  0  0  0  0  0  0
    0.3489   -1.3925   -0.0277 C   0  0  0  0  0  0  0  0  0  0  0  0
   -0.5987   -0.5557    0.7594 C   0  0  0  0  0  0  0  0  0  0  0  0
   -2.6917    0.7389   -1.1099 C   0  0  0  0  0  0  0  0  0  0  0  0
   -3.4522   -0.4943   -1.0634 N   0  0  0  0  0  0  0  0  0  0  0  0
   -2.5884   -1.5083   -0.4952 C   0  0  0  0  0  0  0  0  0  0  0  0
   -2.0164   -1.0741    0.7905 C   0  0  2  0  0  0  0  0  0  0  0  0
   -2.7061    0.2220    1.2543 C   0  0  0  0  0  0  0  0  0  0  0  0
   -2.1249    1.1579    0.1771 C   0  0  1  0  0  0  0  0  0  0  0  0
   -0.6533    0.8815    0.3892 C   0  0  0  0  0  0  0  0  0  0  0  0
    0.2469    1.3796   -0.6493 C   0  0  0  0  0  0  0  0  0  0  0  0
    1.3966    0.5087   -1.0489 C   0  0  0  0  0  0  0  0  0  0  0  0
    2.6396    1.2426   -1.2253 N   0  0  0  0  0  0  0  0  0  0  0  0
    3.6383    0.8801   -0.2465 C   0  0  0  0  0  0  0  0  0  0  0  0
    3.9713   -0.5953   -0.2707 C   0  0  0  0  0  0  0  0  0  0  0  0
    2.7820   -1.3892   -0.3580 N   0  0  0  0  0  0  0  0  0  0  0  0
    1.6562   -0.5827   -0.0552 C   0  0  0  0  0  0  0  0  0  0  0  0
    0.3489   -1.3925   -0.0277 C   0  0  0  0  0  0  0  0  0  0  0  0
   -0.5987   -0.5557    0.7594 C   0  0  0  0  0  0  0  0  0  0  0  0
   -1.9924    0.6344   -1.9550 H   0  0  0  0  0  0  0  0  0  0  0  0
   -3.4306    1.5288   -1.4419 H   0  0  0  0  0  0  0  0  0  0  0  0
   -4.3737   -0.4205   -0.6418 H   0  0  0  0  0  0  0  0  0  0  0  0
   -1.9031   -1.8222   -1.2775 H   0  0  0  0  0  0  0  0  0  0  0  0
   -3.2422   -2.4087   -0.2914 H   0  0  0  0  0  0  0  0  0  0  0  0
   -2.1961   -1.8082    1.6103 H   0  0  0  0  0  0  0  0  0  0  0  0
   -2.2745    0.5147    2.2209 H   0  0  0  0  0  0  0  0  0  0  0  0
   -3.7838    0.1610    1.2197 H   0  0  0  0  0  0  0  0  0  0  0  0
   -2.4009    2.1931    0.4698 H   0  0  0  0  0  0  0  0  0  0  0  0
   -0.4255    1.4696    1.3350 H   0  0  0  0  0  0  0  0  0  0  0  0
   -0.2682    1.6583   -1.6200 H   0  0  0  0  0  0  0  0  0  0  0  0
    0.7206    2.3732   -0.3641 H   0  0  0  0  0  0  0  0  0  0  0  0
    1.2083    0.0098   -2.0443 H   0  0  0  0  0  0  0  0  0  0  0  0
    2.5142    2.2632   -1.1801 H   0  0  0  0  0  0  0  0  0  0  0  0
    4.5532    1.4412   -0.4898 H   0  0  0  0  0  0  0  0  0  0  0  0
    3.3535    1.1967    0.7920 H   0  0  0  0  0  0  0  0  0  0  0  0
    4.4573   -0.8226    0.7222 H   0  0  0  0  0  0  0  0  0  0  0  0
    4.7268   -0.8451   -1.0530 H   0  0  0  0  0  0  0  0  0  0  0  0
    2.7119   -1.9906   -1.1830 H   0  0  0  0  0  0  0  0  0  0  0  0
    1.7809   -0.1423    0.9445 H   0  0  0  0  0  0  0  0  0  0  0  0
    0.5711   -2.3195    0.4970 H   0  0  0  0  0  0  0  0  0  0  0  0
    0.1002   -1.5839   -1.0598 H   0  0  0  0  0  0  0  0  0  0  0  0
   -0.2556   -0.6995    1.8356 H   0  0  0  0  0  0  0  0  0  0  0  0
   -1.9924    0.6344   -1.9550 H   0  0  0  0  0  0  0  0  0  0  0  0
   -3.4306    1.5288   -1.4419 H   0  0  0  0  0  0  0  0  0  0  0  0
   -4.3737   -0.4205   -0.6418 H   0  0  0  0  0  0  0  0  0  0  0  0
   -1.9031   -1.8222   -1.2775 H   0  0  0  0  0  0  0  0  0  0  0  0
   -3.2422   -2.4087   -0.2914 H   0  0  0  0  0  0  0  0  0  0  0  0
   -2.1961   -1.8082    1.6103 H   0  0  0  0  0  0  0  0  0  0  0  0
   -2.2745    0.5147    2.2209 H   0  0  0  0  0  0  0  0  0  0  0  0
   -3.7838    0.1610    1.2197 H   0  0  0  0  0  0  0  0  0  0  0  0
   -2.4009    2.1931    0.4698 H   0  0  0  0  0  0  0  0  0  0  0  0
   -0.4255    1.4696    1.3350 H   0  0  0  0  0  0  0  0  0  0  0  0
   -0.2682    1.6583   -1.6200 H   0  0  0  0  0  0  0  0  0  0  0  0
    0.7206    2.3732   -0.3641 H   0  0  0  0  0  0  0  0  0  0  0  0
    1.2083    0.0098   -2.0443 H   0  0  0  0  0  0  0  0  0  0  0  0
    2.5142    2.2632   -1.1801 H   0  0  0  0  0  0  0  0  0  0  0  0
    4.5532    1.4412   -0.4898 H   0  0  0  0  0  0  0  0  0  0  0  0
    3.3535    1.1967    0.7920 H   0  0  0  0  0  0  0  0  0  0  0  0
    4.4573   -0.8226    0.7222 H   0  0  0  0  0  0  0  0  0  0  0  0
    4.7268   -0.8451   -1.0530 H   0  0  0  0  0  0  0  0  0  0  0  0
    2.7119   -1.9906   -1.1830 H   0  0  0  0  0  0  0  0  0  0  0  0
    1.7809   -0.1423    0.9445 H   0  0  0  0  0  0  0  0  0  0  0  0
    0.5711   -2.3195    0.4970 H   0  0  0  0  0  0  0  0  0  0  0  0
    0.1002   -1.5839   -1.0598 H   0  0  0  0  0  0  0  0  0  0  0  0
   -0.2556   -0.6995    1.8356 H   0  0  0  0  0  0  0  0  0  0  0  0
   -1.9924    0.6344   -1.9550 H   0  0  0  0  0  0  0  0  0  0  0  0
   -3.4306    1.5288   -1.4419 H   0  0  0  0  0  0  0  0  0  0  0  0
   -4.3737   -0.4205   -0.6418 H   0  0  0  0  0  0  0  0  0  0  0  0
   -1.9031   -1.8222   -1.2775 H   0  0  0  0  0  0  0  0  0  0  0  0
   -3.2422   -2.4087   -0.2914 H   0  0  0  0  0  0  0  0  0  0  0  0
   -2.1961   -1.8082    1.6103 H   0  0  0  0  0  0  0  0  0  0  0  0
   -2.2745    0.5147    2.2209 H   0  0  0  0  0  0  0  0  0  0  0  0
   -3.7838    0.1610    1.2197 H   0  0  0  0  0  0  0  0  0  0  0  0
   -2.4009    2.1931    0.4698 H   0  0  0  0  0  0  0  0  0  0  0  0
   -0.4255    1.4696    1.3350 H   0  0  0  0  0  0  0  0  0  0  0  0
   -0.2682    1.6583   -1.6200 H   0  0  0  0  0  0  0  0  0  0  0  0
    0.7206    2.3732   -0.3641 H   0  0  0  0  0  0  0  0  0  0  0  0
    1.2083    0.0098   -2.0443 H   0  0  0  0  0  0  0  0  0  0  0  0
    2.5142    2.2632   -1.1801 H   0  0  0  0  0  0  0  0  0  0  0  0
    4.5532    1.4412   -0.4898 H   0  0  0  0  0  0  0  0  0  0  0  0
    3.3535    1.1967    0.7920 H   0  0  0  0  0  0  0  0  0  0  0  0
    4.4573   -0.8226    0.7222 H   0  0  0  0  0  0  0  0  0  0  0  0
    4.7268   -0.8451   -1.0530 H   0  0  0  0  0  0  0  0  0  0  0  0
    2.7119   -1.9906   -1.1830 H   0  0  0  0  0  0  0  0  0  0  0  0
    1.7809   -0.1423    0.9445 H   0  0  0  0  0  0  0  0  0  0  0  0
    0.5711   -2.3195    0.4970 H   0  0  0  0  0  0  0  0  0  0  0  0
    0.1002   -1.5839   -1.0598 H   0  0  0  0  0  0  0  0  0  0  0  0
   -0.2556   -0.6995    1.8356 H   0  0  0  0  0  0  0  0  0  0  0  0
   -1.9924    0.6344   -1.9550 H   0  0  0  0  0  0  0  0  0  0  0  0
   -3.4306    1.5288   -1.4419 H   0  0  0  0  0  0  0  0  0  0  0  0
   -4.3737   -0.4205   -0.6418 H   0  0  0  0  0  0  0  0  0  0  0  0
   -1.9031   -1.8222   -1.2775 H   0  0  0  0  0  0  0  0  0  0  0  0
   -3.2422   -2.4087   -0.2914 H   0  0  0  0  0  0  0  0  0  0  0  0
   -2.1961   -1.8082    1.6103 H   0  0  0  0  0  0  0  0  0  0  0  0
   -2.2745    0.5147    2.2209 H   0  0  0  0  0  0  0  0  0  0  0  0
   -3.7838    0.1610    1.2197 H   0  0  0  0  0  0  0  0  0  0  0  0
   -2.4009    2.1931    0.4698 H   0  0  0  0  0  0  0  0  0  0  0  0
   -0.4255    1.4696    1.3350 H   0  0  0  0  0  0  0  0  0  0  0  0
   -0.2682    1.6583   -1.6200 H   0  0  0  0  0  0  0  0  0  0  0  0
    0.7206    2.3732   -0.3641 H   0  0  0  0  0  0  0  0  0  0  0  0
    1.2083    0.0098   -2.0443 H   0  0  0  0  0  0  0  0  0  0  0  0
    2.5142    2.2632   -1.1801 H   0  0  0  0  0  0  0  0  0  0  0  0
    4.5532    1.4412   -0.4898 H   0  0  0  0  0  0  0  0  0  0  0  0
    3.3535    1.1967    0.7920 H   0  0  0  0  0  0  0  0  0  0  0  0
    4.4573   -0.8226    0.7222 H   0  0  0  0  0  0  0  0  0  0  0  0
    4.7268   -0.8451   -1.0530 H   0  0  0  0  0  0  0  0  0  0  0  0
    2.7119   -1.9906   -1.1830 H   0  0  0  0  0  0  0  0  0  0  0  0
    1.7809   -0.1423    0.9445 H   0  0  0  0  0  0  0  0  0  0  0  0
    0.5711   -2.3195    0.4970 H   0  0  0  0  0  0  0  0  0  0  0  0
    0.1002   -1.5839   -1.0598 H   0  0  0  0  0  0  0  0  0  0  0  0
   -0.2556   -0.6995    1.8356 H   0  0  0  0  0  0  0  0  0  0  0  0
   -1.9924    0.6344   -1.9550 H   0  0  0  0  0  0  0  0  0  0  0  0
   -3.4306    1.5288   -1.4419 H   0  0  0  0  0  0  0  0  0  0  0  0
   -4.3737   -0.4205   -0.6418 H   0  0  0  0  0  0  0  0  0  0  0  0
   -1.9031   -1.8222   -1.2775 H   0  0  0  0  0  0  0  0  0  0  0  0
   -3.2422   -2.4087   -0.2914 H   0  0  0  0  0  0  0  0  0  0  0  0
   -2.1961   -1.8082    1.6103 H   0  0  0  0  0  0  0  0  0  0  0  0
   -2.2745    0.5147    2.2209 H   0  0  0  0  0  0  0  0  0  0  0  0
   -3.7838    0.1610    1.2197 H   0  0  0  0  0  0  0  0  0  0  0  0
   -2.4009    2.1931    0.4698 H   0  0  0  0  0  0  0  0  0  0  0  0
   -0.4255    1.4696    1.3350 H   0  0  0  0  0  0  0  0  0  0  0  0
   -0.2682    1.6583   -1.6200 H   0  0  0  0  0  0  0  0  0  0  0  0
    0.7206    2.3732   -0.3641 H   0  0  0  0  0  0  0  0  0  0  0  0
    1.2083    0.0098   -2.0443 H   0  0  0  0  0  0  0  0  0  0  0  0
    2.5142    2.2632   -1.1801 H   0  0  0  0  0  0  0  0  0  0  0  0
    4.5532    1.4412   -0.4898 H   0  0  0  0  0  0  0  0  0  0  0  0
    3.3535    1.1967    0.7920 H   0  0  0  0  0  0  0  0  0  0  0  0
    4.4573   -0.8226    0.7222 H   0  0  0  0  0  0  0  0  0  0  0  0
    4.7268   -0.8451   -1.0530 H   0  0  0  0  0  0  0  0  0  0  0  0
    2.7119   -1.9906   -1.1830 H   0  0  0  0  0  0  0  0  0  0  0  0
    1.7809   -0.1423    0.9445 H   0  0  0  0  0  0  0  0  0  0  0  0
    0.5711   -2.3195    0.4970 H   0  0  0  0  0  0  0  0  0  0  0  0
    0.1002   -1.5839   -1.0598 H   0  0  0  0  0  0  0  0  0  0  0  0
   -0.2556   -0.6995    1.8356 H   0  0  0  0  0  0  0  0  0  0  0  0
  1  2  1  0
  2  3  1  0
  3  4  1  0
  4  5  1  0
  1  6  1  0
  5  6  1  0
  6  7  1  0
  7  8  1  0
  8  9  1  0
  9 10  1  0
 10 11  1  0
 11 12  1  0
 12 13  1  0
  9 14  1  0
 13 14  1  0
 14 15  1  0
  4 16  1  0
  7 16  1  0
 15 16  1  0
 17 18  1  0
 18 19  1  0
 19 20  1  0
 20 21  1  0
 17 22  1  0
 21 22  1  0
 22 23  1  0
 23 24  1  0
 24 25  1  0
 25 26  1  0
 26 27  1  0
 27 28  1  0
 28 29  1  0
 25 30  1  0
 29 30  1  0
 30 31  1  0
 20 32  1  0
 23 32  1  0
 31 32  1  0
 33 34  1  0
 34 35  1  0
 35 36  1  0
 36 37  1  0
 33 38  1  0
 37 38  1  0
 38 39  1  0
 39 40  1  0
 40 41  1  0
 41 42  1  0
 42 43  1  0
 43 44  1  0
 44 45  1  0
 41 46  1  0
 45 46  1  0
 46 47  1  0
 36 48  1  0
 39 48  1  0
 47 48  1  0
 49 50  1  0
 50 51  1  0
 51 52  1  0
 52 53  1  0
 49 54  1  0
 53 54  1  0
 54 55  1  0
 55 56  1  0
 56 57  1  0
 57 58  1  0
 58 59  1  0
 59 60  1  0
 60 61  1  0
 57 62  1  0
 61 62  1  0
 62 63  1  0
 52 64  1  0
 55 64  1  0
 63 64  1  0
 65 66  1  0
 66 67  1  0
 67 68  1  0
 68 69  1  0
 65 70  1  0
 69 70  1  0
 70 71  1  0
 71 72  1  0
 72 73  1  0
 73 74  1  0
 74 75  1  0
 75 76  1  0
 76 77  1  0
 73 78  1  0
 77 78  1  0
 78 79  1  0
 68 80  1  0
 71 80  1  0
 79 80  1  0
  1 81  1  0
  1 82  1  0
  2 83  1  0
  3 84  1  0
  3 85  1  0
  4 86  1  1
  5 87  1  0
  5 88  1  0
  6 89  1  1
  7 90  1  0
  8 91  1  0
  8 92  1  0
  9 93  1  0
 10 94  1  0
 11 95  1  0
 11 96  1  0
 12 97  1  0
 12 98  1  0
 13 99  1  0
 14100  1  0
 15101  1  0
 15102  1  0
 16103  1  0
 17104  1  0
 17105  1  0
 18106  1  0
 19107  1  0
 19108  1  0
 20109  1  1
 21110  1  0
 21111  1  0
 22112  1  1
 23113  1  0
 24114  1  0
 24115  1  0
 25116  1  0
 26117  1  0
 27118  1  0
 27119  1  0
 28120  1  0
 28121  1  0
 29122  1  0
 30123  1  0
 31124  1  0
 31125  1  0
 32126  1  0
 33127  1  0
 33128  1  0
 34129  1  0
 35130  1  0
 35131  1  0
 36132  1  1
 37133  1  0
 37134  1  0
 38135  1  1
 39136  1  0
 40137  1  0
 40138  1  0
 41139  1  0
 42140  1  0
 43141  1  0
 43142  1  0
 44143  1  0
 44144  1  0
 45145  1  0
 46146  1  0
 47147  1  0
 47148  1  0
 48149  1  0
 49150  1  0
 49151  1  0
 50152  1  0
 51153  1  0
 51154  1  0
 52155  1  1
 53156  1  0
 53157  1  0
 54158  1  1
 55159  1  0
 56160  1  0
 56161  1  0
 57162  1  0
 58163  1  0
 59164  1  0
 59165  1  0
 60166  1  0
 60167  1  0
 61168  1  0
 62169  1  0
 63170  1  0
 63171  1  0
 64172  1  0
 65173  1  0
 65174  1  0
 66175  1  0
 67176  1  0
 67177  1  0
 68178  1  1
 69179  1  0
 69180  1  0
 70181  1  1
 71182  1  0
 72183  1  0
 72184  1  0
 73185  1  0
 74186  1  0
 75187  1  0
 75188  1  0
 76189  1  0
 76190  1  0
 77191  1  0
 78192  1  0
 79193  1  0
 79194  1  0
 80195  1  0
M  END
>  <PDBID>  (1) 
4AFG

>  <PDB ID>  (1) 
4AFG

>  <Generic Name>  (1) 
Varenicline

>  <Brand Name>  (1) 
Champix#Chantix#Gd-varenicline

>  <DrugBank ID>  (1) 
DB01273

>  <ATC Codes>  (1) 
N07BA03

>  <Ligand ID>  (1) 
QMR

>  <Target Name>  (1) 
Neuronal acetylcholine receptor subunit alpha-4

>  <UniProt ID>  (1) 
P43681

>  <PDB ID.1>  (1) 
4AFG

>  <Seq. Identity>  (1) 
31%

$$$$
