PDB_DB01606_03
     RDKit          3D

 42 44  0  0  0  0  0  0  0  0999 V2000
   -0.0470   -0.5238    1.4479 S   0  0  0  0  0  0  0  0  0  0  0  0
    0.0055    0.4773   -0.1502 C   0  0  1  0  0  0  0  0  0  0  0  0
   -1.3635    0.0235   -0.5771 C   0  0  2  0  0  0  0  0  0  0  0  0
   -1.7861   -0.0417    1.7141 C   0  0  2  0  0  0  0  0  0  0  0  0
   -2.7425   -1.1513    1.4802 C   0  0  0  0  0  0  0  0  0  0  0  0
   -3.4786   -0.1019    0.6382 C   0  0  2  0  0  0  0  0  0  0  0  0
   -1.7508    0.4632   -1.9392 C   0  0  0  0  0  0  0  0  0  0  0  0
   -2.1905    0.5456    0.4767 N   0  0  0  0  0  0  0  0  0  0  0  0
   -0.0025    1.9155    0.3272 C   0  0  0  0  0  0  0  0  0  0  0  0
    1.1167    0.1082   -0.9870 C   0  0  0  0  0  0  0  0  0  0  0  0
    4.3824   -0.8007   -0.0869 C   0  0  0  0  0  0  0  0  0  0  0  0
    3.0169   -0.3713    0.5063 C   0  0  0  0  0  0  0  0  0  0  0  0
    2.4046    0.3243   -0.5206 N   0  0  0  0  0  0  0  0  0  0  0  0
    3.3634    0.5296   -1.5371 N   0  0  0  0  0  0  0  0  0  0  0  0
    4.1316   -0.6502   -1.5036 N   0  0  0  0  0  0  0  0  0  0  0  0
    0.1701   -2.2310    1.1839 O   0  0  0  0  0  0  0  0  0  0  0  0
    1.0422    0.0643    2.6656 O   0  0  0  0  0  0  0  0  0  0  0  0
   -4.2801    0.6608    1.4955 O   0  0  0  0  0  0  0  0  0  0  0  0
   -1.7173    1.8386   -2.1406 O   0  0  0  0  0  0  0  0  0  0  0  0
   -2.9855    0.0194   -2.3542 O   0  0  0  0  0  0  0  0  0  0  0  0
   -1.3690   -1.0852   -0.5709 H   0  0  0  0  0  0  0  0  0  0  0  0
   -1.9165    0.5553    2.6119 H   0  0  0  0  0  0  0  0  0  0  0  0
   -2.4070   -2.0229    0.9221 H   0  0  0  0  0  0  0  0  0  0  0  0
   -3.3201   -1.4485    2.3729 H   0  0  0  0  0  0  0  0  0  0  0  0
   -3.9545   -0.4797   -0.2713 H   0  0  0  0  0  0  0  0  0  0  0  0
   -1.0033    0.0273   -2.6665 H   0  0  0  0  0  0  0  0  0  0  0  0
   -0.2701    2.5894   -0.4835 H   0  0  0  0  0  0  0  0  0  0  0  0
    0.9993    2.1107    0.7648 H   0  0  0  0  0  0  0  0  0  0  0  0
   -0.7901    1.9836    1.1056 H   0  0  0  0  0  0  0  0  0  0  0  0
    1.0220    0.6092   -2.0188 H   0  0  0  0  0  0  0  0  0  0  0  0
    1.0281   -0.9964   -1.3193 H   0  0  0  0  0  0  0  0  0  0  0  0
    4.5912   -1.8553    0.1186 H   0  0  0  0  0  0  0  0  0  0  0  0
    5.1952   -0.1211    0.2492 H   0  0  0  0  0  0  0  0  0  0  0  0
    2.5785   -1.3074    0.8718 H   0  0  0  0  0  0  0  0  0  0  0  0
    3.3294    0.2906    1.3656 H   0  0  0  0  0  0  0  0  0  0  0  0
    3.9936    1.3234   -1.2836 H   0  0  0  0  0  0  0  0  0  0  0  0
    3.5738   -1.4740   -1.8177 H   0  0  0  0  0  0  0  0  0  0  0  0
   -0.3154   -2.5094    0.3953 H   0  0  0  0  0  0  0  0  0  0  0  0
    0.6151   -0.2076    3.5221 H   0  0  0  0  0  0  0  0  0  0  0  0
   -4.4174    0.2162    2.3799 H   0  0  0  0  0  0  0  0  0  0  0  0
   -1.1323    2.0837   -2.8744 H   0  0  0  0  0  0  0  0  0  0  0  0
   -3.3196    0.6196   -3.0794 H   0  0  0  0  0  0  0  0  0  0  0  0
  1  2  1  0
  2  3  1  0
  1  4  1  0
  4  5  1  0
  5  6  1  0
  3  7  1  0
  3  8  1  0
  4  8  1  0
  6  8  1  0
  2  9  1  1
  2 10  1  0
 11 12  1  0
 10 13  1  0
 12 13  1  0
 13 14  1  0
 11 15  1  0
 14 15  1  0
  1 16  1  0
  1 17  1  0
  6 18  1  0
  7 19  1  0
  7 20  1  0
  3 21  1  6
  4 22  1  1
  5 23  1  0
  5 24  1  0
  6 25  1  6
  7 26  1  0
  9 27  1  0
  9 28  1  0
  9 29  1  0
 10 30  1  0
 10 31  1  0
 11 32  1  0
 11 33  1  0
 12 34  1  0
 12 35  1  0
 14 36  1  0
 15 37  1  0
 16 38  1  0
 17 39  1  0
 18 40  1  0
 19 41  1  0
 20 42  1  0
M  END
>  <PDBID>  (1) 
1VM1

>  <PDB ID>  (1) 
1VM1

>  <Generic Name>  (1) 
Tazobactam

>  <Brand Name>  (1) 
Jamp-pip/taz#Mylan-piperacillin and Tazobactam for Injection#Piperacillin / Tazobactam Powder for Injection#Piperacillin Sodium/tazobactam Sodium Powder for Injection#Piperacillin and Tazobactam#Piperacillin and Tazobactam for Injection#Piperacillin, Tazobactam#Piperacillin/tazobactam for Injection#Tazocin#Tazocin Pws IV 2g Piperacillin-.25g Tazobac.#Tazocin Pws IV 3g Piperacillin-.375g Tazobac#Tazocin Pws IV 4g Piperacillin-.5g Tazobac.#Vpi-piperacillin and Tazobactam for Injection#Zerbaxa#Zosyn#Zosyn In Galaxy Containers#Zosyn Pharmacy Bulk Package

>  <DrugBank ID>  (1) 
DB01606

>  <ATC Codes>  (1) 
J01CG02

>  <Ligand ID>  (1) 
TAZ

>  <Target Name>  (1) 
Beta-lactamase TEM

>  <UniProt ID>  (1) 
P62594

>  <PDB ID.1>  (1) 
1VM1

>  <Seq. Identity>  (1) 
66%

$$$$
