PDB_DB00563_02
     RDKit          3D

 77 79  0  0  0  0  0  0  0  0999 V2000
   -7.3244    1.6196    0.0106 N   0  0  0  0  0  0  0  0  0  0  0  0
   -8.0201    1.2492   -1.1606 C   0  0  0  0  0  0  0  0  0  0  0  0
   -8.9261    0.1263   -0.9243 N   0  0  0  0  0  0  0  0  0  0  0  0
   -7.2267    1.0163   -2.3252 N   0  0  0  0  0  0  0  0  0  0  0  0
   -6.1877    0.0727   -2.0736 C   0  0  2  0  0  0  0  0  0  0  0  0
   -6.6580   -1.2508   -1.7840 N   0  0  0  0  0  0  0  0  0  0  0  0
   -5.3021    0.6332   -0.9832 C   0  0  0  0  0  0  0  0  0  0  0  0
   -4.2706   -0.3394   -0.7279 N   0  0  0  0  0  0  0  0  0  0  0  0
   -3.8116   -0.1628    0.6236 C   0  0  0  0  0  0  0  0  0  0  0  0
   -4.9220   -0.6227    1.5449 C   0  0  0  0  0  0  0  0  0  0  0  0
   -6.1744   -0.0105    1.2237 N   0  0  0  0  0  0  0  0  0  0  0  0
   -6.0459    1.0569    0.2284 C   0  0  0  0  0  0  0  0  0  0  0  0
   -2.5436   -0.9086    0.9300 C   0  0  0  0  0  0  0  0  0  0  0  0
   -1.4976   -0.4080    0.0186 N   0  0  0  0  0  0  0  0  0  0  0  0
   -1.1632    0.9585    0.3392 C   0  0  0  0  0  0  0  0  0  0  0  0
    2.3998   -0.6527    0.6941 C   0  0  0  0  0  0  0  0  0  0  0  0
    1.5971   -1.5901    1.6695 C   0  0  0  0  0  0  0  0  0  0  0  0
    0.1711   -1.2012    1.5140 C   0  0  0  0  0  0  0  0  0  0  0  0
   -0.3427   -1.2859    0.1113 C   0  0  0  0  0  0  0  0  0  0  0  0
    0.6204   -0.9438   -0.9495 C   0  0  0  0  0  0  0  0  0  0  0  0
    2.0745   -1.2356   -0.6377 C   0  0  0  0  0  0  0  0  0  0  0  0
    3.7960   -0.7595    1.1833 C   0  0  2  0  0  0  0  0  0  0  0  0
    3.6885   -0.3320    2.5755 O   0  0  0  0  0  0  0  0  0  0  0  0
    4.7724    0.0353    0.6244 N   0  0  0  0  0  0  0  0  0  0  0  0
    5.2688    0.0420   -0.6576 C   0  0  2  0  0  0  0  0  0  0  0  0
    5.9595   -1.1911   -1.1696 C   0  0  0  0  0  0  0  0  0  0  0  0
    6.3874   -0.9216   -2.4929 O   0  0  0  0  0  0  0  0  0  0  0  0
    5.0280   -2.2440   -1.3450 O   0  0  0  0  0  0  0  0  0  0  0  0
    6.3252    1.1826   -0.7276 C   0  0  0  0  0  0  0  0  0  0  0  0
    7.3819    0.8804    0.2916 C   0  0  0  0  0  0  0  0  0  0  0  0
    8.4604    1.9788    0.2991 C   0  0  0  0  0  0  0  0  0  0  0  0
    7.8400    3.1658    0.6072 O   0  0  0  0  0  0  0  0  0  0  0  0
    9.1605    1.9802   -0.8849 O   0  0  0  0  0  0  0  0  0  0  0  0
   -7.4837    2.5675    0.3697 H   0  0  0  0  0  0  0  0  0  0  0  0
   -8.7158    2.1028   -1.4197 H   0  0  0  0  0  0  0  0  0  0  0  0
   -9.6281    0.0722   -1.6954 H   0  0  0  0  0  0  0  0  0  0  0  0
   -9.4717    0.2836   -0.0442 H   0  0  0  0  0  0  0  0  0  0  0  0
   -6.8261    1.8952   -2.6889 H   0  0  0  0  0  0  0  0  0  0  0  0
   -5.5467    0.0281   -2.9943 H   0  0  0  0  0  0  0  0  0  0  0  0
   -6.8075   -1.3062   -0.7358 H   0  0  0  0  0  0  0  0  0  0  0  0
   -5.8652   -1.9074   -1.9788 H   0  0  0  0  0  0  0  0  0  0  0  0
   -4.7952    1.5356   -1.4155 H   0  0  0  0  0  0  0  0  0  0  0  0
   -3.5233   -0.3741   -1.4260 H   0  0  0  0  0  0  0  0  0  0  0  0
   -3.5942    0.9179    0.7464 H   0  0  0  0  0  0  0  0  0  0  0  0
   -4.6434   -0.5447    2.6145 H   0  0  0  0  0  0  0  0  0  0  0  0
   -5.0359   -1.7274    1.3585 H   0  0  0  0  0  0  0  0  0  0  0  0
   -6.5261    0.4792    2.0952 H   0  0  0  0  0  0  0  0  0  0  0  0
   -5.4225    1.8450    0.7459 H   0  0  0  0  0  0  0  0  0  0  0  0
   -2.6460   -1.9837    0.7553 H   0  0  0  0  0  0  0  0  0  0  0  0
   -2.2427   -0.6409    1.9656 H   0  0  0  0  0  0  0  0  0  0  0  0
   -1.8079    1.6334   -0.2962 H   0  0  0  0  0  0  0  0  0  0  0  0
   -1.3395    1.1997    1.4218 H   0  0  0  0  0  0  0  0  0  0  0  0
   -0.1226    1.2435    0.1287 H   0  0  0  0  0  0  0  0  0  0  0  0
    1.9832    0.3545    0.8362 H   0  0  0  0  0  0  0  0  0  0  0  0
    1.8254   -2.6056    1.3159 H   0  0  0  0  0  0  0  0  0  0  0  0
    1.9153   -1.3867    2.7036 H   0  0  0  0  0  0  0  0  0  0  0  0
   -0.4397   -1.8854    2.1455 H   0  0  0  0  0  0  0  0  0  0  0  0
    0.0486   -0.1885    1.9737 H   0  0  0  0  0  0  0  0  0  0  0  0
   -0.7532   -2.3283   -0.0431 H   0  0  0  0  0  0  0  0  0  0  0  0
    0.5672    0.0761   -1.3676 H   0  0  0  0  0  0  0  0  0  0  0  0
    0.3918   -1.6099   -1.8404 H   0  0  0  0  0  0  0  0  0  0  0  0
    2.2376   -2.3404   -0.5521 H   0  0  0  0  0  0  0  0  0  0  0  0
    2.6518   -0.8829   -1.4748 H   0  0  0  0  0  0  0  0  0  0  0  0
    4.0260   -1.8403    1.3043 H   0  0  0  0  0  0  0  0  0  0  0  0
    3.0907    0.4572    2.5767 H   0  0  0  0  0  0  0  0  0  0  0  0
    4.9527    0.9598    1.1326 H   0  0  0  0  0  0  0  0  0  0  0  0
    4.5240    0.3155   -1.4751 H   0  0  0  0  0  0  0  0  0  0  0  0
    6.8306   -1.5239   -0.6165 H   0  0  0  0  0  0  0  0  0  0  0  0
    7.3026   -1.2560   -2.6521 H   0  0  0  0  0  0  0  0  0  0  0  0
    5.2072   -2.9970   -0.7575 H   0  0  0  0  0  0  0  0  0  0  0  0
    5.8022    2.1062   -0.4563 H   0  0  0  0  0  0  0  0  0  0  0  0
    6.7828    1.1924   -1.7360 H   0  0  0  0  0  0  0  0  0  0  0  0
    6.9876    0.8903    1.3363 H   0  0  0  0  0  0  0  0  0  0  0  0
    7.9056   -0.0686    0.1114 H   0  0  0  0  0  0  0  0  0  0  0  0
    9.1189    1.7128    1.1761 H   0  0  0  0  0  0  0  0  0  0  0  0
    8.4673    3.9101    0.7705 H   0  0  0  0  0  0  0  0  0  0  0  0
   10.1028    1.6815   -0.6780 H   0  0  0  0  0  0  0  0  0  0  0  0
  1  2  1  0
  2  3  1  0
  2  4  1  0
  4  5  1  0
  5  6  1  0
  5  7  1  0
  7  8  1  0
  8  9  1  0
  9 10  1  0
 10 11  1  0
  1 12  1  0
  7 12  1  0
 11 12  1  0
  9 13  1  0
 13 14  1  0
 14 15  1  0
 16 17  1  0
 17 18  1  0
 14 19  1  0
 18 19  1  0
 19 20  1  0
 16 21  1  0
 20 21  1  0
 16 22  1  0
 22 23  1  0
 22 24  1  0
 24 25  1  0
 25 26  1  0
 26 27  1  0
 26 28  1  0
 25 29  1  0
 29 30  1  0
 30 31  1  0
 31 32  1  0
 31 33  1  0
  1 34  1  0
  2 35  1  0
  3 36  1  0
  3 37  1  0
  4 38  1  0
  5 39  1  6
  6 40  1  0
  6 41  1  0
  7 42  1  0
  8 43  1  0
  9 44  1  0
 10 45  1  0
 10 46  1  0
 11 47  1  0
 12 48  1  0
 13 49  1  0
 13 50  1  0
 15 51  1  0
 15 52  1  0
 15 53  1  0
 16 54  1  0
 17 55  1  0
 17 56  1  0
 18 57  1  0
 18 58  1  0
 19 59  1  0
 20 60  1  0
 20 61  1  0
 21 62  1  0
 21 63  1  0
 22 64  1  1
 23 65  1  0
 24 66  1  0
 25 67  1  6
 26 68  1  0
 27 69  1  0
 28 70  1  0
 29 71  1  0
 29 72  1  0
 30 73  1  0
 30 74  1  0
 31 75  1  0
 32 76  1  0
 33 77  1  0
M  END
>  <PDBID>  (1) 
1U72

>  <PDB ID>  (1) 
1U72

>  <Generic Name>  (1) 
Methotrexate

>  <Brand Name>  (1) 
Apo-methotrexate#Jamp-methotrexate#Methotrexate#Methotrexate Dbl Inj 10mg/ml#Methotrexate Dbl Inj 2.5mg/ml#Methotrexate Dbl Inj 25mg/ml#Methotrexate Injection BP#Methotrexate Injection USP#Methotrexate Injection, BP#Methotrexate Injection, USP#Methotrexate PF/sa Injection#Methotrexate Sod Inj 25mg/ml USP#Methotrexate Sodium#Methotrexate Sodium Inj 20mg#Methotrexate Sodium Inj 25.0mg/ml#Methotrexate Sodium Inj 25mg/ml#Methotrexate Sodium Inj 25mg/ml USP#Methotrexate Sodium Injection#Methotrexate Sodium Injection USP#Methotrexate Tab 2.5mg#Methotrexate Tab 2.5mg USP#Methotrexate Tablets, USP#Methotrexate-liq Im IV Iar Int Ivr 25mg/ml#Methotrexate-pws Im IV Iar Int Ivr 20mg/vial#Metoject#Metoject Subcutaneous#Otrexup#Rasuvo#Ratio-methotrexate Sodium#Rheumatrex Dose Pack#Rheumatrex Tab 2.5mg#Rheumatrex-tab 2.5mg#Trexall#Abitrexate#Alltrex#Artrait#Atrexel#Bendatrexat#Carditrex#Dermotrex#Ebetrex#Emtexate#Ledertrexate#Maxtrex#Meisusheng#Mexate#Rheumatrex#Trexan#Zexate

>  <DrugBank ID>  (1) 
DB00563

>  <ATC Codes>  (1) 
L01BA01#L04AX03

>  <Ligand ID>  (1) 
MTX

>  <Target Name>  (1) 
Dihydrofolate reductase

>  <UniProt ID>  (1) 
P00374

>  <PDB ID.1>  (1) 
1U72

>  <Seq. Identity>  (1) 
100%

$$$$
