PDB_DB01117_00
     RDKit          3D

 63 66  0  0  0  0  0  0  0  0999 V2000
   -2.2811    0.6259    1.7829 O   0  0  0  0  0  0  0  0  0  0  0  0
   -3.6105   -2.3599   -1.7463 O   0  0  0  0  0  0  0  0  0  0  0  0
   -2.3183    0.9975    0.4368 C   0  0  0  0  0  0  0  0  0  0  0  0
   -1.3252    0.1420   -0.2939 C   0  0  0  0  0  0  0  0  0  0  0  0
   -1.8702   -1.1853   -0.7084 C   0  0  0  0  0  0  0  0  0  0  0  0
   -3.2188   -1.0980   -1.3737 C   0  0  0  0  0  0  0  0  0  0  0  0
   -5.5434   -0.5496   -0.8848 C   0  0  0  0  0  0  0  0  0  0  0  0
   -6.5185    0.3876   -0.2257 C   0  0  0  0  0  0  0  0  0  0  0  0
   -5.9633    1.7828   -0.0651 C   0  0  0  0  0  0  0  0  0  0  0  0
   -4.6739    1.6575    0.7244 C   0  0  0  0  0  0  0  0  0  0  0  0
   -3.6896    0.9354   -0.1343 C   0  0  0  0  0  0  0  0  0  0  0  0
   -4.1638   -0.4752   -0.3386 C   0  0  0  0  0  0  0  0  0  0  0  0
   -1.9747   -2.0844    0.3622 O   0  0  0  0  0  0  0  0  0  0  0  0
    0.6547    1.1577    0.8710 C   0  0  0  0  0  0  0  0  0  0  0  0
    2.0187    1.1765    0.2082 C   0  0  0  0  0  0  0  0  0  0  0  0
    2.8038    0.0267    0.8097 C   0  0  0  0  0  0  0  0  0  0  0  0
    2.1650   -1.2472    0.3687 C   0  0  0  0  0  0  0  0  0  0  0  0
    0.8002   -1.0981   -0.2250 C   0  0  0  0  0  0  0  0  0  0  0  0
   -0.0729   -0.1053    0.5112 C   0  0  0  0  0  0  0  0  0  0  0  0
    7.3395    1.7481   -0.4613 Cl  0  0  0  0  0  0  0  0  0  0  0  0
    4.2544    0.1514    0.4160 C   0  0  0  0  0  0  0  0  0  0  0  0
    5.1093   -0.9433    0.9614 C   0  0  0  0  0  0  0  0  0  0  0  0
    6.5546   -0.4969    0.8673 C   0  0  0  0  0  0  0  0  0  0  0  0
    6.8836    0.0177   -0.4954 C   0  0  0  0  0  0  0  0  0  0  0  0
    5.8065   -0.2281   -1.5170 C   0  0  0  0  0  0  0  0  0  0  0  0
    4.4545    0.2633   -1.0574 C   0  0  0  0  0  0  0  0  0  0  0  0
   -2.6681    1.2863    2.3776 H   0  0  0  0  0  0  0  0  0  0  0  0
   -4.0429   -2.8874   -1.0294 H   0  0  0  0  0  0  0  0  0  0  0  0
   -1.9686    2.0641    0.3114 H   0  0  0  0  0  0  0  0  0  0  0  0
   -1.0165    0.6856   -1.2168 H   0  0  0  0  0  0  0  0  0  0  0  0
   -1.1815   -1.6474   -1.4455 H   0  0  0  0  0  0  0  0  0  0  0  0
   -3.2208   -0.4330   -2.2436 H   0  0  0  0  0  0  0  0  0  0  0  0
   -5.9266   -1.5880   -0.7108 H   0  0  0  0  0  0  0  0  0  0  0  0
   -5.5871   -0.4075   -1.9926 H   0  0  0  0  0  0  0  0  0  0  0  0
   -7.4141    0.4579   -0.8824 H   0  0  0  0  0  0  0  0  0  0  0  0
   -6.8563    0.0349    0.7610 H   0  0  0  0  0  0  0  0  0  0  0  0
   -6.7139    2.3808    0.4799 H   0  0  0  0  0  0  0  0  0  0  0  0
   -5.7006    2.2460   -1.0383 H   0  0  0  0  0  0  0  0  0  0  0  0
   -4.2677    2.6497    1.0037 H   0  0  0  0  0  0  0  0  0  0  0  0
   -4.9336    1.0965    1.6556 H   0  0  0  0  0  0  0  0  0  0  0  0
   -3.6731    1.4518   -1.1275 H   0  0  0  0  0  0  0  0  0  0  0  0
   -4.0497   -1.0787    0.5742 H   0  0  0  0  0  0  0  0  0  0  0  0
   -2.1029   -1.6424    1.2175 H   0  0  0  0  0  0  0  0  0  0  0  0
    0.1341    2.0753    0.5457 H   0  0  0  0  0  0  0  0  0  0  0  0
    0.8315    1.2685    1.9606 H   0  0  0  0  0  0  0  0  0  0  0  0
    2.4712    2.1579    0.4550 H   0  0  0  0  0  0  0  0  0  0  0  0
    1.8575    1.0287   -0.8724 H   0  0  0  0  0  0  0  0  0  0  0  0
    2.6721    0.1100    1.9081 H   0  0  0  0  0  0  0  0  0  0  0  0
    2.1587   -1.9703    1.2101 H   0  0  0  0  0  0  0  0  0  0  0  0
    2.8174   -1.6965   -0.4294 H   0  0  0  0  0  0  0  0  0  0  0  0
    0.3070   -2.1088   -0.1341 H   0  0  0  0  0  0  0  0  0  0  0  0
    0.8228   -0.8870   -1.3136 H   0  0  0  0  0  0  0  0  0  0  0  0
   -0.3723   -0.5927    1.4701 H   0  0  0  0  0  0  0  0  0  0  0  0
    4.6153    1.1143    0.8761 H   0  0  0  0  0  0  0  0  0  0  0  0
    5.0010   -1.8425    0.3193 H   0  0  0  0  0  0  0  0  0  0  0  0
    4.8397   -1.1535    2.0101 H   0  0  0  0  0  0  0  0  0  0  0  0
    7.2497   -1.3104    1.1961 H   0  0  0  0  0  0  0  0  0  0  0  0
    6.6455    0.3714    1.5831 H   0  0  0  0  0  0  0  0  0  0  0  0
    7.7964   -0.5301   -0.8675 H   0  0  0  0  0  0  0  0  0  0  0  0
    6.0730    0.3490   -2.4287 H   0  0  0  0  0  0  0  0  0  0  0  0
    5.7838   -1.2941   -1.8180 H   0  0  0  0  0  0  0  0  0  0  0  0
    4.3101    1.3399   -1.3580 H   0  0  0  0  0  0  0  0  0  0  0  0
    3.6889   -0.2975   -1.6304 H   0  0  0  0  0  0  0  0  0  0  0  0
  1  3  1  0
  3  4  1  0
  4  5  1  0
  2  6  1  0
  5  6  1  0
  7  8  1  0
  8  9  1  0
  9 10  1  0
  3 11  1  0
 10 11  1  0
  6 12  1  0
  7 12  1  0
 11 12  1  0
  5 13  1  0
 14 15  1  0
 15 16  1  0
 16 17  1  0
 17 18  1  0
  4 19  1  0
 14 19  1  0
 18 19  1  0
 16 21  1  0
 21 22  1  0
 22 23  1  0
 20 24  1  0
 23 24  1  0
 24 25  1  0
 21 26  1  0
 25 26  1  0
  1 27  1  0
  2 28  1  0
  3 29  1  0
  4 30  1  0
  5 31  1  0
  6 32  1  0
  7 33  1  0
  7 34  1  0
  8 35  1  0
  8 36  1  0
  9 37  1  0
  9 38  1  0
 10 39  1  0
 10 40  1  0
 11 41  1  0
 12 42  1  0
 13 43  1  0
 14 44  1  0
 14 45  1  0
 15 46  1  0
 15 47  1  0
 16 48  1  0
 17 49  1  0
 17 50  1  0
 18 51  1  0
 18 52  1  0
 19 53  1  0
 21 54  1  0
 22 55  1  0
 22 56  1  0
 23 57  1  0
 23 58  1  0
 24 59  1  0
 25 60  1  0
 25 61  1  0
 26 62  1  0
 26 63  1  0
M  END
>  <PDBID>  (1) 
4PD4

>  <PDB ID>  (1) 
4PD4

>  <Generic Name>  (1) 
Atovaquone

>  <Brand Name>  (1) 
Atovaquone#Atovaquone Proguanil#Atovaquone and Proguanil HCl#Atovaquone and Proguanil Hydrochloride#Atovaquone and Proguanil Hydrochloride Pediatric#Malarone#Malarone Pediatric#Mepron#Mepron Tab 250mg#Mylan-atovaquone/proguanil#Teva-atovaquone Proguanil

>  <DrugBank ID>  (1) 
DB01117

>  <ATC Codes>  (1) 
P01AX06

>  <Ligand ID>  (1) 
AOQ

>  <Target Name>  (1) 
Cytochrome b

>  <UniProt ID>  (1) 
Q02768

>  <PDB ID.1>  (1) 
4PD4

>  <Seq. Identity>  (1) 
42%

$$$$
