PDB_DB01026_09
     RDKit          3D

164172  0  0  0  0  0  0  0  0999 V2000
   -2.7204   -1.8417    0.3778 C   0  0  0  0  0  0  0  0  0  0  0  0
   -3.9846   -1.9039   -0.2807 N   0  0  0  0  0  0  0  0  0  0  0  0
   -3.1612    0.7323    0.1252 O   0  0  0  0  0  0  0  0  0  0  0  0
   -9.2809    2.6663    1.7153 Cl  0  0  0  0  0  0  0  0  0  0  0  0
   -3.3473   -4.0720    0.1258 C   0  0  0  0  0  0  0  0  0  0  0  0
   -2.4810   -3.1935    0.8540 N   0  0  0  0  0  0  0  0  0  0  0  0
   -4.5540    1.5021   -1.4701 O   0  0  0  0  0  0  0  0  0  0  0  0
   -7.7771   -1.0755    0.2733 Cl  0  0  0  0  0  0  0  0  0  0  0  0
   -3.9425   -3.1882   -0.9584 C   0  0  0  0  0  0  0  0  0  0  0  0
    5.0107   -0.1127   -0.1717 N   0  0  0  0  0  0  0  0  0  0  0  0
   -0.3471    1.2879    0.1689 O   0  0  0  0  0  0  0  0  0  0  0  0
   -4.2231   -0.8274   -1.2256 C   0  0  0  0  0  0  0  0  0  0  0  0
    7.4772   -0.8806    0.0878 N   0  0  0  0  0  0  0  0  0  0  0  0
    8.1623   -1.7070   -2.0136 O   0  0  0  0  0  0  0  0  0  0  0  0
   -4.3734    0.5177   -0.5461 C   0  0  1  0  0  0  0  0  0  0  0  0
   -2.6120    1.8869   -0.3613 C   0  0  2  0  0  0  0  0  0  0  0  0
   -3.5262    2.4065   -1.4251 C   0  0  0  0  0  0  0  0  0  0  0  0
   -5.5269    0.4550    0.4150 C   0  0  0  0  0  0  0  0  0  0  0  0
   -6.8330    0.3387   -0.2715 C   0  0  0  0  0  0  0  0  0  0  0  0
   -7.7172    1.5542   -0.2198 C   0  0  0  0  0  0  0  0  0  0  0  0
   -7.6604    2.3466    1.0332 C   0  0  0  0  0  0  0  0  0  0  0  0
   -6.8359    1.7007    2.1302 C   0  0  0  0  0  0  0  0  0  0  0  0
   -5.4509    1.4953    1.5005 C   0  0  0  0  0  0  0  0  0  0  0  0
   -1.1862    1.7125   -0.8443 C   0  0  0  0  0  0  0  0  0  0  0  0
    0.9671    1.1095   -0.2185 C   0  0  0  0  0  0  0  0  0  0  0  0
    1.9415    1.9381    0.5453 C   0  0  0  0  0  0  0  0  0  0  0  0
    3.2304    1.2319    0.9006 C   0  0  0  0  0  0  0  0  0  0  0  0
    3.6644    0.4130   -0.2689 C   0  0  0  0  0  0  0  0  0  0  0  0
    2.6886   -0.6885   -0.5086 C   0  0  0  0  0  0  0  0  0  0  0  0
    1.2929   -0.3446   -0.0304 C   0  0  0  0  0  0  0  0  0  0  0  0
    5.9587    1.0193   -0.1465 C   0  0  0  0  0  0  0  0  0  0  0  0
    7.3806    0.4887   -0.2069 C   0  0  0  0  0  0  0  0  0  0  0  0
    6.6035   -1.4588    1.0195 C   0  0  0  0  0  0  0  0  0  0  0  0
    5.2306   -0.8287    1.0597 C   0  0  0  0  0  0  0  0  0  0  0  0
    8.3754   -1.6877   -0.6314 C   0  0  0  0  0  0  0  0  0  0  0  0
    9.8114   -1.2161   -0.4025 C   0  0  0  0  0  0  0  0  0  0  0  0
   -2.8054   -1.8874    0.3635 C   0  0  0  0  0  0  0  0  0  0  0  0
   -4.0562   -1.8764   -0.3009 N   0  0  0  0  0  0  0  0  0  0  0  0
   -3.1531    0.7250    0.1522 O   0  0  0  0  0  0  0  0  0  0  0  0
   -9.3602    2.4513    1.9021 Cl  0  0  0  0  0  0  0  0  0  0  0  0
   -3.5767   -4.0774    0.1300 C   0  0  0  0  0  0  0  0  0  0  0  0
   -2.6673   -3.2420    0.8587 N   0  0  0  0  0  0  0  0  0  0  0  0
   -4.5260    1.5146   -1.4518 O   0  0  0  0  0  0  0  0  0  0  0  0
   -7.5895   -1.2250   -0.1580 Cl  0  0  0  0  0  0  0  0  0  0  0  0
   -4.1338   -3.1717   -0.9486 C   0  0  0  0  0  0  0  0  0  0  0  0
    5.1420   -0.0375   -0.1488 N   0  0  0  0  0  0  0  0  0  0  0  0
   -0.2956    1.1979    0.1950 O   0  0  0  0  0  0  0  0  0  0  0  0
   -4.2593   -0.8005   -1.2459 C   0  0  0  0  0  0  0  0  0  0  0  0
    7.6289   -0.6662    0.0759 N   0  0  0  0  0  0  0  0  0  0  0  0
    8.3113   -2.8449   -0.3727 O   0  0  0  0  0  0  0  0  0  0  0  0
   -4.3529    0.5287   -0.5262 C   0  0  1  0  0  0  0  0  0  0  0  0
   -2.5439    1.8284   -0.3739 C   0  0  2  0  0  0  0  0  0  0  0  0
   -3.4310    2.3392   -1.4638 C   0  0  0  0  0  0  0  0  0  0  0  0
   -5.5365    0.5010    0.4035 C   0  0  0  0  0  0  0  0  0  0  0  0
   -6.8236    0.3990   -0.3285 C   0  0  0  0  0  0  0  0  0  0  0  0
   -7.8318    1.4623   -0.1001 C   0  0  0  0  0  0  0  0  0  0  0  0
   -7.7566    2.2297    1.1656 C   0  0  0  0  0  0  0  0  0  0  0  0
   -6.8523    1.6074    2.1922 C   0  0  0  0  0  0  0  0  0  0  0  0
   -5.4818    1.5199    1.5006 C   0  0  0  0  0  0  0  0  0  0  0  0
   -1.1266    1.5920   -0.8277 C   0  0  0  0  0  0  0  0  0  0  0  0
    1.0191    0.9764   -0.1860 C   0  0  0  0  0  0  0  0  0  0  0  0
    1.9857    1.8926    0.5043 C   0  0  0  0  0  0  0  0  0  0  0  0
    3.3047    1.2660    0.8681 C   0  0  0  0  0  0  0  0  0  0  0  0
    3.7758    0.3836   -0.2469 C   0  0  0  0  0  0  0  0  0  0  0  0
    2.8123   -0.7534   -0.3809 C   0  0  0  0  0  0  0  0  0  0  0  0
    1.4279   -0.4460    0.0769 C   0  0  0  0  0  0  0  0  0  0  0  0
    6.0193    1.1472   -0.2316 C   0  0  0  0  0  0  0  0  0  0  0  0
    7.4717    0.6903   -0.2735 C   0  0  0  0  0  0  0  0  0  0  0  0
    6.8268   -1.2194    1.0895 C   0  0  0  0  0  0  0  0  0  0  0  0
    5.4467   -0.6130    1.1573 C   0  0  0  0  0  0  0  0  0  0  0  0
    8.2779   -1.5302   -0.8338 C   0  0  2  0  0  0  0  0  0  0  0  0
    9.7186   -1.0866   -1.0489 C   0  0  0  0  0  0  0  0  0  0  0  0
   -1.8682   -1.5730   -0.2799 H   0  0  0  0  0  0  0  0  0  0  0  0
   -2.7362   -1.2128    1.3074 H   0  0  0  0  0  0  0  0  0  0  0  0
   -2.8388   -4.9674   -0.2875 H   0  0  0  0  0  0  0  0  0  0  0  0
   -4.1855   -4.3691    0.8025 H   0  0  0  0  0  0  0  0  0  0  0  0
   -1.4806   -3.4736    0.7413 H   0  0  0  0  0  0  0  0  0  0  0  0
   -3.2249   -3.2019   -1.7979 H   0  0  0  0  0  0  0  0  0  0  0  0
   -4.9215   -3.5506   -1.2684 H   0  0  0  0  0  0  0  0  0  0  0  0
   -3.4382   -0.7950   -2.0156 H   0  0  0  0  0  0  0  0  0  0  0  0
   -5.1609   -1.0598   -1.7479 H   0  0  0  0  0  0  0  0  0  0  0  0
    8.0729   -2.6367   -2.3668 H   0  0  0  0  0  0  0  0  0  0  0  0
   -2.5500    2.6847    0.4386 H   0  0  0  0  0  0  0  0  0  0  0  0
   -3.0363    2.4413   -2.4379 H   0  0  0  0  0  0  0  0  0  0  0  0
   -3.8618    3.4451   -1.2254 H   0  0  0  0  0  0  0  0  0  0  0  0
   -5.3823   -0.5299    0.9687 H   0  0  0  0  0  0  0  0  0  0  0  0
   -6.6436    0.1707   -1.3748 H   0  0  0  0  0  0  0  0  0  0  0  0
   -7.5697    2.2110   -1.1258 H   0  0  0  0  0  0  0  0  0  0  0  0
   -8.7758    1.1916   -0.3299 H   0  0  0  0  0  0  0  0  0  0  0  0
   -7.1957    3.3399    0.8183 H   0  0  0  0  0  0  0  0  0  0  0  0
   -7.2814    0.7464    2.4550 H   0  0  0  0  0  0  0  0  0  0  0  0
   -6.7040    2.4413    2.9406 H   0  0  0  0  0  0  0  0  0  0  0  0
   -5.1064    2.4777    1.1764 H   0  0  0  0  0  0  0  0  0  0  0  0
   -4.7982    1.1705    2.3601 H   0  0  0  0  0  0  0  0  0  0  0  0
   -1.2081    0.9559   -1.6538 H   0  0  0  0  0  0  0  0  0  0  0  0
   -0.7949    2.6877   -1.2117 H   0  0  0  0  0  0  0  0  0  0  0  0
    1.0165    1.3561   -1.3179 H   0  0  0  0  0  0  0  0  0  0  0  0
    2.2450    2.8038   -0.1110 H   0  0  0  0  0  0  0  0  0  0  0  0
    1.5188    2.4046    1.4558 H   0  0  0  0  0  0  0  0  0  0  0  0
    3.0675    0.6305    1.8209 H   0  0  0  0  0  0  0  0  0  0  0  0
    3.9574    2.0296    1.1817 H   0  0  0  0  0  0  0  0  0  0  0  0
    3.6991    1.1295   -1.1473 H   0  0  0  0  0  0  0  0  0  0  0  0
    2.9665   -1.6410   -0.0257 H   0  0  0  0  0  0  0  0  0  0  0  0
    2.6750   -0.8946   -1.6017 H   0  0  0  0  0  0  0  0  0  0  0  0
    0.5810   -0.9326   -0.6381 H   0  0  0  0  0  0  0  0  0  0  0  0
    1.2264   -0.6377    1.0188 H   0  0  0  0  0  0  0  0  0  0  0  0
    5.7989    1.7068   -0.9860 H   0  0  0  0  0  0  0  0  0  0  0  0
    5.8752    1.5665    0.7960 H   0  0  0  0  0  0  0  0  0  0  0  0
    8.0699    1.0982    0.4348 H   0  0  0  0  0  0  0  0  0  0  0  0
    7.7447    0.6541   -1.2584 H   0  0  0  0  0  0  0  0  0  0  0  0
    6.4385   -2.5374    0.7077 H   0  0  0  0  0  0  0  0  0  0  0  0
    7.0429   -1.5242    2.0563 H   0  0  0  0  0  0  0  0  0  0  0  0
    5.2577   -0.0803    1.9047 H   0  0  0  0  0  0  0  0  0  0  0  0
    4.4695   -1.5737    1.3124 H   0  0  0  0  0  0  0  0  0  0  0  0
    8.3187   -2.7585   -0.2930 H   0  0  0  0  0  0  0  0  0  0  0  0
   10.2618   -0.8665   -1.3531 H   0  0  0  0  0  0  0  0  0  0  0  0
    9.7843   -0.2989    0.2524 H   0  0  0  0  0  0  0  0  0  0  0  0
   10.4203   -2.0042    0.0796 H   0  0  0  0  0  0  0  0  0  0  0  0
   -1.9380   -1.6564   -0.2876 H   0  0  0  0  0  0  0  0  0  0  0  0
   -2.8297   -1.2432    1.2723 H   0  0  0  0  0  0  0  0  0  0  0  0
   -3.0923   -4.9774   -0.3022 H   0  0  0  0  0  0  0  0  0  0  0  0
   -4.4069   -4.3866    0.8038 H   0  0  0  0  0  0  0  0  0  0  0  0
   -1.6853   -3.5965    0.8342 H   0  0  0  0  0  0  0  0  0  0  0  0
   -3.4378   -3.2510   -1.8219 H   0  0  0  0  0  0  0  0  0  0  0  0
   -5.1516   -3.4881   -1.1949 H   0  0  0  0  0  0  0  0  0  0  0  0
   -3.4409   -0.8102   -1.9955 H   0  0  0  0  0  0  0  0  0  0  0  0
   -5.2306   -0.9897   -1.7316 H   0  0  0  0  0  0  0  0  0  0  0  0
    7.5838   -3.3607   -0.7728 H   0  0  0  0  0  0  0  0  0  0  0  0
   -2.4657    2.6728    0.3789 H   0  0  0  0  0  0  0  0  0  0  0  0
   -2.8998    2.1914   -2.4386 H   0  0  0  0  0  0  0  0  0  0  0  0
   -3.6886    3.4153   -1.3533 H   0  0  0  0  0  0  0  0  0  0  0  0
   -5.4321   -0.4948    0.9547 H   0  0  0  0  0  0  0  0  0  0  0  0
   -6.5809    0.4452   -1.4398 H   0  0  0  0  0  0  0  0  0  0  0  0
   -7.9168    2.1734   -0.9816 H   0  0  0  0  0  0  0  0  0  0  0  0
   -8.8533    0.9692   -0.1073 H   0  0  0  0  0  0  0  0  0  0  0  0
   -7.3582    3.2702    0.9902 H   0  0  0  0  0  0  0  0  0  0  0  0
   -7.2043    0.6289    2.5511 H   0  0  0  0  0  0  0  0  0  0  0  0
   -6.7177    2.3197    3.0397 H   0  0  0  0  0  0  0  0  0  0  0  0
   -5.2279    2.5340    1.1938 H   0  0  0  0  0  0  0  0  0  0  0  0
   -4.7766    1.2259    2.3198 H   0  0  0  0  0  0  0  0  0  0  0  0
   -1.1761    0.7704   -1.5917 H   0  0  0  0  0  0  0  0  0  0  0  0
   -0.7108    2.5233   -1.2631 H   0  0  0  0  0  0  0  0  0  0  0  0
    1.0635    1.1541   -1.2792 H   0  0  0  0  0  0  0  0  0  0  0  0
    2.2123    2.7570   -0.1893 H   0  0  0  0  0  0  0  0  0  0  0  0
    1.5736    2.3494    1.4261 H   0  0  0  0  0  0  0  0  0  0  0  0
    3.2269    0.7240    1.8374 H   0  0  0  0  0  0  0  0  0  0  0  0
    3.9974    2.1363    1.0384 H   0  0  0  0  0  0  0  0  0  0  0  0
    3.7273    1.0255   -1.1800 H   0  0  0  0  0  0  0  0  0  0  0  0
    3.1630   -1.6362    0.2163 H   0  0  0  0  0  0  0  0  0  0  0  0
    2.7989   -1.1114   -1.4270 H   0  0  0  0  0  0  0  0  0  0  0  0
    0.7358   -1.0950   -0.5026 H   0  0  0  0  0  0  0  0  0  0  0  0
    1.3226   -0.6685    1.1597 H   0  0  0  0  0  0  0  0  0  0  0  0
    5.8064    1.7433   -1.1133 H   0  0  0  0  0  0  0  0  0  0  0  0
    5.9110    1.6807    0.7310 H   0  0  0  0  0  0  0  0  0  0  0  0
    8.1071    1.3547    0.3759 H   0  0  0  0  0  0  0  0  0  0  0  0
    7.8577    0.8527   -1.2999 H   0  0  0  0  0  0  0  0  0  0  0  0
    6.7070   -2.3222    0.8581 H   0  0  0  0  0  0  0  0  0  0  0  0
    7.3332   -1.1822    2.0893 H   0  0  0  0  0  0  0  0  0  0  0  0
    5.4557    0.2628    1.8634 H   0  0  0  0  0  0  0  0  0  0  0  0
    4.7054   -1.3420    1.5039 H   0  0  0  0  0  0  0  0  0  0  0  0
    7.7492   -1.5248   -1.8065 H   0  0  0  0  0  0  0  0  0  0  0  0
   10.2232   -1.0898   -0.0562 H   0  0  0  0  0  0  0  0  0  0  0  0
    9.6996   -0.0349   -1.4077 H   0  0  0  0  0  0  0  0  0  0  0  0
   10.2520   -1.6939   -1.7763 H   0  0  0  0  0  0  0  0  0  0  0  0
  1  2  1  0
  1  6  1  0
  5  6  1  0
  2  9  1  0
  5  9  1  0
  2 12  1  0
  3 15  1  0
  7 15  1  0
 15 12  1  6
  3 16  1  0
  7 17  1  0
 16 17  1  0
 15 18  1  0
  8 19  1  0
 18 19  1  0
 19 20  1  0
  4 21  1  0
 20 21  1  0
 21 22  1  0
 18 23  1  0
 22 23  1  0
 11 24  1  0
 16 24  1  0
 11 25  1  0
 25 26  1  0
 26 27  1  0
 10 28  1  0
 27 28  1  0
 28 29  1  0
 25 30  1  0
 29 30  1  0
 10 31  1  0
 13 32  1  0
 31 32  1  0
 13 33  1  0
 10 34  1  0
 33 34  1  0
 13 35  1  0
 14 35  1  0
 35 36  1  0
 37 38  1  0
 37 42  1  0
 41 42  1  0
 38 45  1  0
 41 45  1  0
 38 48  1  0
 39 51  1  0
 43 51  1  0
 51 48  1  6
 39 52  1  0
 43 53  1  0
 52 53  1  0
 51 54  1  0
 44 55  1  0
 54 55  1  0
 55 56  1  0
 40 57  1  0
 56 57  1  0
 57 58  1  0
 54 59  1  0
 58 59  1  0
 47 60  1  0
 52 60  1  0
 47 61  1  0
 61 62  1  0
 62 63  1  0
 46 64  1  0
 63 64  1  0
 64 65  1  0
 61 66  1  0
 65 66  1  0
 46 67  1  0
 49 68  1  0
 67 68  1  0
 49 69  1  0
 46 70  1  0
 69 70  1  0
 49 71  1  0
 50 71  1  0
 71 72  1  0
  1 73  1  0
  1 74  1  0
  5 75  1  0
  5 76  1  0
  6 77  1  0
  9 78  1  0
  9 79  1  0
 12 80  1  0
 12 81  1  0
 14 82  1  0
 16 83  1  1
 17 84  1  0
 17 85  1  0
 18 86  1  0
 19 87  1  0
 20 88  1  0
 20 89  1  0
 21 90  1  0
 22 91  1  0
 22 92  1  0
 23 93  1  0
 23 94  1  0
 24 95  1  0
 24 96  1  0
 25 97  1  0
 26 98  1  0
 26 99  1  0
 27100  1  0
 27101  1  0
 28102  1  0
 29103  1  0
 29104  1  0
 30105  1  0
 30106  1  0
 31107  1  0
 31108  1  0
 32109  1  0
 32110  1  0
 33111  1  0
 33112  1  0
 34113  1  0
 34114  1  0
 35115  1  0
 36116  1  0
 36117  1  0
 36118  1  0
 37119  1  0
 37120  1  0
 41121  1  0
 41122  1  0
 42123  1  0
 45124  1  0
 45125  1  0
 48126  1  0
 48127  1  0
 50128  1  0
 52129  1  1
 53130  1  0
 53131  1  0
 54132  1  0
 55133  1  0
 56134  1  0
 56135  1  0
 57136  1  0
 58137  1  0
 58138  1  0
 59139  1  0
 59140  1  0
 60141  1  0
 60142  1  0
 61143  1  0
 62144  1  0
 62145  1  0
 63146  1  0
 63147  1  0
 64148  1  0
 65149  1  0
 65150  1  0
 66151  1  0
 66152  1  0
 67153  1  0
 67154  1  0
 68155  1  0
 68156  1  0
 69157  1  0
 69158  1  0
 70159  1  0
 70160  1  0
 71161  1  6
 72162  1  0
 72163  1  0
 72164  1  0
M  END
>  <PDBID>  (1) 
3LD6

>  <PDB ID>  (1) 
3LD6

>  <Generic Name>  (1) 
Ketoconazole

>  <Brand Name>  (1) 
Apo-ketoconazole#Extina#Ketoconazole#Ketodan#Ketoderm Cream 2%#Nizoral#Nizoral  - 2%#Nizoral A-D#Nizoral Cream 2%#Nizoral Oral Suspension 20mg/ml#Nizoral Shp 2%#Nizoral Tablets 200mg#Nu-ketocon Tablets - 200mg#Teva-ketoconazole#Xolegel#Fungarest#Fungoral#Ketoderm#Ketoisdin#Ketozole#Nizoral Cream#Nizoral Shampoo#Orifungal#Orifungal M#Panfungol

>  <DrugBank ID>  (1) 
DB01026

>  <ATC Codes>  (1) 
G01AF11#D01AC08#J02AB02

>  <Ligand ID>  (1) 
KKK,KLN,KTN

>  <Target Name>  (1) 
Lanosterol 14-alpha demethylase

>  <UniProt ID>  (1) 
P10613

>  <PDB ID.1>  (1) 
3LD6

>  <Seq. Identity>  (1) 
40%

$$$$
