PDB_DB00843_09
     RDKit          3D

142148  0  0  0  0  0  0  0  0999 V2000
   -5.3255   -1.0969   -0.5379 C   0  0  0  0  0  0  0  0  0  0  0  0
   -5.9329   -0.0383    0.3218 C   0  0  0  0  0  0  0  0  0  0  0  0
   -5.0122    1.1278    0.5844 C   0  0  0  0  0  0  0  0  0  0  0  0
   -3.6784    0.6582    1.0240 C   0  0  0  0  0  0  0  0  0  0  0  0
   -3.5696   -0.8254    1.2361 C   0  0  0  0  0  0  0  0  0  0  0  0
   -4.0993   -1.6502    0.1272 C   0  0  0  0  0  0  0  0  0  0  0  0
   -2.0840   -0.9869    1.4054 C   0  0  0  0  0  0  0  0  0  0  0  0
   -1.4918   -0.1205    0.3352 C   0  0  1  0  0  0  0  0  0  0  0  0
   -2.5490    0.9400    0.0577 C   0  0  0  0  0  0  0  0  0  0  0  0
   -0.2778    0.6453    0.8540 C   0  0  0  0  0  0  0  0  0  0  0  0
    0.3058    1.4938   -0.2273 C   0  0  0  0  0  0  0  0  0  0  0  0
    1.4784    2.2328    0.3317 C   0  0  0  0  0  0  0  0  0  0  0  0
    2.7907    1.7076   -0.2718 C   0  0  0  0  0  0  0  0  0  0  0  0
    2.8483    0.3227   -0.3839 N   0  0  0  0  0  0  0  0  0  0  0  0
    1.7773   -0.3646   -1.0166 C   0  0  0  0  0  0  0  0  0  0  0  0
    0.7497    0.6645   -1.4255 C   0  0  0  0  0  0  0  0  0  0  0  0
    3.9077   -0.4429    0.0983 C   0  0  0  0  0  0  0  0  0  0  0  0
    5.2481   -0.3454   -0.5853 C   0  0  0  0  0  0  0  0  0  0  0  0
    6.1472   -1.3196    0.1709 C   0  0  0  0  0  0  0  0  0  0  0  0
    7.5925   -1.1802   -0.1641 C   0  0  0  0  0  0  0  0  0  0  0  0
    8.0175    0.2460    0.1117 C   0  0  0  0  0  0  0  0  0  0  0  0
    7.2569    1.1160   -0.8710 C   0  0  0  0  0  0  0  0  0  0  0  0
    5.7799    1.0522   -0.4784 C   0  0  0  0  0  0  0  0  0  0  0  0
   -1.6791   -2.3155    1.3383 O   0  0  0  0  0  0  0  0  0  0  0  0
   -4.9724   -0.6474   -1.8005 O   0  0  0  0  0  0  0  0  0  0  0  0
   -5.6521   -1.2574   -2.8171 C   0  0  0  0  0  0  0  0  0  0  0  0
   -6.2605   -0.5991    1.5533 O   0  0  0  0  0  0  0  0  0  0  0  0
   -7.6079   -0.4534    1.8540 C   0  0  0  0  0  0  0  0  0  0  0  0
   -5.3255   -1.0969   -0.5379 C   0  0  0  0  0  0  0  0  0  0  0  0
   -5.9329   -0.0383    0.3218 C   0  0  0  0  0  0  0  0  0  0  0  0
   -5.0122    1.1278    0.5844 C   0  0  0  0  0  0  0  0  0  0  0  0
   -3.6784    0.6582    1.0240 C   0  0  0  0  0  0  0  0  0  0  0  0
   -3.5696   -0.8254    1.2361 C   0  0  0  0  0  0  0  0  0  0  0  0
   -4.0993   -1.6502    0.1272 C   0  0  0  0  0  0  0  0  0  0  0  0
   -2.0840   -0.9869    1.4054 C   0  0  0  0  0  0  0  0  0  0  0  0
   -1.4918   -0.1205    0.3352 C   0  0  1  0  0  0  0  0  0  0  0  0
   -2.5490    0.9400    0.0577 C   0  0  0  0  0  0  0  0  0  0  0  0
   -0.2778    0.6453    0.8540 C   0  0  0  0  0  0  0  0  0  0  0  0
    0.3058    1.4938   -0.2273 C   0  0  0  0  0  0  0  0  0  0  0  0
    1.4784    2.2328    0.3317 C   0  0  0  0  0  0  0  0  0  0  0  0
    2.7907    1.7076   -0.2718 C   0  0  0  0  0  0  0  0  0  0  0  0
    2.8483    0.3227   -0.3839 N   0  0  0  0  0  0  0  0  0  0  0  0
    1.7773   -0.3646   -1.0166 C   0  0  0  0  0  0  0  0  0  0  0  0
    0.7497    0.6645   -1.4255 C   0  0  0  0  0  0  0  0  0  0  0  0
    3.9077   -0.4429    0.0983 C   0  0  0  0  0  0  0  0  0  0  0  0
    5.2481   -0.3454   -0.5853 C   0  0  0  0  0  0  0  0  0  0  0  0
    6.1472   -1.3196    0.1709 C   0  0  0  0  0  0  0  0  0  0  0  0
    7.5925   -1.1802   -0.1641 C   0  0  0  0  0  0  0  0  0  0  0  0
    8.0175    0.2460    0.1117 C   0  0  0  0  0  0  0  0  0  0  0  0
    7.2569    1.1160   -0.8710 C   0  0  0  0  0  0  0  0  0  0  0  0
    5.7799    1.0522   -0.4784 C   0  0  0  0  0  0  0  0  0  0  0  0
   -1.6791   -2.3155    1.3383 O   0  0  0  0  0  0  0  0  0  0  0  0
   -4.9724   -0.6474   -1.8005 O   0  0  0  0  0  0  0  0  0  0  0  0
   -5.6521   -1.2574   -2.8171 C   0  0  0  0  0  0  0  0  0  0  0  0
   -6.2605   -0.5991    1.5533 O   0  0  0  0  0  0  0  0  0  0  0  0
   -7.6079   -0.4534    1.8540 C   0  0  0  0  0  0  0  0  0  0  0  0
   -6.1105   -1.8792   -0.6916 H   0  0  0  0  0  0  0  0  0  0  0  0
   -6.8711    0.3826   -0.0970 H   0  0  0  0  0  0  0  0  0  0  0  0
   -5.5168    1.7160    1.4089 H   0  0  0  0  0  0  0  0  0  0  0  0
   -4.9167    1.8285   -0.2453 H   0  0  0  0  0  0  0  0  0  0  0  0
   -3.4133    1.1428    1.9870 H   0  0  0  0  0  0  0  0  0  0  0  0
   -4.0837   -1.0960    2.1937 H   0  0  0  0  0  0  0  0  0  0  0  0
   -3.3193   -1.9054   -0.6219 H   0  0  0  0  0  0  0  0  0  0  0  0
   -4.4129   -2.6384    0.5749 H   0  0  0  0  0  0  0  0  0  0  0  0
   -1.8161   -0.5428    2.3892 H   0  0  0  0  0  0  0  0  0  0  0  0
   -1.1877   -0.6742   -0.5591 H   0  0  0  0  0  0  0  0  0  0  0  0
   -2.8464    0.8952   -1.0025 H   0  0  0  0  0  0  0  0  0  0  0  0
   -2.1890    1.9718    0.2341 H   0  0  0  0  0  0  0  0  0  0  0  0
    0.4605    0.0114    1.3382 H   0  0  0  0  0  0  0  0  0  0  0  0
   -0.6932    1.3098    1.6670 H   0  0  0  0  0  0  0  0  0  0  0  0
   -0.4008    2.2407   -0.6401 H   0  0  0  0  0  0  0  0  0  0  0  0
    1.3950    3.3221    0.1754 H   0  0  0  0  0  0  0  0  0  0  0  0
    1.5434    2.0663    1.4460 H   0  0  0  0  0  0  0  0  0  0  0  0
    3.5616    2.0766    0.4518 H   0  0  0  0  0  0  0  0  0  0  0  0
    2.8753    2.2308   -1.2479 H   0  0  0  0  0  0  0  0  0  0  0  0
    2.0240   -0.9767   -1.8833 H   0  0  0  0  0  0  0  0  0  0  0  0
    1.2734   -1.0116   -0.2452 H   0  0  0  0  0  0  0  0  0  0  0  0
    1.2565    1.3892   -2.1244 H   0  0  0  0  0  0  0  0  0  0  0  0
   -0.1044    0.2667   -1.9750 H   0  0  0  0  0  0  0  0  0  0  0  0
    3.5567   -1.5303    0.1057 H   0  0  0  0  0  0  0  0  0  0  0  0
    4.0223   -0.2443    1.2096 H   0  0  0  0  0  0  0  0  0  0  0  0
    5.2143   -0.6742   -1.6314 H   0  0  0  0  0  0  0  0  0  0  0  0
    5.9816   -1.1487    1.2413 H   0  0  0  0  0  0  0  0  0  0  0  0
    5.8287   -2.3383   -0.1211 H   0  0  0  0  0  0  0  0  0  0  0  0
    7.7925   -1.3838   -1.2262 H   0  0  0  0  0  0  0  0  0  0  0  0
    8.1516   -1.8555    0.5200 H   0  0  0  0  0  0  0  0  0  0  0  0
    9.0907    0.4198    0.0590 H   0  0  0  0  0  0  0  0  0  0  0  0
    7.6149    0.5049    1.1345 H   0  0  0  0  0  0  0  0  0  0  0  0
    7.5498    2.1668   -0.8543 H   0  0  0  0  0  0  0  0  0  0  0  0
    7.3327    0.7224   -1.9046 H   0  0  0  0  0  0  0  0  0  0  0  0
    5.2588    1.7450   -1.1521 H   0  0  0  0  0  0  0  0  0  0  0  0
    5.7313    1.3701    0.5842 H   0  0  0  0  0  0  0  0  0  0  0  0
   -1.9692   -2.7383    2.1979 H   0  0  0  0  0  0  0  0  0  0  0  0
   -5.2930   -0.8256   -3.7757 H   0  0  0  0  0  0  0  0  0  0  0  0
   -6.7556   -1.2322   -2.7306 H   0  0  0  0  0  0  0  0  0  0  0  0
   -5.3866   -2.3382   -2.8599 H   0  0  0  0  0  0  0  0  0  0  0  0
   -7.7945   -0.9195    2.8395 H   0  0  0  0  0  0  0  0  0  0  0  0
   -7.9188    0.6265    1.8843 H   0  0  0  0  0  0  0  0  0  0  0  0
   -8.2233   -1.0158    1.1226 H   0  0  0  0  0  0  0  0  0  0  0  0
   -6.1105   -1.8792   -0.6916 H   0  0  0  0  0  0  0  0  0  0  0  0
   -6.8711    0.3826   -0.0970 H   0  0  0  0  0  0  0  0  0  0  0  0
   -5.5168    1.7160    1.4089 H   0  0  0  0  0  0  0  0  0  0  0  0
   -4.9167    1.8285   -0.2453 H   0  0  0  0  0  0  0  0  0  0  0  0
   -3.4133    1.1428    1.9870 H   0  0  0  0  0  0  0  0  0  0  0  0
   -4.0837   -1.0960    2.1937 H   0  0  0  0  0  0  0  0  0  0  0  0
   -3.3193   -1.9054   -0.6219 H   0  0  0  0  0  0  0  0  0  0  0  0
   -4.4129   -2.6384    0.5749 H   0  0  0  0  0  0  0  0  0  0  0  0
   -1.8161   -0.5428    2.3892 H   0  0  0  0  0  0  0  0  0  0  0  0
   -1.1877   -0.6742   -0.5591 H   0  0  0  0  0  0  0  0  0  0  0  0
   -2.8464    0.8952   -1.0025 H   0  0  0  0  0  0  0  0  0  0  0  0
   -2.1890    1.9718    0.2341 H   0  0  0  0  0  0  0  0  0  0  0  0
    0.4605    0.0114    1.3382 H   0  0  0  0  0  0  0  0  0  0  0  0
   -0.6932    1.3098    1.6670 H   0  0  0  0  0  0  0  0  0  0  0  0
   -0.4008    2.2407   -0.6401 H   0  0  0  0  0  0  0  0  0  0  0  0
    1.3950    3.3221    0.1754 H   0  0  0  0  0  0  0  0  0  0  0  0
    1.5434    2.0663    1.4460 H   0  0  0  0  0  0  0  0  0  0  0  0
    3.5616    2.0766    0.4518 H   0  0  0  0  0  0  0  0  0  0  0  0
    2.8753    2.2308   -1.2479 H   0  0  0  0  0  0  0  0  0  0  0  0
    2.0240   -0.9767   -1.8833 H   0  0  0  0  0  0  0  0  0  0  0  0
    1.2734   -1.0116   -0.2452 H   0  0  0  0  0  0  0  0  0  0  0  0
    1.2565    1.3892   -2.1244 H   0  0  0  0  0  0  0  0  0  0  0  0
   -0.1044    0.2667   -1.9750 H   0  0  0  0  0  0  0  0  0  0  0  0
    3.5567   -1.5303    0.1057 H   0  0  0  0  0  0  0  0  0  0  0  0
    4.0223   -0.2443    1.2096 H   0  0  0  0  0  0  0  0  0  0  0  0
    5.2143   -0.6742   -1.6314 H   0  0  0  0  0  0  0  0  0  0  0  0
    5.9816   -1.1487    1.2413 H   0  0  0  0  0  0  0  0  0  0  0  0
    5.8287   -2.3383   -0.1211 H   0  0  0  0  0  0  0  0  0  0  0  0
    7.7925   -1.3838   -1.2262 H   0  0  0  0  0  0  0  0  0  0  0  0
    8.1516   -1.8555    0.5200 H   0  0  0  0  0  0  0  0  0  0  0  0
    9.0907    0.4198    0.0590 H   0  0  0  0  0  0  0  0  0  0  0  0
    7.6149    0.5049    1.1345 H   0  0  0  0  0  0  0  0  0  0  0  0
    7.5498    2.1668   -0.8543 H   0  0  0  0  0  0  0  0  0  0  0  0
    7.3327    0.7224   -1.9046 H   0  0  0  0  0  0  0  0  0  0  0  0
    5.2588    1.7450   -1.1521 H   0  0  0  0  0  0  0  0  0  0  0  0
    5.7313    1.3701    0.5842 H   0  0  0  0  0  0  0  0  0  0  0  0
   -1.9692   -2.7383    2.1979 H   0  0  0  0  0  0  0  0  0  0  0  0
   -5.2930   -0.8256   -3.7757 H   0  0  0  0  0  0  0  0  0  0  0  0
   -6.7556   -1.2322   -2.7306 H   0  0  0  0  0  0  0  0  0  0  0  0
   -5.3866   -2.3382   -2.8599 H   0  0  0  0  0  0  0  0  0  0  0  0
   -7.7945   -0.9195    2.8395 H   0  0  0  0  0  0  0  0  0  0  0  0
   -7.9188    0.6265    1.8843 H   0  0  0  0  0  0  0  0  0  0  0  0
   -8.2233   -1.0158    1.1226 H   0  0  0  0  0  0  0  0  0  0  0  0
  1  2  1  0
  2  3  1  0
  3  4  1  0
  4  5  1  0
  1  6  1  0
  5  6  1  0
  5  7  1  0
  7  8  1  0
  4  9  1  0
  8  9  1  0
  8 10  1  0
 10 11  1  0
 11 12  1  0
 12 13  1  0
 13 14  1  0
 14 15  1  0
 11 16  1  0
 15 16  1  0
 14 17  1  0
 17 18  1  0
 18 19  1  0
 19 20  1  0
 20 21  1  0
 21 22  1  0
 18 23  1  0
 22 23  1  0
  7 24  1  0
  1 25  1  0
 25 26  1  0
  2 27  1  0
 27 28  1  0
 29 30  1  0
 30 31  1  0
 31 32  1  0
 32 33  1  0
 29 34  1  0
 33 34  1  0
 33 35  1  0
 35 36  1  0
 32 37  1  0
 36 37  1  0
 36 38  1  0
 38 39  1  0
 39 40  1  0
 40 41  1  0
 41 42  1  0
 42 43  1  0
 39 44  1  0
 43 44  1  0
 42 45  1  0
 45 46  1  0
 46 47  1  0
 47 48  1  0
 48 49  1  0
 49 50  1  0
 46 51  1  0
 50 51  1  0
 35 52  1  0
 29 53  1  0
 53 54  1  0
 30 55  1  0
 55 56  1  0
  1 57  1  0
  2 58  1  0
  3 59  1  0
  3 60  1  0
  4 61  1  0
  5 62  1  0
  6 63  1  0
  6 64  1  0
  7 65  1  0
  8 66  1  6
  9 67  1  0
  9 68  1  0
 10 69  1  0
 10 70  1  0
 11 71  1  0
 12 72  1  0
 12 73  1  0
 13 74  1  0
 13 75  1  0
 15 76  1  0
 15 77  1  0
 16 78  1  0
 16 79  1  0
 17 80  1  0
 17 81  1  0
 18 82  1  0
 19 83  1  0
 19 84  1  0
 20 85  1  0
 20 86  1  0
 21 87  1  0
 21 88  1  0
 22 89  1  0
 22 90  1  0
 23 91  1  0
 23 92  1  0
 24 93  1  0
 26 94  1  0
 26 95  1  0
 26 96  1  0
 28 97  1  0
 28 98  1  0
 28 99  1  0
 29100  1  0
 30101  1  0
 31102  1  0
 31103  1  0
 32104  1  0
 33105  1  0
 34106  1  0
 34107  1  0
 35108  1  0
 36109  1  6
 37110  1  0
 37111  1  0
 38112  1  0
 38113  1  0
 39114  1  0
 40115  1  0
 40116  1  0
 41117  1  0
 41118  1  0
 43119  1  0
 43120  1  0
 44121  1  0
 44122  1  0
 45123  1  0
 45124  1  0
 46125  1  0
 47126  1  0
 47127  1  0
 48128  1  0
 48129  1  0
 49130  1  0
 49131  1  0
 50132  1  0
 50133  1  0
 51134  1  0
 51135  1  0
 52136  1  0
 54137  1  0
 54138  1  0
 54139  1  0
 56140  1  0
 56141  1  0
 56142  1  0
M  END
>  <PDBID>  (1) 
4EY7

>  <PDB ID>  (1) 
4EY7

>  <Generic Name>  (1) 
Donepezil

>  <Brand Name>  (1) 
Accel-donepezil#Act Donepezil#Act Donepezil ODT#Ag-donepezil#Apo-donepezil#Aricept#Aricept ODT#Aricept Rdt#Auro-donepezil#Bio-donepezil#Dom-donepezil#Donepezil#Donepezil Hydrochloride#Donepezil Hydrochloride 10 mg#Donepezil Hydrochloride 10mg#Donepezil Hydrochloride 5 mg#Donepezil Hydrochloride ODT#Donepezil Hydrochloride Tablets#Donepezil Hydrochloride Tablets USP#Donepezil Hyrochloride 5mg#Ecl-donepezil#Ipg-donepezil#Jamp-donepezil#Jamp-donepezil Tablets#Mar-donepezil#Mint-donepezil#Mylan-donepezil#Namzaric#Nat-donepezil#PMS-donepezil#Priva-donepezil#Ran-donepezil#Riva-donepezil#Sandoz Donepezil#Sandoz Donepezil ODT#Septa Donepezil#Teva-donepezil#Van-donepezil#Alzepil#Davia#Depzil#Donecept#Donecil#Donep#Donepex#Donesyn#Dopezil#Eranz#Memac#Nomi-Nox#Pezale#Redumas#Zolpezil

>  <DrugBank ID>  (1) 
DB00843

>  <ATC Codes>  (1) 
N06DA02#N06DA52#N06DA53

>  <Ligand ID>  (1) 
E20

>  <Target Name>  (1) 
Acetylcholinesterase

>  <UniProt ID>  (1) 
P22303

>  <PDB ID.1>  (1) 
4EY7

>  <Seq. Identity>  (1) 
97%

$$$$
