PDB_DB00317_00
     RDKit          3D

 71 74  0  0  0  0  0  0  0  0999 V2000
   -5.5470   -1.3492    0.2406 C   0  0  0  0  0  0  0  0  0  0  0  0
   -6.4927   -1.8401   -0.8353 C   0  0  0  0  0  0  0  0  0  0  0  0
   -6.9092   -0.7807   -1.6164 O   0  0  0  0  0  0  0  0  0  0  0  0
   -5.9178    0.1253   -1.9210 C   0  0  0  0  0  0  0  0  0  0  0  0
   -4.5245   -0.4757   -1.6935 C   0  0  0  0  0  0  0  0  0  0  0  0
   -4.3604   -0.7874   -0.3116 N   0  0  0  0  0  0  0  0  0  0  0  0
   -3.2056   -1.5910   -0.0043 C   0  0  0  0  0  0  0  0  0  0  0  0
   -2.8366   -1.5700    1.4444 C   0  0  0  0  0  0  0  0  0  0  0  0
   -2.5081   -0.2559    2.0559 C   0  0  0  0  0  0  0  0  0  0  0  0
   -1.4642    0.3729    1.5725 O   0  0  0  0  0  0  0  0  0  0  0  0
   -1.2608    0.9154    0.3821 C   0  0  0  0  0  0  0  0  0  0  0  0
   -1.0533    2.4343    0.4345 C   0  0  0  0  0  0  0  0  0  0  0  0
    0.2056    2.7927    1.1720 C   0  0  0  0  0  0  0  0  0  0  0  0
   -2.1362    2.9745    1.1056 O   0  0  0  0  0  0  0  0  0  0  0  0
   -2.8401    3.8608    0.3020 C   0  0  0  0  0  0  0  0  0  0  0  0
   -0.1249    0.2691   -0.4149 C   0  0  0  0  0  0  0  0  0  0  0  0
    1.0851    1.1089   -0.2992 C   0  0  0  0  0  0  0  0  0  0  0  0
    1.2181    1.6482    1.0841 C   0  0  0  0  0  0  0  0  0  0  0  0
    2.5097    2.0835    1.4789 N   0  0  0  0  0  0  0  0  0  0  0  0
    3.6159    1.6368    0.7117 C   0  0  0  0  0  0  0  0  0  0  0  0
    3.3677    1.5044   -0.7105 N   0  0  0  0  0  0  0  0  0  0  0  0
    2.3455    0.4407   -0.8033 C   0  0  0  0  0  0  0  0  0  0  0  0
    2.8081   -0.6008    0.0635 N   0  0  0  0  0  0  0  0  0  0  0  0
    3.6649   -1.5409   -0.5934 C   0  0  0  0  0  0  0  0  0  0  0  0
    4.1388   -2.5812    0.3994 C   0  0  0  0  0  0  0  0  0  0  0  0
    5.6318   -2.7439    0.3731 C   0  0  0  0  0  0  0  0  0  0  0  0
    6.1345   -3.8501    1.6632 Cl  0  0  0  0  0  0  0  0  0  0  0  0
    6.2334   -1.3611    0.6046 C   0  0  0  0  0  0  0  0  0  0  0  0
    7.5915   -1.5005    0.8868 F   0  0  0  0  0  0  0  0  0  0  0  0
    5.9934   -0.5618   -0.6327 C   0  0  0  0  0  0  0  0  0  0  0  0
    4.7738   -0.9600   -1.4004 C   0  0  0  0  0  0  0  0  0  0  0  0
   -5.3650   -2.2436    0.8951 H   0  0  0  0  0  0  0  0  0  0  0  0
   -6.1086   -0.6201    0.8649 H   0  0  0  0  0  0  0  0  0  0  0  0
   -7.3599   -2.2842   -0.2702 H   0  0  0  0  0  0  0  0  0  0  0  0
   -6.0359   -2.6302   -1.4667 H   0  0  0  0  0  0  0  0  0  0  0  0
   -6.0335    1.0411   -1.2766 H   0  0  0  0  0  0  0  0  0  0  0  0
   -6.0036    0.4044   -2.9906 H   0  0  0  0  0  0  0  0  0  0  0  0
   -3.8234    0.3521   -2.0116 H   0  0  0  0  0  0  0  0  0  0  0  0
   -4.4562   -1.3538   -2.3624 H   0  0  0  0  0  0  0  0  0  0  0  0
   -2.4035   -1.3990   -0.7181 H   0  0  0  0  0  0  0  0  0  0  0  0
   -3.4792   -2.6994   -0.2465 H   0  0  0  0  0  0  0  0  0  0  0  0
   -1.9859   -2.3190    1.6091 H   0  0  0  0  0  0  0  0  0  0  0  0
   -3.7008   -2.0684    2.0031 H   0  0  0  0  0  0  0  0  0  0  0  0
   -3.4890    0.3550    1.9339 H   0  0  0  0  0  0  0  0  0  0  0  0
   -2.4402   -0.4635    3.1760 H   0  0  0  0  0  0  0  0  0  0  0  0
   -2.1564    0.8102   -0.2573 H   0  0  0  0  0  0  0  0  0  0  0  0
   -1.0283    2.8518   -0.5836 H   0  0  0  0  0  0  0  0  0  0  0  0
    0.6768    3.6451    0.6438 H   0  0  0  0  0  0  0  0  0  0  0  0
    0.0736    3.0864    2.2184 H   0  0  0  0  0  0  0  0  0  0  0  0
   -2.2337    4.7073   -0.0440 H   0  0  0  0  0  0  0  0  0  0  0  0
   -3.6835    4.2616    0.9230 H   0  0  0  0  0  0  0  0  0  0  0  0
   -3.2457    3.3258   -0.5998 H   0  0  0  0  0  0  0  0  0  0  0  0
    0.0905   -0.7489   -0.0550 H   0  0  0  0  0  0  0  0  0  0  0  0
   -0.4092    0.1396   -1.5000 H   0  0  0  0  0  0  0  0  0  0  0  0
    0.9402    1.9977   -0.9770 H   0  0  0  0  0  0  0  0  0  0  0  0
    0.8440    0.8611    1.7986 H   0  0  0  0  0  0  0  0  0  0  0  0
    2.5855    3.0045    1.9148 H   0  0  0  0  0  0  0  0  0  0  0  0
    4.4414    2.3693    0.8183 H   0  0  0  0  0  0  0  0  0  0  0  0
    3.9275    0.6342    1.1077 H   0  0  0  0  0  0  0  0  0  0  0  0
    2.9091    2.3884   -1.0221 H   0  0  0  0  0  0  0  0  0  0  0  0
    2.1736    0.1115   -1.8251 H   0  0  0  0  0  0  0  0  0  0  0  0
    2.0127   -1.1714    0.4717 H   0  0  0  0  0  0  0  0  0  0  0  0
    3.0067   -2.1041   -1.3219 H   0  0  0  0  0  0  0  0  0  0  0  0
    3.8281   -2.2733    1.4343 H   0  0  0  0  0  0  0  0  0  0  0  0
    3.6920   -3.5834    0.2303 H   0  0  0  0  0  0  0  0  0  0  0  0
    5.9486   -3.1493   -0.6102 H   0  0  0  0  0  0  0  0  0  0  0  0
    5.7284   -0.9119    1.4603 H   0  0  0  0  0  0  0  0  0  0  0  0
    6.0462    0.5178   -0.3842 H   0  0  0  0  0  0  0  0  0  0  0  0
    6.8984   -0.7270   -1.2911 H   0  0  0  0  0  0  0  0  0  0  0  0
    4.3869   -0.1603   -2.0418 H   0  0  0  0  0  0  0  0  0  0  0  0
    5.0950   -1.7713   -2.1246 H   0  0  0  0  0  0  0  0  0  0  0  0
  1  2  1  0
  2  3  1  0
  3  4  1  0
  4  5  1  0
  1  6  1  0
  5  6  1  0
  6  7  1  0
  7  8  1  0
  8  9  1  0
  9 10  1  0
 10 11  1  0
 11 12  1  0
 12 13  1  0
 12 14  1  0
 14 15  1  0
 11 16  1  0
 16 17  1  0
 13 18  1  0
 17 18  1  0
 18 19  1  0
 19 20  1  0
 20 21  1  0
 17 22  1  0
 21 22  1  0
 22 23  1  0
 23 24  1  0
 24 25  1  0
 25 26  1  0
 26 27  1  0
 26 28  1  0
 28 29  1  0
 28 30  1  0
 24 31  1  0
 30 31  1  0
  1 32  1  0
  1 33  1  0
  2 34  1  0
  2 35  1  0
  4 36  1  0
  4 37  1  0
  5 38  1  0
  5 39  1  0
  7 40  1  0
  7 41  1  0
  8 42  1  0
  8 43  1  0
  9 44  1  0
  9 45  1  0
 11 46  1  0
 12 47  1  0
 13 48  1  0
 13 49  1  0
 15 50  1  0
 15 51  1  0
 15 52  1  0
 16 53  1  0
 16 54  1  0
 17 55  1  0
 18 56  1  0
 19 57  1  0
 20 58  1  0
 20 59  1  0
 21 60  1  0
 22 61  1  0
 23 62  1  0
 24 63  1  0
 25 64  1  0
 25 65  1  0
 26 66  1  0
 28 67  1  0
 30 68  1  0
 30 69  1  0
 31 70  1  0
 31 71  1  0
M  END
>  <PDBID>  (1) 
4WKQ

>  <PDB ID>  (1) 
4WKQ

>  <Generic Name>  (1) 
Gefitinib

>  <Brand Name>  (1) 
Iressa

>  <DrugBank ID>  (1) 
DB00317

>  <ATC Codes>  (1) 
L01XE02

>  <Ligand ID>  (1) 
IRE

>  <Target Name>  (1) 
Epidermal growth factor receptor

>  <UniProt ID>  (1) 
P00533

>  <PDB ID.1>  (1) 
4WKQ

>  <Seq. Identity>  (1) 
96%

$$$$
