PDB_DB00843_07
     RDKit          3D

142148  0  0  0  0  0  0  0  0999 V2000
    6.0792   -0.5447   -0.3327 C   0  0  0  0  0  0  0  0  0  0  0  0
    5.7710    0.9361   -0.2098 C   0  0  0  0  0  0  0  0  0  0  0  0
    4.5355    1.0424    0.6826 C   0  0  0  0  0  0  0  0  0  0  0  0
    3.3517    0.6753   -0.1584 C   0  0  0  0  0  0  0  0  0  0  0  0
    3.7216   -0.5598   -0.9440 C   0  0  0  0  0  0  0  0  0  0  0  0
    4.8052   -1.3764   -0.3087 C   0  0  0  0  0  0  0  0  0  0  0  0
    2.4252   -1.3412   -1.0950 C   0  0  0  0  0  0  0  0  0  0  0  0
    1.7480   -1.0576    0.2054 C   0  0  1  0  0  0  0  0  0  0  0  0
    2.1860    0.2679    0.7275 C   0  0  0  0  0  0  0  0  0  0  0  0
    0.3767   -1.4556    0.3818 C   0  0  0  0  0  0  0  0  0  0  0  0
   -0.7409   -1.0413   -0.4659 C   0  0  0  0  0  0  0  0  0  0  0  0
   -1.9810   -1.7396    0.1520 C   0  0  0  0  0  0  0  0  0  0  0  0
   -3.2703   -1.1072   -0.3389 C   0  0  0  0  0  0  0  0  0  0  0  0
   -3.3557    0.1864    0.1594 N   0  0  0  0  0  0  0  0  0  0  0  0
   -2.1136    0.7948    0.5681 C   0  0  0  0  0  0  0  0  0  0  0  0
   -1.1182    0.4046   -0.5381 C   0  0  0  0  0  0  0  0  0  0  0  0
   -4.4897    0.9684    0.1625 C   0  0  0  0  0  0  0  0  0  0  0  0
   -5.6462    0.6719    1.0322 C   0  0  0  0  0  0  0  0  0  0  0  0
   -6.3440   -0.6268    0.8571 C   0  0  0  0  0  0  0  0  0  0  0  0
   -6.8472   -0.9077   -0.5261 C   0  0  0  0  0  0  0  0  0  0  0  0
   -7.5582    0.3042   -1.0675 C   0  0  0  0  0  0  0  0  0  0  0  0
   -7.8476    1.3276   -0.0226 C   0  0  0  0  0  0  0  0  0  0  0  0
   -6.6900    1.7699    0.7995 C   0  0  0  0  0  0  0  0  0  0  0  0
    1.7878   -0.7997   -2.1958 O   0  0  0  0  0  0  0  0  0  0  0  0
    6.9399   -0.8913    0.6828 O   0  0  0  0  0  0  0  0  0  0  0  0
    8.1971   -1.2709    0.2190 C   0  0  0  0  0  0  0  0  0  0  0  0
    6.7724    1.6409    0.4271 O   0  0  0  0  0  0  0  0  0  0  0  0
    7.1744    2.6721   -0.4185 C   0  0  0  0  0  0  0  0  0  0  0  0
    6.0792   -0.5447   -0.3327 C   0  0  0  0  0  0  0  0  0  0  0  0
    5.7710    0.9361   -0.2098 C   0  0  0  0  0  0  0  0  0  0  0  0
    4.5355    1.0424    0.6826 C   0  0  0  0  0  0  0  0  0  0  0  0
    3.3517    0.6753   -0.1584 C   0  0  0  0  0  0  0  0  0  0  0  0
    3.7216   -0.5598   -0.9440 C   0  0  0  0  0  0  0  0  0  0  0  0
    4.8052   -1.3764   -0.3087 C   0  0  0  0  0  0  0  0  0  0  0  0
    2.4252   -1.3412   -1.0950 C   0  0  0  0  0  0  0  0  0  0  0  0
    1.7480   -1.0576    0.2054 C   0  0  1  0  0  0  0  0  0  0  0  0
    2.1860    0.2679    0.7275 C   0  0  0  0  0  0  0  0  0  0  0  0
    0.3767   -1.4556    0.3818 C   0  0  0  0  0  0  0  0  0  0  0  0
   -0.7409   -1.0413   -0.4659 C   0  0  0  0  0  0  0  0  0  0  0  0
   -1.9810   -1.7396    0.1520 C   0  0  0  0  0  0  0  0  0  0  0  0
   -3.2703   -1.1072   -0.3389 C   0  0  0  0  0  0  0  0  0  0  0  0
   -3.3557    0.1864    0.1594 N   0  0  0  0  0  0  0  0  0  0  0  0
   -2.1136    0.7948    0.5681 C   0  0  0  0  0  0  0  0  0  0  0  0
   -1.1182    0.4046   -0.5381 C   0  0  0  0  0  0  0  0  0  0  0  0
   -4.4897    0.9684    0.1625 C   0  0  0  0  0  0  0  0  0  0  0  0
   -5.6462    0.6719    1.0322 C   0  0  0  0  0  0  0  0  0  0  0  0
   -6.3440   -0.6268    0.8571 C   0  0  0  0  0  0  0  0  0  0  0  0
   -6.8472   -0.9077   -0.5261 C   0  0  0  0  0  0  0  0  0  0  0  0
   -7.5582    0.3042   -1.0675 C   0  0  0  0  0  0  0  0  0  0  0  0
   -7.8476    1.3276   -0.0226 C   0  0  0  0  0  0  0  0  0  0  0  0
   -6.6900    1.7699    0.7995 C   0  0  0  0  0  0  0  0  0  0  0  0
    1.7878   -0.7997   -2.1958 O   0  0  0  0  0  0  0  0  0  0  0  0
    6.9399   -0.8913    0.6828 O   0  0  0  0  0  0  0  0  0  0  0  0
    8.1971   -1.2709    0.2190 C   0  0  0  0  0  0  0  0  0  0  0  0
    6.7724    1.6409    0.4271 O   0  0  0  0  0  0  0  0  0  0  0  0
    7.1744    2.6721   -0.4185 C   0  0  0  0  0  0  0  0  0  0  0  0
    6.6278   -0.6591   -1.2948 H   0  0  0  0  0  0  0  0  0  0  0  0
    5.5336    1.3481   -1.2166 H   0  0  0  0  0  0  0  0  0  0  0  0
    4.6355    0.2334    1.4648 H   0  0  0  0  0  0  0  0  0  0  0  0
    4.4665    2.0165    1.1754 H   0  0  0  0  0  0  0  0  0  0  0  0
    3.0262    1.4926   -0.8334 H   0  0  0  0  0  0  0  0  0  0  0  0
    4.0877   -0.2124   -1.9331 H   0  0  0  0  0  0  0  0  0  0  0  0
    4.5637   -1.7767    0.6741 H   0  0  0  0  0  0  0  0  0  0  0  0
    4.9996   -2.2244   -1.0276 H   0  0  0  0  0  0  0  0  0  0  0  0
    2.6786   -2.4009   -1.1983 H   0  0  0  0  0  0  0  0  0  0  0  0
    2.3515   -1.7939    0.9120 H   0  0  0  0  0  0  0  0  0  0  0  0
    2.6038    0.1868    1.7876 H   0  0  0  0  0  0  0  0  0  0  0  0
    1.4513    1.0555    0.8017 H   0  0  0  0  0  0  0  0  0  0  0  0
    0.3041   -2.5990    0.4602 H   0  0  0  0  0  0  0  0  0  0  0  0
    0.0735   -1.1754    1.4519 H   0  0  0  0  0  0  0  0  0  0  0  0
   -0.7150   -1.5069   -1.5022 H   0  0  0  0  0  0  0  0  0  0  0  0
   -1.9815   -2.7897   -0.1970 H   0  0  0  0  0  0  0  0  0  0  0  0
   -1.8961   -1.7504    1.2415 H   0  0  0  0  0  0  0  0  0  0  0  0
   -4.0499   -1.8284   -0.1139 H   0  0  0  0  0  0  0  0  0  0  0  0
   -3.1860   -1.0689   -1.4507 H   0  0  0  0  0  0  0  0  0  0  0  0
   -2.2173    1.8897    0.5049 H   0  0  0  0  0  0  0  0  0  0  0  0
   -1.7664    0.4691    1.5523 H   0  0  0  0  0  0  0  0  0  0  0  0
   -1.7496    0.5914   -1.4844 H   0  0  0  0  0  0  0  0  0  0  0  0
   -0.3141    1.1286   -0.5822 H   0  0  0  0  0  0  0  0  0  0  0  0
   -4.1642    2.0491    0.2922 H   0  0  0  0  0  0  0  0  0  0  0  0
   -4.9046    0.9802   -0.9069 H   0  0  0  0  0  0  0  0  0  0  0  0
   -5.3523    0.7311    2.1148 H   0  0  0  0  0  0  0  0  0  0  0  0
   -7.3015   -0.5323    1.4910 H   0  0  0  0  0  0  0  0  0  0  0  0
   -5.8515   -1.5111    1.2828 H   0  0  0  0  0  0  0  0  0  0  0  0
   -7.5673   -1.7750   -0.4179 H   0  0  0  0  0  0  0  0  0  0  0  0
   -6.0520   -1.2639   -1.1747 H   0  0  0  0  0  0  0  0  0  0  0  0
   -7.0401    0.6935   -1.9623 H   0  0  0  0  0  0  0  0  0  0  0  0
   -8.5631   -0.0449   -1.4494 H   0  0  0  0  0  0  0  0  0  0  0  0
   -8.2618    2.2294   -0.5604 H   0  0  0  0  0  0  0  0  0  0  0  0
   -8.6940    0.9648    0.6047 H   0  0  0  0  0  0  0  0  0  0  0  0
   -6.1979    2.6884    0.3956 H   0  0  0  0  0  0  0  0  0  0  0  0
   -7.0826    2.0578    1.7992 H   0  0  0  0  0  0  0  0  0  0  0  0
    2.0512    0.1134   -2.4148 H   0  0  0  0  0  0  0  0  0  0  0  0
    8.8462   -1.5409    1.0785 H   0  0  0  0  0  0  0  0  0  0  0  0
    8.6526   -0.3585   -0.2206 H   0  0  0  0  0  0  0  0  0  0  0  0
    8.1733   -2.0466   -0.5583 H   0  0  0  0  0  0  0  0  0  0  0  0
    7.9917    3.2868    0.0402 H   0  0  0  0  0  0  0  0  0  0  0  0
    6.3438    3.4053   -0.5845 H   0  0  0  0  0  0  0  0  0  0  0  0
    7.5773    2.3052   -1.3875 H   0  0  0  0  0  0  0  0  0  0  0  0
    6.6278   -0.6591   -1.2948 H   0  0  0  0  0  0  0  0  0  0  0  0
    5.5336    1.3481   -1.2166 H   0  0  0  0  0  0  0  0  0  0  0  0
    4.6355    0.2334    1.4648 H   0  0  0  0  0  0  0  0  0  0  0  0
    4.4665    2.0165    1.1754 H   0  0  0  0  0  0  0  0  0  0  0  0
    3.0262    1.4926   -0.8334 H   0  0  0  0  0  0  0  0  0  0  0  0
    4.0877   -0.2124   -1.9331 H   0  0  0  0  0  0  0  0  0  0  0  0
    4.5637   -1.7767    0.6741 H   0  0  0  0  0  0  0  0  0  0  0  0
    4.9996   -2.2244   -1.0276 H   0  0  0  0  0  0  0  0  0  0  0  0
    2.6786   -2.4009   -1.1983 H   0  0  0  0  0  0  0  0  0  0  0  0
    2.3515   -1.7939    0.9120 H   0  0  0  0  0  0  0  0  0  0  0  0
    2.6038    0.1868    1.7876 H   0  0  0  0  0  0  0  0  0  0  0  0
    1.4513    1.0555    0.8017 H   0  0  0  0  0  0  0  0  0  0  0  0
    0.3041   -2.5990    0.4602 H   0  0  0  0  0  0  0  0  0  0  0  0
    0.0735   -1.1754    1.4519 H   0  0  0  0  0  0  0  0  0  0  0  0
   -0.7150   -1.5069   -1.5022 H   0  0  0  0  0  0  0  0  0  0  0  0
   -1.9815   -2.7897   -0.1970 H   0  0  0  0  0  0  0  0  0  0  0  0
   -1.8961   -1.7504    1.2415 H   0  0  0  0  0  0  0  0  0  0  0  0
   -4.0499   -1.8284   -0.1139 H   0  0  0  0  0  0  0  0  0  0  0  0
   -3.1860   -1.0689   -1.4507 H   0  0  0  0  0  0  0  0  0  0  0  0
   -2.2173    1.8897    0.5049 H   0  0  0  0  0  0  0  0  0  0  0  0
   -1.7664    0.4691    1.5523 H   0  0  0  0  0  0  0  0  0  0  0  0
   -1.7496    0.5914   -1.4844 H   0  0  0  0  0  0  0  0  0  0  0  0
   -0.3141    1.1286   -0.5822 H   0  0  0  0  0  0  0  0  0  0  0  0
   -4.1642    2.0491    0.2922 H   0  0  0  0  0  0  0  0  0  0  0  0
   -4.9046    0.9802   -0.9069 H   0  0  0  0  0  0  0  0  0  0  0  0
   -5.3523    0.7311    2.1148 H   0  0  0  0  0  0  0  0  0  0  0  0
   -7.3015   -0.5323    1.4910 H   0  0  0  0  0  0  0  0  0  0  0  0
   -5.8515   -1.5111    1.2828 H   0  0  0  0  0  0  0  0  0  0  0  0
   -7.5673   -1.7750   -0.4179 H   0  0  0  0  0  0  0  0  0  0  0  0
   -6.0520   -1.2639   -1.1747 H   0  0  0  0  0  0  0  0  0  0  0  0
   -7.0401    0.6935   -1.9623 H   0  0  0  0  0  0  0  0  0  0  0  0
   -8.5631   -0.0449   -1.4494 H   0  0  0  0  0  0  0  0  0  0  0  0
   -8.2618    2.2294   -0.5604 H   0  0  0  0  0  0  0  0  0  0  0  0
   -8.6940    0.9648    0.6047 H   0  0  0  0  0  0  0  0  0  0  0  0
   -6.1979    2.6884    0.3956 H   0  0  0  0  0  0  0  0  0  0  0  0
   -7.0826    2.0578    1.7992 H   0  0  0  0  0  0  0  0  0  0  0  0
    2.0512    0.1134   -2.4148 H   0  0  0  0  0  0  0  0  0  0  0  0
    8.8462   -1.5409    1.0785 H   0  0  0  0  0  0  0  0  0  0  0  0
    8.6526   -0.3585   -0.2206 H   0  0  0  0  0  0  0  0  0  0  0  0
    8.1733   -2.0466   -0.5583 H   0  0  0  0  0  0  0  0  0  0  0  0
    7.9917    3.2868    0.0402 H   0  0  0  0  0  0  0  0  0  0  0  0
    6.3438    3.4053   -0.5845 H   0  0  0  0  0  0  0  0  0  0  0  0
    7.5773    2.3052   -1.3875 H   0  0  0  0  0  0  0  0  0  0  0  0
  1  2  1  0
  2  3  1  0
  3  4  1  0
  4  5  1  0
  1  6  1  0
  5  6  1  0
  5  7  1  0
  7  8  1  0
  4  9  1  0
  8  9  1  0
  8 10  1  0
 10 11  1  0
 11 12  1  0
 12 13  1  0
 13 14  1  0
 14 15  1  0
 11 16  1  0
 15 16  1  0
 14 17  1  0
 17 18  1  0
 18 19  1  0
 19 20  1  0
 20 21  1  0
 21 22  1  0
 18 23  1  0
 22 23  1  0
  7 24  1  0
  1 25  1  0
 25 26  1  0
  2 27  1  0
 27 28  1  0
 29 30  1  0
 30 31  1  0
 31 32  1  0
 32 33  1  0
 29 34  1  0
 33 34  1  0
 33 35  1  0
 35 36  1  0
 32 37  1  0
 36 37  1  0
 36 38  1  0
 38 39  1  0
 39 40  1  0
 40 41  1  0
 41 42  1  0
 42 43  1  0
 39 44  1  0
 43 44  1  0
 42 45  1  0
 45 46  1  0
 46 47  1  0
 47 48  1  0
 48 49  1  0
 49 50  1  0
 46 51  1  0
 50 51  1  0
 35 52  1  0
 29 53  1  0
 53 54  1  0
 30 55  1  0
 55 56  1  0
  1 57  1  0
  2 58  1  0
  3 59  1  0
  3 60  1  0
  4 61  1  0
  5 62  1  0
  6 63  1  0
  6 64  1  0
  7 65  1  0
  8 66  1  1
  9 67  1  0
  9 68  1  0
 10 69  1  0
 10 70  1  0
 11 71  1  0
 12 72  1  0
 12 73  1  0
 13 74  1  0
 13 75  1  0
 15 76  1  0
 15 77  1  0
 16 78  1  0
 16 79  1  0
 17 80  1  0
 17 81  1  0
 18 82  1  0
 19 83  1  0
 19 84  1  0
 20 85  1  0
 20 86  1  0
 21 87  1  0
 21 88  1  0
 22 89  1  0
 22 90  1  0
 23 91  1  0
 23 92  1  0
 24 93  1  0
 26 94  1  0
 26 95  1  0
 26 96  1  0
 28 97  1  0
 28 98  1  0
 28 99  1  0
 29100  1  0
 30101  1  0
 31102  1  0
 31103  1  0
 32104  1  0
 33105  1  0
 34106  1  0
 34107  1  0
 35108  1  0
 36109  1  1
 37110  1  0
 37111  1  0
 38112  1  0
 38113  1  0
 39114  1  0
 40115  1  0
 40116  1  0
 41117  1  0
 41118  1  0
 43119  1  0
 43120  1  0
 44121  1  0
 44122  1  0
 45123  1  0
 45124  1  0
 46125  1  0
 47126  1  0
 47127  1  0
 48128  1  0
 48129  1  0
 49130  1  0
 49131  1  0
 50132  1  0
 50133  1  0
 51134  1  0
 51135  1  0
 52136  1  0
 54137  1  0
 54138  1  0
 54139  1  0
 56140  1  0
 56141  1  0
 56142  1  0
M  END
>  <PDBID>  (1) 
4EY7

>  <PDB ID>  (1) 
4EY7

>  <Generic Name>  (1) 
Donepezil

>  <Brand Name>  (1) 
Accel-donepezil#Act Donepezil#Act Donepezil ODT#Ag-donepezil#Apo-donepezil#Aricept#Aricept ODT#Aricept Rdt#Auro-donepezil#Bio-donepezil#Dom-donepezil#Donepezil#Donepezil Hydrochloride#Donepezil Hydrochloride 10 mg#Donepezil Hydrochloride 10mg#Donepezil Hydrochloride 5 mg#Donepezil Hydrochloride ODT#Donepezil Hydrochloride Tablets#Donepezil Hydrochloride Tablets USP#Donepezil Hyrochloride 5mg#Ecl-donepezil#Ipg-donepezil#Jamp-donepezil#Jamp-donepezil Tablets#Mar-donepezil#Mint-donepezil#Mylan-donepezil#Namzaric#Nat-donepezil#PMS-donepezil#Priva-donepezil#Ran-donepezil#Riva-donepezil#Sandoz Donepezil#Sandoz Donepezil ODT#Septa Donepezil#Teva-donepezil#Van-donepezil#Alzepil#Davia#Depzil#Donecept#Donecil#Donep#Donepex#Donesyn#Dopezil#Eranz#Memac#Nomi-Nox#Pezale#Redumas#Zolpezil

>  <DrugBank ID>  (1) 
DB00843

>  <ATC Codes>  (1) 
N06DA02#N06DA52#N06DA53

>  <Ligand ID>  (1) 
E20

>  <Target Name>  (1) 
Acetylcholinesterase

>  <UniProt ID>  (1) 
P22303

>  <PDB ID.1>  (1) 
4EY7

>  <Seq. Identity>  (1) 
97%

$$$$
