PDB_DB01050_03
     RDKit          3D

 82 82  0  0  0  0  0  0  0  0999 V2000
   -3.6337    0.0826    1.2066 C   0  0  0  0  0  0  0  0  0  0  0  0
    2.5273   -0.4441   -0.7747 C   0  0  0  0  0  0  0  0  0  0  0  0
    2.8960    0.8153   -0.1339 C   0  0  0  0  0  0  0  0  0  0  0  0
    2.7538    0.7897    1.3644 C   0  0  0  0  0  0  0  0  0  0  0  0
    4.4033    1.0422   -0.3773 C   0  0  0  0  0  0  0  0  0  0  0  0
   -2.8727    0.0225   -0.0897 C   0  0  1  0  0  0  0  0  0  0  0  0
   -2.4914    1.4421   -0.4795 C   0  0  0  0  0  0  0  0  0  0  0  0
   -1.7134   -0.9000   -0.0778 C   0  0  0  0  0  0  0  0  0  0  0  0
   -0.6618   -0.5646    0.9518 C   0  0  0  0  0  0  0  0  0  0  0  0
    0.5991   -1.3616    0.6287 C   0  0  0  0  0  0  0  0  0  0  0  0
    1.1773   -1.0031   -0.6686 C   0  0  0  0  0  0  0  0  0  0  0  0
    0.1635   -0.1013   -1.4073 C   0  0  0  0  0  0  0  0  0  0  0  0
   -1.1091   -0.8811   -1.4870 C   0  0  0  0  0  0  0  0  0  0  0  0
   -4.0063   -1.2139    1.6039 O   0  0  0  0  0  0  0  0  0  0  0  0
   -2.9934    0.7822    2.2002 O   0  0  0  0  0  0  0  0  0  0  0  0
   -3.6337    0.0826    1.2066 C   0  0  0  0  0  0  0  0  0  0  0  0
    2.5273   -0.4441   -0.7747 C   0  0  0  0  0  0  0  0  0  0  0  0
    2.8960    0.8153   -0.1339 C   0  0  0  0  0  0  0  0  0  0  0  0
    2.7538    0.7897    1.3644 C   0  0  0  0  0  0  0  0  0  0  0  0
    4.4033    1.0422   -0.3773 C   0  0  0  0  0  0  0  0  0  0  0  0
   -2.8727    0.0225   -0.0897 C   0  0  1  0  0  0  0  0  0  0  0  0
   -2.4914    1.4421   -0.4795 C   0  0  0  0  0  0  0  0  0  0  0  0
   -1.7134   -0.9000   -0.0778 C   0  0  0  0  0  0  0  0  0  0  0  0
   -0.6618   -0.5646    0.9518 C   0  0  0  0  0  0  0  0  0  0  0  0
    0.5991   -1.3616    0.6287 C   0  0  0  0  0  0  0  0  0  0  0  0
    1.1773   -1.0031   -0.6686 C   0  0  0  0  0  0  0  0  0  0  0  0
    0.1635   -0.1013   -1.4073 C   0  0  0  0  0  0  0  0  0  0  0  0
   -1.1091   -0.8811   -1.4870 C   0  0  0  0  0  0  0  0  0  0  0  0
   -4.0063   -1.2139    1.6039 O   0  0  0  0  0  0  0  0  0  0  0  0
   -2.9934    0.7822    2.2002 O   0  0  0  0  0  0  0  0  0  0  0  0
   -4.5949    0.6078    0.9891 H   0  0  0  0  0  0  0  0  0  0  0  0
    3.2775   -1.2410   -0.4607 H   0  0  0  0  0  0  0  0  0  0  0  0
    2.7516   -0.3680   -1.8897 H   0  0  0  0  0  0  0  0  0  0  0  0
    2.4345    1.7275   -0.5795 H   0  0  0  0  0  0  0  0  0  0  0  0
    3.4435    1.5811    1.8225 H   0  0  0  0  0  0  0  0  0  0  0  0
    1.7408    0.9350    1.7435 H   0  0  0  0  0  0  0  0  0  0  0  0
    3.2420   -0.1584    1.7150 H   0  0  0  0  0  0  0  0  0  0  0  0
    4.6267    1.1305   -1.4437 H   0  0  0  0  0  0  0  0  0  0  0  0
    4.8916    0.0914   -0.0250 H   0  0  0  0  0  0  0  0  0  0  0  0
    4.7903    1.8516    0.2511 H   0  0  0  0  0  0  0  0  0  0  0  0
   -3.5821   -0.3272   -0.8667 H   0  0  0  0  0  0  0  0  0  0  0  0
   -3.3944    2.0862   -0.4710 H   0  0  0  0  0  0  0  0  0  0  0  0
   -1.7877    1.9005    0.2490 H   0  0  0  0  0  0  0  0  0  0  0  0
   -2.1063    1.4913   -1.5300 H   0  0  0  0  0  0  0  0  0  0  0  0
   -2.0822   -1.9205    0.1467 H   0  0  0  0  0  0  0  0  0  0  0  0
   -0.4960    0.4958    1.1126 H   0  0  0  0  0  0  0  0  0  0  0  0
   -1.0311   -0.9857    1.9215 H   0  0  0  0  0  0  0  0  0  0  0  0
    1.2329   -1.3475    1.5144 H   0  0  0  0  0  0  0  0  0  0  0  0
    0.2423   -2.4501    0.5814 H   0  0  0  0  0  0  0  0  0  0  0  0
    1.1874   -1.9498   -1.3150 H   0  0  0  0  0  0  0  0  0  0  0  0
    0.5590    0.1686   -2.4077 H   0  0  0  0  0  0  0  0  0  0  0  0
    0.0747    0.8109   -0.7991 H   0  0  0  0  0  0  0  0  0  0  0  0
   -1.8308   -0.5001   -2.2330 H   0  0  0  0  0  0  0  0  0  0  0  0
   -0.8490   -1.9302   -1.7557 H   0  0  0  0  0  0  0  0  0  0  0  0
   -4.2143   -1.6939    0.7528 H   0  0  0  0  0  0  0  0  0  0  0  0
   -3.5645    1.4875    2.5895 H   0  0  0  0  0  0  0  0  0  0  0  0
   -4.5949    0.6078    0.9891 H   0  0  0  0  0  0  0  0  0  0  0  0
    3.2775   -1.2410   -0.4607 H   0  0  0  0  0  0  0  0  0  0  0  0
    2.7516   -0.3680   -1.8897 H   0  0  0  0  0  0  0  0  0  0  0  0
    2.4345    1.7275   -0.5795 H   0  0  0  0  0  0  0  0  0  0  0  0
    3.4435    1.5811    1.8225 H   0  0  0  0  0  0  0  0  0  0  0  0
    1.7408    0.9350    1.7435 H   0  0  0  0  0  0  0  0  0  0  0  0
    3.2420   -0.1584    1.7150 H   0  0  0  0  0  0  0  0  0  0  0  0
    4.6267    1.1305   -1.4437 H   0  0  0  0  0  0  0  0  0  0  0  0
    4.8916    0.0914   -0.0250 H   0  0  0  0  0  0  0  0  0  0  0  0
    4.7903    1.8516    0.2511 H   0  0  0  0  0  0  0  0  0  0  0  0
   -3.5821   -0.3272   -0.8667 H   0  0  0  0  0  0  0  0  0  0  0  0
   -3.3944    2.0862   -0.4710 H   0  0  0  0  0  0  0  0  0  0  0  0
   -1.7877    1.9005    0.2490 H   0  0  0  0  0  0  0  0  0  0  0  0
   -2.1063    1.4913   -1.5300 H   0  0  0  0  0  0  0  0  0  0  0  0
   -2.0822   -1.9205    0.1467 H   0  0  0  0  0  0  0  0  0  0  0  0
   -0.4960    0.4958    1.1126 H   0  0  0  0  0  0  0  0  0  0  0  0
   -1.0311   -0.9857    1.9215 H   0  0  0  0  0  0  0  0  0  0  0  0
    1.2329   -1.3475    1.5144 H   0  0  0  0  0  0  0  0  0  0  0  0
    0.2423   -2.4501    0.5814 H   0  0  0  0  0  0  0  0  0  0  0  0
    1.1874   -1.9498   -1.3150 H   0  0  0  0  0  0  0  0  0  0  0  0
    0.5590    0.1686   -2.4077 H   0  0  0  0  0  0  0  0  0  0  0  0
    0.0747    0.8109   -0.7991 H   0  0  0  0  0  0  0  0  0  0  0  0
   -1.8308   -0.5001   -2.2330 H   0  0  0  0  0  0  0  0  0  0  0  0
   -0.8490   -1.9302   -1.7557 H   0  0  0  0  0  0  0  0  0  0  0  0
   -4.2143   -1.6939    0.7528 H   0  0  0  0  0  0  0  0  0  0  0  0
   -3.5645    1.4875    2.5895 H   0  0  0  0  0  0  0  0  0  0  0  0
  2  3  1  0
  3  4  1  0
  3  5  1  0
  1  6  1  0
  6  7  1  0
  6  8  1  0
  8  9  1  0
  9 10  1  0
  2 11  1  0
 10 11  1  0
 11 12  1  0
  8 13  1  0
 12 13  1  0
  1 14  1  0
  1 15  1  0
 17 18  1  0
 18 19  1  0
 18 20  1  0
 16 21  1  0
 21 22  1  0
 21 23  1  0
 23 24  1  0
 24 25  1  0
 17 26  1  0
 25 26  1  0
 26 27  1  0
 23 28  1  0
 27 28  1  0
 16 29  1  0
 16 30  1  0
  1 31  1  0
  2 32  1  0
  2 33  1  0
  3 34  1  0
  4 35  1  0
  4 36  1  0
  4 37  1  0
  5 38  1  0
  5 39  1  0
  5 40  1  0
  6 41  1  6
  7 42  1  0
  7 43  1  0
  7 44  1  0
  8 45  1  0
  9 46  1  0
  9 47  1  0
 10 48  1  0
 10 49  1  0
 11 50  1  0
 12 51  1  0
 12 52  1  0
 13 53  1  0
 13 54  1  0
 14 55  1  0
 15 56  1  0
 16 57  1  0
 17 58  1  0
 17 59  1  0
 18 60  1  0
 19 61  1  0
 19 62  1  0
 19 63  1  0
 20 64  1  0
 20 65  1  0
 20 66  1  0
 21 67  1  6
 22 68  1  0
 22 69  1  0
 22 70  1  0
 23 71  1  0
 24 72  1  0
 24 73  1  0
 25 74  1  0
 25 75  1  0
 26 76  1  0
 27 77  1  0
 27 78  1  0
 28 79  1  0
 28 80  1  0
 29 81  1  0
 30 82  1  0
M  END
>  <PDBID>  (1) 
1EQG

>  <PDB ID>  (1) 
1EQG

>  <Generic Name>  (1) 
Ibuprofen

>  <Brand Name>  (1) 
10 Person Ansi#25 Person Ansi#50 Person Ansi#7 Select Childrens Ibuprofen#7 Select Ibuprofen#7 Select Ibuprofen PM#7-select Advil PM#Actiprofen - Caplet 200mg#Advil#Advil 12 Hour#Advil Allergy Sinus#Advil Allergy and Congestion Relief#Advil Arthritis Pain#Advil Back Pain#Advil Caplets#Advil Cold & Flu#Advil Cold & Sinus Convenience Pack#Advil Cold & Sinus Liqui-gels#Advil Cold & Sinus PE#Advil Cold and Sinus#Advil Cold and Sinus Daytime#Advil Cold and Sinus Nighttime#Advil Cold and Sinus Plus#Advil Cold, Cough & Flu Nighttime#Advil Congestion Relief#Advil Day/night Convenience Pack#Advil Extra Strength Caplets#Advil Extra Strength Liqui-gels#Advil Gel Caplets#Advil Headache & Migraine Pain Caplets#Advil Headache & Migraine Pain Extra Strength Caplets#Advil Headache & Migraine Pain Tablets#Advil Liqui-gels#Advil Liquigels#Advil Menstrual Pain#Advil Migraine#Advil Muscle and Joint#Advil Nighttime#Advil PM#Advil Pain & Head Cold Night#Advil Pediatric Drops#Advil Pediatric Drops Fever From Colds Or Flu#Advil Sinus Congestion and Pain#Advil Sinus Congestion and Pain Relief#Advil Tablets#Alivio#Alti-ibuprofen Tab 300mg#Alti-ibuprofen Tab 400mg#Alti-ibuprofen Tab 600mg#Analgesic and Muscle Relaxant#Analgesic and Muscle Relaxant Caplets#Apo Ibuprofen Tab 300mg#Apo Ibuprofen Tab 400mg#Apo Ibuprofen Tab 600mg#Apo-ibuprofen Tab 200mg#Aprofen Regular Strength#Army and Airforce Exchange Ibuprofen PM#Assured Ibuprofen#Auto 157#Axum#Babies R Us Ibuprofen#Babies R Us Infants Ibuprofen#Being Well Ibuprofen#Berkley and Jensen Childrens Ibuprofen#Berkley and Jensen Ibuprofen#Berkley and Jensen Ibuprofen Childrens Dye Free#Berkley and Jensen Ibuprofen PM#Caldolor#Care One Ibuprofen#Care One Ibuprofen Childrens#Care One Ibuprofen Cold and Sinus#Care One Ibuprofen Ib#Care One Ibuprofen Infants#Care One Ibuprofen Junior Strength#Care One Ibuprofen PM#Careall Ibuprofen#Careone Ibuprofen#Careone Ibuprofen Junior Strength#Careone Ibuprofen PM#Cedaprin#Children's Advil#Children's Advil Chewable Tablets#Children's Advil Cold#Children's Advil Cold & Flu Multi-symptom#Children's Advil Fever From Colds Or Flu#Children's Europrofen#Children's Ibuprofen Suspension#Children's Motrin#Children's Motrin Chewable Tablet 50mg#Children's Motrin Chewable Tablets#Children's Motrin Cold#Children's Motrin Suspension#Childrens Advil#Childrens Advil Cold#Childrens Ibuprofen#Childrens Ibuprofen 100#Childrens Ibuprofen 100 Dye Free#Childrens Ibuprofen Oral Suspension#Childrens Motrin#Circle K Ibuprofen#Clear Choice Ibuprofen#Codofen#Cold & Sinus Relief Capsules#Cold + Sinus#Cold + Sinus Caplets#Cold + Sinus Daytime#Cold + Sinus Daytime Cold + Sinus Nighttime#Cold + Sinus Nighttime#Cold + Sinus Plus#Cold and Sinus Pain Relief#Cold and Sinus Plus#Cold and Sinus Relief#Comfort Pac With Ibuprofen#Concentrated Ibuprofen#Congestion Relief#Counteract Ib#Cvs Ibuprofen Sodium#Cvs Pharmacy Ibuprofen#Dg Health Childrens Ibuprofen#Dg Health Ibuprofen#Dg Health Ibuprofen PM#Dimetapp Cold and Sinus Caplets#Direct Safety Ibuprofen#Dolex#Dover Addaprin#Dragon Tabs#Dristan Sinus Caplets#Duexis#Dye Free Childrens Ibuprofen#Dye Free Ibuprofen#Easy Care First Aid Kit - Comprehensive#Equaline Childrens Ibuprofen#Equaline Congestion Relief#Equaline Ibuprofen#Equaline Ibuprofen Childrens#Equaline Ibuprofen Cold and Sinus#Equaline Ibuprofen PM#Equate Ibuprofen#Equate Ibuprofen Childrens#Equate Ibuprofen Cold and Sinus#Equate Ibuprofen PM#Extra Strength Ibuprofen#Extra Strength Ibuprofen Liquid Capsules#Extra Strength Ibuprofen Liquid Filled Capsules#Extra Strength Ibuprofen Liquid Gel Capsules#Family Wellness Childrens Ibuprofen#Fast Pain Relief#Flex-prin#Formu Care Ibuprofen#Formu Care Ibuprofen Childrens#Fulton Street Market Ibuprofen#Genuine First Aid - Auto First Aid#Genuine First Aid - Home First Aid#Genuine First Aid Industrial First Aid#Gfa First Aid Kit Essentials - 33 Pieces#Good Neighbor Pharmacy Childrens Ibuprofen#Good Neighbor Pharmacy Childrens Ibuprofen Cold#Good Neighbor Pharmacy Congestion Relief#Good Neighbor Pharmacy Ibuprofen#Good Neighbor Pharmacy Ibuprofen Childrens#Good Neighbor Pharmacy Ibuprofen Cold and Sinus#Good Neighbor Pharmacy Ibuprofen PM#Good Sense Childrens Ibuprofen Oral Suspension#Good Sense Ibuprofen#Good Sense Ibuprofen Childrens#Good Sense Ibuprofen Cold and Sinus#Good Sense Ibuprofen Infants#Good Sense Ibuprofen PM#Good Sense Infants Ibuprofen#Green Guard Ibupro Relief#Green Guard Ibuprofen Relief#Handy Solutions Ibuprofen#Harmon Face Values Ibuprofen#Harris Teeter Childrens Ibuprofen#Harris Teeter Ibuprofen#Harris Teeter Ibuprofen Infants#Harris Teeter Ibuprofen PM#Health Mart Childrens Ibuprofen#Health Mart Ibuprofen#Health Mart Ibuprofen Ib#Health Sense Infants Ibuprofen Oral Suspension#Health Sense Provil#Healthy Accents Congestion Relief#Healthy Accents Ibuprofen#Healthy Accents Ibuprofen Childrens#Healthy Accents Ibuprofen Infants#Healthy Accents Ibuprofen PM#Help I Have An Aching Body#Henry Schein Ibuprofen#Humana Pharmacy Childrens Ibuprofen#Humana Pharmacy Ibuprofen#Hydrocodone Bitartrate#Hydrocodone Bitartrate and Ibuprofen#Ibu#Ibu Profen Cold and Sinus#Ibucodone#Ibudone#Ibuprofen#Ibuprofen  -  Tab 200mg#Ibuprofen (nsaid) Pain Releiver/ Fever Reducer#Ibuprofen + Pseudoephedrine Caplets#Ibuprofen 200#Ibuprofen 200 mg#Ibuprofen Caplet#Ibuprofen Caplets#Ibuprofen Caplets 200 mg#Ibuprofen Capsules, 200mg#Ibuprofen Capsules, 400mg#Ibuprofen Childrens#Ibuprofen Cold Childrens#Ibuprofen Cold Relief Childrens#Ibuprofen Cold and Sinus#Ibuprofen Cold and Sinus A P J#Ibuprofen Daytime#Ibuprofen Daytime, Ibuprofen Nighttime#Ibuprofen Dye Free#Ibuprofen Dye-free#Ibuprofen Extra Strength Caplets#Ibuprofen Fast Relief Medicine for Pain#Ibuprofen Ib#Ibuprofen Immediate Release#Ibuprofen Infants#Ibuprofen Junior#Ibuprofen Junior Strength#Ibuprofen Liqui-gels#Ibuprofen Liquid Capsules#Ibuprofen Liquid Filled Capsules#Ibuprofen Liquid Gel Capsules#Ibuprofen Lysine#Ibuprofen Menstrual Pain Relief#Ibuprofen Muscle and Joint#Ibuprofen Nighttime#Ibuprofen Oral Suspension USP#Ibuprofen PM#Ibuprofen Pain Releiver/ Fever Reducer#Ibuprofen Pain Reliever/ Fever Reducer#Ibuprofen Pain Reliever/fever Reducer#Ibuprofen Sodium#Ibuprofen Softgels#Ibuprofen Tab 200mg#Ibuprofen Tab 300mg#Ibuprofen Tab 400mg#Ibuprofen Tablets#Ibuprofen Tablets 200 mg#Ibuprofen and Diphenhydramine Citrate#Ibuprofen and Diphenhydramine HCl#Ibuprofen and Pseudoephedrine#Ibuprofen and Pseudoephedrine Hydrochloride#Ibuprofen+methocarbamol Caplets#Ibuprofen-600 Tab 600mg#Ibutab#Infant's Motrin Suspension Drops#Infants Advil#Infants Dye-free Ibuprofen#Infants Ibuprofen#Infants Motrin#Jamp-ibuprofen#Junior Strength Advil#Junior Strength Advil Fever From Colds Or Flu#Junior Strength Ibuprofen#Junior Strength Motrin Caplets#Junior Strength Motrin Chewable Tablet 100mg#Junior Strength Motrin Chewable Tablets#Kirkland Signature Ibuprofen#Kirkland Signature Ibuprofen Ib#Leader Childrens Ibuprofen#Leader Congestion Relief#Leader Ibuprofen#Leader Ibuprofen 200#Leader Ibuprofen Childrens#Leader Ibuprofen Cold Childrens#Leader Ibuprofen Cold and Sinus#Leader Ibuprofen Infants#Leader Ibuprofen PM#Lil Drug Store Ibuprofen#Major Childrens Ibuprofen#Medi-first Ibuprofen#Medi-first Plus Ibuprofen#Medipren Tab 200mg#Medique I-prin#Medique Iprin#Members Mark Ibuprofen#Midol#Moore Medical Llc Ibuprofen#Moorebrand Ibuprofen#Motrin 200mg#Motrin 300mg#Motrin 400mg#Motrin Caplet#Motrin Cold & Sinus Caplets#Motrin Cold & Sinus Pain#Motrin Gelcaps#Motrin Ib#Motrin Ib Caplet/tab 200mg#Motrin Ib Caplets 200mg#Motrin Ib Menstrual Pain#Motrin Infants#Motrin Liquid Gels 200mg#Motrin PM#Motrin Platinum Muscle and Body#Motrin Tablets 300mg#Motrin Tablets 400mg#Motrin Tablets 600mg#Mountain Series Weekender Medical#Muscle & Back Pain Relief With Ibuprofen#Muscle & Joint#Muscle Relaxant and Analgesic Caplets#Muscle and Back Pain Platinum Relief#Neoprofen#Nighttime Cold, Cough & Flu#Nighttime Pain Relief#Nighttime Pain Reliever#Novo-profen#Nu-ibuprofen Tab 300mg#Nu-ibuprofen Tab 400mg#Nu-ibuprofen Tab 600mg#Nuprin Immediate Release#Otis Clapp Ultraprin#Oxycodone Hydrochloride and Ibuprofen#PMS-ibuprofen#PMS-ibuprofen           (caplets)#Pain Relief#Pain Relief Anti Inflammatory#Pain Relief Ibuprofen#Pamprin Ibuprofen Formula#Pediacare Childrens#Pediacare Infants#Pendo-ibuprofen#Pendo-ibuprofen     (200mg Caplet)#Pendo-ibuprofen Es#Perrigo Ibuprofen#Physicians Care Ibuprofen#Physicianscare Ibuprofen#Platinum Muscle and Back Pain Relief#Prastera#Preferred Plus Congestion Relief#Preferred Plus Ibuprofen#Preferred Plus Ibuprofen 200#Premier Value Infants Ibuprofen#Probufen#Profen Ib#Profen Ib Childrens#Profen Ib Infants#Proprinal#Quality Choice Ibuprofen 200#Ready America First Aid Outdoor- 107 Pieces#Ready America First Aid Pocket - 33 Pieces#Redicare Ibuprofen#Regular Ibuprofen#Regular Strength Analgesic & Muscle Relaxant Caplets#Reprexain#Rexall Ibuprofen#Robax Platinum#Rugby Congestion Relief#Rx Act Ibuprofen#Rx Act Ibuprofen Childrens#Rx Act Ibuprofen PM#Shoprite Childrens Ibuprofen#Shoprite Ibuprofen#Shoprite Ibuprofen Ib#Shoprite Ibuprofen PM#Shoprite Infants Ibuprofen#Signature Care Childrens Ibuprofen#Signature Care Ibuprofen#Signature Care Ibuprofen Childrens#Signature Care Ibuprofen PM#Signature Care Infants Ibuprofen#Simply Right Ibuprofen#Smart Sense Ibuprofen#Smart Sense Ibuprofen Gluten Free#Smart Sense Ibuprofen Infants#Smart Sense Ibuprofen PM#Sound Body Childrens Ibuprofen#Sound Body Ibuprofen#Sudafed Sinus Advance#Summit Ultra#Sunmark Ibuprofen#Sunmark Ibuprofen Childrens#Sunmark Ibuprofen Cold and Sinus#Sunmark Ibuprofen Ib#Sunmark Ibuprofen Infants#Sunmark Ibuprofen PM#Super Strength Motrin Ib Liquid Gels#Super Strength Motrin Ib Liquid Gels Capsules#Super Strength Motrin Ib Menstrual Pain#Theraprofen-60#Theraprofen-800#Theraprofen-90#Topcare Childrens Ibuprofen#Topcare Congestion Relief#Topcare Ibuprofen#Topcare Ibuprofen Childrens#Topcare Ibuprofen Cold and Sinus#Topcare Ibuprofen Junior Strength#Topcare Ibuprofen PM#Topcare Infants Ibuprofen#Up and Up Childrens Ibuprofen#Up and Up Childrens Ibuprofen Oral Suspension#Up and Up Cold and Sinus#Up and Up Dye Free Infants Concentrated Ibuprofen#Up and Up Ibuprofen#Up and Up Ibuprofen Junior#Up and Up Ibuprofen PM#Up and Up Ibuprofen Sodium#Up and Up Junior Strength Ibuprofen#Vicks Dayquil Sinus Pr.and Pain ReL.W.ibupr.#Vicoprofen#Wal Profen Cold and Sinus#Welby Health Ibuprofen#Welby Ibuprofen#Welby Infants Ibuprofen#Xylon 10#Zee Ibutab#Act-3#Actiprofen#Adex#Adran#Aktren#Alges-X#Algoflex#Algofren#Alivium#Artofen#Betagesic#Betaprofen#Bluton#Bonifen#Brufen#Buburone#Bugesic#Buprovil#Burana#Butylenin#Calprofen#Cap-Profen#Children's Elixsure#Children's Ibuprofen#Dalsy#Dismenol#Diverin#Dolgirid#Dolgit#Dolofort#Doloraz#Dolormin#Dorival#Ebufac#EmuProfen#Epobron#Espidifen#Eve#Femadon#Fenbid#Fenpaed#Finalflex#Galprofen#Haltran#Herron Blue#IBU-Ratiopharm#Ibalgin#Ibu-Attritin#Ibu-Vivimed#IbuHEXAL#Ibuflam#Ibugel#Ibugesic#Ibuleve#Ibum#Ibumax#Ibumetin#Ibumidol#Ibupain#Ibuprocin#Ibuprom#Ibuprosyn#Ibuprox#Ibustar#Ibutid#Ibux#Ibuxin#Inabrin#Inoven#Ipren#Junior Strength Motrin#Kratalgin#Lamidon#Lebrufen#Liptan#Lotem#Medicol#Medipren#Midol IB#Motrin#Mynosedin#Mypaid#Myprodol#Narfen#Naron Ace#Neobrufen#Nobfen#Nobgen#Norvectan#Nuprin#Nureflex#Nurofen#Orbifen#Panafen#Pediaprofen#Perifar#Profin#Ranfen#Rapidol#Ratiodolor#Rimafen#Roidenin#Rufen#Salvarina#Seclodin#Solpaflex#Speedpain NANO#Spidifen#Suspren#Tabalon#Tefin#Trendar#Unafen#Upfen#Urem#i-profen

>  <DrugBank ID>  (1) 
DB01050

>  <ATC Codes>  (1) 
M02AA13#R02AX02#C01EB16#M01AE51#M01AE01#G02CC01

>  <Ligand ID>  (1) 
IBP,IZP

>  <Target Name>  (1) 
Prostaglandin G/H synthase 1

>  <UniProt ID>  (1) 
P23219

>  <PDB ID.1>  (1) 
1EQG

>  <Seq. Identity>  (1) 
89%

$$$$
