PDB_DB06243_02
     RDKit          3D

 76 72  0  0  0  0  0  0  0  0999 V2000
    1.6679   -0.0551    0.5602 C   0  0  2  0  0  0  0  0  0  0  0  0
    2.0172    1.2586   -0.0120 C   0  0  0  0  0  0  0  0  0  0  0  0
    2.3719   -1.0919   -0.1932 N   0  0  0  0  0  0  0  0  0  0  0  0
    0.1968   -0.3310    0.6389 C   0  0  0  0  0  0  0  0  0  0  0  0
   -0.4930   -0.3094   -0.6888 C   0  0  0  0  0  0  0  0  0  0  0  0
   -1.9577   -0.6011   -0.4558 C   0  0  0  0  0  0  0  0  0  0  0  0
   -2.5376    0.4130    0.4251 N   0  0  0  0  0  0  0  0  0  0  0  0
    1.6799   -0.0755    0.5460 C   0  0  0  0  0  0  0  0  0  0  0  0
    1.9800    1.2934    0.0454 C   0  0  0  0  0  0  0  0  0  0  0  0
    2.2956   -1.0517   -0.3210 N   0  0  0  0  0  0  0  0  0  0  0  0
    0.2026   -0.3753    0.6538 C   0  0  0  0  0  0  0  0  0  0  0  0
   -0.4928   -0.2598   -0.6865 C   0  0  0  0  0  0  0  0  0  0  0  0
   -1.9460   -0.5751   -0.4692 C   0  0  0  0  0  0  0  0  0  0  0  0
   -2.5471    0.3579    0.4811 N   0  0  0  0  0  0  0  0  0  0  0  0
    1.6679   -0.0551    0.5602 C   0  0  2  0  0  0  0  0  0  0  0  0
    2.0172    1.2586   -0.0120 C   0  0  0  0  0  0  0  0  0  0  0  0
    2.3719   -1.0919   -0.1932 N   0  0  0  0  0  0  0  0  0  0  0  0
    0.1968   -0.3310    0.6389 C   0  0  0  0  0  0  0  0  0  0  0  0
   -0.4930   -0.3094   -0.6888 C   0  0  0  0  0  0  0  0  0  0  0  0
   -1.9577   -0.6011   -0.4558 C   0  0  0  0  0  0  0  0  0  0  0  0
   -2.5376    0.4130    0.4251 N   0  0  0  0  0  0  0  0  0  0  0  0
    1.6679   -0.0551    0.5602 C   0  0  2  0  0  0  0  0  0  0  0  0
    2.0172    1.2586   -0.0120 C   0  0  0  0  0  0  0  0  0  0  0  0
    2.3719   -1.0919   -0.1932 N   0  0  0  0  0  0  0  0  0  0  0  0
    0.1968   -0.3310    0.6389 C   0  0  0  0  0  0  0  0  0  0  0  0
   -0.4930   -0.3094   -0.6888 C   0  0  0  0  0  0  0  0  0  0  0  0
   -1.9577   -0.6011   -0.4558 C   0  0  0  0  0  0  0  0  0  0  0  0
   -2.5376    0.4130    0.4251 N   0  0  0  0  0  0  0  0  0  0  0  0
    2.0678   -0.1109    1.5990 H   0  0  0  0  0  0  0  0  0  0  0  0
    2.8221    1.2926   -0.7366 H   0  0  0  0  0  0  0  0  0  0  0  0
    1.8583    2.1340    0.6064 H   0  0  0  0  0  0  0  0  0  0  0  0
    3.1464   -0.6755   -0.7389 H   0  0  0  0  0  0  0  0  0  0  0  0
   -0.2610    0.4323    1.2819 H   0  0  0  0  0  0  0  0  0  0  0  0
    0.0439   -1.3359    1.0848 H   0  0  0  0  0  0  0  0  0  0  0  0
   -0.1052   -1.0956   -1.3776 H   0  0  0  0  0  0  0  0  0  0  0  0
   -0.3934    0.6551   -1.2065 H   0  0  0  0  0  0  0  0  0  0  0  0
   -2.5273   -0.6800   -1.4069 H   0  0  0  0  0  0  0  0  0  0  0  0
   -2.0748   -1.5795    0.0726 H   0  0  0  0  0  0  0  0  0  0  0  0
   -2.2827    1.3733    0.0596 H   0  0  0  0  0  0  0  0  0  0  0  0
   -3.5598    0.3070    0.4879 H   0  0  0  0  0  0  0  0  0  0  0  0
    2.1008   -0.1676    1.5697 H   0  0  0  0  0  0  0  0  0  0  0  0
    2.5043    1.3283   -0.9153 H   0  0  0  0  0  0  0  0  0  0  0  0
    2.3535    1.9896    0.7980 H   0  0  0  0  0  0  0  0  0  0  0  0
    3.1473   -0.6027   -0.7610 H   0  0  0  0  0  0  0  0  0  0  0  0
   -0.3095    0.2940    1.3556 H   0  0  0  0  0  0  0  0  0  0  0  0
    0.1177   -1.4395    0.9723 H   0  0  0  0  0  0  0  0  0  0  0  0
   -0.0781   -0.9575   -1.4264 H   0  0  0  0  0  0  0  0  0  0  0  0
   -0.4242    0.7768   -1.0603 H   0  0  0  0  0  0  0  0  0  0  0  0
   -2.5396   -0.4465   -1.4158 H   0  0  0  0  0  0  0  0  0  0  0  0
   -2.1245   -1.5838   -0.0897 H   0  0  0  0  0  0  0  0  0  0  0  0
   -2.3707    1.3106    0.1076 H   0  0  0  0  0  0  0  0  0  0  0  0
   -3.5491    0.1845    0.6154 H   0  0  0  0  0  0  0  0  0  0  0  0
    2.0678   -0.1109    1.5990 H   0  0  0  0  0  0  0  0  0  0  0  0
    2.8221    1.2926   -0.7366 H   0  0  0  0  0  0  0  0  0  0  0  0
    1.8583    2.1340    0.6064 H   0  0  0  0  0  0  0  0  0  0  0  0
    3.1464   -0.6755   -0.7389 H   0  0  0  0  0  0  0  0  0  0  0  0
   -0.2610    0.4323    1.2819 H   0  0  0  0  0  0  0  0  0  0  0  0
    0.0439   -1.3359    1.0848 H   0  0  0  0  0  0  0  0  0  0  0  0
   -0.1052   -1.0956   -1.3776 H   0  0  0  0  0  0  0  0  0  0  0  0
   -0.3934    0.6551   -1.2065 H   0  0  0  0  0  0  0  0  0  0  0  0
   -2.5273   -0.6800   -1.4069 H   0  0  0  0  0  0  0  0  0  0  0  0
   -2.0748   -1.5795    0.0726 H   0  0  0  0  0  0  0  0  0  0  0  0
   -2.2827    1.3733    0.0596 H   0  0  0  0  0  0  0  0  0  0  0  0
   -3.5598    0.3070    0.4879 H   0  0  0  0  0  0  0  0  0  0  0  0
    2.0678   -0.1109    1.5990 H   0  0  0  0  0  0  0  0  0  0  0  0
    2.8221    1.2926   -0.7366 H   0  0  0  0  0  0  0  0  0  0  0  0
    1.8583    2.1340    0.6064 H   0  0  0  0  0  0  0  0  0  0  0  0
    3.1464   -0.6755   -0.7389 H   0  0  0  0  0  0  0  0  0  0  0  0
   -0.2610    0.4323    1.2819 H   0  0  0  0  0  0  0  0  0  0  0  0
    0.0439   -1.3359    1.0848 H   0  0  0  0  0  0  0  0  0  0  0  0
   -0.1052   -1.0956   -1.3776 H   0  0  0  0  0  0  0  0  0  0  0  0
   -0.3934    0.6551   -1.2065 H   0  0  0  0  0  0  0  0  0  0  0  0
   -2.5273   -0.6800   -1.4069 H   0  0  0  0  0  0  0  0  0  0  0  0
   -2.0748   -1.5795    0.0726 H   0  0  0  0  0  0  0  0  0  0  0  0
   -2.2827    1.3733    0.0596 H   0  0  0  0  0  0  0  0  0  0  0  0
   -3.5598    0.3070    0.4879 H   0  0  0  0  0  0  0  0  0  0  0  0
  1  2  1  0
  1  3  1  0
  1  4  1  0
  4  5  1  0
  5  6  1  0
  6  7  1  0
  8  9  1  0
  8 10  1  0
  8 11  1  0
 11 12  1  0
 12 13  1  0
 13 14  1  0
 15 16  1  0
 15 17  1  0
 15 18  1  0
 18 19  1  0
 19 20  1  0
 20 21  1  0
 22 23  1  0
 22 24  1  0
 22 25  1  0
 25 26  1  0
 26 27  1  0
 27 28  1  0
  1 29  1  1
  2 30  1  0
  2 31  1  0
  3 32  1  0
  4 33  1  0
  4 34  1  0
  5 35  1  0
  5 36  1  0
  6 37  1  0
  6 38  1  0
  7 39  1  0
  7 40  1  0
  8 41  1  0
  9 42  1  0
  9 43  1  0
 10 44  1  0
 11 45  1  0
 11 46  1  0
 12 47  1  0
 12 48  1  0
 13 49  1  0
 13 50  1  0
 14 51  1  0
 14 52  1  0
 15 53  1  1
 16 54  1  0
 16 55  1  0
 17 56  1  0
 18 57  1  0
 18 58  1  0
 19 59  1  0
 19 60  1  0
 20 61  1  0
 20 62  1  0
 21 63  1  0
 21 64  1  0
 22 65  1  1
 23 66  1  0
 23 67  1  0
 24 68  1  0
 25 69  1  0
 25 70  1  0
 26 71  1  0
 26 72  1  0
 27 73  1  0
 27 74  1  0
 28 75  1  0
 28 76  1  0
M  END
>  <PDBID>  (1) 
2TOD

>  <PDB ID>  (1) 
2TOD

>  <Generic Name>  (1) 
Eflornithine

>  <Brand Name>  (1) 
Vaniqa

>  <DrugBank ID>  (1) 
DB06243

>  <ATC Codes>  (1) 
D11AX16#P01CX03

>  <Ligand ID>  (1) 
DMO

>  <Target Name>  (1) 
Ornithine decarboxylase

>  <UniProt ID>  (1) 
P11926

>  <PDB ID.1>  (1) 
2TOD

>  <Seq. Identity>  (1) 
65%

$$$$
