PDB_DB00696_06
     RDKit          3D

100107  0  0  0  0  0  0  0  0999 V2000
   -8.5233   -0.5480   -0.5775 C   0  0  0  0  0  0  0  0  0  0  0  0
   -9.1694    0.6343   -0.0742 N   0  0  0  0  0  0  0  0  0  0  0  0
   -0.7608    1.3607   -0.6801 O   0  0  0  0  0  0  0  0  0  0  0  0
   -5.5454    1.8748   -0.6261 C   0  0  0  0  0  0  0  0  0  0  0  0
   -6.8520    2.2961   -1.2600 C   0  0  0  0  0  0  0  0  0  0  0  0
   -7.8726    2.6228   -0.2060 C   0  0  0  0  0  0  0  0  0  0  0  0
   -8.2030    1.4179    0.6367 C   0  0  0  0  0  0  0  0  0  0  0  0
   -7.0273    0.5704    0.9631 C   0  0  0  0  0  0  0  0  0  0  0  0
   -3.9186   -2.5416   -1.1256 C   0  0  0  0  0  0  0  0  0  0  0  0
   -0.9666    0.1751    0.0300 C   0  0  0  0  0  0  0  0  0  0  0  0
    1.2305   -0.4840   -0.7256 C   0  0  2  0  0  0  0  0  0  0  0  0
    2.0214    0.2459    0.3015 C   0  0  0  0  0  0  0  0  0  0  0  0
    4.1980   -0.2561   -0.4789 C   0  0  2  0  0  0  0  0  0  0  0  0
   -3.8985   -2.0676    0.2135 N   0  0  0  0  0  0  0  0  0  0  0  0
   -7.3115   -0.7184    0.2909 C   0  0  0  0  0  0  0  0  0  0  0  0
    1.9789   -1.6494   -0.8949 O   0  0  0  0  0  0  0  0  0  0  0  0
    5.3161   -1.2427   -0.3042 C   0  0  0  0  0  0  0  0  0  0  0  0
    5.7982   -3.5154   -0.6223 C   0  0  0  0  0  0  0  0  0  0  0  0
    5.7216   -3.8802    0.8266 C   0  0  0  0  0  0  0  0  0  0  0  0
    4.3556   -3.4405    1.2957 C   0  0  0  0  0  0  0  0  0  0  0  0
    3.7301   -2.8966    0.0475 C   0  0  1  0  0  0  0  0  0  0  0  0
    2.6852   -1.8693    0.2865 C   0  0  1  0  0  0  0  0  0  0  0  0
    1.1405    0.2311   -2.0501 C   0  0  0  0  0  0  0  0  0  0  0  0
    4.6360    1.1433   -0.5696 C   0  0  0  0  0  0  0  0  0  0  0  0
    5.3332    1.8149    0.5329 C   0  0  0  0  0  0  0  0  0  0  0  0
    6.6462    1.3498    1.0057 C   0  0  0  0  0  0  0  0  0  0  0  0
   -6.1170   -1.2911   -0.4206 C   0  0  0  0  0  0  0  0  0  0  0  0
   -0.0852   -0.8851   -0.3119 N   0  0  0  0  0  0  0  0  0  0  0  0
    1.3630    0.3703    1.5260 O   0  0  0  0  0  0  0  0  0  0  0  0
    7.8175    1.7635    0.1315 C   0  0  0  0  0  0  0  0  0  0  0  0
    7.7905    3.2856    0.0482 C   0  0  0  0  0  0  0  0  0  0  0  0
    6.5155    3.6235   -0.7132 C   0  0  0  0  0  0  0  0  0  0  0  0
    5.3786    3.3190    0.2326 C   0  0  0  0  0  0  0  0  0  0  0  0
   -4.9740   -1.2170    0.5982 C   0  0  2  0  0  0  0  0  0  0  0  0
    3.2017   -0.5296    0.5558 N   0  0  0  0  0  0  0  0  0  0  0  0
    6.4216   -0.9614   -1.0547 O   0  0  0  0  0  0  0  0  0  0  0  0
   -2.5998   -1.5844    0.6094 C   0  0  0  0  0  0  0  0  0  0  0  0
    4.7726   -2.5183   -0.8622 N   0  0  0  0  0  0  0  0  0  0  0  0
    1.8524   -2.3180    1.3098 O   0  0  0  0  0  0  0  0  0  0  0  0
   -2.3963   -0.2977   -0.1607 C   0  0  1  0  0  0  0  0  0  0  0  0
   -3.3235    0.7085    0.5216 C   0  0  0  0  0  0  0  0  0  0  0  0
   -4.6144    0.1638    0.9929 C   0  0  1  0  0  0  0  0  0  0  0  0
   -5.6963    1.1963    0.6792 C   0  0  0  0  0  0  0  0  0  0  0  0
   -9.2715   -1.3860   -0.4403 H   0  0  0  0  0  0  0  0  0  0  0  0
   -8.3139   -0.5331   -1.6557 H   0  0  0  0  0  0  0  0  0  0  0  0
   -9.6755    1.1808   -0.7884 H   0  0  0  0  0  0  0  0  0  0  0  0
   -0.7647    2.1583   -0.1088 H   0  0  0  0  0  0  0  0  0  0  0  0
   -4.9514    2.8355   -0.5232 H   0  0  0  0  0  0  0  0  0  0  0  0
   -4.9944    1.3153   -1.4101 H   0  0  0  0  0  0  0  0  0  0  0  0
   -6.7081    3.2413   -1.8569 H   0  0  0  0  0  0  0  0  0  0  0  0
   -7.1640    1.5412   -1.9815 H   0  0  0  0  0  0  0  0  0  0  0  0
   -7.5264    3.4806    0.3796 H   0  0  0  0  0  0  0  0  0  0  0  0
   -8.8019    2.9325   -0.7280 H   0  0  0  0  0  0  0  0  0  0  0  0
   -8.7228    1.8149    1.5544 H   0  0  0  0  0  0  0  0  0  0  0  0
   -7.0461    0.4085    2.0840 H   0  0  0  0  0  0  0  0  0  0  0  0
   -4.1285   -1.7878   -1.8946 H   0  0  0  0  0  0  0  0  0  0  0  0
   -2.8895   -2.9368   -1.3609 H   0  0  0  0  0  0  0  0  0  0  0  0
   -4.5814   -3.4489   -1.2538 H   0  0  0  0  0  0  0  0  0  0  0  0
   -0.9341    0.4246    1.1365 H   0  0  0  0  0  0  0  0  0  0  0  0
    2.2515    1.2625   -0.0311 H   0  0  0  0  0  0  0  0  0  0  0  0
    3.6992   -0.5484   -1.4629 H   0  0  0  0  0  0  0  0  0  0  0  0
   -7.5956   -1.5034    1.0568 H   0  0  0  0  0  0  0  0  0  0  0  0
    5.5196   -1.5230    0.7523 H   0  0  0  0  0  0  0  0  0  0  0  0
    5.6563   -4.4088   -1.2598 H   0  0  0  0  0  0  0  0  0  0  0  0
    6.7631   -3.0397   -0.8925 H   0  0  0  0  0  0  0  0  0  0  0  0
    5.7902   -4.9931    0.9708 H   0  0  0  0  0  0  0  0  0  0  0  0
    6.5354   -3.3546    1.3725 H   0  0  0  0  0  0  0  0  0  0  0  0
    3.7641   -4.3133    1.6848 H   0  0  0  0  0  0  0  0  0  0  0  0
    4.4257   -2.6666    2.0715 H   0  0  0  0  0  0  0  0  0  0  0  0
    3.2121   -3.7749   -0.4414 H   0  0  0  0  0  0  0  0  0  0  0  0
    1.7835   -0.2473   -2.8456 H   0  0  0  0  0  0  0  0  0  0  0  0
    0.1166    0.1820   -2.4844 H   0  0  0  0  0  0  0  0  0  0  0  0
    1.5052    1.2708   -1.9631 H   0  0  0  0  0  0  0  0  0  0  0  0
    5.3498    1.1567   -1.4965 H   0  0  0  0  0  0  0  0  0  0  0  0
    3.8145    1.8118   -0.9799 H   0  0  0  0  0  0  0  0  0  0  0  0
    4.6511    1.7942    1.4781 H   0  0  0  0  0  0  0  0  0  0  0  0
    6.6875    0.3060    1.3261 H   0  0  0  0  0  0  0  0  0  0  0  0
    6.8393    1.9376    1.9800 H   0  0  0  0  0  0  0  0  0  0  0  0
   -6.3197   -2.3905   -0.5598 H   0  0  0  0  0  0  0  0  0  0  0  0
   -5.8909   -0.8942   -1.3886 H   0  0  0  0  0  0  0  0  0  0  0  0
   -0.5037   -1.3842   -1.1463 H   0  0  0  0  0  0  0  0  0  0  0  0
    1.8006   -0.0831    2.2643 H   0  0  0  0  0  0  0  0  0  0  0  0
    8.7453    1.4831    0.6767 H   0  0  0  0  0  0  0  0  0  0  0  0
    7.8294    1.2974   -0.8479 H   0  0  0  0  0  0  0  0  0  0  0  0
    8.6871    3.6338   -0.4727 H   0  0  0  0  0  0  0  0  0  0  0  0
    7.6955    3.6606    1.0870 H   0  0  0  0  0  0  0  0  0  0  0  0
    6.3852    2.9276   -1.5876 H   0  0  0  0  0  0  0  0  0  0  0  0
    6.4541    4.6709   -1.0115 H   0  0  0  0  0  0  0  0  0  0  0  0
    4.4275    3.5641   -0.3137 H   0  0  0  0  0  0  0  0  0  0  0  0
    5.4081    3.9166    1.1461 H   0  0  0  0  0  0  0  0  0  0  0  0
   -5.4456   -1.7502    1.4868 H   0  0  0  0  0  0  0  0  0  0  0  0
    7.2727   -1.0490   -0.5656 H   0  0  0  0  0  0  0  0  0  0  0  0
   -1.8612   -2.3581    0.3577 H   0  0  0  0  0  0  0  0  0  0  0  0
   -2.5475   -1.3635    1.6748 H   0  0  0  0  0  0  0  0  0  0  0  0
    2.4062   -2.4006    2.1254 H   0  0  0  0  0  0  0  0  0  0  0  0
   -2.6542   -0.4189   -1.2343 H   0  0  0  0  0  0  0  0  0  0  0  0
   -3.3960    1.5763   -0.1872 H   0  0  0  0  0  0  0  0  0  0  0  0
   -2.6925    1.1345    1.3611 H   0  0  0  0  0  0  0  0  0  0  0  0
   -4.5505    0.1684    2.1304 H   0  0  0  0  0  0  0  0  0  0  0  0
   -5.5936    2.0140    1.4620 H   0  0  0  0  0  0  0  0  0  0  0  0
  1  2  1  0
  4  5  1  0
  5  6  1  0
  2  7  1  0
  6  7  1  0
  7  8  1  0
  3 10  1  0
 11 12  1  0
  9 14  1  0
  1 15  1  0
  8 15  1  0
 11 16  1  0
 13 17  1  0
 18 19  1  0
 19 20  1  0
 20 21  1  0
 16 22  1  0
 21 22  1  0
 11 23  1  0
 13 24  1  0
 24 25  1  0
 25 26  1  0
 15 27  1  0
 10 28  1  0
 11 28  1  1
 12 29  1  0
 26 30  1  0
 30 31  1  0
 31 32  1  0
 25 33  1  0
 32 33  1  0
 14 34  1  0
 27 34  1  0
 12 35  1  0
 13 35  1  0
 22 35  1  0
 17 36  1  0
 14 37  1  0
 17 38  1  0
 18 38  1  0
 21 38  1  0
 22 39  1  1
 10 40  1  0
 37 40  1  0
 40 41  1  0
 34 42  1  0
 41 42  1  0
  4 43  1  0
  8 43  1  0
 42 43  1  0
  1 44  1  0
  1 45  1  0
  2 46  1  0
  3 47  1  0
  4 48  1  0
  4 49  1  0
  5 50  1  0
  5 51  1  0
  6 52  1  0
  6 53  1  0
  7 54  1  0
  8 55  1  0
  9 56  1  0
  9 57  1  0
  9 58  1  0
 10 59  1  0
 12 60  1  0
 13 61  1  6
 15 62  1  0
 17 63  1  0
 18 64  1  0
 18 65  1  0
 19 66  1  0
 19 67  1  0
 20 68  1  0
 20 69  1  0
 21 70  1  6
 23 71  1  0
 23 72  1  0
 23 73  1  0
 24 74  1  0
 24 75  1  0
 25 76  1  0
 26 77  1  0
 26 78  1  0
 27 79  1  0
 27 80  1  0
 28 81  1  0
 29 82  1  0
 30 83  1  0
 30 84  1  0
 31 85  1  0
 31 86  1  0
 32 87  1  0
 32 88  1  0
 33 89  1  0
 33 90  1  0
 34 91  1  1
 36 92  1  0
 37 93  1  0
 37 94  1  0
 39 95  1  0
 40 96  1  6
 41 97  1  0
 41 98  1  0
 42 99  1  1
 43100  1  0
M  END
>  <PDBID>  (1) 
4IB4

>  <PDB ID>  (1) 
4IB4

>  <Generic Name>  (1) 
Ergotamine

>  <Brand Name>  (1) 
Cafergot#Cafergot Sup#Cafergot Tab#Ergodryl Cap#Ergomar#Ergomar Slt 2mg#Ergomar Sublingual#Ergotamine#Ergotamine Tartrate and Caffeine#Gravergol Capsules#Megral Tabs#Migergot#Anervan#Antimigraine#Enxak#Ergam#Ergo-Kranit#Gynaemine#Wigrettes

>  <DrugBank ID>  (1) 
DB00696

>  <ATC Codes>  (1) 
N02CA52#N02CA72#N02CA02

>  <Ligand ID>  (1) 
ERM

>  <Target Name>  (1) 
5-hydroxytryptamine receptor 2A

>  <UniProt ID>  (1) 
P28223

>  <PDB ID.1>  (1) 
4IB4

>  <Seq. Identity>  (1) 
58%

$$$$
