PDB_DB00755_01
     RDKit          3D

124124  0  0  0  0  0  0  0  0999 V2000
   -4.0259   -0.4607    0.0272 C   0  0  0  0  0  0  0  0  0  0  0  0
   -4.8217    0.3836   -0.9746 C   0  0  0  0  0  0  0  0  0  0  0  0
   -4.3196    1.7781   -1.1024 C   0  0  0  0  0  0  0  0  0  0  0  0
   -3.3876    2.2310   -0.0337 C   0  0  0  0  0  0  0  0  0  0  0  0
   -2.2269    1.2794    0.1815 C   0  0  0  0  0  0  0  0  0  0  0  0
   -2.5815   -0.1300   -0.1959 C   0  0  0  0  0  0  0  0  0  0  0  0
   -1.6443   -1.1767    0.3066 C   0  0  0  0  0  0  0  0  0  0  0  0
   -0.1867   -0.8553    0.0713 C   0  0  0  0  0  0  0  0  0  0  0  0
    0.7024   -1.9530    0.6043 C   0  0  1  0  0  0  0  0  0  0  0  0
    2.1652   -1.6740    0.3927 C   0  0  0  0  0  0  0  0  0  0  0  0
    2.5433   -1.5192   -1.0368 C   0  0  0  0  0  0  0  0  0  0  0  0
    3.9716   -1.2523   -1.3223 C   0  0  0  0  0  0  0  0  0  0  0  0
    4.5749   -0.0293   -0.7437 C   0  0  0  0  0  0  0  0  0  0  0  0
    3.8986    1.2485   -1.1878 C   0  0  0  0  0  0  0  0  0  0  0  0
    4.5441    2.4672   -0.5752 C   0  0  0  0  0  0  0  0  0  0  0  0
   -4.2278   -1.9139   -0.4412 C   0  0  0  0  0  0  0  0  0  0  0  0
   -4.5399   -0.3457    1.4058 C   0  0  0  0  0  0  0  0  0  0  0  0
   -1.7268    1.4676    1.5787 C   0  0  0  0  0  0  0  0  0  0  0  0
    0.4449   -2.2091    2.0722 C   0  0  0  0  0  0  0  0  0  0  0  0
    4.8325   -0.0810    0.7427 C   0  0  0  0  0  0  0  0  0  0  0  0
    5.8865    2.5762   -0.9248 O   0  0  0  0  0  0  0  0  0  0  0  0
    3.8947    3.5839   -1.1487 O   0  0  0  0  0  0  0  0  0  0  0  0
   -3.6641   -1.2955    0.0867 C   0  0  0  0  0  0  0  0  0  0  0  0
   -5.1433   -1.4926   -0.3019 C   0  0  0  0  0  0  0  0  0  0  0  0
   -5.9754   -0.2898   -0.1123 C   0  0  0  0  0  0  0  0  0  0  0  0
   -5.1878    0.9472    0.0793 C   0  0  0  0  0  0  0  0  0  0  0  0
   -3.9093    1.0395   -0.6845 C   0  0  0  0  0  0  0  0  0  0  0  0
   -3.1162   -0.2320   -0.7960 C   0  0  0  0  0  0  0  0  0  0  0  0
   -1.6739    0.0971   -0.6752 C   0  0  0  0  0  0  0  0  0  0  0  0
   -0.6873   -0.9905   -0.9348 C   0  0  0  0  0  0  0  0  0  0  0  0
    0.7610   -0.5518   -0.8408 C   0  0  0  0  0  0  0  0  0  0  0  0
    1.0292   -0.0433    0.5243 C   0  0  0  0  0  0  0  0  0  0  0  0
    2.4658    0.4127    0.7174 C   0  0  0  0  0  0  0  0  0  0  0  0
    3.4156   -0.7229    0.4763 C   0  0  0  0  0  0  0  0  0  0  0  0
    4.8611   -0.3371    0.6540 C   0  0  0  0  0  0  0  0  0  0  0  0
    5.2858    0.7589   -0.2865 C   0  0  0  0  0  0  0  0  0  0  0  0
    6.7379    1.1028   -0.0688 C   0  0  0  0  0  0  0  0  0  0  0  0
   -3.0722   -2.6689   -0.1158 C   0  0  0  0  0  0  0  0  0  0  0  0
   -3.5452   -0.9842    1.5602 C   0  0  0  0  0  0  0  0  0  0  0  0
   -3.1727    2.2072   -0.0795 C   0  0  0  0  0  0  0  0  0  0  0  0
    1.0007    0.4592   -1.9323 C   0  0  0  0  0  0  0  0  0  0  0  0
    5.1733   -0.0132    2.1049 C   0  0  0  0  0  0  0  0  0  0  0  0
    7.1334    2.1240   -0.9475 O   0  0  0  0  0  0  0  0  0  0  0  0
    7.0597    1.4037    1.2369 O   0  0  0  0  0  0  0  0  0  0  0  0
   -4.6907   -0.1147   -1.9576 H   0  0  0  0  0  0  0  0  0  0  0  0
   -5.9097    0.3220   -0.7514 H   0  0  0  0  0  0  0  0  0  0  0  0
   -5.2122    2.4631   -1.0646 H   0  0  0  0  0  0  0  0  0  0  0  0
   -3.8595    1.9673   -2.1065 H   0  0  0  0  0  0  0  0  0  0  0  0
   -2.9778    3.2207   -0.3170 H   0  0  0  0  0  0  0  0  0  0  0  0
   -3.8970    2.4015    0.9486 H   0  0  0  0  0  0  0  0  0  0  0  0
   -1.3987    1.6628   -0.4935 H   0  0  0  0  0  0  0  0  0  0  0  0
   -2.4607   -0.1548   -1.3262 H   0  0  0  0  0  0  0  0  0  0  0  0
   -1.8950   -2.1921   -0.1202 H   0  0  0  0  0  0  0  0  0  0  0  0
   -1.7376   -1.3480    1.4193 H   0  0  0  0  0  0  0  0  0  0  0  0
    0.0206    0.1318    0.5022 H   0  0  0  0  0  0  0  0  0  0  0  0
   -0.0313   -0.7332   -1.0372 H   0  0  0  0  0  0  0  0  0  0  0  0
    0.3898   -2.8905    0.0707 H   0  0  0  0  0  0  0  0  0  0  0  0
    2.7296   -2.4978    0.8470 H   0  0  0  0  0  0  0  0  0  0  0  0
    2.3624   -0.6929    0.8906 H   0  0  0  0  0  0  0  0  0  0  0  0
    2.2968   -2.4987   -1.5452 H   0  0  0  0  0  0  0  0  0  0  0  0
    1.9251   -0.7712   -1.5823 H   0  0  0  0  0  0  0  0  0  0  0  0
    4.0757   -1.1898   -2.4398 H   0  0  0  0  0  0  0  0  0  0  0  0
    4.6013   -2.1170   -1.0284 H   0  0  0  0  0  0  0  0  0  0  0  0
    5.6077    0.0427   -1.2171 H   0  0  0  0  0  0  0  0  0  0  0  0
    4.0031    1.3547   -2.2871 H   0  0  0  0  0  0  0  0  0  0  0  0
    2.8313    1.2770   -0.9547 H   0  0  0  0  0  0  0  0  0  0  0  0
    4.3712    2.5540    0.5114 H   0  0  0  0  0  0  0  0  0  0  0  0
   -3.7535   -2.0752   -1.4145 H   0  0  0  0  0  0  0  0  0  0  0  0
   -5.3339   -2.0708   -0.4985 H   0  0  0  0  0  0  0  0  0  0  0  0
   -3.8480   -2.6273    0.2946 H   0  0  0  0  0  0  0  0  0  0  0  0
   -4.5581   -1.3668    1.8940 H   0  0  0  0  0  0  0  0  0  0  0  0
   -5.6387   -0.0820    1.3458 H   0  0  0  0  0  0  0  0  0  0  0  0
   -4.0135    0.2991    2.1004 H   0  0  0  0  0  0  0  0  0  0  0  0
   -0.7803    2.0718    1.6234 H   0  0  0  0  0  0  0  0  0  0  0  0
   -1.6372    0.5373    2.1736 H   0  0  0  0  0  0  0  0  0  0  0  0
   -2.4590    2.0928    2.1319 H   0  0  0  0  0  0  0  0  0  0  0  0
   -0.4590   -2.8132    2.2484 H   0  0  0  0  0  0  0  0  0  0  0  0
    0.4673   -1.2749    2.6712 H   0  0  0  0  0  0  0  0  0  0  0  0
    1.3050   -2.8372    2.4360 H   0  0  0  0  0  0  0  0  0  0  0  0
    5.9126    0.1519    0.9858 H   0  0  0  0  0  0  0  0  0  0  0  0
    4.7019   -1.1182    1.1070 H   0  0  0  0  0  0  0  0  0  0  0  0
    4.2655    0.6805    1.3126 H   0  0  0  0  0  0  0  0  0  0  0  0
    6.4143    2.4548   -0.0916 H   0  0  0  0  0  0  0  0  0  0  0  0
    4.5001    4.3651   -1.1878 H   0  0  0  0  0  0  0  0  0  0  0  0
   -5.1188   -1.7554   -1.3827 H   0  0  0  0  0  0  0  0  0  0  0  0
   -5.5329   -2.3996    0.2282 H   0  0  0  0  0  0  0  0  0  0  0  0
   -6.6051   -0.4414    0.8115 H   0  0  0  0  0  0  0  0  0  0  0  0
   -6.7240   -0.1217   -0.9270 H   0  0  0  0  0  0  0  0  0  0  0  0
   -5.8328    1.8213   -0.2358 H   0  0  0  0  0  0  0  0  0  0  0  0
   -4.9815    1.1710    1.1638 H   0  0  0  0  0  0  0  0  0  0  0  0
   -4.1785    1.3685   -1.7228 H   0  0  0  0  0  0  0  0  0  0  0  0
   -3.2425   -0.6422   -1.8507 H   0  0  0  0  0  0  0  0  0  0  0  0
   -1.4682    0.5237    0.3273 H   0  0  0  0  0  0  0  0  0  0  0  0
   -1.4865    0.8546   -1.5039 H   0  0  0  0  0  0  0  0  0  0  0  0
   -0.8037   -1.4739   -1.9216 H   0  0  0  0  0  0  0  0  0  0  0  0
   -0.7266   -1.7815   -0.1184 H   0  0  0  0  0  0  0  0  0  0  0  0
    1.3680   -1.4670   -1.0353 H   0  0  0  0  0  0  0  0  0  0  0  0
    0.8562   -0.8492    1.2656 H   0  0  0  0  0  0  0  0  0  0  0  0
    0.4076    0.8157    0.8463 H   0  0  0  0  0  0  0  0  0  0  0  0
    2.5554    0.6893    1.7952 H   0  0  0  0  0  0  0  0  0  0  0  0
    2.6791    1.3248    0.1442 H   0  0  0  0  0  0  0  0  0  0  0  0
    3.3229   -1.1414   -0.5532 H   0  0  0  0  0  0  0  0  0  0  0  0
    3.1972   -1.4985    1.2493 H   0  0  0  0  0  0  0  0  0  0  0  0
    5.4663   -1.2319    0.4020 H   0  0  0  0  0  0  0  0  0  0  0  0
    5.1945    0.3885   -1.3302 H   0  0  0  0  0  0  0  0  0  0  0  0
    4.6448    1.6629   -0.2330 H   0  0  0  0  0  0  0  0  0  0  0  0
    7.3532    0.2122   -0.3580 H   0  0  0  0  0  0  0  0  0  0  0  0
   -2.4864   -3.0118    0.7622 H   0  0  0  0  0  0  0  0  0  0  0  0
   -2.6016   -2.8277   -1.0910 H   0  0  0  0  0  0  0  0  0  0  0  0
   -3.9410   -3.3982   -0.1192 H   0  0  0  0  0  0  0  0  0  0  0  0
   -2.9923   -0.0465    1.7225 H   0  0  0  0  0  0  0  0  0  0  0  0
   -4.5438   -1.0050    2.0656 H   0  0  0  0  0  0  0  0  0  0  0  0
   -2.9502   -1.7673    2.1171 H   0  0  0  0  0  0  0  0  0  0  0  0
   -3.6674    3.1754   -0.3962 H   0  0  0  0  0  0  0  0  0  0  0  0
   -3.2470    2.2343    1.0382 H   0  0  0  0  0  0  0  0  0  0  0  0
   -2.1339    2.3255   -0.3342 H   0  0  0  0  0  0  0  0  0  0  0  0
    2.0619    0.3945   -2.2656 H   0  0  0  0  0  0  0  0  0  0  0  0
    0.6843    1.4623   -1.6539 H   0  0  0  0  0  0  0  0  0  0  0  0
    0.3964    0.1438   -2.8165 H   0  0  0  0  0  0  0  0  0  0  0  0
    5.0343    1.0637    2.3380 H   0  0  0  0  0  0  0  0  0  0  0  0
    6.1626   -0.4028    2.4042 H   0  0  0  0  0  0  0  0  0  0  0  0
    4.4457   -0.5424    2.7850 H   0  0  0  0  0  0  0  0  0  0  0  0
    6.5312    2.8883   -0.9342 H   0  0  0  0  0  0  0  0  0  0  0  0
    7.1264    2.3545    1.4426 H   0  0  0  0  0  0  0  0  0  0  0  0
  1  2  1  0
  2  3  1  0
  3  4  1  0
  4  5  1  0
  1  6  1  0
  5  6  1  0
  6  7  1  0
  7  8  1  0
  8  9  1  0
  9 10  1  0
 10 11  1  0
 11 12  1  0
 12 13  1  0
 13 14  1  0
 14 15  1  0
  1 16  1  0
  1 17  1  0
  5 18  1  0
  9 19  1  0
 13 20  1  0
 15 21  1  0
 15 22  1  0
 23 24  1  0
 24 25  1  0
 25 26  1  0
 26 27  1  0
 23 28  1  0
 27 28  1  0
 28 29  1  0
 29 30  1  0
 30 31  1  0
 31 32  1  0
 32 33  1  0
 33 34  1  0
 34 35  1  0
 35 36  1  0
 36 37  1  0
 23 38  1  0
 23 39  1  0
 27 40  1  0
 31 41  1  0
 35 42  1  0
 37 43  1  0
 37 44  1  0
  2 45  1  0
  2 46  1  0
  3 47  1  0
  3 48  1  0
  4 49  1  0
  4 50  1  0
  5 51  1  0
  6 52  1  0
  7 53  1  0
  7 54  1  0
  8 55  1  0
  8 56  1  0
  9 57  1  6
 10 58  1  0
 10 59  1  0
 11 60  1  0
 11 61  1  0
 12 62  1  0
 12 63  1  0
 13 64  1  0
 14 65  1  0
 14 66  1  0
 15 67  1  0
 16 68  1  0
 16 69  1  0
 16 70  1  0
 17 71  1  0
 17 72  1  0
 17 73  1  0
 18 74  1  0
 18 75  1  0
 18 76  1  0
 19 77  1  0
 19 78  1  0
 19 79  1  0
 20 80  1  0
 20 81  1  0
 20 82  1  0
 21 83  1  0
 22 84  1  0
 24 85  1  0
 24 86  1  0
 25 87  1  0
 25 88  1  0
 26 89  1  0
 26 90  1  0
 27 91  1  0
 28 92  1  0
 29 93  1  0
 29 94  1  0
 30 95  1  0
 30 96  1  0
 31 97  1  0
 32 98  1  0
 32 99  1  0
 33100  1  0
 33101  1  0
 34102  1  0
 34103  1  0
 35104  1  0
 36105  1  0
 36106  1  0
 37107  1  0
 38108  1  0
 38109  1  0
 38110  1  0
 39111  1  0
 39112  1  0
 39113  1  0
 40114  1  0
 40115  1  0
 40116  1  0
 41117  1  0
 41118  1  0
 41119  1  0
 42120  1  0
 42121  1  0
 42122  1  0
 43123  1  0
 44124  1  0
M  END
>  <PDBID>  (1) 
3FC6

>  <PDB ID>  (1) 
3FC6

>  <Generic Name>  (1) 
Tretinoin

>  <Brand Name>  (1) 
Atralin#Avita#Biacna Topical Gel#Clindamycin Phosphate and Tretinoin#Dr. Throwers Hydrotet#Dr. Throwers Pbc No. 1#Obagi#Refissa#Rejuva-A#Renova#Retin-A#Retin-A Micro#Retisol-A#Solagé#Stie Vaa Sol 0.05%#Stieva-A Cream#Stieva-A Gel#Stieva-A Solution#Stievaa Gel 0.01%#Stievamycin Forte#Stievamycin Mild#Stievamycin Regular#Tretin.x#Tretinoin#Tretinoin Cream#Tretinoin Gel#Tretinoin Gel Microsphere#Tretinx#Tri-luma#Veltin#Vesanoid#Vitamin A Acid 0.01% Cream#Vitamin A Acid 0.01% Gel#Vitamin A Acid 0.025% Cream#Vitamin A Acid 0.025% Gel#Vitamin A Acid 0.05% Cream#Vitamin A Acid 0.05% Gel#Vitamin A Acid 0.1% Cream#Vitinoin - Crm 0.025%#Vitinoin - Crm 0.05%#Vitinoin - Crm 0.1%#Vitinoin Gel - 0.025%#Ziana#Aberel#Aberela#Airol#Dermairol#Eudyna#Kétrel#Retisol-A#Sotret#Stieva-A#Vitinoin

>  <DrugBank ID>  (1) 
DB00755

>  <ATC Codes>  (1) 
L01XX14#D10AD01#D10AD51

>  <Ligand ID>  (1) 
3KV,REA

>  <Target Name>  (1) 
Retinoic acid receptor RXR-beta

>  <UniProt ID>  (1) 
P28702

>  <PDB ID.1>  (1) 
3FC6

>  <Seq. Identity>  (1) 
87%

$$$$
