PDB_DB01577_05
     RDKit          3D

 32 32  0  0  0  0  0  0  0  0999 V2000
   -3.1341    0.4118    0.2031 N   0  0  0  0  0  0  0  0  0  0  0  0
   -1.7797    0.2852   -0.4116 C   0  0  1  0  0  0  0  0  0  0  0  0
   -1.6213    1.6388   -1.1138 C   0  0  0  0  0  0  0  0  0  0  0  0
   -0.8456    0.1397    0.7195 C   0  0  0  0  0  0  0  0  0  0  0  0
    0.5872   -0.0481    0.4799 C   0  0  0  0  0  0  0  0  0  0  0  0
    0.9400   -1.2887   -0.3128 C   0  0  0  0  0  0  0  0  0  0  0  0
    1.3553    1.0825   -0.1244 C   0  0  0  0  0  0  0  0  0  0  0  0
    2.3842   -1.5832   -0.0755 C   0  0  0  0  0  0  0  0  0  0  0  0
    2.8247    0.8630    0.3183 C   0  0  0  0  0  0  0  0  0  0  0  0
    3.3012   -0.4119   -0.3035 C   0  0  0  0  0  0  0  0  0  0  0  0
   -3.7334   -0.9069    0.3084 C   0  0  0  0  0  0  0  0  0  0  0  0
   -3.7312    1.0605   -0.3566 H   0  0  0  0  0  0  0  0  0  0  0  0
   -1.7776   -0.4823   -1.1789 H   0  0  0  0  0  0  0  0  0  0  0  0
   -1.8038    2.3877   -0.2988 H   0  0  0  0  0  0  0  0  0  0  0  0
   -2.4499    1.7625   -1.8497 H   0  0  0  0  0  0  0  0  0  0  0  0
   -0.6521    1.8175   -1.5513 H   0  0  0  0  0  0  0  0  0  0  0  0
   -0.9640    1.0430    1.3934 H   0  0  0  0  0  0  0  0  0  0  0  0
   -1.1790   -0.7013    1.4107 H   0  0  0  0  0  0  0  0  0  0  0  0
    1.0613   -0.2341    1.5013 H   0  0  0  0  0  0  0  0  0  0  0  0
    0.3481   -2.1358    0.0969 H   0  0  0  0  0  0  0  0  0  0  0  0
    0.7535   -1.2154   -1.3838 H   0  0  0  0  0  0  0  0  0  0  0  0
    1.4238    0.8704   -1.2351 H   0  0  0  0  0  0  0  0  0  0  0  0
    1.0190    2.0849    0.1201 H   0  0  0  0  0  0  0  0  0  0  0  0
    2.5540   -1.9567    0.9532 H   0  0  0  0  0  0  0  0  0  0  0  0
    2.6912   -2.3757   -0.7881 H   0  0  0  0  0  0  0  0  0  0  0  0
    2.7951    0.7515    1.4182 H   0  0  0  0  0  0  0  0  0  0  0  0
    3.4547    1.6865   -0.0440 H   0  0  0  0  0  0  0  0  0  0  0  0
    4.2771   -0.6717    0.1495 H   0  0  0  0  0  0  0  0  0  0  0  0
    3.5043   -0.2473   -1.3883 H   0  0  0  0  0  0  0  0  0  0  0  0
   -4.5799   -0.8403    0.9972 H   0  0  0  0  0  0  0  0  0  0  0  0
   -2.9546   -1.5797    0.7293 H   0  0  0  0  0  0  0  0  0  0  0  0
   -4.0688   -1.2062   -0.7039 H   0  0  0  0  0  0  0  0  0  0  0  0
  1  2  1  0
  2  3  1  0
  2  4  1  0
  4  5  1  0
  5  6  1  0
  5  7  1  0
  6  8  1  0
  7  9  1  0
  8 10  1  0
  9 10  1  0
  1 11  1  0
  1 12  1  0
  2 13  1  6
  3 14  1  0
  3 15  1  0
  3 16  1  0
  4 17  1  0
  4 18  1  0
  5 19  1  0
  6 20  1  0
  6 21  1  0
  7 22  1  0
  7 23  1  0
  8 24  1  0
  8 25  1  0
  9 26  1  0
  9 27  1  0
 10 28  1  0
 10 29  1  0
 11 30  1  0
 11 31  1  0
 11 32  1  0
M  END
>  <PDBID>  (1) 
4XP6

>  <PDB ID>  (1) 
4XP6

>  <Generic Name>  (1) 
Methamphetamine

>  <Brand Name>  (1) 
Desoxyn#Methamphetamine Hydrochloride

>  <DrugBank ID>  (1) 
DB01577

>  <ATC Codes>  (1) 
N06BA03

>  <Ligand ID>  (1) 
B40

>  <Target Name>  (1) 
Sodium-dependent noradrenaline transporter

>  <UniProt ID>  (1) 
P23975

>  <PDB ID.1>  (1) 
4XP6

>  <Seq. Identity>  (1) 
59%

$$$$
