PDB_DB01004_04
     RDKit          3D

 78 80  0  0  0  0  0  0  0  0999 V2000
   -3.9881   -0.5798   -0.1345 N   0  0  0  0  0  0  0  0  0  0  0  0
   -3.4539   -0.6546    1.1894 C   0  0  0  0  0  0  0  0  0  0  0  0
   -1.4594   -0.1622    0.0464 C   0  0  0  0  0  0  0  0  0  0  0  0
   -0.0749    1.2727   -0.9892 C   0  0  0  0  0  0  0  0  0  0  0  0
    4.0422   -0.6747    1.4167 C   0  0  0  0  0  0  0  0  0  0  0  0
    4.4668    0.5993    1.7561 O   0  0  0  0  0  0  0  0  0  0  0  0
    4.1679   -0.3201   -0.9887 C   0  0  0  0  0  0  0  0  0  0  0  0
    4.6458    0.9708   -0.9165 O   0  0  0  0  0  0  0  0  0  0  0  0
    3.2254   -0.6646    0.1266 C   0  0  0  0  0  0  0  0  0  0  0  0
    2.1078    0.1043    0.1991 O   0  0  0  0  0  0  0  0  0  0  0  0
    0.9121   -0.5804    0.0639 C   0  0  0  0  0  0  0  0  0  0  0  0
   -0.1562    0.3969    0.1674 N   0  0  0  0  0  0  0  0  0  0  0  0
   -2.0104   -0.7119    1.2377 N   0  0  0  0  0  0  0  0  0  0  0  0
   -3.9878    0.4462    1.9597 N   0  0  0  0  0  0  0  0  0  0  0  0
   -3.5841    0.5955   -0.8593 C   0  0  0  0  0  0  0  0  0  0  0  0
   -3.5246    0.2870   -2.2200 O   0  0  0  0  0  0  0  0  0  0  0  0
   -2.2904    1.0809   -0.3045 C   0  0  0  0  0  0  0  0  0  0  0  0
   -1.4351    1.7352   -1.2447 N   0  0  0  0  0  0  0  0  0  0  0  0
   -3.9881   -0.5798   -0.1345 N   0  0  0  0  0  0  0  0  0  0  0  0
   -3.4539   -0.6546    1.1894 C   0  0  0  0  0  0  0  0  0  0  0  0
   -1.4594   -0.1622    0.0464 C   0  0  0  0  0  0  0  0  0  0  0  0
   -0.0749    1.2727   -0.9892 C   0  0  0  0  0  0  0  0  0  0  0  0
    4.0422   -0.6747    1.4167 C   0  0  0  0  0  0  0  0  0  0  0  0
    4.4668    0.5993    1.7561 O   0  0  0  0  0  0  0  0  0  0  0  0
    4.1679   -0.3201   -0.9887 C   0  0  0  0  0  0  0  0  0  0  0  0
    4.6458    0.9708   -0.9165 O   0  0  0  0  0  0  0  0  0  0  0  0
    3.2254   -0.6646    0.1266 C   0  0  0  0  0  0  0  0  0  0  0  0
    2.1078    0.1043    0.1991 O   0  0  0  0  0  0  0  0  0  0  0  0
    0.9121   -0.5804    0.0639 C   0  0  0  0  0  0  0  0  0  0  0  0
   -0.1562    0.3969    0.1674 N   0  0  0  0  0  0  0  0  0  0  0  0
   -2.0104   -0.7119    1.2377 N   0  0  0  0  0  0  0  0  0  0  0  0
   -3.9878    0.4462    1.9597 N   0  0  0  0  0  0  0  0  0  0  0  0
   -3.5841    0.5955   -0.8593 C   0  0  0  0  0  0  0  0  0  0  0  0
   -3.5246    0.2870   -2.2200 O   0  0  0  0  0  0  0  0  0  0  0  0
   -2.2904    1.0809   -0.3045 C   0  0  0  0  0  0  0  0  0  0  0  0
   -1.4351    1.7352   -1.2447 N   0  0  0  0  0  0  0  0  0  0  0  0
   -3.9823   -1.4491   -0.6717 H   0  0  0  0  0  0  0  0  0  0  0  0
   -3.8280   -1.5915    1.6522 H   0  0  0  0  0  0  0  0  0  0  0  0
   -1.5290   -0.8566   -0.8108 H   0  0  0  0  0  0  0  0  0  0  0  0
    0.1726    0.6000   -1.8561 H   0  0  0  0  0  0  0  0  0  0  0  0
    0.6397    2.0904   -0.8654 H   0  0  0  0  0  0  0  0  0  0  0  0
    4.9704   -1.2614    1.1708 H   0  0  0  0  0  0  0  0  0  0  0  0
    3.5419   -1.2169    2.2184 H   0  0  0  0  0  0  0  0  0  0  0  0
    5.3744    0.8143    1.4092 H   0  0  0  0  0  0  0  0  0  0  0  0
    5.0609   -0.9966   -0.8723 H   0  0  0  0  0  0  0  0  0  0  0  0
    3.7534   -0.5652   -1.9929 H   0  0  0  0  0  0  0  0  0  0  0  0
    5.5690    1.0776   -1.2367 H   0  0  0  0  0  0  0  0  0  0  0  0
    2.9125   -1.7287   -0.0337 H   0  0  0  0  0  0  0  0  0  0  0  0
    0.8680   -0.9675   -0.9768 H   0  0  0  0  0  0  0  0  0  0  0  0
    0.8213   -1.3785    0.8269 H   0  0  0  0  0  0  0  0  0  0  0  0
   -1.6486   -1.6750    1.4436 H   0  0  0  0  0  0  0  0  0  0  0  0
   -3.4978    0.5741    2.8712 H   0  0  0  0  0  0  0  0  0  0  0  0
   -5.0141    0.2242    2.1109 H   0  0  0  0  0  0  0  0  0  0  0  0
   -4.3359    1.4218   -0.7471 H   0  0  0  0  0  0  0  0  0  0  0  0
   -3.5279   -0.7124   -2.3361 H   0  0  0  0  0  0  0  0  0  0  0  0
   -2.4605    1.7005    0.5886 H   0  0  0  0  0  0  0  0  0  0  0  0
   -1.4631    2.7557   -1.0685 H   0  0  0  0  0  0  0  0  0  0  0  0
   -3.9823   -1.4491   -0.6717 H   0  0  0  0  0  0  0  0  0  0  0  0
   -3.8280   -1.5915    1.6522 H   0  0  0  0  0  0  0  0  0  0  0  0
   -1.5290   -0.8566   -0.8108 H   0  0  0  0  0  0  0  0  0  0  0  0
    0.1726    0.6000   -1.8561 H   0  0  0  0  0  0  0  0  0  0  0  0
    0.6397    2.0904   -0.8654 H   0  0  0  0  0  0  0  0  0  0  0  0
    4.9704   -1.2614    1.1708 H   0  0  0  0  0  0  0  0  0  0  0  0
    3.5419   -1.2169    2.2184 H   0  0  0  0  0  0  0  0  0  0  0  0
    5.3744    0.8143    1.4092 H   0  0  0  0  0  0  0  0  0  0  0  0
    5.0609   -0.9966   -0.8723 H   0  0  0  0  0  0  0  0  0  0  0  0
    3.7534   -0.5652   -1.9929 H   0  0  0  0  0  0  0  0  0  0  0  0
    5.5690    1.0776   -1.2367 H   0  0  0  0  0  0  0  0  0  0  0  0
    2.9125   -1.7287   -0.0337 H   0  0  0  0  0  0  0  0  0  0  0  0
    0.8680   -0.9675   -0.9768 H   0  0  0  0  0  0  0  0  0  0  0  0
    0.8213   -1.3785    0.8269 H   0  0  0  0  0  0  0  0  0  0  0  0
   -1.6486   -1.6750    1.4436 H   0  0  0  0  0  0  0  0  0  0  0  0
   -3.4978    0.5741    2.8712 H   0  0  0  0  0  0  0  0  0  0  0  0
   -5.0141    0.2242    2.1109 H   0  0  0  0  0  0  0  0  0  0  0  0
   -4.3359    1.4218   -0.7471 H   0  0  0  0  0  0  0  0  0  0  0  0
   -3.5279   -0.7124   -2.3361 H   0  0  0  0  0  0  0  0  0  0  0  0
   -2.4605    1.7005    0.5886 H   0  0  0  0  0  0  0  0  0  0  0  0
   -1.4631    2.7557   -1.0685 H   0  0  0  0  0  0  0  0  0  0  0  0
  1  2  1  0
  5  6  1  0
  7  8  1  0
  5  9  1  0
  7  9  1  0
  9 10  1  0
 10 11  1  0
  3 12  1  0
  4 12  1  0
 11 12  1  0
  2 13  1  0
  3 13  1  0
  2 14  1  0
  1 15  1  0
 15 16  1  0
  3 17  1  0
 15 17  1  0
  4 18  1  0
 17 18  1  0
 19 20  1  0
 23 24  1  0
 25 26  1  0
 23 27  1  0
 25 27  1  0
 27 28  1  0
 28 29  1  0
 21 30  1  0
 22 30  1  0
 29 30  1  0
 20 31  1  0
 21 31  1  0
 20 32  1  0
 19 33  1  0
 33 34  1  0
 21 35  1  0
 33 35  1  0
 22 36  1  0
 35 36  1  0
  1 37  1  0
  2 38  1  0
  3 39  1  0
  4 40  1  0
  4 41  1  0
  5 42  1  0
  5 43  1  0
  6 44  1  0
  7 45  1  0
  7 46  1  0
  8 47  1  0
  9 48  1  0
 11 49  1  0
 11 50  1  0
 13 51  1  0
 14 52  1  0
 14 53  1  0
 15 54  1  0
 16 55  1  0
 17 56  1  0
 18 57  1  0
 19 58  1  0
 20 59  1  0
 21 60  1  0
 22 61  1  0
 22 62  1  0
 23 63  1  0
 23 64  1  0
 24 65  1  0
 25 66  1  0
 25 67  1  0
 26 68  1  0
 27 69  1  0
 29 70  1  0
 29 71  1  0
 31 72  1  0
 32 73  1  0
 32 74  1  0
 33 75  1  0
 34 76  1  0
 35 77  1  0
 36 78  1  0
M  END
>  <PDBID>  (1) 
1KI2

>  <PDB ID>  (1) 
1KI2

>  <Generic Name>  (1) 
Ganciclovir

>  <Brand Name>  (1) 
Cytovene - Cap 250mg#Cytovene - Pws 500mg/10m/-vial IV#Cytovene IV#Cytovene Inj 500mg/vial#Cytovene, 500 mg#Ganciclovir#Ganciclovir for Injection#Vitrasert, Intravitreal Implant#Zirgan#Cytovene#Vitrasert

>  <DrugBank ID>  (1) 
DB01004

>  <ATC Codes>  (1) 
J05AB06#S01AD09

>  <Ligand ID>  (1) 
GA2

>  <Target Name>  (1) 
Thymidine kinase

>  <UniProt ID>  (1) 
P03176

>  <PDB ID.1>  (1) 
1KI2

>  <Seq. Identity>  (1) 
100%

$$$$
