PDB_DB00615_08
     RDKit          3D

294304  0  0  0  0  0  0  0  0999 V2000
    1.7593   -0.6493    1.7341 C   0  0  0  0  0  0  0  0  0  0  0  0
    1.9449   -1.3319    0.4159 C   0  0  0  0  0  0  0  0  0  0  0  0
    2.8993   -0.6799   -0.4968 C   0  0  0  0  0  0  0  0  0  0  0  0
    3.2696    0.6691    0.1541 C   0  0  2  0  0  0  0  0  0  0  0  0
    2.0638    2.8739    0.2851 C   0  0  0  0  0  0  0  0  0  0  0  0
    1.5997    3.5811    1.5133 C   0  0  0  0  0  0  0  0  0  0  0  0
    2.0552    2.9613    2.8001 C   0  0  0  0  0  0  0  0  0  0  0  0
    2.0229    1.4803    2.8307 C   0  0  0  0  0  0  0  0  0  0  0  0
    1.3993    0.8303    1.6133 C   0  0  0  0  0  0  0  0  0  0  0  0
    2.0012    1.3981    0.3152 C   0  0  0  0  0  0  0  0  0  0  0  0
    1.1277    3.4719   -0.7681 C   0  0  2  0  0  0  0  0  0  0  0  0
    0.0324    4.0638    0.0818 C   0  0  2  0  0  0  0  0  0  0  0  0
    0.1232    5.5943    0.0959 C   0  0  0  0  0  0  0  0  0  0  0  0
    3.4461    3.4953    3.1043 C   0  0  0  0  0  0  0  0  0  0  0  0
    1.6799   -3.6186   -0.2916 C   0  0  0  0  0  0  0  0  0  0  0  0
    0.2004   -3.8340   -0.1033 C   0  0  0  0  0  0  0  0  0  0  0  0
   -0.3223   -4.8937   -1.0355 C   0  0  0  0  0  0  0  0  0  0  0  0
   -1.5430   -4.4010   -1.8090 C   0  0  0  0  0  0  0  0  0  0  0  0
   -2.7872   -5.1325   -1.4359 C   0  0  0  0  0  0  0  0  0  0  0  0
   -3.6075   -4.4251   -0.3472 C   0  0  1  0  0  0  0  0  0  0  0  0
   -3.8716   -3.0091   -0.6787 C   0  0  1  0  0  0  0  0  0  0  0  0
   -5.2577   -2.5157   -0.2358 C   0  0  2  0  0  0  0  0  0  0  0  0
   -5.1795   -0.9979   -0.5061 C   0  0  2  0  0  0  0  0  0  0  0  0
   -6.4799   -0.3097   -0.4130 C   0  0  2  0  0  0  0  0  0  0  0  0
   -6.4965    1.0656    0.1695 C   0  0  1  0  0  0  0  0  0  0  0  0
   -5.2707    1.5752    0.8163 C   0  0  1  0  0  0  0  0  0  0  0  0
   -4.3302    2.3337   -0.1260 C   0  0  2  0  0  0  0  0  0  0  0  0
   -3.3797    3.2182    0.6818 C   0  0  0  0  0  0  0  0  0  0  0  0
   -1.9275    2.8684    0.4437 C   0  0  0  0  0  0  0  0  0  0  0  0
   -0.1579   -4.2290    1.3104 C   0  0  0  0  0  0  0  0  0  0  0  0
   -4.8025   -5.2839   -0.0917 C   0  0  0  0  0  0  0  0  0  0  0  0
   -5.3601   -2.8013    1.2259 C   0  0  0  0  0  0  0  0  0  0  0  0
   -7.5958   -1.1747    0.2088 C   0  0  0  0  0  0  0  0  0  0  0  0
   -5.7094    2.6328    1.8475 C   0  0  0  0  0  0  0  0  0  0  0  0
   -8.1773    2.5331   -0.3874 C   0  0  0  0  0  0  0  0  0  0  0  0
   -8.2456    4.0219   -0.3462 C   0  0  0  0  0  0  0  0  0  0  0  0
   -4.7059    2.7184   -2.3867 C   0  0  0  0  0  0  0  0  0  0  0  0
    5.0692   -0.0715   -0.9181 C   0  0  0  0  0  0  0  0  0  0  0  0
    6.0614   -0.0535    0.2197 C   0  0  0  0  0  0  0  0  0  0  0  0
    5.6869   -0.1101   -2.2614 C   0  0  0  0  0  0  0  0  0  0  0  0
    7.2165   -1.0099   -0.0375 C   0  0  0  0  0  0  0  0  0  0  0  0
    6.9700   -0.8973   -2.3510 C   0  0  0  0  0  0  0  0  0  0  0  0
    9.2040   -0.6960   -1.4307 C   0  0  0  0  0  0  0  0  0  0  0  0
   10.0985    0.2153   -0.6571 C   0  0  0  0  0  0  0  0  0  0  0  0
   10.0401    0.1356    0.8224 C   0  0  0  0  0  0  0  0  0  0  0  0
   11.5481   -0.1073   -1.0590 C   0  0  0  0  0  0  0  0  0  0  0  0
    2.2228   -2.7221    0.6793 N   0  0  0  0  0  0  0  0  0  0  0  0
    4.1935   -1.2282   -0.6538 N   0  0  0  0  0  0  0  0  0  0  0  0
    4.2352    1.1121   -0.7728 N   0  0  0  0  0  0  0  0  0  0  0  0
    7.8218   -0.5924   -1.2537 N   0  0  0  0  0  0  0  0  0  0  0  0
    0.7050   -1.2555    2.4119 O   0  0  0  0  0  0  0  0  0  0  0  0
    1.3159    1.0048    3.9353 O   0  0  0  0  0  0  0  0  0  0  0  0
    0.2356    3.6294    1.3713 O   0  0  0  0  0  0  0  0  0  0  0  0
    0.6739    2.4974   -1.6413 O   0  0  0  0  0  0  0  0  0  0  0  0
   -1.2403    3.7565   -0.3397 O   0  0  0  0  0  0  0  0  0  0  0  0
   -5.0127    3.0416   -1.0807 O   0  0  0  0  0  0  0  0  0  0  0  0
   -6.9576    2.0091   -0.7552 O   0  0  0  0  0  0  0  0  0  0  0  0
   -9.1118    2.1146   -1.3668 O   0  0  0  0  0  0  0  0  0  0  0  0
   -4.7085   -0.9397   -1.8453 O   0  0  0  0  0  0  0  0  0  0  0  0
   -2.9720   -2.2068    0.0543 O   0  0  0  0  0  0  0  0  0  0  0  0
    1.8862   -3.2160   -1.6005 O   0  0  0  0  0  0  0  0  0  0  0  0
    2.3294   -0.5665    1.6408 C   0  0  0  0  0  0  0  0  0  0  0  0
    2.1433   -1.0906    0.2078 C   0  0  0  0  0  0  0  0  0  0  0  0
    3.0368   -0.3581   -0.7410 C   0  0  1  0  0  0  0  0  0  0  0  0
    3.7849    0.7048    0.0061 C   0  0  2  0  0  0  0  0  0  0  0  0
    2.3347    2.7993    0.1696 C   0  0  0  0  0  0  0  0  0  0  0  0
    1.4988    3.4679    1.2317 C   0  0  0  0  0  0  0  0  0  0  0  0
    1.7312    3.0682    2.6319 C   0  0  0  0  0  0  0  0  0  0  0  0
    1.8823    1.5906    2.8946 C   0  0  0  0  0  0  0  0  0  0  0  0
    1.9983    0.9012    1.5883 C   0  0  0  0  0  0  0  0  0  0  0  0
    3.0467    1.6742    0.7692 C   0  0  1  0  0  0  0  0  0  0  0  0
    1.3181    2.5143   -0.8822 C   0  0  0  0  0  0  0  0  0  0  0  0
    0.2245    3.5253   -0.4977 C   0  0  2  0  0  0  0  0  0  0  0  0
    0.6901    4.9312   -0.7970 C   0  0  0  0  0  0  0  0  0  0  0  0
    2.8549    3.8762    3.2925 C   0  0  0  0  0  0  0  0  0  0  0  0
    1.2016   -3.3214    0.5151 C   0  0  0  0  0  0  0  0  0  0  0  0
    0.1426   -3.6545   -0.5251 C   0  0  0  0  0  0  0  0  0  0  0  0
   -0.5262   -4.9043   -0.0902 C   0  0  0  0  0  0  0  0  0  0  0  0
   -1.8954   -5.1923   -0.5717 C   0  0  0  0  0  0  0  0  0  0  0  0
   -2.9445   -5.1036    0.5142 C   0  0  0  0  0  0  0  0  0  0  0  0
   -4.2727   -4.5710    0.0655 C   0  0  1  0  0  0  0  0  0  0  0  0
   -4.3413   -3.0971   -0.0278 C   0  0  1  0  0  0  0  0  0  0  0  0
   -5.7369   -2.5069    0.2711 C   0  0  2  0  0  0  0  0  0  0  0  0
   -5.5443   -1.0569   -0.1588 C   0  0  2  0  0  0  0  0  0  0  0  0
   -6.6761   -0.1534   -0.0726 C   0  0  2  0  0  0  0  0  0  0  0  0
   -6.4588    1.2145    0.5016 C   0  0  1  0  0  0  0  0  0  0  0  0
   -5.0914    1.5862    0.9164 C   0  0  1  0  0  0  0  0  0  0  0  0
   -4.2128    1.9960   -0.2486 C   0  0  2  0  0  0  0  0  0  0  0  0
   -2.9797    2.7621    0.2044 C   0  0  0  0  0  0  0  0  0  0  0  0
   -1.7369    2.2685   -0.5341 C   0  0  0  0  0  0  0  0  0  0  0  0
   -0.7166   -2.4706   -0.7716 C   0  0  0  0  0  0  0  0  0  0  0  0
   -4.6688   -5.2508   -1.2320 C   0  0  0  0  0  0  0  0  0  0  0  0
   -5.9675   -2.6939    1.7267 C   0  0  0  0  0  0  0  0  0  0  0  0
   -7.8825   -0.8437    0.5375 C   0  0  0  0  0  0  0  0  0  0  0  0
   -5.2227    2.8524    1.7828 C   0  0  0  0  0  0  0  0  0  0  0  0
   -8.0042    2.9422    0.2024 C   0  0  0  0  0  0  0  0  0  0  0  0
   -9.2361    2.8836   -0.6566 C   0  0  0  0  0  0  0  0  0  0  0  0
   -5.0385    2.3938   -2.3426 C   0  0  0  0  0  0  0  0  0  0  0  0
    5.2833   -0.1782   -1.3551 C   0  0  0  0  0  0  0  0  0  0  0  0
    6.2305   -0.5703   -0.2605 C   0  0  0  0  0  0  0  0  0  0  0  0
    5.8397   -0.0879   -2.7125 C   0  0  0  0  0  0  0  0  0  0  0  0
    7.4943   -1.2288   -0.8306 C   0  0  0  0  0  0  0  0  0  0  0  0
    7.3099   -0.1855   -2.8824 C   0  0  0  0  0  0  0  0  0  0  0  0
    9.4438   -0.1706   -1.8342 C   0  0  0  0  0  0  0  0  0  0  0  0
   10.2363    0.3050   -0.6793 C   0  0  0  0  0  0  0  0  0  0  0  0
   10.1745   -0.4564    0.5904 C   0  0  0  0  0  0  0  0  0  0  0  0
   11.7118    0.4481   -1.0462 C   0  0  0  0  0  0  0  0  0  0  0  0
    2.2569   -2.4917    0.0781 N   0  0  0  0  0  0  0  0  0  0  0  0
    4.1542   -1.1227   -1.2617 N   0  0  0  0  0  0  0  0  0  0  0  0
    4.7122    1.1399   -1.0062 N   0  0  0  0  0  0  0  0  0  0  0  0
    8.0617   -0.2332   -1.6727 N   0  0  0  0  0  0  0  0  0  0  0  0
    1.3642   -1.1167    2.4929 O   0  0  0  0  0  0  0  0  0  0  0  0
    0.8468    1.0401    3.6166 O   0  0  0  0  0  0  0  0  0  0  0  0
    0.1637    3.2933    0.8774 O   0  0  0  0  0  0  0  0  0  0  0  0
    1.7371    2.7962   -2.1666 O   0  0  0  0  0  0  0  0  0  0  0  0
   -0.9833    3.2705   -1.0824 O   0  0  0  0  0  0  0  0  0  0  0  0
   -4.9552    2.8702   -1.0384 O   0  0  0  0  0  0  0  0  0  0  0  0
   -6.9437    2.2437   -0.3018 O   0  0  0  0  0  0  0  0  0  0  0  0
   -7.6558    4.2847    0.4957 O   0  0  0  0  0  0  0  0  0  0  0  0
   -5.1246   -1.2019   -1.5171 O   0  0  0  0  0  0  0  0  0  0  0  0
   -3.5120   -2.4914    0.9114 O   0  0  0  0  0  0  0  0  0  0  0  0
    1.7842   -4.5737    0.8542 O   0  0  0  0  0  0  0  0  0  0  0  0
    2.6736   -0.8073    2.3401 H   0  0  0  0  0  0  0  0  0  0  0  0
    0.9339   -1.3147   -0.0915 H   0  0  0  0  0  0  0  0  0  0  0  0
    2.4830   -0.4252   -1.4922 H   0  0  0  0  0  0  0  0  0  0  0  0
    3.7482    0.4810    1.1374 H   0  0  0  0  0  0  0  0  0  0  0  0
    3.0981    3.2601    0.0442 H   0  0  0  0  0  0  0  0  0  0  0  0
    1.9859    4.6262    1.4589 H   0  0  0  0  0  0  0  0  0  0  0  0
    1.3536    3.3414    3.5955 H   0  0  0  0  0  0  0  0  0  0  0  0
    3.0712    1.1088    2.9569 H   0  0  0  0  0  0  0  0  0  0  0  0
    0.3176    0.9872    1.6182 H   0  0  0  0  0  0  0  0  0  0  0  0
    1.2519    1.0806   -0.4718 H   0  0  0  0  0  0  0  0  0  0  0  0
    1.6205    4.3029   -1.2964 H   0  0  0  0  0  0  0  0  0  0  0  0
   -0.4428    5.9753   -0.7739 H   0  0  0  0  0  0  0  0  0  0  0  0
    1.1771    5.9204    0.1079 H   0  0  0  0  0  0  0  0  0  0  0  0
   -0.3857    5.9542    1.0071 H   0  0  0  0  0  0  0  0  0  0  0  0
    3.8111    3.1558    4.0907 H   0  0  0  0  0  0  0  0  0  0  0  0
    4.1177    3.1482    2.2889 H   0  0  0  0  0  0  0  0  0  0  0  0
    3.4218    4.6144    3.0394 H   0  0  0  0  0  0  0  0  0  0  0  0
    2.1651   -4.6199   -0.1237 H   0  0  0  0  0  0  0  0  0  0  0  0
   -0.3407   -2.8794   -0.3270 H   0  0  0  0  0  0  0  0  0  0  0  0
   -0.6467   -5.8029   -0.4918 H   0  0  0  0  0  0  0  0  0  0  0  0
    0.5046   -5.1998   -1.6958 H   0  0  0  0  0  0  0  0  0  0  0  0
   -1.6290   -3.3019   -1.7941 H   0  0  0  0  0  0  0  0  0  0  0  0
   -1.3289   -4.6575   -2.8890 H   0  0  0  0  0  0  0  0  0  0  0  0
   -2.4711   -6.1114   -0.9814 H   0  0  0  0  0  0  0  0  0  0  0  0
   -3.4204   -5.3907   -2.2921 H   0  0  0  0  0  0  0  0  0  0  0  0
   -2.9518   -4.5088    0.5698 H   0  0  0  0  0  0  0  0  0  0  0  0
   -3.7995   -2.7704   -1.7722 H   0  0  0  0  0  0  0  0  0  0  0  0
   -6.0461   -2.9019   -0.8716 H   0  0  0  0  0  0  0  0  0  0  0  0
   -4.3896   -0.6812    0.1927 H   0  0  0  0  0  0  0  0  0  0  0  0
   -6.8785   -0.1985   -1.4745 H   0  0  0  0  0  0  0  0  0  0  0  0
   -7.2946    1.0440    0.9744 H   0  0  0  0  0  0  0  0  0  0  0  0
   -4.7158    0.8420    1.4230 H   0  0  0  0  0  0  0  0  0  0  0  0
   -3.6667    1.6168   -0.6527 H   0  0  0  0  0  0  0  0  0  0  0  0
   -3.5823    3.0297    1.7552 H   0  0  0  0  0  0  0  0  0  0  0  0
   -3.5851    4.2906    0.5171 H   0  0  0  0  0  0  0  0  0  0  0  0
   -1.4030    2.6294    1.4013 H   0  0  0  0  0  0  0  0  0  0  0  0
   -1.9425    1.8854   -0.1148 H   0  0  0  0  0  0  0  0  0  0  0  0
    0.6926   -4.0883    2.0112 H   0  0  0  0  0  0  0  0  0  0  0  0
   -0.5009   -5.2792    1.3857 H   0  0  0  0  0  0  0  0  0  0  0  0
   -0.9898   -3.5973    1.7158 H   0  0  0  0  0  0  0  0  0  0  0  0
   -4.8259   -5.6890    0.9630 H   0  0  0  0  0  0  0  0  0  0  0  0
   -4.8036   -6.2294   -0.7132 H   0  0  0  0  0  0  0  0  0  0  0  0
   -5.7742   -4.8255   -0.2719 H   0  0  0  0  0  0  0  0  0  0  0  0
   -5.2111   -1.8177    1.7647 H   0  0  0  0  0  0  0  0  0  0  0  0
   -4.4944   -3.4170    1.6147 H   0  0  0  0  0  0  0  0  0  0  0  0
   -6.2603   -3.3325    1.5444 H   0  0  0  0  0  0  0  0  0  0  0  0
   -8.5104   -0.5152    0.0850 H   0  0  0  0  0  0  0  0  0  0  0  0
   -7.8187   -2.0606   -0.3837 H   0  0  0  0  0  0  0  0  0  0  0  0
   -7.4887   -1.2972    1.2824 H   0  0  0  0  0  0  0  0  0  0  0  0
   -5.5596    3.6579    1.4711 H   0  0  0  0  0  0  0  0  0  0  0  0
   -5.2060    2.4862    2.8295 H   0  0  0  0  0  0  0  0  0  0  0  0
   -6.7944    2.5400    2.0825 H   0  0  0  0  0  0  0  0  0  0  0  0
   -8.5790    2.1338    0.5687 H   0  0  0  0  0  0  0  0  0  0  0  0
   -7.2714    4.5097   -0.5711 H   0  0  0  0  0  0  0  0  0  0  0  0
   -8.9485    4.4527   -1.1186 H   0  0  0  0  0  0  0  0  0  0  0  0
   -8.6264    4.4241    0.6171 H   0  0  0  0  0  0  0  0  0  0  0  0
   -3.6120    2.8982   -2.6115 H   0  0  0  0  0  0  0  0  0  0  0  0
   -5.0203    1.7166   -2.7058 H   0  0  0  0  0  0  0  0  0  0  0  0
   -5.2462    3.4469   -3.0386 H   0  0  0  0  0  0  0  0  0  0  0  0
    6.4819    0.9465    0.3512 H   0  0  0  0  0  0  0  0  0  0  0  0
    5.5919   -0.3869    1.1673 H   0  0  0  0  0  0  0  0  0  0  0  0
    4.9668   -0.5799   -2.9648 H   0  0  0  0  0  0  0  0  0  0  0  0
    5.8994    0.9100   -2.6180 H   0  0  0  0  0  0  0  0  0  0  0  0
    6.7484   -2.0198   -0.2428 H   0  0  0  0  0  0  0  0  0  0  0  0
    7.8166   -1.0182    0.8616 H   0  0  0  0  0  0  0  0  0  0  0  0
    7.4479   -0.6582   -3.3022 H   0  0  0  0  0  0  0  0  0  0  0  0
    6.7553   -2.0023   -2.3827 H   0  0  0  0  0  0  0  0  0  0  0  0
    9.6076   -1.7388   -1.3102 H   0  0  0  0  0  0  0  0  0  0  0  0
    9.4320   -0.4783   -2.5228 H   0  0  0  0  0  0  0  0  0  0  0  0
    9.9383    1.2838   -0.9567 H   0  0  0  0  0  0  0  0  0  0  0  0
   10.1136   -0.8694    1.2552 H   0  0  0  0  0  0  0  0  0  0  0  0
    9.2473    0.7821    1.2974 H   0  0  0  0  0  0  0  0  0  0  0  0
   10.9947    0.6485    1.1928 H   0  0  0  0  0  0  0  0  0  0  0  0
   11.9463    0.6061   -1.7829 H   0  0  0  0  0  0  0  0  0  0  0  0
   12.2237   -0.1168   -0.1818 H   0  0  0  0  0  0  0  0  0  0  0  0
   11.5952   -1.1452   -1.4802 H   0  0  0  0  0  0  0  0  0  0  0  0
    3.2573   -2.8755    0.7089 H   0  0  0  0  0  0  0  0  0  0  0  0
    4.3054   -1.8555   -1.4857 H   0  0  0  0  0  0  0  0  0  0  0  0
    3.8305    1.3793   -1.6934 H   0  0  0  0  0  0  0  0  0  0  0  0
   -0.1592   -1.0319    1.9766 H   0  0  0  0  0  0  0  0  0  0  0  0
    1.8709    1.2288    4.7281 H   0  0  0  0  0  0  0  0  0  0  0  0
    0.9360    2.7786   -2.5597 H   0  0  0  0  0  0  0  0  0  0  0  0
   -8.8420    2.5517   -2.2037 H   0  0  0  0  0  0  0  0  0  0  0  0
   -5.4677   -1.2985   -2.3906 H   0  0  0  0  0  0  0  0  0  0  0  0
   -2.5481   -1.5178   -0.4809 H   0  0  0  0  0  0  0  0  0  0  0  0
    2.4467   -3.8720   -2.0717 H   0  0  0  0  0  0  0  0  0  0  0  0
    3.2908   -0.8211    2.0747 H   0  0  0  0  0  0  0  0  0  0  0  0
    1.1065   -0.7212   -0.0557 H   0  0  0  0  0  0  0  0  0  0  0  0
    2.5140    0.0248   -1.6411 H   0  0  0  0  0  0  0  0  0  0  0  0
    4.4515    0.1337    0.7279 H   0  0  0  0  0  0  0  0  0  0  0  0
    3.0910    3.5084   -0.2807 H   0  0  0  0  0  0  0  0  0  0  0  0
    1.7098    4.5639    1.1531 H   0  0  0  0  0  0  0  0  0  0  0  0
    0.7987    3.3631    3.2047 H   0  0  0  0  0  0  0  0  0  0  0  0
    2.8108    1.4690    3.5238 H   0  0  0  0  0  0  0  0  0  0  0  0
    0.9997    0.9721    1.0885 H   0  0  0  0  0  0  0  0  0  0  0  0
    3.7720    2.1323    1.5160 H   0  0  0  0  0  0  0  0  0  0  0  0
    0.8426    1.5449   -0.8569 H   0  0  0  0  0  0  0  0  0  0  0  0
    0.2344    5.2569   -1.7576 H   0  0  0  0  0  0  0  0  0  0  0  0
    1.7964    4.9857   -0.8413 H   0  0  0  0  0  0  0  0  0  0  0  0
    0.3626    5.5997    0.0245 H   0  0  0  0  0  0  0  0  0  0  0  0
    3.4541    4.4253    2.5347 H   0  0  0  0  0  0  0  0  0  0  0  0
    3.5102    3.1907    3.9067 H   0  0  0  0  0  0  0  0  0  0  0  0
    2.4796    4.6294    3.9952 H   0  0  0  0  0  0  0  0  0  0  0  0
    0.6651   -3.0292    1.4241 H   0  0  0  0  0  0  0  0  0  0  0  0
    0.7023   -3.8733   -1.4778 H   0  0  0  0  0  0  0  0  0  0  0  0
   -0.5168   -4.9258    1.0463 H   0  0  0  0  0  0  0  0  0  0  0  0
    0.2003   -5.7433   -0.3327 H   0  0  0  0  0  0  0  0  0  0  0  0
   -2.1260   -4.6794   -1.4965 H   0  0  0  0  0  0  0  0  0  0  0  0
   -1.8900   -6.2930   -0.8735 H   0  0  0  0  0  0  0  0  0  0  0  0
   -2.5207   -4.5689    1.3953 H   0  0  0  0  0  0  0  0  0  0  0  0
   -3.1467   -6.1349    0.9345 H   0  0  0  0  0  0  0  0  0  0  0  0
   -5.0280   -4.9191    0.8184 H   0  0  0  0  0  0  0  0  0  0  0  0
   -4.0984   -2.7568   -1.0619 H   0  0  0  0  0  0  0  0  0  0  0  0
   -6.4387   -3.0595   -0.3888 H   0  0  0  0  0  0  0  0  0  0  0  0
   -4.6114   -0.7426    0.3547 H   0  0  0  0  0  0  0  0  0  0  0  0
   -7.0413    0.0577   -1.1330 H   0  0  0  0  0  0  0  0  0  0  0  0
   -7.1110    1.2527    1.4286 H   0  0  0  0  0  0  0  0  0  0  0  0
   -4.5904    0.8565    1.5820 H   0  0  0  0  0  0  0  0  0  0  0  0
   -3.9175    1.1499   -0.9044 H   0  0  0  0  0  0  0  0  0  0  0  0
   -2.8844    2.6101    1.2911 H   0  0  0  0  0  0  0  0  0  0  0  0
   -3.0451    3.8494    0.0004 H   0  0  0  0  0  0  0  0  0  0  0  0
   -2.1176    1.6448   -1.3829 H   0  0  0  0  0  0  0  0  0  0  0  0
   -1.1782    1.6381    0.1961 H   0  0  0  0  0  0  0  0  0  0  0  0
   -0.9469   -1.8914    0.1708 H   0  0  0  0  0  0  0  0  0  0  0  0
   -0.3382   -1.8067   -1.5877 H   0  0  0  0  0  0  0  0  0  0  0  0
   -1.7064   -2.8018   -1.1299 H   0  0  0  0  0  0  0  0  0  0  0  0
   -5.5431   -5.9219   -1.1133 H   0  0  0  0  0  0  0  0  0  0  0  0
   -3.8302   -5.8669   -1.6098 H   0  0  0  0  0  0  0  0  0  0  0  0
   -4.9837   -4.4724   -1.9630 H   0  0  0  0  0  0  0  0  0  0  0  0
   -5.7965   -1.8073    2.3436 H   0  0  0  0  0  0  0  0  0  0  0  0
   -5.3614   -3.5062    2.2062 H   0  0  0  0  0  0  0  0  0  0  0  0
   -7.0281   -3.0558    1.8916 H   0  0  0  0  0  0  0  0  0  0  0  0
   -8.8292   -0.3219    0.2601 H   0  0  0  0  0  0  0  0  0  0  0  0
   -7.9693   -1.8428    0.0709 H   0  0  0  0  0  0  0  0  0  0  0  0
   -7.8643   -0.8543    1.6269 H   0  0  0  0  0  0  0  0  0  0  0  0
   -5.0494    3.7546    1.1841 H   0  0  0  0  0  0  0  0  0  0  0  0
   -4.4183    2.8423    2.5552 H   0  0  0  0  0  0  0  0  0  0  0  0
   -6.1897    2.8003    2.2857 H   0  0  0  0  0  0  0  0  0  0  0  0
   -8.2657    2.5091    1.1915 H   0  0  0  0  0  0  0  0  0  0  0  0
  -10.1054    2.6888   -0.0334 H   0  0  0  0  0  0  0  0  0  0  0  0
   -9.3672    3.9066   -1.1093 H   0  0  0  0  0  0  0  0  0  0  0  0
   -9.1309    2.2085   -1.5391 H   0  0  0  0  0  0  0  0  0  0  0  0
   -5.6303    3.0682   -2.9849 H   0  0  0  0  0  0  0  0  0  0  0  0
   -4.0010    2.3085   -2.7675 H   0  0  0  0  0  0  0  0  0  0  0  0
   -5.4562    1.3703   -2.4028 H   0  0  0  0  0  0  0  0  0  0  0  0
    6.5652    0.3093    0.3186 H   0  0  0  0  0  0  0  0  0  0  0  0
    5.8209   -1.3360    0.4373 H   0  0  0  0  0  0  0  0  0  0  0  0
    5.3627   -0.8954   -3.3439 H   0  0  0  0  0  0  0  0  0  0  0  0
    5.5088    0.8602   -3.2343 H   0  0  0  0  0  0  0  0  0  0  0  0
    7.0735   -2.0916   -1.4460 H   0  0  0  0  0  0  0  0  0  0  0  0
    8.0669   -1.6066   -0.0031 H   0  0  0  0  0  0  0  0  0  0  0  0
    7.7324    0.6590   -3.5021 H   0  0  0  0  0  0  0  0  0  0  0  0
    7.5963   -1.1002   -3.4800 H   0  0  0  0  0  0  0  0  0  0  0  0
    9.8044   -1.2265   -2.0932 H   0  0  0  0  0  0  0  0  0  0  0  0
    9.7551    0.4638   -2.7151 H   0  0  0  0  0  0  0  0  0  0  0  0
    9.8736    1.3548   -0.4411 H   0  0  0  0  0  0  0  0  0  0  0  0
   10.3418   -1.5457    0.4872 H   0  0  0  0  0  0  0  0  0  0  0  0
    9.3513   -0.1776    1.2824 H   0  0  0  0  0  0  0  0  0  0  0  0
   11.0989   -0.1248    1.1854 H   0  0  0  0  0  0  0  0  0  0  0  0
   11.8754    1.3494   -1.6857 H   0  0  0  0  0  0  0  0  0  0  0  0
   12.3000    0.6504   -0.1028 H   0  0  0  0  0  0  0  0  0  0  0  0
   12.1288   -0.4656   -1.4738 H   0  0  0  0  0  0  0  0  0  0  0  0
    3.1296   -2.7728    0.6222 H   0  0  0  0  0  0  0  0  0  0  0  0
    4.4009   -1.9589   -0.7319 H   0  0  0  0  0  0  0  0  0  0  0  0
    4.2099    1.5018   -1.8351 H   0  0  0  0  0  0  0  0  0  0  0  0
    1.7167   -1.3026    3.3852 H   0  0  0  0  0  0  0  0  0  0  0  0
    0.6180    1.6306    4.3667 H   0  0  0  0  0  0  0  0  0  0  0  0
    1.5396    3.7027   -2.4708 H   0  0  0  0  0  0  0  0  0  0  0  0
   -7.8442    4.7740   -0.3622 H   0  0  0  0  0  0  0  0  0  0  0  0
   -5.9834   -1.4296   -1.9953 H   0  0  0  0  0  0  0  0  0  0  0  0
   -3.5170   -2.8672    1.7959 H   0  0  0  0  0  0  0  0  0  0  0  0
    2.0602   -4.9539   -0.0364 H   0  0  0  0  0  0  0  0  0  0  0  0
  1  2  1  0
  2  3  1  0
  3  4  1  0
  5  6  1  0
  6  7  1  0
  7  8  1  0
  1  9  1  0
  8  9  1  0
  4 10  1  0
  5 10  1  0
  9 10  1  0
  5 11  1  0
 11 12  1  0
 12 13  1  1
  7 14  1  0
 15 16  1  0
 16 17  1  0
 17 18  1  0
 18 19  1  0
 19 20  1  0
 20 21  1  0
 21 22  1  0
 22 23  1  0
 23 24  1  0
 24 25  1  0
 25 26  1  0
 26 27  1  0
 27 28  1  0
 28 29  1  0
 16 30  1  0
 20 31  1  0
 22 32  1  0
 24 33  1  0
 26 34  1  0
 35 36  1  0
 38 39  1  0
 38 40  1  0
 39 41  1  0
 40 42  1  0
 43 44  1  0
 44 45  1  0
 44 46  1  0
  2 47  1  0
 15 47  1  0
  3 48  1  0
 38 48  1  0
  4 49  1  0
 38 49  1  0
 41 50  1  0
 42 50  1  0
 43 50  1  0
  1 51  1  0
  8 52  1  0
  6 53  1  0
 12 53  1  0
 11 54  1  0
 12 55  1  0
 29 55  1  0
 27 56  1  0
 37 56  1  0
 25 57  1  0
 35 57  1  0
 35 58  1  0
 23 59  1  0
 21 60  1  0
 15 61  1  0
 62 63  1  0
 63 64  1  0
 64 65  1  0
 66 67  1  0
 67 68  1  0
 68 69  1  0
 62 70  1  0
 69 70  1  0
 65 71  1  0
 66 71  1  0
 70 71  1  0
 66 72  1  0
 72 73  1  0
 73 74  1  1
 68 75  1  0
 76 77  1  0
 77 78  1  0
 78 79  1  0
 79 80  1  0
 80 81  1  0
 81 82  1  0
 82 83  1  0
 83 84  1  0
 84 85  1  0
 85 86  1  0
 86 87  1  0
 87 88  1  0
 88 89  1  0
 89 90  1  0
 77 91  1  0
 81 92  1  0
 83 93  1  0
 85 94  1  0
 87 95  1  0
 96 97  1  0
 99100  1  0
 99101  1  0
100102  1  0
101103  1  0
104105  1  0
105106  1  0
105107  1  0
 63108  1  0
 76108  1  0
 64109  1  0
 99109  1  0
 65110  1  0
 99110  1  0
102111  1  0
103111  1  0
104111  1  0
 62112  1  0
 69113  1  0
 67114  1  0
 73114  1  0
 72115  1  0
 73116  1  0
 90116  1  0
 88117  1  0
 98117  1  0
 86118  1  0
 96118  1  0
 96119  1  0
 84120  1  0
 82121  1  0
 76122  1  0
  1123  1  0
  2124  1  0
  3125  1  0
  4126  1  1
  5127  1  0
  6128  1  0
  7129  1  0
  8130  1  0
  9131  1  0
 10132  1  0
 11133  1  6
 13134  1  0
 13135  1  0
 13136  1  0
 14137  1  0
 14138  1  0
 14139  1  0
 15140  1  0
 16141  1  0
 17142  1  0
 17143  1  0
 18144  1  0
 18145  1  0
 19146  1  0
 19147  1  0
 20148  1  1
 21149  1  6
 22150  1  6
 23151  1  1
 24152  1  6
 25153  1  1
 26154  1  1
 27155  1  6
 28156  1  0
 28157  1  0
 29158  1  0
 29159  1  0
 30160  1  0
 30161  1  0
 30162  1  0
 31163  1  0
 31164  1  0
 31165  1  0
 32166  1  0
 32167  1  0
 32168  1  0
 33169  1  0
 33170  1  0
 33171  1  0
 34172  1  0
 34173  1  0
 34174  1  0
 35175  1  0
 36176  1  0
 36177  1  0
 36178  1  0
 37179  1  0
 37180  1  0
 37181  1  0
 39182  1  0
 39183  1  0
 40184  1  0
 40185  1  0
 41186  1  0
 41187  1  0
 42188  1  0
 42189  1  0
 43190  1  0
 43191  1  0
 44192  1  0
 45193  1  0
 45194  1  0
 45195  1  0
 46196  1  0
 46197  1  0
 46198  1  0
 47199  1  0
 48200  1  0
 49201  1  0
 51202  1  0
 52203  1  0
 54204  1  0
 58205  1  0
 59206  1  0
 60207  1  0
 61208  1  0
 62209  1  0
 63210  1  0
 64211  1  6
 65212  1  1
 66213  1  0
 67214  1  0
 68215  1  0
 69216  1  0
 70217  1  0
 71218  1  1
 72219  1  0
 74220  1  0
 74221  1  0
 74222  1  0
 75223  1  0
 75224  1  0
 75225  1  0
 76226  1  0
 77227  1  0
 78228  1  0
 78229  1  0
 79230  1  0
 79231  1  0
 80232  1  0
 80233  1  0
 81234  1  1
 82235  1  6
 83236  1  6
 84237  1  1
 85238  1  6
 86239  1  1
 87240  1  1
 88241  1  6
 89242  1  0
 89243  1  0
 90244  1  0
 90245  1  0
 91246  1  0
 91247  1  0
 91248  1  0
 92249  1  0
 92250  1  0
 92251  1  0
 93252  1  0
 93253  1  0
 93254  1  0
 94255  1  0
 94256  1  0
 94257  1  0
 95258  1  0
 95259  1  0
 95260  1  0
 96261  1  0
 97262  1  0
 97263  1  0
 97264  1  0
 98265  1  0
 98266  1  0
 98267  1  0
100268  1  0
100269  1  0
101270  1  0
101271  1  0
102272  1  0
102273  1  0
103274  1  0
103275  1  0
104276  1  0
104277  1  0
105278  1  0
106279  1  0
106280  1  0
106281  1  0
107282  1  0
107283  1  0
107284  1  0
108285  1  0
109286  1  0
110287  1  0
112288  1  0
113289  1  0
115290  1  0
119291  1  0
120292  1  0
121293  1  0
122294  1  0
M  END
>  <PDBID>  (1) 
2A68

>  <PDB ID>  (1) 
2A68

>  <Generic Name>  (1) 
Rifabutin

>  <Brand Name>  (1) 
Mycobutin#Rifabutin#Ansatipin#Ansatipine#Ributin

>  <DrugBank ID>  (1) 
DB00615

>  <ATC Codes>  (1) 
J04AB04

>  <Ligand ID>  (1) 
RBT

>  <Target Name>  (1) 
DNA-directed RNA polymerase subunit beta

>  <UniProt ID>  (1) 
P0A8V2

>  <PDB ID.1>  (1) 
2A68

>  <Seq. Identity>  (1) 
51%

$$$$
