PDB_DB00276_00
     RDKit          3D

138144  0  0  0  0  0  0  0  0999 V2000
    2.1770    0.0582   -3.3946 C   0  0  0  0  0  0  0  0  0  0  0  0
    2.3778   -0.1699   -2.0428 O   0  0  0  0  0  0  0  0  0  0  0  0
    1.6632    0.6456   -1.2117 C   0  0  0  0  0  0  0  0  0  0  0  0
    2.6526    1.4837   -0.3937 C   0  0  0  0  0  0  0  0  0  0  0  0
    3.6107    0.5775    0.3415 C   0  0  0  0  0  0  0  0  0  0  0  0
    4.9434    0.6480   -0.2193 N   0  0  0  0  0  0  0  0  0  0  0  0
    6.1951    0.0476    0.3248 S   0  0  0  0  0  0  0  0  0  0  0  0
    6.1640   -0.9091    1.6586 C   0  0  0  0  0  0  0  0  0  0  0  0
    7.0278   -0.8235   -0.8635 O   0  0  0  0  0  0  0  0  0  0  0  0
    7.3426    1.3017    0.7433 O   0  0  0  0  0  0  0  0  0  0  0  0
    3.0950   -0.8392    0.4333 C   0  0  0  0  0  0  0  0  0  0  0  0
    1.6226   -0.8599    0.7565 C   0  0  0  0  0  0  0  0  0  0  0  0
    0.7951   -0.0735   -0.1992 C   0  0  0  0  0  0  0  0  0  0  0  0
   -0.0670    0.8741    0.4116 N   0  0  0  0  0  0  0  0  0  0  0  0
   -1.4647    0.7018    0.2549 C   0  0  0  0  0  0  0  0  0  0  0  0
   -2.0513    0.7586   -1.1013 C   0  0  0  0  0  0  0  0  0  0  0  0
   -2.8663    2.0105   -1.3704 C   0  0  0  0  0  0  0  0  0  0  0  0
   -4.3349    1.8260   -1.3953 C   0  0  0  0  0  0  0  0  0  0  0  0
   -4.8314    0.6213   -2.1432 C   0  0  0  0  0  0  0  0  0  0  0  0
   -3.6277   -0.1408   -2.7176 C   0  0  0  0  0  0  0  0  0  0  0  0
   -2.8218   -0.5055   -1.4608 C   0  0  0  0  0  0  0  0  0  0  0  0
   -3.7692   -0.9194   -0.4872 N   0  0  0  0  0  0  0  0  0  0  0  0
   -3.4136   -0.6204    0.8752 C   0  0  0  0  0  0  0  0  0  0  0  0
   -4.0300   -1.7007    1.7393 C   0  0  0  0  0  0  0  0  0  0  0  0
   -3.2768   -1.9195    3.0159 C   0  0  0  0  0  0  0  0  0  0  0  0
   -2.6361   -0.6235    3.4357 C   0  0  0  0  0  0  0  0  0  0  0  0
   -1.5264   -0.2769    2.4626 C   0  0  0  0  0  0  0  0  0  0  0  0
   -1.9275   -0.5520    1.0365 C   0  0  0  0  0  0  0  0  0  0  0  0
    2.1770    0.0582   -3.3946 C   0  0  0  0  0  0  0  0  0  0  0  0
    2.3778   -0.1699   -2.0428 O   0  0  0  0  0  0  0  0  0  0  0  0
    1.6632    0.6456   -1.2117 C   0  0  0  0  0  0  0  0  0  0  0  0
    2.6526    1.4837   -0.3937 C   0  0  0  0  0  0  0  0  0  0  0  0
    3.6107    0.5775    0.3415 C   0  0  0  0  0  0  0  0  0  0  0  0
    4.9434    0.6480   -0.2193 N   0  0  0  0  0  0  0  0  0  0  0  0
    6.1951    0.0476    0.3248 S   0  0  0  0  0  0  0  0  0  0  0  0
    6.1640   -0.9091    1.6586 C   0  0  0  0  0  0  0  0  0  0  0  0
    7.0278   -0.8235   -0.8635 O   0  0  0  0  0  0  0  0  0  0  0  0
    7.3426    1.3017    0.7433 O   0  0  0  0  0  0  0  0  0  0  0  0
    3.0950   -0.8392    0.4333 C   0  0  0  0  0  0  0  0  0  0  0  0
    1.6226   -0.8599    0.7565 C   0  0  0  0  0  0  0  0  0  0  0  0
    0.7951   -0.0735   -0.1992 C   0  0  0  0  0  0  0  0  0  0  0  0
   -0.0670    0.8741    0.4116 N   0  0  0  0  0  0  0  0  0  0  0  0
   -1.4647    0.7018    0.2549 C   0  0  0  0  0  0  0  0  0  0  0  0
   -2.0513    0.7586   -1.1013 C   0  0  0  0  0  0  0  0  0  0  0  0
   -2.8663    2.0105   -1.3704 C   0  0  0  0  0  0  0  0  0  0  0  0
   -4.3349    1.8260   -1.3953 C   0  0  0  0  0  0  0  0  0  0  0  0
   -4.8314    0.6213   -2.1432 C   0  0  0  0  0  0  0  0  0  0  0  0
   -3.6277   -0.1408   -2.7176 C   0  0  0  0  0  0  0  0  0  0  0  0
   -2.8218   -0.5055   -1.4608 C   0  0  0  0  0  0  0  0  0  0  0  0
   -3.7692   -0.9194   -0.4872 N   0  0  0  0  0  0  0  0  0  0  0  0
   -3.4136   -0.6204    0.8752 C   0  0  0  0  0  0  0  0  0  0  0  0
   -4.0300   -1.7007    1.7393 C   0  0  0  0  0  0  0  0  0  0  0  0
   -3.2768   -1.9195    3.0159 C   0  0  0  0  0  0  0  0  0  0  0  0
   -2.6361   -0.6235    3.4357 C   0  0  0  0  0  0  0  0  0  0  0  0
   -1.5264   -0.2769    2.4626 C   0  0  0  0  0  0  0  0  0  0  0  0
   -1.9275   -0.5520    1.0365 C   0  0  0  0  0  0  0  0  0  0  0  0
    2.4901    1.0986   -3.6225 H   0  0  0  0  0  0  0  0  0  0  0  0
    1.0797   -0.1047   -3.5934 H   0  0  0  0  0  0  0  0  0  0  0  0
    2.7265   -0.6918   -3.9908 H   0  0  0  0  0  0  0  0  0  0  0  0
    1.0322    1.3401   -1.8323 H   0  0  0  0  0  0  0  0  0  0  0  0
    3.1248    2.2175   -1.0463 H   0  0  0  0  0  0  0  0  0  0  0  0
    2.0736    2.0910    0.3665 H   0  0  0  0  0  0  0  0  0  0  0  0
    3.7158    0.9715    1.3856 H   0  0  0  0  0  0  0  0  0  0  0  0
    4.8229    0.7708   -1.2647 H   0  0  0  0  0  0  0  0  0  0  0  0
    5.8283   -1.9537    1.4735 H   0  0  0  0  0  0  0  0  0  0  0  0
    7.2106   -1.0610    2.0886 H   0  0  0  0  0  0  0  0  0  0  0  0
    5.5921   -0.5348    2.5402 H   0  0  0  0  0  0  0  0  0  0  0  0
    6.8372   -0.3819   -1.7526 H   0  0  0  0  0  0  0  0  0  0  0  0
    6.7407    2.0100    1.1130 H   0  0  0  0  0  0  0  0  0  0  0  0
    3.5832   -1.2828    1.3501 H   0  0  0  0  0  0  0  0  0  0  0  0
    3.3855   -1.4866   -0.4024 H   0  0  0  0  0  0  0  0  0  0  0  0
    1.3207   -1.9362    0.8189 H   0  0  0  0  0  0  0  0  0  0  0  0
    1.5229   -0.3729    1.7471 H   0  0  0  0  0  0  0  0  0  0  0  0
    0.1101   -0.7752   -0.7906 H   0  0  0  0  0  0  0  0  0  0  0  0
    0.2380    1.3195    1.2722 H   0  0  0  0  0  0  0  0  0  0  0  0
   -1.9451    1.5420    0.8476 H   0  0  0  0  0  0  0  0  0  0  0  0
   -1.2307    0.7905   -1.8494 H   0  0  0  0  0  0  0  0  0  0  0  0
   -2.5479    2.5429   -2.2994 H   0  0  0  0  0  0  0  0  0  0  0  0
   -2.6240    2.7222   -0.5383 H   0  0  0  0  0  0  0  0  0  0  0  0
   -4.7625    2.7111   -1.9604 H   0  0  0  0  0  0  0  0  0  0  0  0
   -4.8122    1.9188   -0.3913 H   0  0  0  0  0  0  0  0  0  0  0  0
   -5.6085    0.8029   -2.8790 H   0  0  0  0  0  0  0  0  0  0  0  0
   -5.2697   -0.0583   -1.3747 H   0  0  0  0  0  0  0  0  0  0  0  0
   -3.0644    0.5057   -3.3908 H   0  0  0  0  0  0  0  0  0  0  0  0
   -4.0629   -1.0417   -3.1883 H   0  0  0  0  0  0  0  0  0  0  0  0
   -2.1222   -1.3098   -1.7265 H   0  0  0  0  0  0  0  0  0  0  0  0
   -3.9119   -1.9684   -0.6037 H   0  0  0  0  0  0  0  0  0  0  0  0
   -3.8792    0.3437    1.1478 H   0  0  0  0  0  0  0  0  0  0  0  0
   -4.0189   -2.6806    1.1912 H   0  0  0  0  0  0  0  0  0  0  0  0
   -5.0892   -1.4407    1.8999 H   0  0  0  0  0  0  0  0  0  0  0  0
   -2.5328   -2.7432    2.9575 H   0  0  0  0  0  0  0  0  0  0  0  0
   -4.0027   -2.2013    3.8033 H   0  0  0  0  0  0  0  0  0  0  0  0
   -3.3916    0.1517    3.5239 H   0  0  0  0  0  0  0  0  0  0  0  0
   -2.1819   -0.7790    4.4357 H   0  0  0  0  0  0  0  0  0  0  0  0
   -1.2770    0.7902    2.6569 H   0  0  0  0  0  0  0  0  0  0  0  0
   -0.6422   -0.8672    2.7802 H   0  0  0  0  0  0  0  0  0  0  0  0
   -1.4795   -1.4535    0.6087 H   0  0  0  0  0  0  0  0  0  0  0  0
    2.4901    1.0986   -3.6225 H   0  0  0  0  0  0  0  0  0  0  0  0
    1.0797   -0.1047   -3.5934 H   0  0  0  0  0  0  0  0  0  0  0  0
    2.7265   -0.6918   -3.9908 H   0  0  0  0  0  0  0  0  0  0  0  0
    1.0322    1.3401   -1.8323 H   0  0  0  0  0  0  0  0  0  0  0  0
    3.1248    2.2175   -1.0463 H   0  0  0  0  0  0  0  0  0  0  0  0
    2.0736    2.0910    0.3665 H   0  0  0  0  0  0  0  0  0  0  0  0
    3.7158    0.9715    1.3856 H   0  0  0  0  0  0  0  0  0  0  0  0
    4.8229    0.7708   -1.2647 H   0  0  0  0  0  0  0  0  0  0  0  0
    5.8283   -1.9537    1.4735 H   0  0  0  0  0  0  0  0  0  0  0  0
    7.2106   -1.0610    2.0886 H   0  0  0  0  0  0  0  0  0  0  0  0
    5.5921   -0.5348    2.5402 H   0  0  0  0  0  0  0  0  0  0  0  0
    6.8372   -0.3819   -1.7526 H   0  0  0  0  0  0  0  0  0  0  0  0
    6.7407    2.0100    1.1130 H   0  0  0  0  0  0  0  0  0  0  0  0
    3.5832   -1.2828    1.3501 H   0  0  0  0  0  0  0  0  0  0  0  0
    3.3855   -1.4866   -0.4024 H   0  0  0  0  0  0  0  0  0  0  0  0
    1.3207   -1.9362    0.8189 H   0  0  0  0  0  0  0  0  0  0  0  0
    1.5229   -0.3729    1.7471 H   0  0  0  0  0  0  0  0  0  0  0  0
    0.1101   -0.7752   -0.7906 H   0  0  0  0  0  0  0  0  0  0  0  0
    0.2380    1.3195    1.2722 H   0  0  0  0  0  0  0  0  0  0  0  0
   -1.9451    1.5420    0.8476 H   0  0  0  0  0  0  0  0  0  0  0  0
   -1.2307    0.7905   -1.8494 H   0  0  0  0  0  0  0  0  0  0  0  0
   -2.5479    2.5429   -2.2994 H   0  0  0  0  0  0  0  0  0  0  0  0
   -2.6240    2.7222   -0.5383 H   0  0  0  0  0  0  0  0  0  0  0  0
   -4.7625    2.7111   -1.9604 H   0  0  0  0  0  0  0  0  0  0  0  0
   -4.8122    1.9188   -0.3913 H   0  0  0  0  0  0  0  0  0  0  0  0
   -5.6085    0.8029   -2.8790 H   0  0  0  0  0  0  0  0  0  0  0  0
   -5.2697   -0.0583   -1.3747 H   0  0  0  0  0  0  0  0  0  0  0  0
   -3.0644    0.5057   -3.3908 H   0  0  0  0  0  0  0  0  0  0  0  0
   -4.0629   -1.0417   -3.1883 H   0  0  0  0  0  0  0  0  0  0  0  0
   -2.1222   -1.3098   -1.7265 H   0  0  0  0  0  0  0  0  0  0  0  0
   -3.9119   -1.9684   -0.6037 H   0  0  0  0  0  0  0  0  0  0  0  0
   -3.8792    0.3437    1.1478 H   0  0  0  0  0  0  0  0  0  0  0  0
   -4.0189   -2.6806    1.1912 H   0  0  0  0  0  0  0  0  0  0  0  0
   -5.0892   -1.4407    1.8999 H   0  0  0  0  0  0  0  0  0  0  0  0
   -2.5328   -2.7432    2.9575 H   0  0  0  0  0  0  0  0  0  0  0  0
   -4.0027   -2.2013    3.8033 H   0  0  0  0  0  0  0  0  0  0  0  0
   -3.3916    0.1517    3.5239 H   0  0  0  0  0  0  0  0  0  0  0  0
   -2.1819   -0.7790    4.4357 H   0  0  0  0  0  0  0  0  0  0  0  0
   -1.2770    0.7902    2.6569 H   0  0  0  0  0  0  0  0  0  0  0  0
   -0.6422   -0.8672    2.7802 H   0  0  0  0  0  0  0  0  0  0  0  0
   -1.4795   -1.4535    0.6087 H   0  0  0  0  0  0  0  0  0  0  0  0
  1  2  1  0
  2  3  1  0
  3  4  1  0
  4  5  1  0
  5  6  1  0
  6  7  1  0
  7  8  1  0
  7  9  1  0
  7 10  1  0
  5 11  1  0
 11 12  1  0
  3 13  1  0
 12 13  1  0
 13 14  1  0
 14 15  1  0
 15 16  1  0
 16 17  1  0
 17 18  1  0
 18 19  1  0
 19 20  1  0
 16 21  1  0
 20 21  1  0
 21 22  1  0
 22 23  1  0
 23 24  1  0
 24 25  1  0
 25 26  1  0
 26 27  1  0
 15 28  1  0
 23 28  1  0
 27 28  1  0
 29 30  1  0
 30 31  1  0
 31 32  1  0
 32 33  1  0
 33 34  1  0
 34 35  1  0
 35 36  1  0
 35 37  1  0
 35 38  1  0
 33 39  1  0
 39 40  1  0
 31 41  1  0
 40 41  1  0
 41 42  1  0
 42 43  1  0
 43 44  1  0
 44 45  1  0
 45 46  1  0
 46 47  1  0
 47 48  1  0
 44 49  1  0
 48 49  1  0
 49 50  1  0
 50 51  1  0
 51 52  1  0
 52 53  1  0
 53 54  1  0
 54 55  1  0
 43 56  1  0
 51 56  1  0
 55 56  1  0
  1 57  1  0
  1 58  1  0
  1 59  1  0
  3 60  1  0
  4 61  1  0
  4 62  1  0
  5 63  1  0
  6 64  1  0
  8 65  1  0
  8 66  1  0
  8 67  1  0
  9 68  1  0
 10 69  1  0
 11 70  1  0
 11 71  1  0
 12 72  1  0
 12 73  1  0
 13 74  1  0
 14 75  1  0
 15 76  1  0
 16 77  1  0
 17 78  1  0
 17 79  1  0
 18 80  1  0
 18 81  1  0
 19 82  1  0
 19 83  1  0
 20 84  1  0
 20 85  1  0
 21 86  1  0
 22 87  1  0
 23 88  1  0
 24 89  1  0
 24 90  1  0
 25 91  1  0
 25 92  1  0
 26 93  1  0
 26 94  1  0
 27 95  1  0
 27 96  1  0
 28 97  1  0
 29 98  1  0
 29 99  1  0
 29100  1  0
 31101  1  0
 32102  1  0
 32103  1  0
 33104  1  0
 34105  1  0
 36106  1  0
 36107  1  0
 36108  1  0
 37109  1  0
 38110  1  0
 39111  1  0
 39112  1  0
 40113  1  0
 40114  1  0
 41115  1  0
 42116  1  0
 43117  1  0
 44118  1  0
 45119  1  0
 45120  1  0
 46121  1  0
 46122  1  0
 47123  1  0
 47124  1  0
 48125  1  0
 48126  1  0
 49127  1  0
 50128  1  0
 51129  1  0
 52130  1  0
 52131  1  0
 53132  1  0
 53133  1  0
 54134  1  0
 54135  1  0
 55136  1  0
 55137  1  0
 56138  1  0
M  END
>  <PDBID>  (1) 
4G0U

>  <PDB ID>  (1) 
4G0U

>  <Generic Name>  (1) 
Amsacrine

>  <Brand Name>  (1) 
Amsa Pd Inj 50mg/ml#AMSA P-D#Amekrin#Amsidine#Amsidyl

>  <DrugBank ID>  (1) 
DB00276

>  <ATC Codes>  (1) 
L01XX01

>  <Ligand ID>  (1) 
ASW

>  <Target Name>  (1) 
DNA topoisomerase 2-alpha

>  <UniProt ID>  (1) 
P11388

>  <PDB ID.1>  (1) 
4G0U

>  <Seq. Identity>  (1) 
78%

$$$$
