PDB_DB00966_02
     RDKit          3D

 99104  0  0  0  0  0  0  0  0999 V2000
   -1.6600   -1.7120    0.3252 C   0  0  0  0  0  0  0  0  0  0  0  0
   -0.3136   -1.5298   -0.2554 N   0  0  0  0  0  0  0  0  0  0  0  0
   -2.1583   -2.6667   -0.7793 C   0  0  0  0  0  0  0  0  0  0  0  0
   -2.4609   -0.4938    0.2807 C   0  0  0  0  0  0  0  0  0  0  0  0
    0.0833   -2.9129   -0.4387 C   0  0  0  0  0  0  0  0  0  0  0  0
    0.4126   -0.7609    0.6780 C   0  0  0  0  0  0  0  0  0  0  0  0
   -1.1622   -3.6951   -0.6012 N   0  0  0  0  0  0  0  0  0  0  0  0
   -3.5236   -3.0694   -0.3039 C   0  0  0  0  0  0  0  0  0  0  0  0
   -3.8330   -0.5530   -0.2969 C   0  0  0  0  0  0  0  0  0  0  0  0
    0.8419   -3.4956    0.7001 C   0  0  0  0  0  0  0  0  0  0  0  0
    1.6207   -0.0233    0.1872 C   0  0  0  0  0  0  0  0  0  0  0  0
   -4.4160   -1.8848   -0.5281 C   0  0  0  0  0  0  0  0  0  0  0  0
   -4.0649   -4.2847   -1.0060 C   0  0  0  0  0  0  0  0  0  0  0  0
   -4.7986    0.2971    0.5009 C   0  0  0  0  0  0  0  0  0  0  0  0
    1.2859   -4.8924    0.4194 C   0  0  0  0  0  0  0  0  0  0  0  0
    2.7299   -0.7762   -0.4168 C   0  0  0  0  0  0  0  0  0  0  0  0
    2.1792    0.8223    1.3176 C   0  0  0  0  0  0  0  0  0  0  0  0
   -4.3472    1.7085    0.5084 N   0  0  0  0  0  0  0  0  0  0  0  0
   -6.0882    0.4634   -0.1028 N   0  0  0  0  0  0  0  0  0  0  0  0
    0.2788   -5.9392    0.1658 C   0  0  0  0  0  0  0  0  0  0  0  0
    3.5998    0.2813   -1.1458 C   0  0  0  0  0  0  0  0  0  0  0  0
    3.6795    0.9292    1.2703 C   0  0  0  0  0  0  0  0  0  0  0  0
   -5.4766    2.2625    1.2246 C   0  0  0  0  0  0  0  0  0  0  0  0
   -4.1910    2.1980   -0.8187 C   0  0  0  0  0  0  0  0  0  0  0  0
   -6.6527    1.6732    0.5317 C   0  0  0  0  0  0  0  0  0  0  0  0
    4.0788    1.2941   -0.1724 C   0  0  0  0  0  0  0  0  0  0  0  0
   -5.4532    3.7169    1.4184 C   0  0  0  0  0  0  0  0  0  0  0  0
   -7.3663    2.5476   -0.4157 C   0  0  0  0  0  0  0  0  0  0  0  0
    5.4992    1.7162   -0.2423 C   0  0  1  0  0  0  0  0  0  0  0  0
   -6.8417    4.2967    1.2352 C   0  0  0  0  0  0  0  0  0  0  0  0
   -7.2813    4.0199   -0.1612 C   0  0  0  0  0  0  0  0  0  0  0  0
    6.5721    0.7517    0.0152 C   0  0  0  0  0  0  0  0  0  0  0  0
    5.8350    2.5622   -1.4552 C   0  0  0  0  0  0  0  0  0  0  0  0
    7.7919    1.5599    0.5219 C   0  0  0  0  0  0  0  0  0  0  0  0
    7.0951   -0.0949   -1.0851 C   0  0  0  0  0  0  0  0  0  0  0  0
    7.0560    3.3536   -1.1031 C   0  0  0  0  0  0  0  0  0  0  0  0
    7.6846    3.0117    0.2055 C   0  0  0  0  0  0  0  0  0  0  0  0
    8.1271   -0.8839   -0.4694 O   0  0  0  0  0  0  0  0  0  0  0  0
    7.7970    0.6145   -2.0755 O   0  0  0  0  0  0  0  0  0  0  0  0
   -1.6448   -2.1964    1.2890 H   0  0  0  0  0  0  0  0  0  0  0  0
   -2.1230   -2.1561   -1.7358 H   0  0  0  0  0  0  0  0  0  0  0  0
   -2.5701   -0.1068    1.3380 H   0  0  0  0  0  0  0  0  0  0  0  0
   -1.8337    0.3155   -0.2035 H   0  0  0  0  0  0  0  0  0  0  0  0
    0.6371   -3.0010   -1.3845 H   0  0  0  0  0  0  0  0  0  0  0  0
    0.6546   -1.3386    1.6275 H   0  0  0  0  0  0  0  0  0  0  0  0
   -0.2524    0.0641    1.1063 H   0  0  0  0  0  0  0  0  0  0  0  0
   -1.3593   -4.0705    0.3730 H   0  0  0  0  0  0  0  0  0  0  0  0
   -3.4953   -3.2542    0.7889 H   0  0  0  0  0  0  0  0  0  0  0  0
   -3.7566   -0.0359   -1.3032 H   0  0  0  0  0  0  0  0  0  0  0  0
    1.7302   -2.9291    0.9847 H   0  0  0  0  0  0  0  0  0  0  0  0
    0.1279   -3.5866    1.5752 H   0  0  0  0  0  0  0  0  0  0  0  0
    1.2775    0.7223   -0.6129 H   0  0  0  0  0  0  0  0  0  0  0  0
   -4.7912   -1.9898   -1.5916 H   0  0  0  0  0  0  0  0  0  0  0  0
   -5.3600   -1.9949    0.0707 H   0  0  0  0  0  0  0  0  0  0  0  0
   -5.0427   -4.5192   -0.4965 H   0  0  0  0  0  0  0  0  0  0  0  0
   -4.2721   -4.1241   -2.0618 H   0  0  0  0  0  0  0  0  0  0  0  0
   -3.4011   -5.1267   -0.7679 H   0  0  0  0  0  0  0  0  0  0  0  0
   -4.8653   -0.0099    1.5625 H   0  0  0  0  0  0  0  0  0  0  0  0
    2.0560   -5.2326    1.1835 H   0  0  0  0  0  0  0  0  0  0  0  0
    1.9407   -4.8211   -0.5195 H   0  0  0  0  0  0  0  0  0  0  0  0
    2.4465   -1.5439   -1.1708 H   0  0  0  0  0  0  0  0  0  0  0  0
    3.4167   -1.2918    0.2759 H   0  0  0  0  0  0  0  0  0  0  0  0
    1.7093    1.8209    1.2712 H   0  0  0  0  0  0  0  0  0  0  0  0
    1.8271    0.3536    2.2709 H   0  0  0  0  0  0  0  0  0  0  0  0
   -6.6618   -0.3864    0.1320 H   0  0  0  0  0  0  0  0  0  0  0  0
   -0.2603   -5.7983   -0.7729 H   0  0  0  0  0  0  0  0  0  0  0  0
    0.8767   -6.9259    0.0877 H   0  0  0  0  0  0  0  0  0  0  0  0
   -0.4057   -6.0302    1.0335 H   0  0  0  0  0  0  0  0  0  0  0  0
    2.8227    0.7523   -1.8458 H   0  0  0  0  0  0  0  0  0  0  0  0
    4.3129   -0.1659   -1.8208 H   0  0  0  0  0  0  0  0  0  0  0  0
    4.1282    0.0066    1.6221 H   0  0  0  0  0  0  0  0  0  0  0  0
    3.9432    1.8189    1.8862 H   0  0  0  0  0  0  0  0  0  0  0  0
   -5.4203    1.7738    2.2466 H   0  0  0  0  0  0  0  0  0  0  0  0
   -4.8242    1.6655   -1.5817 H   0  0  0  0  0  0  0  0  0  0  0  0
   -3.1160    2.1263   -1.0916 H   0  0  0  0  0  0  0  0  0  0  0  0
   -4.4468    3.2673   -0.9554 H   0  0  0  0  0  0  0  0  0  0  0  0
   -7.3900    1.2849    1.2964 H   0  0  0  0  0  0  0  0  0  0  0  0
    3.4341    2.2237   -0.3464 H   0  0  0  0  0  0  0  0  0  0  0  0
   -5.1554    3.9980    2.4749 H   0  0  0  0  0  0  0  0  0  0  0  0
   -4.7444    4.2821    0.7809 H   0  0  0  0  0  0  0  0  0  0  0  0
   -7.1045    2.3749   -1.5008 H   0  0  0  0  0  0  0  0  0  0  0  0
   -8.4703    2.2954   -0.3949 H   0  0  0  0  0  0  0  0  0  0  0  0
    5.5983    2.4878    0.6135 H   0  0  0  0  0  0  0  0  0  0  0  0
   -7.5142    3.7362    1.9312 H   0  0  0  0  0  0  0  0  0  0  0  0
   -6.8550    5.3910    1.4279 H   0  0  0  0  0  0  0  0  0  0  0  0
   -8.2300    4.5554   -0.3789 H   0  0  0  0  0  0  0  0  0  0  0  0
   -6.5320    4.4530   -0.8599 H   0  0  0  0  0  0  0  0  0  0  0  0
    6.3420    0.0609    0.8642 H   0  0  0  0  0  0  0  0  0  0  0  0
    4.9632    3.2734   -1.5669 H   0  0  0  0  0  0  0  0  0  0  0  0
    5.9705    2.0145   -2.3789 H   0  0  0  0  0  0  0  0  0  0  0  0
    8.7387    1.1647    0.1299 H   0  0  0  0  0  0  0  0  0  0  0  0
    7.8741    1.4773    1.6440 H   0  0  0  0  0  0  0  0  0  0  0  0
    6.4321   -0.8604   -1.4933 H   0  0  0  0  0  0  0  0  0  0  0  0
    7.8548    3.3241   -1.8945 H   0  0  0  0  0  0  0  0  0  0  0  0
    6.8009    4.4558   -1.0390 H   0  0  0  0  0  0  0  0  0  0  0  0
    7.2323    3.6048    1.0569 H   0  0  0  0  0  0  0  0  0  0  0  0
    8.7417    3.4149    0.1704 H   0  0  0  0  0  0  0  0  0  0  0  0
    7.7244   -1.4420    0.2408 H   0  0  0  0  0  0  0  0  0  0  0  0
    8.1251   -0.0337   -2.7455 H   0  0  0  0  0  0  0  0  0  0  0  0
  1  2  1  0
  1  3  1  0
  1  4  1  0
  2  5  1  0
  2  6  1  0
  3  7  1  0
  5  7  1  0
  3  8  1  0
  4  9  1  0
  5 10  1  0
  6 11  1  0
  8 12  1  0
  9 12  1  0
  8 13  1  0
  9 14  1  0
 10 15  1  0
 11 16  1  0
 11 17  1  0
 14 18  1  0
 14 19  1  0
 15 20  1  0
 16 21  1  0
 17 22  1  0
 18 23  1  0
 18 24  1  0
 19 25  1  0
 23 25  1  0
 21 26  1  0
 22 26  1  0
 23 27  1  0
 25 28  1  0
 26 29  1  0
 27 30  1  0
 28 31  1  0
 30 31  1  0
 29 32  1  0
 29 33  1  0
 32 34  1  0
 32 35  1  0
 33 36  1  0
 34 37  1  0
 36 37  1  0
 35 38  1  0
 35 39  1  0
  1 40  1  0
  3 41  1  0
  4 42  1  0
  4 43  1  0
  5 44  1  0
  6 45  1  0
  6 46  1  0
  7 47  1  0
  8 48  1  0
  9 49  1  0
 10 50  1  0
 10 51  1  0
 11 52  1  0
 12 53  1  0
 12 54  1  0
 13 55  1  0
 13 56  1  0
 13 57  1  0
 14 58  1  0
 15 59  1  0
 15 60  1  0
 16 61  1  0
 16 62  1  0
 17 63  1  0
 17 64  1  0
 19 65  1  0
 20 66  1  0
 20 67  1  0
 20 68  1  0
 21 69  1  0
 21 70  1  0
 22 71  1  0
 22 72  1  0
 23 73  1  0
 24 74  1  0
 24 75  1  0
 24 76  1  0
 25 77  1  0
 26 78  1  0
 27 79  1  0
 27 80  1  0
 28 81  1  0
 28 82  1  0
 29 83  1  1
 30 84  1  0
 30 85  1  0
 31 86  1  0
 31 87  1  0
 32 88  1  0
 33 89  1  0
 33 90  1  0
 34 91  1  0
 34 92  1  0
 35 93  1  0
 36 94  1  0
 36 95  1  0
 37 96  1  0
 37 97  1  0
 38 98  1  0
 39 99  1  0
M  END
>  <PDBID>  (1) 
3VN2

>  <PDB ID>  (1) 
3VN2

>  <Generic Name>  (1) 
Telmisartan

>  <Brand Name>  (1) 
Ach-telmisartan Hctz#Act Telmisartan#Act Telmisartan/hct#Apo-telmisartan#Apo-telmisartan/hctz#Auro-telmisartan#Auro-telmisartan Hctz#Mar-telmisartan#Micardis#Micardis 40mg Tab#Micardis 80mg Tab#Micardis Hct#Micardis Plus#Mylan-telmisartan#Mylan-telmisartan Hctz#Ntp-telmisartan#Ntp-telmisartan Hctz#PMS-telmisartan#PMS-telmisartan-hctz#Pendo-telmisartan#Pendo-telmisartan-hctz#Ran-telmisartan#Ran-telmisartan Hctz#Sandoz Telmisartan#Sandoz Telmisartan Hct#Septa-telmisartan#Telmisartan#Telmisartan Hctz#Telmisartan Tablets#Telmisartan and Amlodipine#Telmisartan and Hydrochlorothiazide#Telmisartan and Hydrochlorothiazide 40 Mg/12.5 mg#Telmisartan and Hydrochlorothiazide 80 Mg/12.5 mg#Telmisartan and Hydrochlorothiazide 80 Mg/25 mg#Telmisartan and Hydrochlorthiazide#Telmisartan-hctz#Telmisartan/hctz#Teva-telmisartan#Teva-telmisartan Hctz#Torrent-telmisartan#Torrent-telmisartan and Hydrochlorothiazide#Twynsta#Van-telmisartan#Van-telmisartan-hctz#Zinda-telmisartan#Zinda-telmisartan/ Hctz#Pritor

>  <DrugBank ID>  (1) 
DB00966

>  <ATC Codes>  (1) 
C09DB04#C09DA07#C09CA07

>  <Ligand ID>  (1) 
TLS

>  <Target Name>  (1) 
Peroxisome proliferator-activated receptor gamma

>  <UniProt ID>  (1) 
P37231

>  <PDB ID.1>  (1) 
3VN2

>  <Seq. Identity>  (1) 
95%

$$$$
