PDB_DB00443_05
     RDKit          3D

130136  0  0  0  0  0  0  0  0999 V2000
    2.9966    1.2846   -1.2062 C   0  0  0  0  0  0  0  0  0  0  0  0
    4.2636    1.6882   -0.5566 C   0  0  0  0  0  0  0  0  0  0  0  0
    5.2168    0.5929   -0.2400 C   0  0  0  0  0  0  0  0  0  0  0  0
    4.6127   -0.6553    0.2810 C   0  0  0  0  0  0  0  0  0  0  0  0
    3.1239   -0.6231    0.4385 C   0  0  0  0  0  0  0  0  0  0  0  0
    2.7215   -0.0008    1.7166 C   0  0  0  0  0  0  0  0  0  0  0  0
    1.2746    0.4327    1.7529 C   0  0  0  0  0  0  0  0  0  0  0  0
    0.4921   -0.4337    0.7544 C   0  0  2  0  0  0  0  0  0  0  0  0
    0.9764    0.0451   -0.6291 C   0  0  1  0  0  0  0  0  0  0  0  0
    2.4472   -0.0543   -0.7898 C   0  0  1  0  0  0  0  0  0  0  0  0
    0.1687   -0.6398   -1.6793 C   0  0  2  0  0  0  0  0  0  0  0  0
   -1.3001   -0.3026   -1.5633 C   0  0  0  0  0  0  0  0  0  0  0  0
   -1.8379   -0.5954   -0.2223 C   0  0  1  0  0  0  0  0  0  0  0  0
   -0.9161    0.0156    0.8313 C   0  0  1  0  0  0  0  0  0  0  0  0
   -1.6395   -0.3612    2.0919 C   0  0  0  0  0  0  0  0  0  0  0  0
   -3.0983   -0.3161    1.6889 C   0  0  2  0  0  0  0  0  0  0  0  0
   -3.0960    0.0729    0.1828 C   0  0  2  0  0  0  0  0  0  0  0  0
   -1.9806   -2.0883   -0.0068 C   0  0  0  0  0  0  0  0  0  0  0  0
    2.8786   -1.0330   -1.8984 C   0  0  0  0  0  0  0  0  0  0  0  0
   -4.3551   -0.3606   -0.4674 C   0  0  0  0  0  0  0  0  0  0  0  0
   -4.5458    0.4496   -1.7614 C   0  0  0  0  0  0  0  0  0  0  0  0
   -3.8749    0.6987    2.4807 C   0  0  0  0  0  0  0  0  0  0  0  0
    0.5663    1.3909   -0.6526 F   0  0  0  0  0  0  0  0  0  0  0  0
    6.1209    1.0918    0.7259 O   0  0  0  0  0  0  0  0  0  0  0  0
    0.3977   -2.0049   -1.7638 O   0  0  0  0  0  0  0  0  0  0  0  0
   -3.0588    1.4609    0.2299 O   0  0  0  0  0  0  0  0  0  0  0  0
   -5.4575    0.0730    0.3267 O   0  0  0  0  0  0  0  0  0  0  0  0
   -4.5014    1.7935   -1.4743 O   0  0  0  0  0  0  0  0  0  0  0  0
   -0.9553    1.0975    0.7299 H   0  0  0  0  0  0  0  0  0  0  0  0
   -3.0937   -0.1761   -1.5735 C   0  0  0  0  0  0  0  0  0  0  0  0
   -4.5719   -0.3881   -1.5690 C   0  0  0  0  0  0  0  0  0  0  0  0
   -5.1035   -1.0769   -0.3607 C   0  0  0  0  0  0  0  0  0  0  0  0
   -4.4635   -0.6800    0.9259 C   0  0  0  0  0  0  0  0  0  0  0  0
   -2.9640   -0.6120    0.8682 C   0  0  0  0  0  0  0  0  0  0  0  0
   -2.4441   -2.0022    0.6237 C   0  0  0  0  0  0  0  0  0  0  0  0
   -1.0133   -2.0212    0.1824 C   0  0  0  0  0  0  0  0  0  0  0  0
   -0.3621   -0.6816    0.4368 C   0  0  2  0  0  0  0  0  0  0  0  0
   -1.0975    0.4325   -0.3242 C   0  0  1  0  0  0  0  0  0  0  0  0
   -2.5648    0.3291   -0.2369 C   0  0  1  0  0  0  0  0  0  0  0  0
   -0.5485    1.7317    0.2524 C   0  0  2  0  0  0  0  0  0  0  0  0
    0.9259    1.8384    0.0581 C   0  0  0  0  0  0  0  0  0  0  0  0
    1.6959    0.6501    0.5029 C   0  0  1  0  0  0  0  0  0  0  0  0
    1.0232   -0.5962   -0.0427 C   0  0  1  0  0  0  0  0  0  0  0  0
    1.9916   -1.6482    0.3590 C   0  0  0  0  0  0  0  0  0  0  0  0
    3.3196   -0.9990   -0.0703 C   0  0  2  0  0  0  0  0  0  0  0  0
    3.0189    0.4742   -0.2517 C   0  0  2  0  0  0  0  0  0  0  0  0
    1.9004    0.5845    1.9926 C   0  0  0  0  0  0  0  0  0  0  0  0
   -3.2641    1.6583    0.0142 C   0  0  0  0  0  0  0  0  0  0  0  0
    4.0955    1.3865    0.2189 C   0  0  0  0  0  0  0  0  0  0  0  0
    5.3673    1.2417   -0.5880 C   0  0  0  0  0  0  0  0  0  0  0  0
    3.6664   -1.6247   -1.4056 C   0  0  0  0  0  0  0  0  0  0  0  0
   -0.6484    0.3816   -1.6483 F   0  0  0  0  0  0  0  0  0  0  0  0
   -6.4767   -0.7490   -0.2666 O   0  0  0  0  0  0  0  0  0  0  0  0
   -0.8978    1.7357    1.6036 O   0  0  0  0  0  0  0  0  0  0  0  0
    2.6847    0.6995   -1.5980 O   0  0  0  0  0  0  0  0  0  0  0  0
    4.4114    1.1320    1.5486 O   0  0  0  0  0  0  0  0  0  0  0  0
    5.9286   -0.0133   -0.5027 O   0  0  0  0  0  0  0  0  0  0  0  0
    3.1533    1.3295   -2.3265 H   0  0  0  0  0  0  0  0  0  0  0  0
    2.2596    2.1242   -1.0284 H   0  0  0  0  0  0  0  0  0  0  0  0
    4.0374    2.3429    0.3368 H   0  0  0  0  0  0  0  0  0  0  0  0
    4.8047    2.4004   -1.2501 H   0  0  0  0  0  0  0  0  0  0  0  0
    5.8711    0.3538   -1.1264 H   0  0  0  0  0  0  0  0  0  0  0  0
    5.0342   -0.9323    1.2919 H   0  0  0  0  0  0  0  0  0  0  0  0
    4.8816   -1.5349   -0.3674 H   0  0  0  0  0  0  0  0  0  0  0  0
    2.7939   -1.7061    0.4727 H   0  0  0  0  0  0  0  0  0  0  0  0
    2.8167   -0.7852    2.5274 H   0  0  0  0  0  0  0  0  0  0  0  0
    3.3901    0.8229    2.0717 H   0  0  0  0  0  0  0  0  0  0  0  0
    0.8291    0.2695    2.7569 H   0  0  0  0  0  0  0  0  0  0  0  0
    1.1182    1.4814    1.4912 H   0  0  0  0  0  0  0  0  0  0  0  0
    0.6782   -1.4926    0.9118 H   0  0  0  0  0  0  0  0  0  0  0  0
    0.4825   -0.1940   -2.6703 H   0  0  0  0  0  0  0  0  0  0  0  0
   -1.8027   -0.9709   -2.3335 H   0  0  0  0  0  0  0  0  0  0  0  0
   -1.4241    0.7436   -1.8578 H   0  0  0  0  0  0  0  0  0  0  0  0
   -1.3351   -1.3318    2.5121 H   0  0  0  0  0  0  0  0  0  0  0  0
   -1.4658    0.4570    2.8360 H   0  0  0  0  0  0  0  0  0  0  0  0
   -3.5616   -1.2846    1.8596 H   0  0  0  0  0  0  0  0  0  0  0  0
   -1.7834   -2.6425   -0.9726 H   0  0  0  0  0  0  0  0  0  0  0  0
   -3.0047   -2.4034    0.2735 H   0  0  0  0  0  0  0  0  0  0  0  0
   -1.3144   -2.4485    0.8047 H   0  0  0  0  0  0  0  0  0  0  0  0
    2.8749   -2.0715   -1.5513 H   0  0  0  0  0  0  0  0  0  0  0  0
    3.9729   -0.7837   -2.0522 H   0  0  0  0  0  0  0  0  0  0  0  0
    2.4001   -0.8367   -2.8503 H   0  0  0  0  0  0  0  0  0  0  0  0
   -4.4356   -1.4098   -0.7560 H   0  0  0  0  0  0  0  0  0  0  0  0
   -5.5616    0.1992   -2.1988 H   0  0  0  0  0  0  0  0  0  0  0  0
   -3.8235    0.1709   -2.5154 H   0  0  0  0  0  0  0  0  0  0  0  0
   -4.1029    1.5614    1.8294 H   0  0  0  0  0  0  0  0  0  0  0  0
   -4.8603    0.2932    2.8063 H   0  0  0  0  0  0  0  0  0  0  0  0
   -3.3558    1.0084    3.4090 H   0  0  0  0  0  0  0  0  0  0  0  0
    5.7240    1.8570    1.2172 H   0  0  0  0  0  0  0  0  0  0  0  0
    0.6002   -2.4310   -0.8962 H   0  0  0  0  0  0  0  0  0  0  0  0
   -2.4493    1.8862   -0.3880 H   0  0  0  0  0  0  0  0  0  0  0  0
   -5.6938    1.0121    0.1221 H   0  0  0  0  0  0  0  0  0  0  0  0
   -5.3882    2.2269   -1.5894 H   0  0  0  0  0  0  0  0  0  0  0  0
   -2.5413   -1.0366   -1.9555 H   0  0  0  0  0  0  0  0  0  0  0  0
   -2.8902    0.6659   -2.2991 H   0  0  0  0  0  0  0  0  0  0  0  0
   -4.8039   -1.0522   -2.4534 H   0  0  0  0  0  0  0  0  0  0  0  0
   -5.1538    0.5516   -1.7879 H   0  0  0  0  0  0  0  0  0  0  0  0
   -5.1010   -2.1977   -0.4944 H   0  0  0  0  0  0  0  0  0  0  0  0
   -4.9229    0.2438    1.3674 H   0  0  0  0  0  0  0  0  0  0  0  0
   -4.7110   -1.4878    1.6762 H   0  0  0  0  0  0  0  0  0  0  0  0
   -2.5980   -0.2380    1.8283 H   0  0  0  0  0  0  0  0  0  0  0  0
   -3.0375   -2.5650   -0.1300 H   0  0  0  0  0  0  0  0  0  0  0  0
   -2.5949   -2.5727    1.5857 H   0  0  0  0  0  0  0  0  0  0  0  0
   -0.8698   -2.3664   -0.8622 H   0  0  0  0  0  0  0  0  0  0  0  0
   -0.4782   -2.7548    0.8209 H   0  0  0  0  0  0  0  0  0  0  0  0
   -0.5204   -0.4480    1.5028 H   0  0  0  0  0  0  0  0  0  0  0  0
   -1.0193    2.6235   -0.2098 H   0  0  0  0  0  0  0  0  0  0  0  0
    1.1621    2.1059   -0.9867 H   0  0  0  0  0  0  0  0  0  0  0  0
    1.2748    2.7155    0.6731 H   0  0  0  0  0  0  0  0  0  0  0  0
    1.0695   -0.5057   -1.1498 H   0  0  0  0  0  0  0  0  0  0  0  0
    1.7830   -2.5654   -0.2202 H   0  0  0  0  0  0  0  0  0  0  0  0
    1.9915   -1.9224    1.4152 H   0  0  0  0  0  0  0  0  0  0  0  0
    4.1050   -1.1778    0.6909 H   0  0  0  0  0  0  0  0  0  0  0  0
    0.9896    0.3678    2.5534 H   0  0  0  0  0  0  0  0  0  0  0  0
    2.2863    1.5478    2.3861 H   0  0  0  0  0  0  0  0  0  0  0  0
    2.6446   -0.1905    2.2678 H   0  0  0  0  0  0  0  0  0  0  0  0
   -2.9598    2.3591   -0.7795 H   0  0  0  0  0  0  0  0  0  0  0  0
   -3.1455    2.0237    1.0326 H   0  0  0  0  0  0  0  0  0  0  0  0
   -4.3674    1.4843   -0.1535 H   0  0  0  0  0  0  0  0  0  0  0  0
    3.7661    2.4374    0.0809 H   0  0  0  0  0  0  0  0  0  0  0  0
    5.2175    1.5755   -1.6499 H   0  0  0  0  0  0  0  0  0  0  0  0
    6.0898    1.9924   -0.1634 H   0  0  0  0  0  0  0  0  0  0  0  0
    2.8132   -2.1911   -1.8476 H   0  0  0  0  0  0  0  0  0  0  0  0
    4.5799   -2.2502   -1.3606 H   0  0  0  0  0  0  0  0  0  0  0  0
    3.8627   -0.7955   -2.1386 H   0  0  0  0  0  0  0  0  0  0  0  0
   -6.7375   -0.5945    0.6672 H   0  0  0  0  0  0  0  0  0  0  0  0
   -0.8992    2.6711    1.8945 H   0  0  0  0  0  0  0  0  0  0  0  0
    2.9465    1.5959   -1.8989 H   0  0  0  0  0  0  0  0  0  0  0  0
    5.3612    0.9017    1.6769 H   0  0  0  0  0  0  0  0  0  0  0  0
    6.8929    0.0420   -0.7280 H   0  0  0  0  0  0  0  0  0  0  0  0
  1  2  1  0
  2  3  1  0
  3  4  1  0
  4  5  1  0
  5  6  1  0
  6  7  1  0
  7  8  1  0
  8  9  1  0
  1 10  1  0
  5 10  1  0
  9 10  1  0
  9 11  1  0
 11 12  1  0
 12 13  1  0
  8 14  1  0
 13 14  1  0
 14 15  1  0
 15 16  1  0
 13 17  1  0
 16 17  1  0
 13 18  1  1
 10 19  1  6
 17 20  1  0
 20 21  1  0
 16 22  1  0
  9 23  1  1
  3 24  1  0
 11 25  1  0
 17 26  1  1
 20 27  1  0
 21 28  1  0
 14 29  1  6
 30 31  1  0
 31 32  1  0
 32 33  1  0
 33 34  1  0
 34 35  1  0
 35 36  1  0
 36 37  1  0
 37 38  1  0
 30 39  1  0
 34 39  1  0
 38 39  1  0
 38 40  1  0
 40 41  1  0
 41 42  1  0
 37 43  1  0
 42 43  1  0
 43 44  1  0
 44 45  1  0
 42 46  1  0
 45 46  1  0
 42 47  1  1
 39 48  1  1
 46 49  1  0
 49 50  1  0
 45 51  1  0
 38 52  1  6
 32 53  1  0
 40 54  1  0
 46 55  1  6
 49 56  1  0
 50 57  1  0
  1 58  1  0
  1 59  1  0
  2 60  1  0
  2 61  1  0
  3 62  1  0
  4 63  1  0
  4 64  1  0
  5 65  1  0
  6 66  1  0
  6 67  1  0
  7 68  1  0
  7 69  1  0
  8 70  1  1
 11 71  1  6
 12 72  1  0
 12 73  1  0
 15 74  1  0
 15 75  1  0
 16 76  1  6
 18 77  1  0
 18 78  1  0
 18 79  1  0
 19 80  1  0
 19 81  1  0
 19 82  1  0
 20 83  1  0
 21 84  1  0
 21 85  1  0
 22 86  1  0
 22 87  1  0
 22 88  1  0
 24 89  1  0
 25 90  1  0
 26 91  1  0
 27 92  1  0
 28 93  1  0
 30 94  1  0
 30 95  1  0
 31 96  1  0
 31 97  1  0
 32 98  1  0
 33 99  1  0
 33100  1  0
 34101  1  0
 35102  1  0
 35103  1  0
 36104  1  0
 36105  1  0
 37106  1  1
 40107  1  6
 41108  1  0
 41109  1  0
 43110  1  6
 44111  1  0
 44112  1  0
 45113  1  1
 47114  1  0
 47115  1  0
 47116  1  0
 48117  1  0
 48118  1  0
 48119  1  0
 49120  1  0
 50121  1  0
 50122  1  0
 51123  1  0
 51124  1  0
 51125  1  0
 53126  1  0
 54127  1  0
 55128  1  0
 56129  1  0
 57130  1  0
M  END
>  <PDBID>  (1) 
1M2Z

>  <PDB ID>  (1) 
1M2Z

>  <Generic Name>  (1) 
Betamethasone

>  <Brand Name>  (1) 
Beben Gel 0.025%#Beta 1 Kit#Betacort Scalp Lotion 0.1%#Betaderm Crm 0.05%#Betaderm Crm 0.1%#Betaderm Lotion 0.1%#Betaderm Ont 0.05%#Betaderm Ont 0.1%#Betagel - 0.1%#Betaject#Betaloan Suik#Betamethasone#Betamethasone Clotrimazole#Betamethasone Combo 6mg/ml PF#Betamethasone Combo 7mg/ml#Betamethasone Dipropionate#Betamethasone Dipropionate Augmented#Betamethasone Sodium Phosphate and Betamethasone Acetate#Betamethasone Sp 24mg/2ml PF#Betamethasone Valerate#Betamethasone Valerate Lot 0.1% USP#Betamycin Ophthalmic/otic Solution#Betaprolene Cream 0.05%#Betaprolene Ointment 0.05%#Betaprone Cream 0.05%#Betaprone Lotion 0.05%#Betaprone Ointment 0.05%#Beteflam#Betnesol Eye and Ear Drops#Betnesol Eye and Ear Drops 0.1%#Betnesol Pellets 0.1mg#Betnesol Retention Enema 5mg/100ml#Betnesol Retention Enemas#Betnesol Tab 0.5mg#Betnesol Tablets#Betnovate 1/2 Crm 0.05%#Betnovate 1/2 Lot 0.05%#Betnovate 1/2 Ont 0.05%#Betnovate Crm 0.1%#Betnovate Lot 0.1%#Betnovate Lotion 0.1%#Betnovate Ont 0.1%#Calcipotriene 0.005% and Betamethasone Dipropionate 0.064%#Calcipotriene and Betamethasone Dipropionate#Celestoderm V#Celestoderm V Crm 0.1%#Celestoderm V Ont 0.1%#Celestoderm V/2#Celestoderm V/2 Cream .05%#Celestoderm V/2 Ointment 0.05%#Celestone Repetabs 1mg#Celestone Soluspan#Celestone Tab 0.5mg#Clotrimazole and Betamethasone Dipropionate#Dermacinrx Therazole Pak#Diprogen Cream#Diprogen Ointment#Diprolene#Diprolene AF#Diprosalic#Diprosone Cream 0.05%#Diprosone Lotion 0.05%#Diprosone Ointment 0.05%#Dom-gentamicin-betamethasone#Dovobet Gel#Dovobet Ointment#Dr. Throwers Beta#Dr. Throwers Pbc No. 1#Enstilar#Garasone Ophthalmic Ointment#Garasone Ophthalmic and Otic Solution#Lotriderm Cream#Lotrisone#Luxiq#Marbeta 25 Kit#Occlucort Film Forming Lot 0.05#PMS-clotrimazole-betamethasone#PMS-gentamicin-betamethasone#Prevex B Cream 0.1%#Pro-lene Glycol Cream - 0.05%#Pro-lene Glycol Lotion - 0.05%#Pro-lene Glycol Ointment - 0.05%#Pro-sone Cream - 0.05%#Pro-sone Lotion -  0.05%#Pro-sone Ointment - 0.05%#Ratio-ectosone#Ratio-ectosone Mild Cream 0.05%#Ratio-ectosone Mild Lotion 0.05%#Ratio-ectosone Regular Cream 0.1%#Ratio-ectosone Regular Lotion 0.1%#Ratio-topilene#Ratio-topisalic#Ratio-topisone#Readysharp Betamethasone#Rhoprolene Glycol Cream 0.5mg/gm#Rhoprolene Glycol Lotion 0.5mg/gm#Rhoprolene Glycol Ointment 0.5mg/gm#Rhoprosone Cream 0.05%#Rhoprosone Lotion 0.05%#Rhoprosone Oint 0.05%#Rivasone Scalp Lot 0.1%#Rolene Cream 0.05%#Rolene Lotion 0.05%#Rolene Ointment 0.05%#Rosone Cream 0.05%#Rosone Lotion 0.05%#Rosone Ointment 0.05%#Sandoz Pentasone#Sernivo#Taclonex#Taclonex Scalp#Taro Sone Lot 0.05%#Taro Sone Ont#Taro-sone Cream 0.05%#Valisone Scalp Lotion#Valisone-G Cream#Valisone-G Ointment#Bentelan#Betnovate#Celestamine#Celestone#Diprosone#Fucibet#Procort#Rinderon

>  <DrugBank ID>  (1) 
DB00443

>  <ATC Codes>  (1) 
S01BB04#R03BA04#S01CA05#H02AB01#R01AD06#D07BC01#C05AA05#D07CC01#D07AC01#S01CB04#D07XC01#S02BA07#A07EA04#S03BA03#S01BA06#S03CA06

>  <Ligand ID>  (1) 
DEX

>  <Target Name>  (1) 
Glucocorticoid receptor

>  <UniProt ID>  (1) 
P04150

>  <PDB ID.1>  (1) 
1M2Z

>  <Seq. Identity>  (1) 
100%

$$$$
