PDB_DB00540_03
     RDKit          3D

 55 57  0  0  0  0  0  0  0  0999 V2000
    5.2735    1.1588    1.2396 C   0  0  0  0  0  0  0  0  0  0  0  0
    3.9467    1.0902    0.7065 N   0  0  0  0  0  0  0  0  0  0  0  0
    3.9023    0.4723   -0.6060 C   0  0  0  0  0  0  0  0  0  0  0  0
    2.4225    0.4720   -1.0406 C   0  0  0  0  0  0  0  0  0  0  0  0
    1.7088   -0.3235   -0.0044 C   0  0  0  0  0  0  0  0  0  0  0  0
    0.1977   -0.4675   -0.2669 C   0  0  0  0  0  0  0  0  0  0  0  0
   -0.3952    0.8672   -0.2939 C   0  0  0  0  0  0  0  0  0  0  0  0
   -0.7079    1.2579   -1.7372 C   0  0  0  0  0  0  0  0  0  0  0  0
   -1.8413    2.2172   -1.8611 C   0  0  0  0  0  0  0  0  0  0  0  0
   -2.1574    3.0870   -0.7188 C   0  0  0  0  0  0  0  0  0  0  0  0
   -0.2603   -1.5136    0.6456 C   0  0  0  0  0  0  0  0  0  0  0  0
    0.0916   -2.8710    0.0089 C   0  0  0  0  0  0  0  0  0  0  0  0
   -0.8796   -3.2595   -1.0636 C   0  0  0  0  0  0  0  0  0  0  0  0
   -2.3249   -3.2646   -0.6162 C   0  0  0  0  0  0  0  0  0  0  0  0
   -2.5919   -1.8253   -0.1292 C   0  0  0  0  0  0  0  0  0  0  0  0
   -1.6688   -1.6295    1.0439 C   0  0  0  0  0  0  0  0  0  0  0  0
   -2.1452   -0.6353    2.0638 C   0  0  0  0  0  0  0  0  0  0  0  0
   -1.3189    0.6398    1.9592 C   0  0  0  0  0  0  0  0  0  0  0  0
   -1.5837    1.1417    0.5849 C   0  0  0  0  0  0  0  0  0  0  0  0
   -1.6924    2.6642    0.6315 C   0  0  0  0  0  0  0  0  0  0  0  0
    5.7906    0.1734    1.2081 H   0  0  0  0  0  0  0  0  0  0  0  0
    5.1838    1.4076    2.3276 H   0  0  0  0  0  0  0  0  0  0  0  0
    5.8843    1.9695    0.7935 H   0  0  0  0  0  0  0  0  0  0  0  0
    3.5314    2.0336    0.7271 H   0  0  0  0  0  0  0  0  0  0  0  0
    4.4805    1.0835   -1.3259 H   0  0  0  0  0  0  0  0  0  0  0  0
    4.2776   -0.5491   -0.5363 H   0  0  0  0  0  0  0  0  0  0  0  0
    2.1399    1.5617   -0.9171 H   0  0  0  0  0  0  0  0  0  0  0  0
    2.2967    0.1447   -2.0694 H   0  0  0  0  0  0  0  0  0  0  0  0
    2.1836   -1.3096    0.1902 H   0  0  0  0  0  0  0  0  0  0  0  0
    1.8584    0.2331    0.9720 H   0  0  0  0  0  0  0  0  0  0  0  0
    0.1690   -0.8913   -1.3198 H   0  0  0  0  0  0  0  0  0  0  0  0
    0.3686    1.6172    0.0353 H   0  0  0  0  0  0  0  0  0  0  0  0
    0.1953    1.6463   -2.2419 H   0  0  0  0  0  0  0  0  0  0  0  0
   -0.9872    0.3386   -2.2961 H   0  0  0  0  0  0  0  0  0  0  0  0
   -2.7895    1.6852   -2.1759 H   0  0  0  0  0  0  0  0  0  0  0  0
   -1.6193    2.8778   -2.7528 H   0  0  0  0  0  0  0  0  0  0  0  0
   -1.7622    4.1378   -0.8700 H   0  0  0  0  0  0  0  0  0  0  0  0
   -3.2734    3.2607   -0.6398 H   0  0  0  0  0  0  0  0  0  0  0  0
    0.3601   -1.5103    1.5929 H   0  0  0  0  0  0  0  0  0  0  0  0
    0.0206   -3.6370    0.8124 H   0  0  0  0  0  0  0  0  0  0  0  0
    1.0927   -2.9090   -0.4079 H   0  0  0  0  0  0  0  0  0  0  0  0
   -0.6343   -4.2693   -1.3926 H   0  0  0  0  0  0  0  0  0  0  0  0
   -0.8228   -2.6004   -1.9579 H   0  0  0  0  0  0  0  0  0  0  0  0
   -2.9370   -3.4956   -1.4927 H   0  0  0  0  0  0  0  0  0  0  0  0
   -2.4877   -3.9412    0.2225 H   0  0  0  0  0  0  0  0  0  0  0  0
   -3.6504   -1.7345    0.1261 H   0  0  0  0  0  0  0  0  0  0  0  0
   -2.2990   -1.2162   -1.0258 H   0  0  0  0  0  0  0  0  0  0  0  0
   -1.7285   -2.6160    1.6141 H   0  0  0  0  0  0  0  0  0  0  0  0
   -3.1915   -0.3689    1.8585 H   0  0  0  0  0  0  0  0  0  0  0  0
   -2.0684   -0.9686    3.1067 H   0  0  0  0  0  0  0  0  0  0  0  0
   -1.6365    1.3261    2.7634 H   0  0  0  0  0  0  0  0  0  0  0  0
   -0.2418    0.3976    2.1256 H   0  0  0  0  0  0  0  0  0  0  0  0
   -2.5553    0.8147    0.1661 H   0  0  0  0  0  0  0  0  0  0  0  0
   -0.6895    3.1125    0.8401 H   0  0  0  0  0  0  0  0  0  0  0  0
   -2.4348    2.9167    1.3934 H   0  0  0  0  0  0  0  0  0  0  0  0
  1  2  1  0
  2  3  1  0
  3  4  1  0
  4  5  1  0
  5  6  1  0
  6  7  1  0
  7  8  1  0
  8  9  1  0
  9 10  1  0
  6 11  1  0
 11 12  1  0
 12 13  1  0
 13 14  1  0
 14 15  1  0
 11 16  1  0
 15 16  1  0
 16 17  1  0
 17 18  1  0
  7 19  1  0
 18 19  1  0
 10 20  1  0
 19 20  1  0
  1 21  1  0
  1 22  1  0
  1 23  1  0
  2 24  1  0
  3 25  1  0
  3 26  1  0
  4 27  1  0
  4 28  1  0
  5 29  1  0
  5 30  1  0
  6 31  1  0
  7 32  1  0
  8 33  1  0
  8 34  1  0
  9 35  1  0
  9 36  1  0
 10 37  1  0
 10 38  1  0
 11 39  1  0
 12 40  1  0
 12 41  1  0
 13 42  1  0
 13 43  1  0
 14 44  1  0
 14 45  1  0
 15 46  1  0
 15 47  1  0
 16 48  1  0
 17 49  1  0
 17 50  1  0
 18 51  1  0
 18 52  1  0
 19 53  1  0
 20 54  1  0
 20 55  1  0
M  END
>  <PDBID>  (1) 
4M48

>  <PDB ID>  (1) 
4M48

>  <Generic Name>  (1) 
Nortriptyline

>  <Brand Name>  (1) 
Apo-nortriptyline - Cap 10mg#Apo-nortriptyline - Cap 25mg#Ava-nortriptyline#Aventyl#Dom-nortriptyline 10mg Capsules#Dom-nortriptyline 25mg Capsules#Gen-nortriptyline Capsules 10mg#Gen-nortriptyline Capsules 25mg#Nortriptyline#Nortriptyline Hydrochloride#Nortriptyline-10#Nortriptyline-25#Norventyl#Nu-nortriptyline - Cap 10mg#Nu-nortriptyline - Cap 25mg#PMS-nortriptyline#Pamelor#Ratio-nortriptyline#Teva-nortriptyline#Allegron#Noritren#Norpress#Nortrilen#Sensoval

>  <DrugBank ID>  (1) 
DB00540

>  <ATC Codes>  (1) 
N06AA10

>  <Ligand ID>  (1) 
21B

>  <Target Name>  (1) 
Sodium-dependent noradrenaline transporter

>  <UniProt ID>  (1) 
P23975

>  <PDB ID.1>  (1) 
4M48

>  <Seq. Identity>  (1) 
57%

$$$$
