PDB_DB05990_09
     RDKit          3D

 76 79  0  0  0  0  0  0  0  0999 V2000
    2.9251    2.4681   -0.8074 C   0  0  0  0  0  0  0  0  0  0  0  0
    4.4058    2.7453   -0.6563 C   0  0  0  0  0  0  0  0  0  0  0  0
    4.7247    2.2765    0.7610 C   0  0  1  0  0  0  0  0  0  0  0  0
    3.9594    3.1002    1.6089 O   0  0  0  0  0  0  0  0  0  0  0  0
    4.4382    0.8254    0.9648 C   0  0  0  0  0  0  0  0  0  0  0  0
    3.8070    0.1793   -0.2756 C   0  0  1  0  0  0  0  0  0  0  0  0
    3.5203   -1.2487   -0.0874 C   0  0  2  0  0  0  0  0  0  0  0  0
    2.1052   -1.6517    0.1818 C   0  0  1  0  0  0  0  0  0  0  0  0
    1.8999   -1.8272    1.5558 O   0  0  0  0  0  0  0  0  0  0  0  0
    1.0537   -0.6984   -0.3016 C   0  0  2  0  0  0  0  0  0  0  0  0
    1.4098    0.7467   -0.0206 C   0  0  1  0  0  0  0  0  0  0  0  0
    2.6699    0.9914   -0.8163 C   0  0  1  0  0  0  0  0  0  0  0  0
    0.2986    1.6142   -0.5050 C   0  0  0  0  0  0  0  0  0  0  0  0
   -0.9258    1.3419    0.3821 C   0  0  0  0  0  0  0  0  0  0  0  0
   -1.3700   -0.0351    0.0424 C   0  0  1  0  0  0  0  0  0  0  0  0
   -0.2224   -1.0128    0.3295 C   0  0  1  0  0  0  0  0  0  0  0  0
   -0.8832   -2.2988   -0.0187 C   0  0  0  0  0  0  0  0  0  0  0  0
   -2.2899   -2.1005    0.5762 C   0  0  0  0  0  0  0  0  0  0  0  0
   -2.3518   -0.6501    0.9856 C   0  0  2  0  0  0  0  0  0  0  0  0
   -1.7690   -0.1715   -1.4091 C   0  0  0  0  0  0  0  0  0  0  0  0
    2.5060    0.5852   -2.2737 C   0  0  0  0  0  0  0  0  0  0  0  0
   -3.6746   -0.0702    1.1183 C   0  0  2  0  0  0  0  0  0  0  0  0
   -4.4472   -0.9102    2.1483 C   0  0  0  0  0  0  0  0  0  0  0  0
   -4.5361    0.0458   -0.0769 C   0  0  0  0  0  0  0  0  0  0  0  0
   -5.8565    0.6894    0.3854 C   0  0  0  0  0  0  0  0  0  0  0  0
   -6.7306    0.8030   -0.8478 C   0  0  0  0  0  0  0  0  0  0  0  0
    4.0297   -3.3724    1.1581 C   0  0  0  0  0  0  0  0  0  0  0  0
    4.3674   -1.9047    1.0127 C   0  0  0  0  0  0  0  0  0  0  0  0
   -6.0998    1.5968   -1.8018 O   0  0  0  0  0  0  0  0  0  0  0  0
   -7.9896    1.2827   -0.5244 O   0  0  0  0  0  0  0  0  0  0  0  0
    2.4387    2.9284    0.0833 H   0  0  0  0  0  0  0  0  0  0  0  0
    2.5514    2.9829   -1.7205 H   0  0  0  0  0  0  0  0  0  0  0  0
    5.0283    2.2776   -1.4160 H   0  0  0  0  0  0  0  0  0  0  0  0
    4.5178    3.8491   -0.6341 H   0  0  0  0  0  0  0  0  0  0  0  0
    5.7792    2.5632    0.9431 H   0  0  0  0  0  0  0  0  0  0  0  0
    4.2162    4.0271    1.3667 H   0  0  0  0  0  0  0  0  0  0  0  0
    3.7802    0.7219    1.8447 H   0  0  0  0  0  0  0  0  0  0  0  0
    5.4297    0.3415    1.1008 H   0  0  0  0  0  0  0  0  0  0  0  0
    4.6246    0.3158   -1.0516 H   0  0  0  0  0  0  0  0  0  0  0  0
    3.8449   -1.8038   -1.0045 H   0  0  0  0  0  0  0  0  0  0  0  0
    1.8549   -2.6425   -0.2571 H   0  0  0  0  0  0  0  0  0  0  0  0
    1.3987   -2.6222    1.7919 H   0  0  0  0  0  0  0  0  0  0  0  0
    1.0082   -0.7897   -1.4133 H   0  0  0  0  0  0  0  0  0  0  0  0
    1.6373    0.8992    1.0477 H   0  0  0  0  0  0  0  0  0  0  0  0
    0.5195    2.6824   -0.5563 H   0  0  0  0  0  0  0  0  0  0  0  0
   -0.0110    1.2956   -1.5210 H   0  0  0  0  0  0  0  0  0  0  0  0
   -1.7017    2.0637    0.0247 H   0  0  0  0  0  0  0  0  0  0  0  0
   -0.6966    1.4382    1.4410 H   0  0  0  0  0  0  0  0  0  0  0  0
   -0.1042   -0.9861    1.4446 H   0  0  0  0  0  0  0  0  0  0  0  0
   -0.4306   -3.2089    0.3660 H   0  0  0  0  0  0  0  0  0  0  0  0
   -1.0566   -2.3784   -1.1276 H   0  0  0  0  0  0  0  0  0  0  0  0
   -2.3755   -2.7399    1.4786 H   0  0  0  0  0  0  0  0  0  0  0  0
   -3.0744   -2.3901   -0.1230 H   0  0  0  0  0  0  0  0  0  0  0  0
   -1.8584   -0.6111    2.0037 H   0  0  0  0  0  0  0  0  0  0  0  0
   -0.9156   -0.5588   -2.0405 H   0  0  0  0  0  0  0  0  0  0  0  0
   -1.9721    0.8408   -1.8141 H   0  0  0  0  0  0  0  0  0  0  0  0
   -2.5862   -0.8936   -1.5717 H   0  0  0  0  0  0  0  0  0  0  0  0
    1.5793    0.9253   -2.7304 H   0  0  0  0  0  0  0  0  0  0  0  0
    3.3320    1.1360   -2.8158 H   0  0  0  0  0  0  0  0  0  0  0  0
    2.7426   -0.4869   -2.4378 H   0  0  0  0  0  0  0  0  0  0  0  0
   -3.5917    0.9327    1.5855 H   0  0  0  0  0  0  0  0  0  0  0  0
   -4.9762   -1.6884    1.5566 H   0  0  0  0  0  0  0  0  0  0  0  0
   -5.1696   -0.3140    2.7070 H   0  0  0  0  0  0  0  0  0  0  0  0
   -3.7311   -1.4611    2.8056 H   0  0  0  0  0  0  0  0  0  0  0  0
   -4.1564    0.7632   -0.8446 H   0  0  0  0  0  0  0  0  0  0  0  0
   -4.8329   -0.9227   -0.5300 H   0  0  0  0  0  0  0  0  0  0  0  0
   -5.6748    1.7022    0.8005 H   0  0  0  0  0  0  0  0  0  0  0  0
   -6.3695    0.0235    1.0922 H   0  0  0  0  0  0  0  0  0  0  0  0
   -6.8480   -0.2166   -1.2783 H   0  0  0  0  0  0  0  0  0  0  0  0
    4.9757   -3.9920    1.1649 H   0  0  0  0  0  0  0  0  0  0  0  0
    3.5572   -3.6015    2.1406 H   0  0  0  0  0  0  0  0  0  0  0  0
    3.4533   -3.7716    0.2981 H   0  0  0  0  0  0  0  0  0  0  0  0
    5.4243   -1.8074    0.8636 H   0  0  0  0  0  0  0  0  0  0  0  0
    4.1132   -1.4218    1.9938 H   0  0  0  0  0  0  0  0  0  0  0  0
   -5.9361    2.4718   -1.3739 H   0  0  0  0  0  0  0  0  0  0  0  0
   -8.7122    0.7875   -0.9822 H   0  0  0  0  0  0  0  0  0  0  0  0
  1  2  1  0
  2  3  1  0
  3  4  1  0
  3  5  1  0
  5  6  1  0
  6  7  1  0
  7  8  1  0
  8  9  1  0
  8 10  1  0
 10 11  1  0
  1 12  1  0
  6 12  1  0
 11 12  1  0
 11 13  1  0
 13 14  1  0
 14 15  1  0
 10 16  1  0
 15 16  1  0
 16 17  1  0
 17 18  1  0
 15 19  1  0
 18 19  1  0
 15 20  1  6
 12 21  1  6
 19 22  1  0
 22 23  1  0
 22 24  1  0
 24 25  1  0
 25 26  1  0
  7 28  1  0
 27 28  1  0
 26 29  1  0
 26 30  1  0
  1 31  1  0
  1 32  1  0
  2 33  1  0
  2 34  1  0
  3 35  1  1
  4 36  1  0
  5 37  1  0
  5 38  1  0
  6 39  1  6
  7 40  1  6
  8 41  1  6
  9 42  1  0
 10 43  1  6
 11 44  1  1
 13 45  1  0
 13 46  1  0
 14 47  1  0
 14 48  1  0
 16 49  1  1
 17 50  1  0
 17 51  1  0
 18 52  1  0
 18 53  1  0
 19 54  1  1
 20 55  1  0
 20 56  1  0
 20 57  1  0
 21 58  1  0
 21 59  1  0
 21 60  1  0
 22 61  1  1
 23 62  1  0
 23 63  1  0
 23 64  1  0
 24 65  1  0
 24 66  1  0
 25 67  1  0
 25 68  1  0
 26 69  1  0
 27 70  1  0
 27 71  1  0
 27 72  1  0
 28 73  1  0
 28 74  1  0
 29 75  1  0
 30 76  1  0
M  END
>  <PDBID>  (1) 
1OT7

>  <PDB ID>  (1) 
1OT7

>  <Generic Name>  (1) 
Obeticholic acid

>  <Brand Name>  (1) 
Ocaliva

>  <DrugBank ID>  (1) 
DB05990

>  <ATC Codes>  (1) 
A05AA04

>  <Ligand ID>  (1) 
CHC

>  <Target Name>  (1) 
Bile acid receptor

>  <UniProt ID>  (1) 
Q96RI1

>  <PDB ID.1>  (1) 
1OT7

>  <Seq. Identity>  (1) 
95%

$$$$
