PDB_DB04552_03
     RDKit          3D

 43 44  0  0  0  0  0  0  0  0999 V2000
    4.5203    1.3336   -1.4946 F   0  0  0  0  0  0  0  0  0  0  0  0
    4.6031   -0.0218   -1.2970 C   0  0  0  0  0  0  0  0  0  0  0  0
    4.6089   -0.6950   -2.4943 F   0  0  0  0  0  0  0  0  0  0  0  0
    5.7782   -0.3188   -0.6456 F   0  0  0  0  0  0  0  0  0  0  0  0
    3.4767   -0.5430   -0.4148 C   0  0  2  0  0  0  0  0  0  0  0  0
    2.1147   -0.2844   -0.9954 C   0  0  0  0  0  0  0  0  0  0  0  0
    1.0769    0.0815    0.0192 C   0  0  0  0  0  0  0  0  0  0  0  0
    1.1919   -0.6239    1.3342 C   0  0  0  0  0  0  0  0  0  0  0  0
    2.5893   -0.7476    1.8306 C   0  0  0  0  0  0  0  0  0  0  0  0
    3.5313    0.0636    0.9513 C   0  0  0  0  0  0  0  0  0  0  0  0
   -0.2166   -0.1448   -0.5947 N   0  0  0  0  0  0  0  0  0  0  0  0
   -1.3111    0.0537    0.3079 C   0  0  0  0  0  0  0  0  0  0  0  0
   -1.2411    1.3827    0.8546 N   0  0  0  0  0  0  0  0  0  0  0  0
   -2.6039   -0.2671   -0.3489 C   0  0  0  0  0  0  0  0  0  0  0  0
   -3.2905   -1.4301    0.3804 C   0  0  0  0  0  0  0  0  0  0  0  0
   -4.5113   -1.7325   -0.2429 O   0  0  0  0  0  0  0  0  0  0  0  0
   -2.4562   -2.5476    0.4039 O   0  0  0  0  0  0  0  0  0  0  0  0
   -3.5828    0.8465   -0.4339 C   0  0  0  0  0  0  0  0  0  0  0  0
   -2.9639    2.1918   -0.7087 C   0  0  0  0  0  0  0  0  0  0  0  0
   -1.5783    2.3355   -0.1530 C   0  0  0  0  0  0  0  0  0  0  0  0
    3.6679   -1.6372   -0.2983 H   0  0  0  0  0  0  0  0  0  0  0  0
    2.2085    0.5540   -1.7171 H   0  0  0  0  0  0  0  0  0  0  0  0
    1.8083   -1.1658   -1.6023 H   0  0  0  0  0  0  0  0  0  0  0  0
    1.1283    1.1859    0.2285 H   0  0  0  0  0  0  0  0  0  0  0  0
    0.6221    0.0005    2.0846 H   0  0  0  0  0  0  0  0  0  0  0  0
    0.7091   -1.6269    1.3310 H   0  0  0  0  0  0  0  0  0  0  0  0
    2.7382   -0.4088    2.8650 H   0  0  0  0  0  0  0  0  0  0  0  0
    2.9397   -1.8144    1.7368 H   0  0  0  0  0  0  0  0  0  0  0  0
    3.2092    1.1225    0.8777 H   0  0  0  0  0  0  0  0  0  0  0  0
    4.5499    0.0485    1.3518 H   0  0  0  0  0  0  0  0  0  0  0  0
   -0.2280   -1.1364   -0.9248 H   0  0  0  0  0  0  0  0  0  0  0  0
   -1.1538   -0.6463    1.1796 H   0  0  0  0  0  0  0  0  0  0  0  0
   -1.7299    1.4966    1.7544 H   0  0  0  0  0  0  0  0  0  0  0  0
   -2.4240   -0.6592   -1.3873 H   0  0  0  0  0  0  0  0  0  0  0  0
   -3.5100   -1.1462    1.4181 H   0  0  0  0  0  0  0  0  0  0  0  0
   -4.4628   -2.5745   -0.7731 H   0  0  0  0  0  0  0  0  0  0  0  0
   -2.4091   -3.0262   -0.4534 H   0  0  0  0  0  0  0  0  0  0  0  0
   -4.2602    0.8490    0.4486 H   0  0  0  0  0  0  0  0  0  0  0  0
   -4.2690    0.6430   -1.3088 H   0  0  0  0  0  0  0  0  0  0  0  0
   -3.6151    2.9514   -0.2248 H   0  0  0  0  0  0  0  0  0  0  0  0
   -2.9515    2.4298   -1.7935 H   0  0  0  0  0  0  0  0  0  0  0  0
   -1.4571    3.3579    0.3088 H   0  0  0  0  0  0  0  0  0  0  0  0
   -0.8464    2.2707   -0.9620 H   0  0  0  0  0  0  0  0  0  0  0  0
  2  1  1  0
  2  3  1  0
  2  4  1  0
  2  5  1  0
  5  6  1  0
  6  7  1  0
  7  8  1  0
  8  9  1  0
  5 10  1  0
  9 10  1  0
  7 11  1  0
 11 12  1  0
 12 13  1  0
 12 14  1  0
 14 15  1  0
 15 16  1  0
 15 17  1  0
 14 18  1  0
 18 19  1  0
 13 20  1  0
 19 20  1  0
  5 21  1  1
  6 22  1  0
  6 23  1  0
  7 24  1  0
  8 25  1  0
  8 26  1  0
  9 27  1  0
  9 28  1  0
 10 29  1  0
 10 30  1  0
 11 31  1  0
 12 32  1  0
 13 33  1  0
 14 34  1  0
 15 35  1  0
 16 36  1  0
 17 37  1  0
 18 38  1  0
 18 39  1  0
 19 40  1  0
 19 41  1  0
 20 42  1  0
 20 43  1  0
M  END
>  <PDBID>  (1) 
1TD7

>  <PDB ID>  (1) 
1TD7

>  <Generic Name>  (1) 
Niflumic Acid

>  <Brand Name>  (1) 
Niflam#Niflugel#Nifluril

>  <DrugBank ID>  (1) 
DB04552

>  <ATC Codes>  (1) 
M02AA17#M01AX02

>  <Ligand ID>  (1) 
NFL

>  <Target Name>  (1) 
Phospholipase A2

>  <UniProt ID>  (1) 
P04054

>  <PDB ID.1>  (1) 
1TD7

>  <Seq. Identity>  (1) 
43%

$$$$
