PDB_DB01361_07
     RDKit          3D

134137  0  0  0  0  0  0  0  0999 V2000
    4.9943    5.0346    2.4376 C   0  0  0  0  0  0  0  0  0  0  0  0
    4.6028    4.3520    1.2712 O   0  0  0  0  0  0  0  0  0  0  0  0
    4.0194    3.1532    1.6098 C   0  0  1  0  0  0  0  0  0  0  0  0
    2.6582    2.9684    1.0393 C   0  0  0  0  0  0  0  0  0  0  0  0
    2.2379    1.5306    0.8139 C   0  0  1  0  0  0  0  0  0  0  0  0
    2.8825    0.6120    1.5518 O   0  0  0  0  0  0  0  0  0  0  0  0
    4.2182    0.7825    1.7849 C   0  0  1  0  0  0  0  0  0  0  0  0
    5.0930   -0.4000    1.5355 C   0  0  0  0  0  0  0  0  0  0  0  0
    4.8510    1.9656    1.0973 C   0  0  2  0  0  0  0  0  0  0  0  0
    6.1647    2.0701    1.5738 O   0  0  0  0  0  0  0  0  0  0  0  0
    7.0892    2.1590    0.5652 C   0  0  1  0  0  0  0  0  0  0  0  0
    7.8223    3.3505    0.6076 O   0  0  0  0  0  0  0  0  0  0  0  0
    8.0889    0.9984    0.5542 C   0  0  0  0  0  0  0  0  0  0  0  0
    0.8770    1.5131    1.1127 O   0  0  0  0  0  0  0  0  0  0  0  0
    0.0576    1.2337   -0.0011 C   0  0  2  0  0  0  0  0  0  0  0  0
   -0.5229    2.5732   -0.3625 C   0  0  2  0  0  0  0  0  0  0  0  0
   -1.8722    2.9438    0.0594 C   0  0  0  0  0  0  0  0  0  0  0  0
   -1.8419    4.3079    0.5107 O   0  0  0  0  0  0  0  0  0  0  0  0
   -2.4635    2.2748    1.0708 O   0  0  0  0  0  0  0  0  0  0  0  0
   -3.8207    2.2821    1.1942 C   0  0  2  0  0  0  0  0  0  0  0  0
   -4.1625    1.2205    2.2293 C   0  0  0  0  0  0  0  0  0  0  0  0
   -4.6526    2.2716   -0.0241 C   0  0  2  0  0  0  0  0  0  0  0  0
   -5.1376    3.7140   -0.2735 C   0  0  0  0  0  0  0  0  0  0  0  0
   -5.8040    1.3216    0.0474 C   0  0  1  0  0  0  0  0  0  0  0  0
   -6.9740    2.1229    0.1330 O   0  0  0  0  0  0  0  0  0  0  0  0
   -7.7273    1.8779    1.2463 C   0  0  2  0  0  0  0  0  0  0  0  0
   -9.0273    1.4861    0.9006 O   0  0  0  0  0  0  0  0  0  0  0  0
   -7.8402    3.1629    2.0477 C   0  0  0  0  0  0  0  0  0  0  0  0
   -6.0276    0.5418   -1.2302 C   0  0  2  0  0  0  0  0  0  0  0  0
   -5.1070   -0.5913   -1.5118 C   0  0  2  0  0  0  0  0  0  0  0  0
   -4.7088   -1.2399   -0.3526 O   0  0  0  0  0  0  0  0  0  0  0  0
   -4.0633   -0.4140   -2.5404 C   0  0  2  0  0  0  0  0  0  0  0  0
   -4.4134    0.3893   -3.6227 O   0  0  0  0  0  0  0  0  0  0  0  0
   -4.3045   -0.9303   -3.9697 C   0  0  0  0  0  0  0  0  0  0  0  0
   -2.6436   -0.3563   -2.1497 C   0  0  0  0  0  0  0  0  0  0  0  0
   -2.0385   -1.4612   -1.4016 C   0  0  1  0  0  0  0  0  0  0  0  0
   -1.9226   -2.6577   -2.2873 C   0  0  0  0  0  0  0  0  0  0  0  0
   -0.6450   -1.0242   -0.9039 C   0  0  2  0  0  0  0  0  0  0  0  0
   -0.1664   -2.2259   -0.3347 O   0  0  0  0  0  0  0  0  0  0  0  0
    0.9946   -2.6794   -0.8406 C   0  0  2  0  0  0  0  0  0  0  0  0
    0.8195   -3.8307   -1.6694 O   0  0  0  0  0  0  0  0  0  0  0  0
    1.8951   -3.7890   -2.5546 C   0  0  2  0  0  0  0  0  0  0  0  0
    2.0846   -5.0487   -3.3455 C   0  0  0  0  0  0  0  0  0  0  0  0
    3.1751   -3.2975   -2.0042 C   0  0  0  0  0  0  0  0  0  0  0  0
    3.3394   -3.2145   -0.5353 C   0  0  2  0  0  0  0  0  0  0  0  0
    4.1601   -4.2369    0.0132 N   0  0  0  0  0  0  0  0  0  0  0  0
    5.5197   -4.2589   -0.4311 C   0  0  0  0  0  0  0  0  0  0  0  0
    3.6294   -5.5450    0.0969 C   0  0  0  0  0  0  0  0  0  0  0  0
    1.9896   -3.1072    0.1651 C   0  0  1  0  0  0  0  0  0  0  0  0
    2.0886   -2.3759    1.3311 O   0  0  0  0  0  0  0  0  0  0  0  0
    1.8862   -3.1784    2.4675 C   0  0  2  0  0  0  0  0  0  0  0  0
    0.8728   -2.7606    3.2900 O   0  0  0  0  0  0  0  0  0  0  0  0
    3.1490   -3.2633    3.3200 C   0  0  0  0  0  0  0  0  0  0  0  0
   -0.8345    0.0799    0.1551 C   0  0  1  0  0  0  0  0  0  0  0  0
   -0.5895   -0.5713    1.5011 C   0  0  0  0  0  0  0  0  0  0  0  0
   -6.2320    1.4919   -2.3614 C   0  0  0  0  0  0  0  0  0  0  0  0
   -0.4098    2.7004   -1.8939 C   0  0  0  0  0  0  0  0  0  0  0  0
    5.7354    4.3921    3.0002 H   0  0  0  0  0  0  0  0  0  0  0  0
    5.5383    5.9658    2.1863 H   0  0  0  0  0  0  0  0  0  0  0  0
    4.1591    5.1935    3.1327 H   0  0  0  0  0  0  0  0  0  0  0  0
    4.0023    3.0219    2.7209 H   0  0  0  0  0  0  0  0  0  0  0  0
    2.6452    3.4697    0.0494 H   0  0  0  0  0  0  0  0  0  0  0  0
    1.9537    3.4990    1.7473 H   0  0  0  0  0  0  0  0  0  0  0  0
    2.3588    1.2805   -0.2815 H   0  0  0  0  0  0  0  0  0  0  0  0
    4.3070    1.0069    2.8914 H   0  0  0  0  0  0  0  0  0  0  0  0
    5.4663   -0.3847    0.4686 H   0  0  0  0  0  0  0  0  0  0  0  0
    6.0455   -0.3215    2.1381 H   0  0  0  0  0  0  0  0  0  0  0  0
    4.6739   -1.3750    1.7828 H   0  0  0  0  0  0  0  0  0  0  0  0
    4.7913    1.9622    0.0105 H   0  0  0  0  0  0  0  0  0  0  0  0
    6.5950    2.1286   -0.4335 H   0  0  0  0  0  0  0  0  0  0  0  0
    7.4490    4.0536    0.0405 H   0  0  0  0  0  0  0  0  0  0  0  0
    8.2144    0.5592    1.5518 H   0  0  0  0  0  0  0  0  0  0  0  0
    9.1017    1.3771    0.2434 H   0  0  0  0  0  0  0  0  0  0  0  0
    7.8255    0.2247   -0.1801 H   0  0  0  0  0  0  0  0  0  0  0  0
    0.8237    0.9744   -0.8114 H   0  0  0  0  0  0  0  0  0  0  0  0
    0.1775    3.4035   -0.0073 H   0  0  0  0  0  0  0  0  0  0  0  0
   -2.4896    3.0414   -0.8670 H   0  0  0  0  0  0  0  0  0  0  0  0
   -1.4255    4.2471    1.4082 H   0  0  0  0  0  0  0  0  0  0  0  0
   -4.0547    3.2492    1.7520 H   0  0  0  0  0  0  0  0  0  0  0  0
   -4.0974    0.1989    1.8767 H   0  0  0  0  0  0  0  0  0  0  0  0
   -5.1143    1.4182    2.7561 H   0  0  0  0  0  0  0  0  0  0  0  0
   -3.3834    1.2993    3.0504 H   0  0  0  0  0  0  0  0  0  0  0  0
   -4.1314    2.0219   -0.9765 H   0  0  0  0  0  0  0  0  0  0  0  0
   -5.0315    4.3120    0.6692 H   0  0  0  0  0  0  0  0  0  0  0  0
   -4.5491    4.2293   -1.0457 H   0  0  0  0  0  0  0  0  0  0  0  0
   -6.1862    3.7609   -0.5546 H   0  0  0  0  0  0  0  0  0  0  0  0
   -5.8056    0.7205    0.9424 H   0  0  0  0  0  0  0  0  0  0  0  0
   -7.2760    1.0782    1.8602 H   0  0  0  0  0  0  0  0  0  0  0  0
   -8.9862    1.1958   -0.0499 H   0  0  0  0  0  0  0  0  0  0  0  0
   -6.8753    3.3264    2.5381 H   0  0  0  0  0  0  0  0  0  0  0  0
   -8.0752    3.9744    1.3118 H   0  0  0  0  0  0  0  0  0  0  0  0
   -8.6590    3.1105    2.7898 H   0  0  0  0  0  0  0  0  0  0  0  0
   -7.0618    0.0949   -1.0506 H   0  0  0  0  0  0  0  0  0  0  0  0
   -5.7739   -1.4092   -1.9670 H   0  0  0  0  0  0  0  0  0  0  0  0
   -5.3727   -1.8205    0.0505 H   0  0  0  0  0  0  0  0  0  0  0  0
   -5.2471   -1.5109   -4.1416 H   0  0  0  0  0  0  0  0  0  0  0  0
   -3.4449   -1.2575   -4.5741 H   0  0  0  0  0  0  0  0  0  0  0  0
   -2.0435   -0.2915   -3.1205 H   0  0  0  0  0  0  0  0  0  0  0  0
   -2.3697    0.6068   -1.6696 H   0  0  0  0  0  0  0  0  0  0  0  0
   -2.5334   -1.7998   -0.4734 H   0  0  0  0  0  0  0  0  0  0  0  0
   -1.8733   -3.5841   -1.6666 H   0  0  0  0  0  0  0  0  0  0  0  0
   -2.9271   -2.7706   -2.8078 H   0  0  0  0  0  0  0  0  0  0  0  0
   -1.1603   -2.5954   -3.0607 H   0  0  0  0  0  0  0  0  0  0  0  0
   -0.0052   -0.6441   -1.6935 H   0  0  0  0  0  0  0  0  0  0  0  0
    1.4023   -1.9052   -1.5363 H   0  0  0  0  0  0  0  0  0  0  0  0
    1.5675   -3.0065   -3.3225 H   0  0  0  0  0  0  0  0  0  0  0  0
    1.2466   -5.7527   -3.2695 H   0  0  0  0  0  0  0  0  0  0  0  0
    2.2224   -4.8225   -4.4432 H   0  0  0  0  0  0  0  0  0  0  0  0
    3.0288   -5.5877   -3.0702 H   0  0  0  0  0  0  0  0  0  0  0  0
    3.9885   -4.0068   -2.3654 H   0  0  0  0  0  0  0  0  0  0  0  0
    3.5040   -2.3210   -2.4792 H   0  0  0  0  0  0  0  0  0  0  0  0
    3.8472   -2.2385   -0.2906 H   0  0  0  0  0  0  0  0  0  0  0  0
    5.5550   -4.9090   -1.3483 H   0  0  0  0  0  0  0  0  0  0  0  0
    5.9553   -3.2597   -0.6205 H   0  0  0  0  0  0  0  0  0  0  0  0
    6.1524   -4.7644    0.3307 H   0  0  0  0  0  0  0  0  0  0  0  0
    3.2129   -5.7891    1.1222 H   0  0  0  0  0  0  0  0  0  0  0  0
    2.9174   -5.8265   -0.6936 H   0  0  0  0  0  0  0  0  0  0  0  0
    4.4807   -6.2785   -0.0003 H   0  0  0  0  0  0  0  0  0  0  0  0
    1.7046   -4.1473    0.4961 H   0  0  0  0  0  0  0  0  0  0  0  0
    1.6767   -4.2488    2.1718 H   0  0  0  0  0  0  0  0  0  0  0  0
    0.0915   -3.3668    3.3306 H   0  0  0  0  0  0  0  0  0  0  0  0
    3.9586   -3.7875    2.7927 H   0  0  0  0  0  0  0  0  0  0  0  0
    3.4506   -2.2638    3.7025 H   0  0  0  0  0  0  0  0  0  0  0  0
    2.8727   -3.8760    4.2114 H   0  0  0  0  0  0  0  0  0  0  0  0
   -1.9259    0.3309    0.2056 H   0  0  0  0  0  0  0  0  0  0  0  0
   -0.7672   -1.6725    1.4026 H   0  0  0  0  0  0  0  0  0  0  0  0
    0.3761   -0.3349    1.9463 H   0  0  0  0  0  0  0  0  0  0  0  0
   -1.3793   -0.2318    2.2315 H   0  0  0  0  0  0  0  0  0  0  0  0
   -7.1107    2.1421   -2.0591 H   0  0  0  0  0  0  0  0  0  0  0  0
   -5.4255    2.1894   -2.5551 H   0  0  0  0  0  0  0  0  0  0  0  0
   -6.6350    0.9648   -3.2704 H   0  0  0  0  0  0  0  0  0  0  0  0
    0.4336    3.3086   -2.2124 H   0  0  0  0  0  0  0  0  0  0  0  0
   -1.3433    3.1078   -2.3269 H   0  0  0  0  0  0  0  0  0  0  0  0
   -0.2768    1.6918   -2.3489 H   0  0  0  0  0  0  0  0  0  0  0  0
  1  2  1  0
  2  3  1  0
  3  4  1  0
  4  5  1  0
  5  6  1  0
  6  7  1  0
  7  8  1  0
  3  9  1  0
  7  9  1  0
  9 10  1  0
 10 11  1  0
 11 12  1  0
 11 13  1  0
  5 14  1  0
 14 15  1  0
 15 16  1  0
 16 17  1  0
 17 18  1  0
 17 19  1  0
 19 20  1  0
 20 21  1  0
 20 22  1  0
 22 23  1  0
 22 24  1  0
 24 25  1  0
 25 26  1  0
 26 27  1  0
 26 28  1  0
 24 29  1  0
 29 30  1  0
 30 31  1  0
 30 32  1  0
 32 33  1  6
 32 34  1  0
 33 34  1  0
 32 35  1  0
 35 36  1  0
 36 37  1  0
 36 38  1  0
 38 39  1  0
 39 40  1  0
 40 41  1  0
 41 42  1  0
 42 43  1  0
 42 44  1  0
 44 45  1  0
 45 46  1  0
 46 47  1  0
 46 48  1  0
 40 49  1  0
 45 49  1  0
 49 50  1  0
 50 51  1  0
 51 52  1  0
 51 53  1  0
 15 54  1  0
 38 54  1  0
 54 55  1  0
 29 56  1  0
 16 57  1  0
  1 58  1  0
  1 59  1  0
  1 60  1  0
  3 61  1  1
  4 62  1  0
  4 63  1  0
  5 64  1  6
  7 65  1  1
  8 66  1  0
  8 67  1  0
  8 68  1  0
  9 69  1  6
 11 70  1  6
 12 71  1  0
 13 72  1  0
 13 73  1  0
 13 74  1  0
 15 75  1  6
 16 76  1  1
 17 77  1  0
 18 78  1  0
 20 79  1  1
 21 80  1  0
 21 81  1  0
 21 82  1  0
 22 83  1  6
 23 84  1  0
 23 85  1  0
 23 86  1  0
 24 87  1  1
 26 88  1  1
 27 89  1  0
 28 90  1  0
 28 91  1  0
 28 92  1  0
 29 93  1  1
 30 94  1  6
 31 95  1  0
 34 96  1  0
 34 97  1  0
 35 98  1  0
 35 99  1  0
 36100  1  1
 37101  1  0
 37102  1  0
 37103  1  0
 38104  1  6
 40105  1  6
 42106  1  6
 43107  1  0
 43108  1  0
 43109  1  0
 44110  1  0
 44111  1  0
 45112  1  6
 47113  1  0
 47114  1  0
 47115  1  0
 48116  1  0
 48117  1  0
 48118  1  0
 49119  1  1
 51120  1  6
 52121  1  0
 53122  1  0
 53123  1  0
 53124  1  0
 54125  1  1
 55126  1  0
 55127  1  0
 55128  1  0
 56129  1  0
 56130  1  0
 56131  1  0
 57132  1  0
 57133  1  0
 57134  1  0
M  END
>  <PDBID>  (1) 
1OND

>  <PDB ID>  (1) 
1OND

>  <Generic Name>  (1) 
Troleandomycin

>  <Brand Name>  (1) 
Tao#Triocetin

>  <DrugBank ID>  (1) 
DB01361

>  <ATC Codes>  (1) 
J01FA08

>  <Ligand ID>  (1) 
TAO

>  <Target Name>  (1) 
50S ribosomal protein L32

>  <UniProt ID>  (1) 
P49228

>  <PDB ID.1>  (1) 
1OND

>  <Seq. Identity>  (1) 
100%

$$$$
