PDB_DB00513_02
     RDKit          3D

 25 24  0  0  0  0  0  0  0  0999 V2000
    3.1880    0.0735   -0.8240 C   0  0  0  0  0  0  0  0  0  0  0  0
    4.4476    0.5212   -0.4361 O   0  0  0  0  0  0  0  0  0  0  0  0
    3.2390   -1.3306   -0.8113 O   0  0  0  0  0  0  0  0  0  0  0  0
    2.1181    0.5764    0.1216 C   0  0  0  0  0  0  0  0  0  0  0  0
    0.7620    0.0847   -0.3100 C   0  0  0  0  0  0  0  0  0  0  0  0
   -0.3468    0.5589    0.6030 C   0  0  0  0  0  0  0  0  0  0  0  0
   -1.6364   -0.0307    0.0163 C   0  0  0  0  0  0  0  0  0  0  0  0
   -2.8365    0.3724    0.8450 C   0  0  0  0  0  0  0  0  0  0  0  0
   -4.0022   -0.2264    0.2194 N   0  0  0  0  0  0  0  0  0  0  0  0
    2.1018    1.6925   -0.0023 H   0  0  0  0  0  0  0  0  0  0  0  0
    2.3488    0.3726    1.1634 H   0  0  0  0  0  0  0  0  0  0  0  0
    0.5100    0.4511   -1.3257 H   0  0  0  0  0  0  0  0  0  0  0  0
    0.7312   -1.0230   -0.3076 H   0  0  0  0  0  0  0  0  0  0  0  0
   -0.4050    1.6634    0.4922 H   0  0  0  0  0  0  0  0  0  0  0  0
   -0.2126    0.2389    1.6376 H   0  0  0  0  0  0  0  0  0  0  0  0
   -1.7401    0.2714   -1.0460 H   0  0  0  0  0  0  0  0  0  0  0  0
   -1.4958   -1.1287    0.0247 H   0  0  0  0  0  0  0  0  0  0  0  0
   -2.6764   -0.0780    1.8596 H   0  0  0  0  0  0  0  0  0  0  0  0
   -2.9895    1.4484    0.8833 H   0  0  0  0  0  0  0  0  0  0  0  0
   -4.2493    0.3942   -0.5898 H   0  0  0  0  0  0  0  0  0  0  0  0
   -4.7868   -0.3528    0.8894 H   0  0  0  0  0  0  0  0  0  0  0  0
   -3.7071   -1.1724   -0.1146 H   0  0  0  0  0  0  0  0  0  0  0  0
    3.0117    0.4612   -1.8421 H   0  0  0  0  0  0  0  0  0  0  0  0
    5.0053    0.6589   -1.2208 H   0  0  0  0  0  0  0  0  0  0  0  0
    3.6208   -1.5799    0.0748 H   0  0  0  0  0  0  0  0  0  0  0  0
  1  2  1  0
  1  3  1  0
  1  4  1  0
  4  5  1  0
  5  6  1  0
  6  7  1  0
  7  8  1  0
  8  9  1  0
  4 10  1  0
  4 11  1  0
  5 12  1  0
  5 13  1  0
  6 14  1  0
  6 15  1  0
  7 16  1  0
  7 17  1  0
  8 18  1  0
  8 19  1  0
  9 20  1  0
  9 21  1  0
 22  9  1  0
  1 23  1  0
  2 24  1  0
  3 25  1  0
M  CHG  1   9   1
M  END
>  <PDBID>  (1) 
1HPK

>  <PDB ID>  (1) 
1HPK

>  <Generic Name>  (1) 
Aminocaproic Acid

>  <Brand Name>  (1) 
Amicar#Aminocaproic Acid#Exoden White Tooth#Acepramin#Amocap#Caproamin#Caprocat#Caprolisin#E-Capro#Epsicaprom#Hemocid#Inselon#Ipron#Ipsilon#Kai Nai Yin#Minocap#Plaslloid#Resplamin

>  <DrugBank ID>  (1) 
DB00513

>  <ATC Codes>  (1) 
B02AA01

>  <Ligand ID>  (1) 
ACA

>  <Target Name>  (1) 
Plasminogen

>  <UniProt ID>  (1) 
P00747

>  <PDB ID.1>  (1) 
1HPK

>  <Seq. Identity>  (1) 
100%

$$$$
