PDB_DB00820_00
     RDKit          3D

132142  0  0  0  0  0  0  0  0999 V2000
    3.9267   -3.2916    1.1082 C   0  0  0  0  0  0  0  0  0  0  0  0
    4.6881   -2.6616   -0.0360 C   0  0  0  0  0  0  0  0  0  0  0  0
    4.2115   -1.2494   -0.3332 C   0  0  0  0  0  0  0  0  0  0  0  0
    2.8168   -1.1429    0.1393 C   0  0  0  0  0  0  0  0  0  0  0  0
    1.9112   -0.1960   -0.5521 C   0  0  0  0  0  0  0  0  0  0  0  0
    0.5682   -0.7451   -0.0288 C   0  0  0  0  0  0  0  0  0  0  0  0
    0.7127   -2.1163   -0.4106 N   0  0  0  0  0  0  0  0  0  0  0  0
    2.1190   -2.4577   -0.2672 C   0  0  0  0  0  0  0  0  0  0  0  0
    2.4422   -3.4387    0.7918 C   0  0  0  0  0  0  0  0  0  0  0  0
   -0.4917    0.0560   -0.6628 C   0  0  2  0  0  0  0  0  0  0  0  0
   -0.3554    1.4232   -0.2321 N   0  0  0  0  0  0  0  0  0  0  0  0
   -0.5757    1.6727    1.1484 C   0  0  0  0  0  0  0  0  0  0  0  0
    0.5514    1.4627    1.9528 O   0  0  0  0  0  0  0  0  0  0  0  0
   -0.8892    3.1701    1.2927 C   0  0  0  0  0  0  0  0  0  0  0  0
   -0.0854    3.9940    0.4833 N   0  0  0  0  0  0  0  0  0  0  0  0
    1.0431    3.4038   -0.1326 C   0  0  0  0  0  0  0  0  0  0  0  0
    2.1218    3.4904    0.7800 O   0  0  0  0  0  0  0  0  0  0  0  0
    0.8700    2.0334   -0.6664 C   0  0  1  0  0  0  0  0  0  0  0  0
    2.1058    1.2367   -0.3023 C   0  0  0  0  0  0  0  0  0  0  0  0
   -0.7675    4.9759   -0.2987 C   0  0  0  0  0  0  0  0  0  0  0  0
   -1.8918   -0.4104   -0.4844 C   0  0  0  0  0  0  0  0  0  0  0  0
   -2.1883   -1.7746   -1.0386 C   0  0  0  0  0  0  0  0  0  0  0  0
   -3.6231   -2.0991   -1.1796 C   0  0  0  0  0  0  0  0  0  0  0  0
   -4.6297   -1.1733   -0.6473 C   0  0  0  0  0  0  0  0  0  0  0  0
   -5.2586   -1.6410    0.5238 O   0  0  0  0  0  0  0  0  0  0  0  0
   -4.4621   -1.1332    1.5339 C   0  0  0  0  0  0  0  0  0  0  0  0
   -3.9438    0.0604    1.1142 O   0  0  0  0  0  0  0  0  0  0  0  0
   -4.2040    0.1898   -0.2505 C   0  0  0  0  0  0  0  0  0  0  0  0
   -2.9294    0.5207   -0.9996 C   0  0  0  0  0  0  0  0  0  0  0  0
    3.9267   -3.2916    1.1082 C   0  0  0  0  0  0  0  0  0  0  0  0
    4.6881   -2.6616   -0.0360 C   0  0  0  0  0  0  0  0  0  0  0  0
    4.2115   -1.2494   -0.3332 C   0  0  0  0  0  0  0  0  0  0  0  0
    2.8168   -1.1429    0.1393 C   0  0  0  0  0  0  0  0  0  0  0  0
    1.9112   -0.1960   -0.5521 C   0  0  0  0  0  0  0  0  0  0  0  0
    0.5682   -0.7451   -0.0288 C   0  0  0  0  0  0  0  0  0  0  0  0
    0.7127   -2.1163   -0.4106 N   0  0  0  0  0  0  0  0  0  0  0  0
    2.1190   -2.4577   -0.2672 C   0  0  0  0  0  0  0  0  0  0  0  0
    2.4422   -3.4387    0.7918 C   0  0  0  0  0  0  0  0  0  0  0  0
   -0.4917    0.0560   -0.6628 C   0  0  2  0  0  0  0  0  0  0  0  0
   -0.3554    1.4232   -0.2321 N   0  0  0  0  0  0  0  0  0  0  0  0
   -0.5757    1.6727    1.1484 C   0  0  0  0  0  0  0  0  0  0  0  0
    0.5514    1.4627    1.9528 O   0  0  0  0  0  0  0  0  0  0  0  0
   -0.8892    3.1701    1.2927 C   0  0  0  0  0  0  0  0  0  0  0  0
   -0.0854    3.9940    0.4833 N   0  0  0  0  0  0  0  0  0  0  0  0
    1.0431    3.4038   -0.1326 C   0  0  0  0  0  0  0  0  0  0  0  0
    2.1218    3.4904    0.7800 O   0  0  0  0  0  0  0  0  0  0  0  0
    0.8700    2.0334   -0.6664 C   0  0  1  0  0  0  0  0  0  0  0  0
    2.1058    1.2367   -0.3023 C   0  0  0  0  0  0  0  0  0  0  0  0
   -0.7675    4.9759   -0.2987 C   0  0  0  0  0  0  0  0  0  0  0  0
   -1.8918   -0.4104   -0.4844 C   0  0  0  0  0  0  0  0  0  0  0  0
   -2.1883   -1.7746   -1.0386 C   0  0  0  0  0  0  0  0  0  0  0  0
   -3.6231   -2.0991   -1.1796 C   0  0  0  0  0  0  0  0  0  0  0  0
   -4.6297   -1.1733   -0.6473 C   0  0  0  0  0  0  0  0  0  0  0  0
   -5.2586   -1.6410    0.5238 O   0  0  0  0  0  0  0  0  0  0  0  0
   -4.4621   -1.1332    1.5339 C   0  0  0  0  0  0  0  0  0  0  0  0
   -3.9438    0.0604    1.1142 O   0  0  0  0  0  0  0  0  0  0  0  0
   -4.2040    0.1898   -0.2505 C   0  0  0  0  0  0  0  0  0  0  0  0
   -2.9294    0.5207   -0.9996 C   0  0  0  0  0  0  0  0  0  0  0  0
    4.1172   -2.7503    2.0317 H   0  0  0  0  0  0  0  0  0  0  0  0
    4.3245   -4.3211    1.2188 H   0  0  0  0  0  0  0  0  0  0  0  0
    5.7391   -2.5653    0.3059 H   0  0  0  0  0  0  0  0  0  0  0  0
    4.7014   -3.2997   -0.9371 H   0  0  0  0  0  0  0  0  0  0  0  0
    4.2383   -1.1262   -1.4354 H   0  0  0  0  0  0  0  0  0  0  0  0
    4.8704   -0.4803    0.1291 H   0  0  0  0  0  0  0  0  0  0  0  0
    2.7346   -1.0048    1.2433 H   0  0  0  0  0  0  0  0  0  0  0  0
    1.9000   -0.3872   -1.6434 H   0  0  0  0  0  0  0  0  0  0  0  0
    0.5592   -0.7183    1.0847 H   0  0  0  0  0  0  0  0  0  0  0  0
    0.5289   -2.1663   -1.4484 H   0  0  0  0  0  0  0  0  0  0  0  0
    2.5819   -2.8018   -1.2151 H   0  0  0  0  0  0  0  0  0  0  0  0
    2.1839   -4.4845    0.5300 H   0  0  0  0  0  0  0  0  0  0  0  0
    1.8957   -3.1770    1.7178 H   0  0  0  0  0  0  0  0  0  0  0  0
   -0.2911    0.0654   -1.7649 H   0  0  0  0  0  0  0  0  0  0  0  0
   -1.3923    1.1218    1.6225 H   0  0  0  0  0  0  0  0  0  0  0  0
    0.6040    2.1103    2.6987 H   0  0  0  0  0  0  0  0  0  0  0  0
   -0.8701    3.4300    2.3650 H   0  0  0  0  0  0  0  0  0  0  0  0
   -1.9672    3.2636    0.9699 H   0  0  0  0  0  0  0  0  0  0  0  0
    1.3559    4.0716   -0.9866 H   0  0  0  0  0  0  0  0  0  0  0  0
    2.9765    3.5305    0.2820 H   0  0  0  0  0  0  0  0  0  0  0  0
    0.8320    2.0338   -1.7963 H   0  0  0  0  0  0  0  0  0  0  0  0
    2.9015    1.5942   -1.0233 H   0  0  0  0  0  0  0  0  0  0  0  0
    2.5132    1.5016    0.6946 H   0  0  0  0  0  0  0  0  0  0  0  0
    0.0274    5.6235   -0.7725 H   0  0  0  0  0  0  0  0  0  0  0  0
   -1.3558    5.6697    0.3342 H   0  0  0  0  0  0  0  0  0  0  0  0
   -1.3377    4.5572   -1.1457 H   0  0  0  0  0  0  0  0  0  0  0  0
   -2.0637   -0.5064    0.6299 H   0  0  0  0  0  0  0  0  0  0  0  0
   -1.7384   -1.7819   -2.0764 H   0  0  0  0  0  0  0  0  0  0  0  0
   -1.6257   -2.5155   -0.4357 H   0  0  0  0  0  0  0  0  0  0  0  0
   -3.8997   -2.3438   -2.2500 H   0  0  0  0  0  0  0  0  0  0  0  0
   -3.7864   -3.0969   -0.6654 H   0  0  0  0  0  0  0  0  0  0  0  0
   -5.4947   -1.0376   -1.3660 H   0  0  0  0  0  0  0  0  0  0  0  0
   -5.0849   -1.0572    2.4499 H   0  0  0  0  0  0  0  0  0  0  0  0
   -3.6881   -1.9027    1.7598 H   0  0  0  0  0  0  0  0  0  0  0  0
   -4.9864    0.9609   -0.4214 H   0  0  0  0  0  0  0  0  0  0  0  0
   -2.6666    1.5854   -0.9548 H   0  0  0  0  0  0  0  0  0  0  0  0
   -3.1294    0.2462   -2.0748 H   0  0  0  0  0  0  0  0  0  0  0  0
    4.1172   -2.7503    2.0317 H   0  0  0  0  0  0  0  0  0  0  0  0
    4.3245   -4.3211    1.2188 H   0  0  0  0  0  0  0  0  0  0  0  0
    5.7391   -2.5653    0.3059 H   0  0  0  0  0  0  0  0  0  0  0  0
    4.7014   -3.2997   -0.9371 H   0  0  0  0  0  0  0  0  0  0  0  0
    4.2383   -1.1262   -1.4354 H   0  0  0  0  0  0  0  0  0  0  0  0
    4.8704   -0.4803    0.1291 H   0  0  0  0  0  0  0  0  0  0  0  0
    2.7346   -1.0048    1.2433 H   0  0  0  0  0  0  0  0  0  0  0  0
    1.9000   -0.3872   -1.6434 H   0  0  0  0  0  0  0  0  0  0  0  0
    0.5592   -0.7183    1.0847 H   0  0  0  0  0  0  0  0  0  0  0  0
    0.5289   -2.1663   -1.4484 H   0  0  0  0  0  0  0  0  0  0  0  0
    2.5819   -2.8018   -1.2151 H   0  0  0  0  0  0  0  0  0  0  0  0
    2.1839   -4.4845    0.5300 H   0  0  0  0  0  0  0  0  0  0  0  0
    1.8957   -3.1770    1.7178 H   0  0  0  0  0  0  0  0  0  0  0  0
   -0.2911    0.0654   -1.7649 H   0  0  0  0  0  0  0  0  0  0  0  0
   -1.3923    1.1218    1.6225 H   0  0  0  0  0  0  0  0  0  0  0  0
    0.6040    2.1103    2.6987 H   0  0  0  0  0  0  0  0  0  0  0  0
   -0.8701    3.4300    2.3650 H   0  0  0  0  0  0  0  0  0  0  0  0
   -1.9672    3.2636    0.9699 H   0  0  0  0  0  0  0  0  0  0  0  0
    1.3559    4.0716   -0.9866 H   0  0  0  0  0  0  0  0  0  0  0  0
    2.9765    3.5305    0.2820 H   0  0  0  0  0  0  0  0  0  0  0  0
    0.8320    2.0338   -1.7963 H   0  0  0  0  0  0  0  0  0  0  0  0
    2.9015    1.5942   -1.0233 H   0  0  0  0  0  0  0  0  0  0  0  0
    2.5132    1.5016    0.6946 H   0  0  0  0  0  0  0  0  0  0  0  0
    0.0274    5.6235   -0.7725 H   0  0  0  0  0  0  0  0  0  0  0  0
   -1.3558    5.6697    0.3342 H   0  0  0  0  0  0  0  0  0  0  0  0
   -1.3377    4.5572   -1.1457 H   0  0  0  0  0  0  0  0  0  0  0  0
   -2.0637   -0.5064    0.6299 H   0  0  0  0  0  0  0  0  0  0  0  0
   -1.7384   -1.7819   -2.0764 H   0  0  0  0  0  0  0  0  0  0  0  0
   -1.6257   -2.5155   -0.4357 H   0  0  0  0  0  0  0  0  0  0  0  0
   -3.8997   -2.3438   -2.2500 H   0  0  0  0  0  0  0  0  0  0  0  0
   -3.7864   -3.0969   -0.6654 H   0  0  0  0  0  0  0  0  0  0  0  0
   -5.4947   -1.0376   -1.3660 H   0  0  0  0  0  0  0  0  0  0  0  0
   -5.0849   -1.0572    2.4499 H   0  0  0  0  0  0  0  0  0  0  0  0
   -3.6881   -1.9027    1.7598 H   0  0  0  0  0  0  0  0  0  0  0  0
   -4.9864    0.9609   -0.4214 H   0  0  0  0  0  0  0  0  0  0  0  0
   -2.6666    1.5854   -0.9548 H   0  0  0  0  0  0  0  0  0  0  0  0
   -3.1294    0.2462   -2.0748 H   0  0  0  0  0  0  0  0  0  0  0  0
  1  2  1  0
  2  3  1  0
  3  4  1  0
  4  5  1  0
  5  6  1  0
  6  7  1  0
  4  8  1  0
  7  8  1  0
  1  9  1  0
  8  9  1  0
  6 10  1  0
 10 11  1  0
 11 12  1  0
 12 13  1  0
 12 14  1  0
 14 15  1  0
 15 16  1  0
 16 17  1  0
 11 18  1  0
 16 18  1  0
  5 19  1  0
 18 19  1  0
 15 20  1  0
 10 21  1  0
 21 22  1  0
 22 23  1  0
 23 24  1  0
 24 25  1  0
 25 26  1  0
 26 27  1  0
 24 28  1  0
 27 28  1  0
 21 29  1  0
 28 29  1  0
 30 31  1  0
 31 32  1  0
 32 33  1  0
 33 34  1  0
 34 35  1  0
 35 36  1  0
 33 37  1  0
 36 37  1  0
 30 38  1  0
 37 38  1  0
 35 39  1  0
 39 40  1  0
 40 41  1  0
 41 42  1  0
 41 43  1  0
 43 44  1  0
 44 45  1  0
 45 46  1  0
 40 47  1  0
 45 47  1  0
 34 48  1  0
 47 48  1  0
 44 49  1  0
 39 50  1  0
 50 51  1  0
 51 52  1  0
 52 53  1  0
 53 54  1  0
 54 55  1  0
 55 56  1  0
 53 57  1  0
 56 57  1  0
 50 58  1  0
 57 58  1  0
  1 59  1  0
  1 60  1  0
  2 61  1  0
  2 62  1  0
  3 63  1  0
  3 64  1  0
  4 65  1  0
  5 66  1  0
  6 67  1  0
  7 68  1  0
  8 69  1  0
  9 70  1  0
  9 71  1  0
 10 72  1  6
 12 73  1  0
 13 74  1  0
 14 75  1  0
 14 76  1  0
 16 77  1  0
 17 78  1  0
 18 79  1  6
 19 80  1  0
 19 81  1  0
 20 82  1  0
 20 83  1  0
 20 84  1  0
 21 85  1  0
 22 86  1  0
 22 87  1  0
 23 88  1  0
 23 89  1  0
 24 90  1  0
 26 91  1  0
 26 92  1  0
 28 93  1  0
 29 94  1  0
 29 95  1  0
 30 96  1  0
 30 97  1  0
 31 98  1  0
 31 99  1  0
 32100  1  0
 32101  1  0
 33102  1  0
 34103  1  0
 35104  1  0
 36105  1  0
 37106  1  0
 38107  1  0
 38108  1  0
 39109  1  6
 41110  1  0
 42111  1  0
 43112  1  0
 43113  1  0
 45114  1  0
 46115  1  0
 47116  1  6
 48117  1  0
 48118  1  0
 49119  1  0
 49120  1  0
 49121  1  0
 50122  1  0
 51123  1  0
 51124  1  0
 52125  1  0
 52126  1  0
 53127  1  0
 55128  1  0
 55129  1  0
 57130  1  0
 58131  1  0
 58132  1  0
M  END
>  <PDBID>  (1) 
1UDU

>  <PDB ID>  (1) 
1UDU

>  <Generic Name>  (1) 
Tadalafil

>  <Brand Name>  (1) 
Act Tadalafil#Adcirca#Apo-tadalafil#Apo-tadalafil Pah#Auro-tadalafil#Cialis#Dom-tadalafil#Ipg-tadalafil#Jamp-tadalafil#Mar-tadalafil#Mint-tadalafil#Mylan-tadalafil#PMS-tadalafil#Priva-tadalafil#Ran-tadalafil#Riva-tadalafil#Tadalafil#Teva-tadalafil

>  <DrugBank ID>  (1) 
DB00820

>  <ATC Codes>  (1) 
G04BE08

>  <Ligand ID>  (1) 
CIA

>  <Target Name>  (1) 
cGMP-specific 3',5'-cyclic phosphodiesterase

>  <UniProt ID>  (1) 
O76074

>  <PDB ID.1>  (1) 
1UDU

>  <Seq. Identity>  (1) 
94%

$$$$
