PDB_DB00642_08
     RDKit          3D

288296  0  0  0  0  0  0  0  0999 V2000
   -0.5228    0.6978   -0.8616 C   0  0  0  0  0  0  0  0  0  0  0  0
   -0.1900   -0.7652   -1.1212 C   0  0  0  0  0  0  0  0  0  0  0  0
    1.3422   -0.8212   -1.1042 C   0  0  0  0  0  0  0  0  0  0  0  0
    1.7636   -0.5950    0.3280 C   0  0  0  0  0  0  0  0  0  0  0  0
    0.6533   -0.0277    1.1628 C   0  0  0  0  0  0  0  0  0  0  0  0
   -0.0775    1.1164    0.5198 C   0  0  0  0  0  0  0  0  0  0  0  0
   -1.9826    0.9810   -1.1154 C   0  0  0  0  0  0  0  0  0  0  0  0
   -2.8979    0.1686   -0.2276 C   0  0  0  0  0  0  0  0  0  0  0  0
   -4.3002    0.5432   -0.5780 C   0  0  0  0  0  0  0  0  0  0  0  0
   -4.6169    0.2307   -2.0135 C   0  0  0  0  0  0  0  0  0  0  0  0
   -5.8754   -0.5045   -1.9750 N   0  0  0  0  0  0  0  0  0  0  0  0
   -5.8582   -1.1905   -0.6813 C   0  0  0  0  0  0  0  0  0  0  0  0
   -5.3641   -0.1141    0.2623 C   0  0  0  0  0  0  0  0  0  0  0  0
   -6.4329    0.9374    0.5005 C   0  0  0  0  0  0  0  0  0  0  0  0
   -6.0203    1.7548    1.5450 O   0  0  0  0  0  0  0  0  0  0  0  0
   -7.7511    0.4183    0.6493 N   0  0  0  0  0  0  0  0  0  0  0  0
   -7.8007   -1.0250    0.7558 C   0  0  0  0  0  0  0  0  0  0  0  0
   -7.1894   -1.6301   -0.4050 N   0  0  0  0  0  0  0  0  0  0  0  0
   -7.2540   -1.4617    2.0108 N   0  0  0  0  0  0  0  0  0  0  0  0
    2.9152    0.4237    0.3147 C   0  0  0  0  0  0  0  0  0  0  0  0
    3.2894    0.6072    1.6132 O   0  0  0  0  0  0  0  0  0  0  0  0
    3.8635    0.0301   -0.6345 N   0  0  0  0  0  0  0  0  0  0  0  0
    5.2316    0.4208   -0.5006 C   0  0  1  0  0  0  0  0  0  0  0  0
    5.9058   -0.2105    0.6698 C   0  0  0  0  0  0  0  0  0  0  0  0
    7.3504    0.1772    0.8604 C   0  0  0  0  0  0  0  0  0  0  0  0
    7.8423   -0.5441    2.1375 C   0  0  0  0  0  0  0  0  0  0  0  0
    9.1798   -0.1713    2.2947 O   0  0  0  0  0  0  0  0  0  0  0  0
    7.1534   -0.0871    3.2558 O   0  0  0  0  0  0  0  0  0  0  0  0
    5.8885    0.0998   -1.8349 C   0  0  0  0  0  0  0  0  0  0  0  0
    7.2112    0.4489   -1.9190 O   0  0  0  0  0  0  0  0  0  0  0  0
    5.7650   -1.2550   -2.1559 O   0  0  0  0  0  0  0  0  0  0  0  0
   -0.5228    0.6978   -0.8616 C   0  0  0  0  0  0  0  0  0  0  0  0
   -0.1900   -0.7652   -1.1212 C   0  0  0  0  0  0  0  0  0  0  0  0
    1.3422   -0.8212   -1.1042 C   0  0  0  0  0  0  0  0  0  0  0  0
    1.7636   -0.5950    0.3280 C   0  0  0  0  0  0  0  0  0  0  0  0
    0.6533   -0.0277    1.1628 C   0  0  0  0  0  0  0  0  0  0  0  0
   -0.0775    1.1164    0.5198 C   0  0  0  0  0  0  0  0  0  0  0  0
   -1.9826    0.9810   -1.1154 C   0  0  0  0  0  0  0  0  0  0  0  0
   -2.8979    0.1686   -0.2276 C   0  0  0  0  0  0  0  0  0  0  0  0
   -4.3002    0.5432   -0.5780 C   0  0  0  0  0  0  0  0  0  0  0  0
   -4.6169    0.2307   -2.0135 C   0  0  0  0  0  0  0  0  0  0  0  0
   -5.8754   -0.5045   -1.9750 N   0  0  0  0  0  0  0  0  0  0  0  0
   -5.8582   -1.1905   -0.6813 C   0  0  0  0  0  0  0  0  0  0  0  0
   -5.3641   -0.1141    0.2623 C   0  0  0  0  0  0  0  0  0  0  0  0
   -6.4329    0.9374    0.5005 C   0  0  0  0  0  0  0  0  0  0  0  0
   -6.0203    1.7548    1.5450 O   0  0  0  0  0  0  0  0  0  0  0  0
   -7.7511    0.4183    0.6493 N   0  0  0  0  0  0  0  0  0  0  0  0
   -7.8007   -1.0250    0.7558 C   0  0  0  0  0  0  0  0  0  0  0  0
   -7.1894   -1.6301   -0.4050 N   0  0  0  0  0  0  0  0  0  0  0  0
   -7.2540   -1.4617    2.0108 N   0  0  0  0  0  0  0  0  0  0  0  0
    2.9152    0.4237    0.3147 C   0  0  0  0  0  0  0  0  0  0  0  0
    3.2894    0.6072    1.6132 O   0  0  0  0  0  0  0  0  0  0  0  0
    3.8635    0.0301   -0.6345 N   0  0  0  0  0  0  0  0  0  0  0  0
    5.2316    0.4208   -0.5006 C   0  0  1  0  0  0  0  0  0  0  0  0
    5.9058   -0.2105    0.6698 C   0  0  0  0  0  0  0  0  0  0  0  0
    7.3504    0.1772    0.8604 C   0  0  0  0  0  0  0  0  0  0  0  0
    7.8423   -0.5441    2.1375 C   0  0  0  0  0  0  0  0  0  0  0  0
    9.1798   -0.1713    2.2947 O   0  0  0  0  0  0  0  0  0  0  0  0
    7.1534   -0.0871    3.2558 O   0  0  0  0  0  0  0  0  0  0  0  0
    5.8885    0.0998   -1.8349 C   0  0  0  0  0  0  0  0  0  0  0  0
    7.2112    0.4489   -1.9190 O   0  0  0  0  0  0  0  0  0  0  0  0
    5.7650   -1.2550   -2.1559 O   0  0  0  0  0  0  0  0  0  0  0  0
   -0.5228    0.6978   -0.8616 C   0  0  0  0  0  0  0  0  0  0  0  0
   -0.1900   -0.7652   -1.1212 C   0  0  0  0  0  0  0  0  0  0  0  0
    1.3422   -0.8212   -1.1042 C   0  0  0  0  0  0  0  0  0  0  0  0
    1.7636   -0.5950    0.3280 C   0  0  0  0  0  0  0  0  0  0  0  0
    0.6533   -0.0277    1.1628 C   0  0  0  0  0  0  0  0  0  0  0  0
   -0.0775    1.1164    0.5198 C   0  0  0  0  0  0  0  0  0  0  0  0
   -1.9826    0.9810   -1.1154 C   0  0  0  0  0  0  0  0  0  0  0  0
   -2.8979    0.1686   -0.2276 C   0  0  0  0  0  0  0  0  0  0  0  0
   -4.3002    0.5432   -0.5780 C   0  0  0  0  0  0  0  0  0  0  0  0
   -4.6169    0.2307   -2.0135 C   0  0  0  0  0  0  0  0  0  0  0  0
   -5.8754   -0.5045   -1.9750 N   0  0  0  0  0  0  0  0  0  0  0  0
   -5.8582   -1.1905   -0.6813 C   0  0  0  0  0  0  0  0  0  0  0  0
   -5.3641   -0.1141    0.2623 C   0  0  0  0  0  0  0  0  0  0  0  0
   -6.4329    0.9374    0.5005 C   0  0  0  0  0  0  0  0  0  0  0  0
   -6.0203    1.7548    1.5450 O   0  0  0  0  0  0  0  0  0  0  0  0
   -7.7511    0.4183    0.6493 N   0  0  0  0  0  0  0  0  0  0  0  0
   -7.8007   -1.0250    0.7558 C   0  0  0  0  0  0  0  0  0  0  0  0
   -7.1894   -1.6301   -0.4050 N   0  0  0  0  0  0  0  0  0  0  0  0
   -7.2540   -1.4617    2.0108 N   0  0  0  0  0  0  0  0  0  0  0  0
    2.9152    0.4237    0.3147 C   0  0  0  0  0  0  0  0  0  0  0  0
    3.2894    0.6072    1.6132 O   0  0  0  0  0  0  0  0  0  0  0  0
    3.8635    0.0301   -0.6345 N   0  0  0  0  0  0  0  0  0  0  0  0
    5.2316    0.4208   -0.5006 C   0  0  1  0  0  0  0  0  0  0  0  0
    5.9058   -0.2105    0.6698 C   0  0  0  0  0  0  0  0  0  0  0  0
    7.3504    0.1772    0.8604 C   0  0  0  0  0  0  0  0  0  0  0  0
    7.8423   -0.5441    2.1375 C   0  0  0  0  0  0  0  0  0  0  0  0
    9.1798   -0.1713    2.2947 O   0  0  0  0  0  0  0  0  0  0  0  0
    7.1534   -0.0871    3.2558 O   0  0  0  0  0  0  0  0  0  0  0  0
    5.8885    0.0998   -1.8349 C   0  0  0  0  0  0  0  0  0  0  0  0
    7.2112    0.4489   -1.9190 O   0  0  0  0  0  0  0  0  0  0  0  0
    5.7650   -1.2550   -2.1559 O   0  0  0  0  0  0  0  0  0  0  0  0
   -0.5228    0.6978   -0.8616 C   0  0  0  0  0  0  0  0  0  0  0  0
   -0.1900   -0.7652   -1.1212 C   0  0  0  0  0  0  0  0  0  0  0  0
    1.3422   -0.8212   -1.1042 C   0  0  0  0  0  0  0  0  0  0  0  0
    1.7636   -0.5950    0.3280 C   0  0  0  0  0  0  0  0  0  0  0  0
    0.6533   -0.0277    1.1628 C   0  0  0  0  0  0  0  0  0  0  0  0
   -0.0775    1.1164    0.5198 C   0  0  0  0  0  0  0  0  0  0  0  0
   -1.9826    0.9810   -1.1154 C   0  0  0  0  0  0  0  0  0  0  0  0
   -2.8979    0.1686   -0.2276 C   0  0  0  0  0  0  0  0  0  0  0  0
   -4.3002    0.5432   -0.5780 C   0  0  0  0  0  0  0  0  0  0  0  0
   -4.6169    0.2307   -2.0135 C   0  0  0  0  0  0  0  0  0  0  0  0
   -5.8754   -0.5045   -1.9750 N   0  0  0  0  0  0  0  0  0  0  0  0
   -5.8582   -1.1905   -0.6813 C   0  0  0  0  0  0  0  0  0  0  0  0
   -5.3641   -0.1141    0.2623 C   0  0  0  0  0  0  0  0  0  0  0  0
   -6.4329    0.9374    0.5005 C   0  0  0  0  0  0  0  0  0  0  0  0
   -6.0203    1.7548    1.5450 O   0  0  0  0  0  0  0  0  0  0  0  0
   -7.7511    0.4183    0.6493 N   0  0  0  0  0  0  0  0  0  0  0  0
   -7.8007   -1.0250    0.7558 C   0  0  0  0  0  0  0  0  0  0  0  0
   -7.1894   -1.6301   -0.4050 N   0  0  0  0  0  0  0  0  0  0  0  0
   -7.2540   -1.4617    2.0108 N   0  0  0  0  0  0  0  0  0  0  0  0
    2.9152    0.4237    0.3147 C   0  0  0  0  0  0  0  0  0  0  0  0
    3.2894    0.6072    1.6132 O   0  0  0  0  0  0  0  0  0  0  0  0
    3.8635    0.0301   -0.6345 N   0  0  0  0  0  0  0  0  0  0  0  0
    5.2316    0.4208   -0.5006 C   0  0  1  0  0  0  0  0  0  0  0  0
    5.9058   -0.2105    0.6698 C   0  0  0  0  0  0  0  0  0  0  0  0
    7.3504    0.1772    0.8604 C   0  0  0  0  0  0  0  0  0  0  0  0
    7.8423   -0.5441    2.1375 C   0  0  0  0  0  0  0  0  0  0  0  0
    9.1798   -0.1713    2.2947 O   0  0  0  0  0  0  0  0  0  0  0  0
    7.1534   -0.0871    3.2558 O   0  0  0  0  0  0  0  0  0  0  0  0
    5.8885    0.0998   -1.8349 C   0  0  0  0  0  0  0  0  0  0  0  0
    7.2112    0.4489   -1.9190 O   0  0  0  0  0  0  0  0  0  0  0  0
    5.7650   -1.2550   -2.1559 O   0  0  0  0  0  0  0  0  0  0  0  0
    0.0629    1.2918   -1.5925 H   0  0  0  0  0  0  0  0  0  0  0  0
   -0.6512   -1.4558   -0.4179 H   0  0  0  0  0  0  0  0  0  0  0  0
   -0.4766   -0.9495   -2.1864 H   0  0  0  0  0  0  0  0  0  0  0  0
    1.7031   -0.0335   -1.8030 H   0  0  0  0  0  0  0  0  0  0  0  0
    1.7127   -1.7804   -1.4746 H   0  0  0  0  0  0  0  0  0  0  0  0
    2.1472   -1.4984    0.7946 H   0  0  0  0  0  0  0  0  0  0  0  0
   -0.0969   -0.8161    1.4263 H   0  0  0  0  0  0  0  0  0  0  0  0
    1.1089    0.3752    2.1035 H   0  0  0  0  0  0  0  0  0  0  0  0
   -0.9248    1.3920    1.1798 H   0  0  0  0  0  0  0  0  0  0  0  0
    0.6011    1.9929    0.4991 H   0  0  0  0  0  0  0  0  0  0  0  0
   -2.2317    2.0394   -1.0636 H   0  0  0  0  0  0  0  0  0  0  0  0
   -2.1687    0.6612   -2.1720 H   0  0  0  0  0  0  0  0  0  0  0  0
   -2.6429    0.3484    0.8283 H   0  0  0  0  0  0  0  0  0  0  0  0
   -2.7346   -0.9246   -0.3837 H   0  0  0  0  0  0  0  0  0  0  0  0
   -4.3630    1.6683   -0.4184 H   0  0  0  0  0  0  0  0  0  0  0  0
   -3.8411   -0.4487   -2.4427 H   0  0  0  0  0  0  0  0  0  0  0  0
   -4.6703    1.1442   -2.5966 H   0  0  0  0  0  0  0  0  0  0  0  0
   -6.6850    0.1554   -2.0105 H   0  0  0  0  0  0  0  0  0  0  0  0
   -5.1571   -2.0227   -0.7223 H   0  0  0  0  0  0  0  0  0  0  0  0
   -4.9956   -0.5350    1.2076 H   0  0  0  0  0  0  0  0  0  0  0  0
   -6.4497    1.5945   -0.4241 H   0  0  0  0  0  0  0  0  0  0  0  0
   -6.2342    2.6936    1.3413 H   0  0  0  0  0  0  0  0  0  0  0  0
   -8.4350    0.7139   -0.0673 H   0  0  0  0  0  0  0  0  0  0  0  0
   -8.8757   -1.2975    0.7374 H   0  0  0  0  0  0  0  0  0  0  0  0
   -7.3199   -2.6660   -0.3770 H   0  0  0  0  0  0  0  0  0  0  0  0
   -6.5898   -2.2470    1.9597 H   0  0  0  0  0  0  0  0  0  0  0  0
   -7.0332   -0.7129    2.6729 H   0  0  0  0  0  0  0  0  0  0  0  0
    2.4603    1.4179   -0.0564 H   0  0  0  0  0  0  0  0  0  0  0  0
    3.0490   -0.1768    2.1568 H   0  0  0  0  0  0  0  0  0  0  0  0
    3.7018   -0.8566   -1.1396 H   0  0  0  0  0  0  0  0  0  0  0  0
    5.2889    1.5517   -0.4410 H   0  0  0  0  0  0  0  0  0  0  0  0
    5.9299   -1.3400    0.4916 H   0  0  0  0  0  0  0  0  0  0  0  0
    5.3597   -0.1228    1.6280 H   0  0  0  0  0  0  0  0  0  0  0  0
    7.9499   -0.1774    0.0091 H   0  0  0  0  0  0  0  0  0  0  0  0
    7.4922    1.2441    1.0281 H   0  0  0  0  0  0  0  0  0  0  0  0
    7.7134   -1.6312    2.0476 H   0  0  0  0  0  0  0  0  0  0  0  0
    9.3227    0.6997    1.8802 H   0  0  0  0  0  0  0  0  0  0  0  0
    6.6039    0.7004    3.0649 H   0  0  0  0  0  0  0  0  0  0  0  0
    5.3607    0.6364   -2.6663 H   0  0  0  0  0  0  0  0  0  0  0  0
    7.5841    0.3775   -2.8261 H   0  0  0  0  0  0  0  0  0  0  0  0
    6.2032   -1.8620   -1.5278 H   0  0  0  0  0  0  0  0  0  0  0  0
    0.0629    1.2918   -1.5925 H   0  0  0  0  0  0  0  0  0  0  0  0
   -0.6512   -1.4558   -0.4179 H   0  0  0  0  0  0  0  0  0  0  0  0
   -0.4766   -0.9495   -2.1864 H   0  0  0  0  0  0  0  0  0  0  0  0
    1.7031   -0.0335   -1.8030 H   0  0  0  0  0  0  0  0  0  0  0  0
    1.7127   -1.7804   -1.4746 H   0  0  0  0  0  0  0  0  0  0  0  0
    2.1472   -1.4984    0.7946 H   0  0  0  0  0  0  0  0  0  0  0  0
   -0.0969   -0.8161    1.4263 H   0  0  0  0  0  0  0  0  0  0  0  0
    1.1089    0.3752    2.1035 H   0  0  0  0  0  0  0  0  0  0  0  0
   -0.9248    1.3920    1.1798 H   0  0  0  0  0  0  0  0  0  0  0  0
    0.6011    1.9929    0.4991 H   0  0  0  0  0  0  0  0  0  0  0  0
   -2.2317    2.0394   -1.0636 H   0  0  0  0  0  0  0  0  0  0  0  0
   -2.1687    0.6612   -2.1720 H   0  0  0  0  0  0  0  0  0  0  0  0
   -2.6429    0.3484    0.8283 H   0  0  0  0  0  0  0  0  0  0  0  0
   -2.7346   -0.9246   -0.3837 H   0  0  0  0  0  0  0  0  0  0  0  0
   -4.3630    1.6683   -0.4184 H   0  0  0  0  0  0  0  0  0  0  0  0
   -3.8411   -0.4487   -2.4427 H   0  0  0  0  0  0  0  0  0  0  0  0
   -4.6703    1.1442   -2.5966 H   0  0  0  0  0  0  0  0  0  0  0  0
   -6.6850    0.1554   -2.0105 H   0  0  0  0  0  0  0  0  0  0  0  0
   -5.1571   -2.0227   -0.7223 H   0  0  0  0  0  0  0  0  0  0  0  0
   -4.9956   -0.5350    1.2076 H   0  0  0  0  0  0  0  0  0  0  0  0
   -6.4497    1.5945   -0.4241 H   0  0  0  0  0  0  0  0  0  0  0  0
   -6.2342    2.6936    1.3413 H   0  0  0  0  0  0  0  0  0  0  0  0
   -8.4350    0.7139   -0.0673 H   0  0  0  0  0  0  0  0  0  0  0  0
   -8.8757   -1.2975    0.7374 H   0  0  0  0  0  0  0  0  0  0  0  0
   -7.3199   -2.6660   -0.3770 H   0  0  0  0  0  0  0  0  0  0  0  0
   -6.5898   -2.2470    1.9597 H   0  0  0  0  0  0  0  0  0  0  0  0
   -7.0332   -0.7129    2.6729 H   0  0  0  0  0  0  0  0  0  0  0  0
    2.4603    1.4179   -0.0564 H   0  0  0  0  0  0  0  0  0  0  0  0
    3.0490   -0.1768    2.1568 H   0  0  0  0  0  0  0  0  0  0  0  0
    3.7018   -0.8566   -1.1396 H   0  0  0  0  0  0  0  0  0  0  0  0
    5.2889    1.5517   -0.4410 H   0  0  0  0  0  0  0  0  0  0  0  0
    5.9299   -1.3400    0.4916 H   0  0  0  0  0  0  0  0  0  0  0  0
    5.3597   -0.1228    1.6280 H   0  0  0  0  0  0  0  0  0  0  0  0
    7.9499   -0.1774    0.0091 H   0  0  0  0  0  0  0  0  0  0  0  0
    7.4922    1.2441    1.0281 H   0  0  0  0  0  0  0  0  0  0  0  0
    7.7134   -1.6312    2.0476 H   0  0  0  0  0  0  0  0  0  0  0  0
    9.3227    0.6997    1.8802 H   0  0  0  0  0  0  0  0  0  0  0  0
    6.6039    0.7004    3.0649 H   0  0  0  0  0  0  0  0  0  0  0  0
    5.3607    0.6364   -2.6663 H   0  0  0  0  0  0  0  0  0  0  0  0
    7.5841    0.3775   -2.8261 H   0  0  0  0  0  0  0  0  0  0  0  0
    6.2032   -1.8620   -1.5278 H   0  0  0  0  0  0  0  0  0  0  0  0
    0.0629    1.2918   -1.5925 H   0  0  0  0  0  0  0  0  0  0  0  0
   -0.6512   -1.4558   -0.4179 H   0  0  0  0  0  0  0  0  0  0  0  0
   -0.4766   -0.9495   -2.1864 H   0  0  0  0  0  0  0  0  0  0  0  0
    1.7031   -0.0335   -1.8030 H   0  0  0  0  0  0  0  0  0  0  0  0
    1.7127   -1.7804   -1.4746 H   0  0  0  0  0  0  0  0  0  0  0  0
    2.1472   -1.4984    0.7946 H   0  0  0  0  0  0  0  0  0  0  0  0
   -0.0969   -0.8161    1.4263 H   0  0  0  0  0  0  0  0  0  0  0  0
    1.1089    0.3752    2.1035 H   0  0  0  0  0  0  0  0  0  0  0  0
   -0.9248    1.3920    1.1798 H   0  0  0  0  0  0  0  0  0  0  0  0
    0.6011    1.9929    0.4991 H   0  0  0  0  0  0  0  0  0  0  0  0
   -2.2317    2.0394   -1.0636 H   0  0  0  0  0  0  0  0  0  0  0  0
   -2.1687    0.6612   -2.1720 H   0  0  0  0  0  0  0  0  0  0  0  0
   -2.6429    0.3484    0.8283 H   0  0  0  0  0  0  0  0  0  0  0  0
   -2.7346   -0.9246   -0.3837 H   0  0  0  0  0  0  0  0  0  0  0  0
   -4.3630    1.6683   -0.4184 H   0  0  0  0  0  0  0  0  0  0  0  0
   -3.8411   -0.4487   -2.4427 H   0  0  0  0  0  0  0  0  0  0  0  0
   -4.6703    1.1442   -2.5966 H   0  0  0  0  0  0  0  0  0  0  0  0
   -6.6850    0.1554   -2.0105 H   0  0  0  0  0  0  0  0  0  0  0  0
   -5.1571   -2.0227   -0.7223 H   0  0  0  0  0  0  0  0  0  0  0  0
   -4.9956   -0.5350    1.2076 H   0  0  0  0  0  0  0  0  0  0  0  0
   -6.4497    1.5945   -0.4241 H   0  0  0  0  0  0  0  0  0  0  0  0
   -6.2342    2.6936    1.3413 H   0  0  0  0  0  0  0  0  0  0  0  0
   -8.4350    0.7139   -0.0673 H   0  0  0  0  0  0  0  0  0  0  0  0
   -8.8757   -1.2975    0.7374 H   0  0  0  0  0  0  0  0  0  0  0  0
   -7.3199   -2.6660   -0.3770 H   0  0  0  0  0  0  0  0  0  0  0  0
   -6.5898   -2.2470    1.9597 H   0  0  0  0  0  0  0  0  0  0  0  0
   -7.0332   -0.7129    2.6729 H   0  0  0  0  0  0  0  0  0  0  0  0
    2.4603    1.4179   -0.0564 H   0  0  0  0  0  0  0  0  0  0  0  0
    3.0490   -0.1768    2.1568 H   0  0  0  0  0  0  0  0  0  0  0  0
    3.7018   -0.8566   -1.1396 H   0  0  0  0  0  0  0  0  0  0  0  0
    5.2889    1.5517   -0.4410 H   0  0  0  0  0  0  0  0  0  0  0  0
    5.9299   -1.3400    0.4916 H   0  0  0  0  0  0  0  0  0  0  0  0
    5.3597   -0.1228    1.6280 H   0  0  0  0  0  0  0  0  0  0  0  0
    7.9499   -0.1774    0.0091 H   0  0  0  0  0  0  0  0  0  0  0  0
    7.4922    1.2441    1.0281 H   0  0  0  0  0  0  0  0  0  0  0  0
    7.7134   -1.6312    2.0476 H   0  0  0  0  0  0  0  0  0  0  0  0
    9.3227    0.6997    1.8802 H   0  0  0  0  0  0  0  0  0  0  0  0
    6.6039    0.7004    3.0649 H   0  0  0  0  0  0  0  0  0  0  0  0
    5.3607    0.6364   -2.6663 H   0  0  0  0  0  0  0  0  0  0  0  0
    7.5841    0.3775   -2.8261 H   0  0  0  0  0  0  0  0  0  0  0  0
    6.2032   -1.8620   -1.5278 H   0  0  0  0  0  0  0  0  0  0  0  0
    0.0629    1.2918   -1.5925 H   0  0  0  0  0  0  0  0  0  0  0  0
   -0.6512   -1.4558   -0.4179 H   0  0  0  0  0  0  0  0  0  0  0  0
   -0.4766   -0.9495   -2.1864 H   0  0  0  0  0  0  0  0  0  0  0  0
    1.7031   -0.0335   -1.8030 H   0  0  0  0  0  0  0  0  0  0  0  0
    1.7127   -1.7804   -1.4746 H   0  0  0  0  0  0  0  0  0  0  0  0
    2.1472   -1.4984    0.7946 H   0  0  0  0  0  0  0  0  0  0  0  0
   -0.0969   -0.8161    1.4263 H   0  0  0  0  0  0  0  0  0  0  0  0
    1.1089    0.3752    2.1035 H   0  0  0  0  0  0  0  0  0  0  0  0
   -0.9248    1.3920    1.1798 H   0  0  0  0  0  0  0  0  0  0  0  0
    0.6011    1.9929    0.4991 H   0  0  0  0  0  0  0  0  0  0  0  0
   -2.2317    2.0394   -1.0636 H   0  0  0  0  0  0  0  0  0  0  0  0
   -2.1687    0.6612   -2.1720 H   0  0  0  0  0  0  0  0  0  0  0  0
   -2.6429    0.3484    0.8283 H   0  0  0  0  0  0  0  0  0  0  0  0
   -2.7346   -0.9246   -0.3837 H   0  0  0  0  0  0  0  0  0  0  0  0
   -4.3630    1.6683   -0.4184 H   0  0  0  0  0  0  0  0  0  0  0  0
   -3.8411   -0.4487   -2.4427 H   0  0  0  0  0  0  0  0  0  0  0  0
   -4.6703    1.1442   -2.5966 H   0  0  0  0  0  0  0  0  0  0  0  0
   -6.6850    0.1554   -2.0105 H   0  0  0  0  0  0  0  0  0  0  0  0
   -5.1571   -2.0227   -0.7223 H   0  0  0  0  0  0  0  0  0  0  0  0
   -4.9956   -0.5350    1.2076 H   0  0  0  0  0  0  0  0  0  0  0  0
   -6.4497    1.5945   -0.4241 H   0  0  0  0  0  0  0  0  0  0  0  0
   -6.2342    2.6936    1.3413 H   0  0  0  0  0  0  0  0  0  0  0  0
   -8.4350    0.7139   -0.0673 H   0  0  0  0  0  0  0  0  0  0  0  0
   -8.8757   -1.2975    0.7374 H   0  0  0  0  0  0  0  0  0  0  0  0
   -7.3199   -2.6660   -0.3770 H   0  0  0  0  0  0  0  0  0  0  0  0
   -6.5898   -2.2470    1.9597 H   0  0  0  0  0  0  0  0  0  0  0  0
   -7.0332   -0.7129    2.6729 H   0  0  0  0  0  0  0  0  0  0  0  0
    2.4603    1.4179   -0.0564 H   0  0  0  0  0  0  0  0  0  0  0  0
    3.0490   -0.1768    2.1568 H   0  0  0  0  0  0  0  0  0  0  0  0
    3.7018   -0.8566   -1.1396 H   0  0  0  0  0  0  0  0  0  0  0  0
    5.2889    1.5517   -0.4410 H   0  0  0  0  0  0  0  0  0  0  0  0
    5.9299   -1.3400    0.4916 H   0  0  0  0  0  0  0  0  0  0  0  0
    5.3597   -0.1228    1.6280 H   0  0  0  0  0  0  0  0  0  0  0  0
    7.9499   -0.1774    0.0091 H   0  0  0  0  0  0  0  0  0  0  0  0
    7.4922    1.2441    1.0281 H   0  0  0  0  0  0  0  0  0  0  0  0
    7.7134   -1.6312    2.0476 H   0  0  0  0  0  0  0  0  0  0  0  0
    9.3227    0.6997    1.8802 H   0  0  0  0  0  0  0  0  0  0  0  0
    6.6039    0.7004    3.0649 H   0  0  0  0  0  0  0  0  0  0  0  0
    5.3607    0.6364   -2.6663 H   0  0  0  0  0  0  0  0  0  0  0  0
    7.5841    0.3775   -2.8261 H   0  0  0  0  0  0  0  0  0  0  0  0
    6.2032   -1.8620   -1.5278 H   0  0  0  0  0  0  0  0  0  0  0  0
  1  2  1  0
  2  3  1  0
  3  4  1  0
  4  5  1  0
  1  6  1  0
  5  6  1  0
  1  7  1  0
  7  8  1  0
  8  9  1  0
  9 10  1  0
 10 11  1  0
 11 12  1  0
  9 13  1  0
 12 13  1  0
 13 14  1  0
 14 15  1  0
 14 16  1  0
 16 17  1  0
 12 18  1  0
 17 18  1  0
 17 19  1  0
  4 20  1  0
 20 21  1  0
 20 22  1  0
 22 23  1  0
 23 24  1  0
 24 25  1  0
 25 26  1  0
 26 27  1  0
 26 28  1  0
 23 29  1  0
 29 30  1  0
 29 31  1  0
 32 33  1  0
 33 34  1  0
 34 35  1  0
 35 36  1  0
 32 37  1  0
 36 37  1  0
 32 38  1  0
 38 39  1  0
 39 40  1  0
 40 41  1  0
 41 42  1  0
 42 43  1  0
 40 44  1  0
 43 44  1  0
 44 45  1  0
 45 46  1  0
 45 47  1  0
 47 48  1  0
 43 49  1  0
 48 49  1  0
 48 50  1  0
 35 51  1  0
 51 52  1  0
 51 53  1  0
 53 54  1  0
 54 55  1  0
 55 56  1  0
 56 57  1  0
 57 58  1  0
 57 59  1  0
 54 60  1  0
 60 61  1  0
 60 62  1  0
 63 64  1  0
 64 65  1  0
 65 66  1  0
 66 67  1  0
 63 68  1  0
 67 68  1  0
 63 69  1  0
 69 70  1  0
 70 71  1  0
 71 72  1  0
 72 73  1  0
 73 74  1  0
 71 75  1  0
 74 75  1  0
 75 76  1  0
 76 77  1  0
 76 78  1  0
 78 79  1  0
 74 80  1  0
 79 80  1  0
 79 81  1  0
 66 82  1  0
 82 83  1  0
 82 84  1  0
 84 85  1  0
 85 86  1  0
 86 87  1  0
 87 88  1  0
 88 89  1  0
 88 90  1  0
 85 91  1  0
 91 92  1  0
 91 93  1  0
 94 95  1  0
 95 96  1  0
 96 97  1  0
 97 98  1  0
 94 99  1  0
 98 99  1  0
 94100  1  0
100101  1  0
101102  1  0
102103  1  0
103104  1  0
104105  1  0
102106  1  0
105106  1  0
106107  1  0
107108  1  0
107109  1  0
109110  1  0
105111  1  0
110111  1  0
110112  1  0
 97113  1  0
113114  1  0
113115  1  0
115116  1  0
116117  1  0
117118  1  0
118119  1  0
119120  1  0
119121  1  0
116122  1  0
122123  1  0
122124  1  0
  1125  1  0
  2126  1  0
  2127  1  0
  3128  1  0
  3129  1  0
  4130  1  0
  5131  1  0
  5132  1  0
  6133  1  0
  6134  1  0
  7135  1  0
  7136  1  0
  8137  1  0
  8138  1  0
  9139  1  0
 10140  1  0
 10141  1  0
 11142  1  0
 12143  1  0
 13144  1  0
 14145  1  0
 15146  1  0
 16147  1  0
 17148  1  0
 18149  1  0
 19150  1  0
 19151  1  0
 20152  1  0
 21153  1  0
 22154  1  0
 23155  1  1
 24156  1  0
 24157  1  0
 25158  1  0
 25159  1  0
 26160  1  0
 27161  1  0
 28162  1  0
 29163  1  0
 30164  1  0
 31165  1  0
 32166  1  0
 33167  1  0
 33168  1  0
 34169  1  0
 34170  1  0
 35171  1  0
 36172  1  0
 36173  1  0
 37174  1  0
 37175  1  0
 38176  1  0
 38177  1  0
 39178  1  0
 39179  1  0
 40180  1  0
 41181  1  0
 41182  1  0
 42183  1  0
 43184  1  0
 44185  1  0
 45186  1  0
 46187  1  0
 47188  1  0
 48189  1  0
 49190  1  0
 50191  1  0
 50192  1  0
 51193  1  0
 52194  1  0
 53195  1  0
 54196  1  1
 55197  1  0
 55198  1  0
 56199  1  0
 56200  1  0
 57201  1  0
 58202  1  0
 59203  1  0
 60204  1  0
 61205  1  0
 62206  1  0
 63207  1  0
 64208  1  0
 64209  1  0
 65210  1  0
 65211  1  0
 66212  1  0
 67213  1  0
 67214  1  0
 68215  1  0
 68216  1  0
 69217  1  0
 69218  1  0
 70219  1  0
 70220  1  0
 71221  1  0
 72222  1  0
 72223  1  0
 73224  1  0
 74225  1  0
 75226  1  0
 76227  1  0
 77228  1  0
 78229  1  0
 79230  1  0
 80231  1  0
 81232  1  0
 81233  1  0
 82234  1  0
 83235  1  0
 84236  1  0
 85237  1  1
 86238  1  0
 86239  1  0
 87240  1  0
 87241  1  0
 88242  1  0
 89243  1  0
 90244  1  0
 91245  1  0
 92246  1  0
 93247  1  0
 94248  1  0
 95249  1  0
 95250  1  0
 96251  1  0
 96252  1  0
 97253  1  0
 98254  1  0
 98255  1  0
 99256  1  0
 99257  1  0
100258  1  0
100259  1  0
101260  1  0
101261  1  0
102262  1  0
103263  1  0
103264  1  0
104265  1  0
105266  1  0
106267  1  0
107268  1  0
108269  1  0
109270  1  0
110271  1  0
111272  1  0
112273  1  0
112274  1  0
113275  1  0
114276  1  0
115277  1  0
116278  1  1
117279  1  0
117280  1  0
118281  1  0
118282  1  0
119283  1  0
120284  1  0
121285  1  0
122286  1  0
123287  1  0
124288  1  0
M  END
>  <PDBID>  (1) 
1JU6

>  <PDB ID>  (1) 
1JU6

>  <Generic Name>  (1) 
Pemetrexed

>  <Brand Name>  (1) 
Act Pemetrexed#Alimta#Pemetrexed#Pemetrexed Disodium for Injection#Taro-pemetrexed

>  <DrugBank ID>  (1) 
DB00642

>  <ATC Codes>  (1) 
L01BA04

>  <Ligand ID>  (1) 
LYA

>  <Target Name>  (1) 
Thymidylate synthase

>  <UniProt ID>  (1) 
P04818

>  <PDB ID.1>  (1) 
1JU6

>  <Seq. Identity>  (1) 
100%

$$$$
