PDB_DB01051_09
     RDKit          3D

408420  0  0  0  0  0  0  0  0999 V2000
   -8.7046   -1.8100   -2.0404 C   0  0  0  0  0  0  0  0  0  0  0  0
   -8.7092   -0.5728   -1.4184 O   0  0  0  0  0  0  0  0  0  0  0  0
  -10.4158   -1.5642    1.4475 N   0  0  0  0  0  0  0  0  0  0  0  0
   -9.2216   -0.8909    1.8892 C   0  0  0  0  0  0  0  0  0  0  0  0
   -9.0610   -1.1450    3.2544 O   0  0  0  0  0  0  0  0  0  0  0  0
   -8.0973   -1.2699    1.1670 O   0  0  0  0  0  0  0  0  0  0  0  0
   -7.4142   -0.2980   -0.9260 C   0  0  2  0  0  0  0  0  0  0  0  0
   -7.5325   -0.1390    0.5716 C   0  0  2  0  0  0  0  0  0  0  0  0
   -6.1173    0.0577    1.1039 C   0  0  1  0  0  0  0  0  0  0  0  0
   -5.6621   -1.2368    1.4236 O   0  0  0  0  0  0  0  0  0  0  0  0
   -5.2586    0.7150    0.0662 C   0  0  1  0  0  0  0  0  0  0  0  0
   -6.0417    1.6647   -0.5956 O   0  0  0  0  0  0  0  0  0  0  0  0
   -6.8911    0.9992   -1.4773 C   0  0  0  0  0  0  0  0  0  0  0  0
   -6.2143    0.7522   -2.7983 C   0  0  0  0  0  0  0  0  0  0  0  0
   -8.0816    1.9282   -1.7009 C   0  0  0  0  0  0  0  0  0  0  0  0
   -4.1516    1.3642    0.6123 O   0  0  0  0  0  0  0  0  0  0  0  0
   -2.9874    0.8667    0.1035 C   0  0  0  0  0  0  0  0  0  0  0  0
   -2.0246    0.3319    1.1323 C   0  0  1  0  0  0  0  0  0  0  0  0
   -2.6620   -0.3536    2.2897 C   0  0  0  0  0  0  0  0  0  0  0  0
   -1.1358   -0.6534    0.3617 C   0  0  0  0  0  0  0  0  0  0  0  0
   -0.5515    0.0429   -0.8431 C   0  0  0  0  0  0  0  0  0  0  0  0
   -0.7412    1.5209   -0.8238 C   0  0  0  0  0  0  0  0  0  0  0  0
   -2.1967    1.8885   -0.7127 C   0  0  0  0  0  0  0  0  0  0  0  0
   -0.1986   -1.1347    1.2305 O   0  0  0  0  0  0  0  0  0  0  0  0
    0.8694   -0.2509    1.4602 C   0  0  0  0  0  0  0  0  0  0  0  0
    1.5468   -0.8242    2.5643 O   0  0  0  0  0  0  0  0  0  0  0  0
    1.7220   -0.2830    0.2137 C   0  0  1  0  0  0  0  0  0  0  0  0
    0.8370   -0.4394   -1.0341 C   0  0  0  0  0  0  0  0  0  0  0  0
    1.4821    0.0673   -2.1549 O   0  0  0  0  0  0  0  0  0  0  0  0
    2.5794    0.8442    0.0548 N   0  0  0  0  0  0  0  0  0  0  0  0
    3.5707    1.0554    1.0460 C   0  0  0  0  0  0  0  0  0  0  0  0
    2.9528    1.3659    2.2530 O   0  0  0  0  0  0  0  0  0  0  0  0
    4.6053   -0.0247    1.1929 C   0  0  1  0  0  0  0  0  0  0  0  0
    5.3903   -0.2662   -0.0347 C   0  0  0  0  0  0  0  0  0  0  0  0
    6.6928    0.4710   -0.1772 C   0  0  0  0  0  0  0  0  0  0  0  0
    7.2244    1.0241    1.0831 C   0  0  1  0  0  0  0  0  0  0  0  0
    6.7713    2.3222    1.3506 O   0  0  0  0  0  0  0  0  0  0  0  0
    6.8881    0.0838    2.2205 C   0  0  0  0  0  0  0  0  0  0  0  0
    5.4016    0.2162    2.4509 C   0  0  0  0  0  0  0  0  0  0  0  0
    7.6641   -0.4778   -0.8205 C   0  0  0  0  0  0  0  0  0  0  0  0
    9.0297    0.0404   -1.0796 C   0  0  0  0  0  0  0  0  0  0  0  0
    9.8195   -1.1001   -1.7535 C   0  0  0  0  0  0  0  0  0  0  0  0
   11.2282   -0.6373   -2.0455 C   0  0  0  0  0  0  0  0  0  0  0  0
    9.8926   -2.3143   -0.8624 C   0  0  0  0  0  0  0  0  0  0  0  0
   -8.0100   -2.3076   -2.1178 C   0  0  0  0  0  0  0  0  0  0  0  0
   -8.4222   -1.1073   -1.5434 O   0  0  0  0  0  0  0  0  0  0  0  0
  -10.4522   -2.1014    0.9366 N   0  0  0  0  0  0  0  0  0  0  0  0
   -9.4586   -1.2437    1.5823 C   0  0  0  0  0  0  0  0  0  0  0  0
   -9.5724   -1.4921    2.9625 O   0  0  0  0  0  0  0  0  0  0  0  0
   -8.1804   -1.5421    1.1318 O   0  0  0  0  0  0  0  0  0  0  0  0
   -7.3221   -0.5536   -0.8847 C   0  0  2  0  0  0  0  0  0  0  0  0
   -7.6103   -0.4079    0.6095 C   0  0  2  0  0  0  0  0  0  0  0  0
   -6.3029   -0.0399    1.2738 C   0  0  1  0  0  0  0  0  0  0  0  0
   -5.5721   -1.2238    1.4031 O   0  0  0  0  0  0  0  0  0  0  0  0
   -5.5241    0.8190    0.2691 C   0  0  1  0  0  0  0  0  0  0  0  0
   -6.3741    1.6297   -0.4572 O   0  0  0  0  0  0  0  0  0  0  0  0
   -7.0268    0.8438   -1.4043 C   0  0  0  0  0  0  0  0  0  0  0  0
   -8.3819    1.4568   -1.7462 C   0  0  0  0  0  0  0  0  0  0  0  0
   -6.2438    0.7623   -2.6992 C   0  0  0  0  0  0  0  0  0  0  0  0
   -4.5215    1.5245    0.9318 O   0  0  0  0  0  0  0  0  0  0  0  0
   -3.2363    1.1745    0.4955 C   0  0  0  0  0  0  0  0  0  0  0  0
   -2.4068    0.5815    1.5829 C   0  0  0  0  0  0  0  0  0  0  0  0
   -2.0537    1.5711    2.6675 C   0  0  0  0  0  0  0  0  0  0  0  0
   -1.1661   -0.0449    0.9705 C   0  0  0  0  0  0  0  0  0  0  0  0
   -0.8729    0.4781   -0.3965 C   0  0  0  0  0  0  0  0  0  0  0  0
   -1.1453    1.9601   -0.5331 C   0  0  0  0  0  0  0  0  0  0  0  0
   -2.5454    2.3419   -0.1670 C   0  0  0  0  0  0  0  0  0  0  0  0
   -0.1191   -0.0648    1.8533 O   0  0  0  0  0  0  0  0  0  0  0  0
    1.0444    0.5424    1.4907 C   0  0  0  0  0  0  0  0  0  0  0  0
    1.9859    0.1166    2.4625 O   0  0  0  0  0  0  0  0  0  0  0  0
    1.5705    0.1286    0.1598 C   0  0  1  0  0  0  0  0  0  0  0  0
    0.4806    0.1373   -0.9021 C   0  0  0  0  0  0  0  0  0  0  0  0
    0.7917    1.0605   -1.9286 O   0  0  0  0  0  0  0  0  0  0  0  0
    2.6725    0.8151   -0.3599 N   0  0  0  0  0  0  0  0  0  0  0  0
    3.9197    0.7777    0.2978 C   0  0  0  0  0  0  0  0  0  0  0  0
    4.0080    1.4591    1.4970 O   0  0  0  0  0  0  0  0  0  0  0  0
    4.4755   -0.6200    0.3559 C   0  0  0  0  0  0  0  0  0  0  0  0
    5.7967   -0.7397    1.0404 C   0  0  0  0  0  0  0  0  0  0  0  0
    6.9597   -0.2095    0.1667 C   0  0  0  0  0  0  0  0  0  0  0  0
    7.1188   -1.0849   -1.0085 C   0  0  0  0  0  0  0  0  0  0  0  0
    7.1808   -0.3615   -2.2252 O   0  0  0  0  0  0  0  0  0  0  0  0
    5.8555   -1.9578   -1.2005 C   0  0  0  0  0  0  0  0  0  0  0  0
    4.6032   -1.1147   -1.0798 C   0  0  0  0  0  0  0  0  0  0  0  0
    8.0804    0.0194    1.0823 C   0  0  0  0  0  0  0  0  0  0  0  0
    9.3712    0.5507    0.6483 C   0  0  0  0  0  0  0  0  0  0  0  0
   10.1737   -0.2097   -0.3572 C   0  0  0  0  0  0  0  0  0  0  0  0
   11.4868    0.5878   -0.5924 C   0  0  0  0  0  0  0  0  0  0  0  0
   10.5817   -1.5686    0.1662 C   0  0  0  0  0  0  0  0  0  0  0  0
   -8.1768   -1.2542   -2.7611 C   0  0  0  0  0  0  0  0  0  0  0  0
   -8.4265   -0.2926   -1.7895 O   0  0  0  0  0  0  0  0  0  0  0  0
  -10.4895   -1.8258    0.5542 N   0  0  0  0  0  0  0  0  0  0  0  0
   -9.3259   -1.3776    1.2986 C   0  0  0  0  0  0  0  0  0  0  0  0
   -9.2896   -2.0348    2.5359 O   0  0  0  0  0  0  0  0  0  0  0  0
   -8.1369   -1.5859    0.5997 O   0  0  0  0  0  0  0  0  0  0  0  0
   -7.2786   -0.0554   -1.0592 C   0  0  2  0  0  0  0  0  0  0  0  0
   -7.4943   -0.3764    0.3948 C   0  0  2  0  0  0  0  0  0  0  0  0
   -6.1368   -0.3383    1.0888 C   0  0  1  0  0  0  0  0  0  0  0  0
   -5.5754   -1.6156    0.9871 O   0  0  0  0  0  0  0  0  0  0  0  0
   -5.2640    0.6735    0.3757 C   0  0  1  0  0  0  0  0  0  0  0  0
   -6.0084    1.7371   -0.0748 O   0  0  0  0  0  0  0  0  0  0  0  0
   -6.8417    1.3948   -1.1401 C   0  0  0  0  0  0  0  0  0  0  0  0
   -8.0687    2.3028   -1.0261 C   0  0  0  0  0  0  0  0  0  0  0  0
   -6.1766    1.5862   -2.4745 C   0  0  0  0  0  0  0  0  0  0  0  0
   -4.2087    1.1035    1.1607 O   0  0  0  0  0  0  0  0  0  0  0  0
   -2.9782    0.7580    0.6735 C   0  0  0  0  0  0  0  0  0  0  0  0
   -2.2145   -0.1874    1.5634 C   0  0  0  0  0  0  0  0  0  0  0  0
   -1.5749    0.4743    2.7366 C   0  0  0  0  0  0  0  0  0  0  0  0
   -1.2249   -0.9067    0.6636 C   0  0  0  0  0  0  0  0  0  0  0  0
   -0.7878   -0.0542   -0.5011 C   0  0  0  0  0  0  0  0  0  0  0  0
   -0.7764    1.4087   -0.2027 C   0  0  0  0  0  0  0  0  0  0  0  0
   -2.0836    1.8989    0.3109 C   0  0  0  0  0  0  0  0  0  0  0  0
   -0.2091   -1.5017    1.3465 O   0  0  0  0  0  0  0  0  0  0  0  0
    0.9953   -0.8333    1.3951 C   0  0  0  0  0  0  0  0  0  0  0  0
    1.8531   -1.6691    2.1535 O   0  0  0  0  0  0  0  0  0  0  0  0
    1.6131   -0.5580    0.0640 C   0  0  1  0  0  0  0  0  0  0  0  0
    0.5327   -0.5726   -0.9920 C   0  0  0  0  0  0  0  0  0  0  0  0
    0.9494    0.0553   -2.1683 O   0  0  0  0  0  0  0  0  0  0  0  0
    2.3965    0.6304    0.0500 N   0  0  0  0  0  0  0  0  0  0  0  0
    3.5410    0.6284    0.9255 C   0  0  0  0  0  0  0  0  0  0  0  0
    3.2178    0.5764    2.2774 O   0  0  0  0  0  0  0  0  0  0  0  0
    4.5677   -0.4455    0.5628 C   0  0  1  0  0  0  0  0  0  0  0  0
    5.0080   -0.1505   -0.8394 C   0  0  0  0  0  0  0  0  0  0  0  0
    6.4881   -0.5320   -1.0769 C   0  0  2  0  0  0  0  0  0  0  0  0
    6.7804   -1.6229   -0.1410 C   0  0  0  0  0  0  0  0  0  0  0  0
    7.7448   -2.5353   -0.5354 O   0  0  0  0  0  0  0  0  0  0  0  0
    6.8282   -1.2358    1.2989 C   0  0  0  0  0  0  0  0  0  0  0  0
    5.6710   -0.3141    1.5938 C   0  0  0  0  0  0  0  0  0  0  0  0
    7.2599    0.7053   -1.1540 C   0  0  0  0  0  0  0  0  0  0  0  0
    8.7105    0.7159   -1.3739 C   0  0  0  0  0  0  0  0  0  0  0  0
    9.6408    0.1935   -0.3572 C   0  0  0  0  0  0  0  0  0  0  0  0
   11.0631    0.3596   -0.9756 C   0  0  0  0  0  0  0  0  0  0  0  0
    9.6692    1.0733    0.8989 C   0  0  0  0  0  0  0  0  0  0  0  0
   -8.5420   -1.6831   -1.9848 C   0  0  0  0  0  0  0  0  0  0  0  0
   -8.5886   -0.5977   -1.1150 O   0  0  0  0  0  0  0  0  0  0  0  0
  -10.2315   -1.9576    1.4038 N   0  0  0  0  0  0  0  0  0  0  0  0
   -9.0726   -1.3320    2.0157 C   0  0  0  0  0  0  0  0  0  0  0  0
   -8.9807   -1.8086    3.3366 O   0  0  0  0  0  0  0  0  0  0  0  0
   -7.9142   -1.5577    1.3100 O   0  0  0  0  0  0  0  0  0  0  0  0
   -7.3056   -0.2823   -0.6364 C   0  0  2  0  0  0  0  0  0  0  0  0
   -7.3958   -0.3565    0.8818 C   0  0  2  0  0  0  0  0  0  0  0  0
   -5.9841   -0.1091    1.4292 C   0  0  1  0  0  0  0  0  0  0  0  0
   -5.4119   -1.3836    1.5457 O   0  0  0  0  0  0  0  0  0  0  0  0
   -5.2747    0.7843    0.4701 C   0  0  1  0  0  0  0  0  0  0  0  0
   -6.2174    1.7470    0.0352 O   0  0  0  0  0  0  0  0  0  0  0  0
   -7.0364    1.1798   -0.9623 C   0  0  0  0  0  0  0  0  0  0  0  0
   -6.3471    1.3288   -2.2837 C   0  0  0  0  0  0  0  0  0  0  0  0
   -8.3606    1.9034   -0.9115 C   0  0  0  0  0  0  0  0  0  0  0  0
   -4.1372    1.3978    0.9675 O   0  0  0  0  0  0  0  0  0  0  0  0
   -3.0346    1.1186    0.2189 C   0  0  0  0  0  0  0  0  0  0  0  0
   -1.8952    0.4633    1.0040 C   0  0  1  0  0  0  0  0  0  0  0  0
   -2.3636   -0.4266    2.0963 C   0  0  0  0  0  0  0  0  0  0  0  0
   -1.1142   -0.3002   -0.0751 C   0  0  0  0  0  0  0  0  0  0  0  0
   -0.6525    0.6939   -1.0781 C   0  0  0  0  0  0  0  0  0  0  0  0
   -0.9053    2.1289   -0.6718 C   0  0  0  0  0  0  0  0  0  0  0  0
   -2.3972    2.3294   -0.4467 C   0  0  0  0  0  0  0  0  0  0  0  0
   -0.1431   -1.0657    0.4911 O   0  0  0  0  0  0  0  0  0  0  0  0
    0.9864   -0.3428    0.8592 C   0  0  0  0  0  0  0  0  0  0  0  0
    1.7746   -1.2254    1.6437 O   0  0  0  0  0  0  0  0  0  0  0  0
    1.7058    0.0373   -0.4162 C   0  0  1  0  0  0  0  0  0  0  0  0
    0.7365    0.4073   -1.5186 C   0  0  0  0  0  0  0  0  0  0  0  0
    1.2872    1.4165   -2.3062 O   0  0  0  0  0  0  0  0  0  0  0  0
    2.6504    1.0522   -0.1338 N   0  0  0  0  0  0  0  0  0  0  0  0
    3.6947    0.7308    0.7646 C   0  0  2  0  0  0  0  0  0  0  0  0
    4.5061    1.8571    0.9731 O   0  0  0  0  0  0  0  0  0  0  0  0
    4.6167   -0.3946    0.2966 C   0  0  1  0  0  0  0  0  0  0  0  0
    5.2473    0.0183   -0.9933 C   0  0  0  0  0  0  0  0  0  0  0  0
    6.6878   -0.5621   -1.1486 C   0  0  0  0  0  0  0  0  0  0  0  0
    6.6787   -1.8219   -0.3815 C   0  0  0  0  0  0  0  0  0  0  0  0
    7.5378   -2.8217   -0.8543 O   0  0  0  0  0  0  0  0  0  0  0  0
    6.5888   -1.7216    1.1015 C   0  0  0  0  0  0  0  0  0  0  0  0
    5.5828   -0.6391    1.4293 C   0  0  0  0  0  0  0  0  0  0  0  0
    7.6103    0.5390   -0.8763 C   0  0  0  0  0  0  0  0  0  0  0  0
    9.0811    0.3618   -0.9296 C   0  0  0  0  0  0  0  0  0  0  0  0
    9.7653   -0.4801    0.0668 C   0  0  0  0  0  0  0  0  0  0  0  0
   11.2583   -0.4653   -0.3015 C   0  0  0  0  0  0  0  0  0  0  0  0
    9.6830    0.1685    1.4553 C   0  0  0  0  0  0  0  0  0  0  0  0
   -8.4201   -2.6336   -1.3716 H   0  0  0  0  0  0  0  0  0  0  0  0
   -9.7314   -1.9623   -2.4757 H   0  0  0  0  0  0  0  0  0  0  0  0
   -7.9825   -1.7806   -2.8757 H   0  0  0  0  0  0  0  0  0  0  0  0
  -11.0670   -1.6512    2.2500 H   0  0  0  0  0  0  0  0  0  0  0  0
  -10.2492   -2.4921    1.0189 H   0  0  0  0  0  0  0  0  0  0  0  0
   -9.3762    0.2154    1.8031 H   0  0  0  0  0  0  0  0  0  0  0  0
   -8.1234   -0.9489    3.5521 H   0  0  0  0  0  0  0  0  0  0  0  0
   -6.7334   -1.1348   -1.1609 H   0  0  0  0  0  0  0  0  0  0  0  0
   -8.1104    0.7718    0.8183 H   0  0  0  0  0  0  0  0  0  0  0  0
   -6.2054    0.6198    2.0366 H   0  0  0  0  0  0  0  0  0  0  0  0
   -4.9662   -1.5096    0.7730 H   0  0  0  0  0  0  0  0  0  0  0  0
   -4.9120   -0.0388   -0.6409 H   0  0  0  0  0  0  0  0  0  0  0  0
   -5.5606   -0.1337   -2.7881 H   0  0  0  0  0  0  0  0  0  0  0  0
   -7.0099    0.5380   -3.5668 H   0  0  0  0  0  0  0  0  0  0  0  0
   -5.6379    1.6537   -3.0919 H   0  0  0  0  0  0  0  0  0  0  0  0
   -7.6641    2.9469   -1.8290 H   0  0  0  0  0  0  0  0  0  0  0  0
   -8.6216    1.5676   -2.5976 H   0  0  0  0  0  0  0  0  0  0  0  0
   -8.7034    1.8919   -0.7789 H   0  0  0  0  0  0  0  0  0  0  0  0
   -3.2341    0.0478   -0.6335 H   0  0  0  0  0  0  0  0  0  0  0  0
   -1.4159    1.1953    1.4916 H   0  0  0  0  0  0  0  0  0  0  0  0
   -1.9215   -0.3613    3.1268 H   0  0  0  0  0  0  0  0  0  0  0  0
   -3.5346    0.2072    2.6590 H   0  0  0  0  0  0  0  0  0  0  0  0
   -2.8782   -1.4166    2.0686 H   0  0  0  0  0  0  0  0  0  0  0  0
   -1.8055   -1.4942    0.0862 H   0  0  0  0  0  0  0  0  0  0  0  0
   -1.1380   -0.3398   -1.7284 H   0  0  0  0  0  0  0  0  0  0  0  0
   -0.4120    1.9011   -1.8326 H   0  0  0  0  0  0  0  0  0  0  0  0
   -0.1128    2.0618   -0.0990 H   0  0  0  0  0  0  0  0  0  0  0  0
   -2.6720    2.0550   -1.6977 H   0  0  0  0  0  0  0  0  0  0  0  0
   -2.2656    2.8459   -0.1557 H   0  0  0  0  0  0  0  0  0  0  0  0
    0.5617    0.7389    1.7814 H   0  0  0  0  0  0  0  0  0  0  0  0
    1.1535   -0.4497    3.4023 H   0  0  0  0  0  0  0  0  0  0  0  0
    2.3654   -1.1947    0.3132 H   0  0  0  0  0  0  0  0  0  0  0  0
    0.7724   -1.5466   -1.1987 H   0  0  0  0  0  0  0  0  0  0  0  0
    1.3584    1.0136   -2.3122 H   0  0  0  0  0  0  0  0  0  0  0  0
    2.8375    1.0664   -0.9097 H   0  0  0  0  0  0  0  0  0  0  0  0
    4.1170    1.9994    0.7489 H   0  0  0  0  0  0  0  0  0  0  0  0
    3.1486    2.2543    2.5893 H   0  0  0  0  0  0  0  0  0  0  0  0
    4.0319   -0.9791    1.4058 H   0  0  0  0  0  0  0  0  0  0  0  0
    5.5222   -1.3726   -0.2230 H   0  0  0  0  0  0  0  0  0  0  0  0
    4.7459    0.0539   -0.9083 H   0  0  0  0  0  0  0  0  0  0  0  0
    6.5877    1.3382   -0.8968 H   0  0  0  0  0  0  0  0  0  0  0  0
    8.3198    1.1004    1.0576 H   0  0  0  0  0  0  0  0  0  0  0  0
    6.7029    2.8012    0.4749 H   0  0  0  0  0  0  0  0  0  0  0  0
    7.2136   -0.9192    1.9518 H   0  0  0  0  0  0  0  0  0  0  0  0
    7.3907    0.4660    3.1392 H   0  0  0  0  0  0  0  0  0  0  0  0
    5.2187    1.2540    2.8156 H   0  0  0  0  0  0  0  0  0  0  0  0
    5.1372   -0.4592    3.2889 H   0  0  0  0  0  0  0  0  0  0  0  0
    7.1662   -0.8172   -1.7779 H   0  0  0  0  0  0  0  0  0  0  0  0
    7.6959   -1.4276   -0.2147 H   0  0  0  0  0  0  0  0  0  0  0  0
    8.9419    0.8192   -1.8916 H   0  0  0  0  0  0  0  0  0  0  0  0
    9.5830    0.4319   -0.2357 H   0  0  0  0  0  0  0  0  0  0  0  0
    9.3371   -1.3970   -2.6942 H   0  0  0  0  0  0  0  0  0  0  0  0
   11.2645    0.4670   -2.0301 H   0  0  0  0  0  0  0  0  0  0  0  0
   11.6100   -1.0636   -3.0093 H   0  0  0  0  0  0  0  0  0  0  0  0
   11.9360   -0.9692   -1.2356 H   0  0  0  0  0  0  0  0  0  0  0  0
    9.8664   -1.9656    0.1837 H   0  0  0  0  0  0  0  0  0  0  0  0
    8.9762   -2.9189   -1.0282 H   0  0  0  0  0  0  0  0  0  0  0  0
   10.8071   -2.8822   -1.1260 H   0  0  0  0  0  0  0  0  0  0  0  0
   -7.6367   -3.0369   -1.3633 H   0  0  0  0  0  0  0  0  0  0  0  0
   -8.8049   -2.8110   -2.6766 H   0  0  0  0  0  0  0  0  0  0  0  0
   -7.1592   -2.1518   -2.8265 H   0  0  0  0  0  0  0  0  0  0  0  0
  -11.2699   -2.1529    1.5675 H   0  0  0  0  0  0  0  0  0  0  0  0
  -10.0596   -3.0280    0.6695 H   0  0  0  0  0  0  0  0  0  0  0  0
   -9.6757   -0.1782    1.4040 H   0  0  0  0  0  0  0  0  0  0  0  0
   -8.6909   -1.3865    3.4113 H   0  0  0  0  0  0  0  0  0  0  0  0
   -6.4426   -1.1896   -0.9849 H   0  0  0  0  0  0  0  0  0  0  0  0
   -8.3017    0.4814    0.6715 H   0  0  0  0  0  0  0  0  0  0  0  0
   -6.4454    0.4788    2.2357 H   0  0  0  0  0  0  0  0  0  0  0  0
   -5.8148   -1.7373    2.2075 H   0  0  0  0  0  0  0  0  0  0  0  0
   -5.0162    0.1480   -0.4601 H   0  0  0  0  0  0  0  0  0  0  0  0
   -8.1977    2.2882   -2.4524 H   0  0  0  0  0  0  0  0  0  0  0  0
   -8.8476    1.8312   -0.8269 H   0  0  0  0  0  0  0  0  0  0  0  0
   -8.9926    0.6962   -2.2683 H   0  0  0  0  0  0  0  0  0  0  0  0
   -5.3066    0.1855   -2.6031 H   0  0  0  0  0  0  0  0  0  0  0  0
   -6.8783    0.2356   -3.4321 H   0  0  0  0  0  0  0  0  0  0  0  0
   -6.0820    1.7899   -3.0655 H   0  0  0  0  0  0  0  0  0  0  0  0
   -3.3898    0.4026   -0.2840 H   0  0  0  0  0  0  0  0  0  0  0  0
   -3.0497   -0.1972    2.0905 H   0  0  0  0  0  0  0  0  0  0  0  0
   -1.7556    1.0151    3.5579 H   0  0  0  0  0  0  0  0  0  0  0  0
   -1.3686    2.3524    2.3370 H   0  0  0  0  0  0  0  0  0  0  0  0
   -3.0226    2.0857    2.9363 H   0  0  0  0  0  0  0  0  0  0  0  0
   -1.4474   -1.1341    0.8202 H   0  0  0  0  0  0  0  0  0  0  0  0
   -1.6069    0.0016   -1.1190 H   0  0  0  0  0  0  0  0  0  0  0  0
   -1.0201    2.1816   -1.6340 H   0  0  0  0  0  0  0  0  0  0  0  0
   -0.4458    2.6012   -0.0113 H   0  0  0  0  0  0  0  0  0  0  0  0
   -3.1567    2.6559   -1.0540 H   0  0  0  0  0  0  0  0  0  0  0  0
   -2.5616    3.2394    0.5188 H   0  0  0  0  0  0  0  0  0  0  0  0
    1.0326    1.6640    1.6264 H   0  0  0  0  0  0  0  0  0  0  0  0
    1.6029    0.1935    3.3756 H   0  0  0  0  0  0  0  0  0  0  0  0
    1.8658   -0.9631    0.2595 H   0  0  0  0  0  0  0  0  0  0  0  0
    0.4200   -0.8470   -1.4410 H   0  0  0  0  0  0  0  0  0  0  0  0
    1.2625    0.6271   -2.6755 H   0  0  0  0  0  0  0  0  0  0  0  0
    2.5412    1.4826   -1.1162 H   0  0  0  0  0  0  0  0  0  0  0  0
    4.6342    1.3341   -0.3891 H   0  0  0  0  0  0  0  0  0  0  0  0
    3.6136    2.3568    1.3691 H   0  0  0  0  0  0  0  0  0  0  0  0
    3.7682   -1.2656    0.9278 H   0  0  0  0  0  0  0  0  0  0  0  0
    5.8208   -0.2242    2.0004 H   0  0  0  0  0  0  0  0  0  0  0  0
    6.0156   -1.7950    1.2044 H   0  0  0  0  0  0  0  0  0  0  0  0
    6.5838    0.7860   -0.1960 H   0  0  0  0  0  0  0  0  0  0  0  0
    7.9311   -1.8002   -1.0254 H   0  0  0  0  0  0  0  0  0  0  0  0
    6.9315    0.5992   -2.0495 H   0  0  0  0  0  0  0  0  0  0  0  0
    5.9072   -2.3273   -2.2418 H   0  0  0  0  0  0  0  0  0  0  0  0
    5.8646   -2.8307   -0.5448 H   0  0  0  0  0  0  0  0  0  0  0  0
    4.6437   -0.3030   -1.8119 H   0  0  0  0  0  0  0  0  0  0  0  0
    3.7509   -1.7581   -1.2865 H   0  0  0  0  0  0  0  0  0  0  0  0
    7.7548    0.6825    1.9577 H   0  0  0  0  0  0  0  0  0  0  0  0
    8.3181   -0.9458    1.6552 H   0  0  0  0  0  0  0  0  0  0  0  0
    9.3586    1.6558    0.4186 H   0  0  0  0  0  0  0  0  0  0  0  0
   10.0301    0.5477    1.5838 H   0  0  0  0  0  0  0  0  0  0  0  0
    9.7064   -0.3595   -1.3375 H   0  0  0  0  0  0  0  0  0  0  0  0
   11.2605    1.5718   -1.0505 H   0  0  0  0  0  0  0  0  0  0  0  0
   12.0988    0.0159   -1.3261 H   0  0  0  0  0  0  0  0  0  0  0  0
   11.9791    0.6797    0.3803 H   0  0  0  0  0  0  0  0  0  0  0  0
   11.4981   -1.4547    0.8152 H   0  0  0  0  0  0  0  0  0  0  0  0
    9.8256   -2.0334    0.8248 H   0  0  0  0  0  0  0  0  0  0  0  0
   10.7908   -2.2991   -0.6414 H   0  0  0  0  0  0  0  0  0  0  0  0
   -7.8502   -2.2084   -2.3271 H   0  0  0  0  0  0  0  0  0  0  0  0
   -9.0799   -1.4322   -3.3596 H   0  0  0  0  0  0  0  0  0  0  0  0
   -7.3601   -0.9030   -3.4411 H   0  0  0  0  0  0  0  0  0  0  0  0
  -11.2202   -2.0750    1.2534 H   0  0  0  0  0  0  0  0  0  0  0  0
  -10.2204   -2.6804    0.0007 H   0  0  0  0  0  0  0  0  0  0  0  0
   -9.4561   -0.3011    1.5127 H   0  0  0  0  0  0  0  0  0  0  0  0
   -8.4117   -1.9723    2.9682 H   0  0  0  0  0  0  0  0  0  0  0  0
   -6.4460   -0.7007   -1.4411 H   0  0  0  0  0  0  0  0  0  0  0  0
   -8.0845    0.4597    0.8374 H   0  0  0  0  0  0  0  0  0  0  0  0
   -6.3278   -0.0935    2.1388 H   0  0  0  0  0  0  0  0  0  0  0  0
   -4.9889   -1.6864    0.1962 H   0  0  0  0  0  0  0  0  0  0  0  0
   -4.8226    0.1276   -0.5043 H   0  0  0  0  0  0  0  0  0  0  0  0
   -7.7380    3.3008   -1.3715 H   0  0  0  0  0  0  0  0  0  0  0  0
   -8.3496    2.4102    0.0501 H   0  0  0  0  0  0  0  0  0  0  0  0
   -8.8997    1.9101   -1.6430 H   0  0  0  0  0  0  0  0  0  0  0  0
   -5.4305    0.7695   -2.5848 H   0  0  0  0  0  0  0  0  0  0  0  0
   -6.9573    1.5004   -3.2587 H   0  0  0  0  0  0  0  0  0  0  0  0
   -5.7069    2.5890   -2.5492 H   0  0  0  0  0  0  0  0  0  0  0  0
   -3.1641    0.1877   -0.2840 H   0  0  0  0  0  0  0  0  0  0  0  0
   -2.9420   -0.9410    1.9824 H   0  0  0  0  0  0  0  0  0  0  0  0
   -1.0035   -0.2977    3.2895 H   0  0  0  0  0  0  0  0  0  0  0  0
   -1.0076    1.3756    2.5183 H   0  0  0  0  0  0  0  0  0  0  0  0
   -2.4026    0.7787    3.4281 H   0  0  0  0  0  0  0  0  0  0  0  0
   -1.8253   -1.7529    0.2040 H   0  0  0  0  0  0  0  0  0  0  0  0
   -1.4936   -0.1892   -1.3758 H   0  0  0  0  0  0  0  0  0  0  0  0
   -0.6053    1.9278   -1.1936 H   0  0  0  0  0  0  0  0  0  0  0  0
    0.0942    1.7361    0.4171 H   0  0  0  0  0  0  0  0  0  0  0  0
   -2.6440    2.5262   -0.4434 H   0  0  0  0  0  0  0  0  0  0  0  0
   -1.9218    2.6002    1.1708 H   0  0  0  0  0  0  0  0  0  0  0  0
    0.9554    0.1174    1.9590 H   0  0  0  0  0  0  0  0  0  0  0  0
    1.4889   -1.7956    3.0642 H   0  0  0  0  0  0  0  0  0  0  0  0
    2.3002   -1.4200   -0.1614 H   0  0  0  0  0  0  0  0  0  0  0  0
    0.3715   -1.6382   -1.2644 H   0  0  0  0  0  0  0  0  0  0  0  0
    1.0145    1.0339   -2.0843 H   0  0  0  0  0  0  0  0  0  0  0  0
    2.6879    0.9599   -0.8728 H   0  0  0  0  0  0  0  0  0  0  0  0
    4.0132    1.6476    0.7891 H   0  0  0  0  0  0  0  0  0  0  0  0
    3.8126    1.1390    2.8296 H   0  0  0  0  0  0  0  0  0  0  0  0
    4.1405   -1.4521    0.6483 H   0  0  0  0  0  0  0  0  0  0  0  0
    4.8251    0.8991   -1.1228 H   0  0  0  0  0  0  0  0  0  0  0  0
    4.4073   -0.7896   -1.5096 H   0  0  0  0  0  0  0  0  0  0  0  0
    6.4923   -1.0173   -2.1228 H   0  0  0  0  0  0  0  0  0  0  0  0
    5.8127   -2.2930   -0.1836 H   0  0  0  0  0  0  0  0  0  0  0  0
    7.9552   -2.4288   -1.5041 H   0  0  0  0  0  0  0  0  0  0  0  0
    6.6683   -2.2007    1.8793 H   0  0  0  0  0  0  0  0  0  0  0  0
    7.7992   -0.8738    1.6592 H   0  0  0  0  0  0  0  0  0  0  0  0
    5.2191   -0.6274    2.5628 H   0  0  0  0  0  0  0  0  0  0  0  0
    5.9268    0.7410    1.6944 H   0  0  0  0  0  0  0  0  0  0  0  0
    6.8140    1.2885   -2.0481 H   0  0  0  0  0  0  0  0  0  0  0  0
    6.9873    1.4379   -0.3115 H   0  0  0  0  0  0  0  0  0  0  0  0
    8.9698    0.1597   -2.3420 H   0  0  0  0  0  0  0  0  0  0  0  0
    9.0911    1.7641   -1.6326 H   0  0  0  0  0  0  0  0  0  0  0  0
    9.5954   -0.8323   -0.0518 H   0  0  0  0  0  0  0  0  0  0  0  0
   11.2375    1.4165   -1.2277 H   0  0  0  0  0  0  0  0  0  0  0  0
   11.0747   -0.2525   -1.9053 H   0  0  0  0  0  0  0  0  0  0  0  0
   11.8158   -0.0625   -0.2992 H   0  0  0  0  0  0  0  0  0  0  0  0
   10.3475    1.9215    0.7283 H   0  0  0  0  0  0  0  0  0  0  0  0
    8.6310    1.3544    1.1086 H   0  0  0  0  0  0  0  0  0  0  0  0
   10.0286    0.4378    1.7297 H   0  0  0  0  0  0  0  0  0  0  0  0
   -8.1377   -2.5837   -1.4855 H   0  0  0  0  0  0  0  0  0  0  0  0
   -9.5803   -1.8841   -2.3079 H   0  0  0  0  0  0  0  0  0  0  0  0
   -7.9631   -1.4452   -2.9122 H   0  0  0  0  0  0  0  0  0  0  0  0
  -10.7926   -2.4773    2.1100 H   0  0  0  0  0  0  0  0  0  0  0  0
   -9.9733   -2.5346    0.5907 H   0  0  0  0  0  0  0  0  0  0  0  0
   -9.2863   -0.2490    2.0570 H   0  0  0  0  0  0  0  0  0  0  0  0
   -8.5940   -1.1132    3.9359 H   0  0  0  0  0  0  0  0  0  0  0  0
   -6.5359   -0.9522   -1.0443 H   0  0  0  0  0  0  0  0  0  0  0  0
   -7.9968    0.5257    1.1850 H   0  0  0  0  0  0  0  0  0  0  0  0
   -6.1105    0.2973    2.4310 H   0  0  0  0  0  0  0  0  0  0  0  0
   -4.8194   -1.6058    0.8094 H   0  0  0  0  0  0  0  0  0  0  0  0
   -4.9775    0.2053   -0.4309 H   0  0  0  0  0  0  0  0  0  0  0  0
   -5.8481    2.3022   -2.3230 H   0  0  0  0  0  0  0  0  0  0  0  0
   -7.0987    1.2236   -3.1043 H   0  0  0  0  0  0  0  0  0  0  0  0
   -5.6047    0.5069   -2.4068 H   0  0  0  0  0  0  0  0  0  0  0  0
   -8.3561    2.7605   -0.2068 H   0  0  0  0  0  0  0  0  0  0  0  0
   -8.6008    2.2098   -1.9370 H   0  0  0  0  0  0  0  0  0  0  0  0
   -9.1930    1.2305   -0.5693 H   0  0  0  0  0  0  0  0  0  0  0  0
   -3.3381    0.4448   -0.6365 H   0  0  0  0  0  0  0  0  0  0  0  0
   -1.3006    1.2789    1.4401 H   0  0  0  0  0  0  0  0  0  0  0  0
   -1.5124   -0.5375    2.8236 H   0  0  0  0  0  0  0  0  0  0  0  0
   -3.2067    0.0160    2.6323 H   0  0  0  0  0  0  0  0  0  0  0  0
   -2.5731   -1.4379    1.6931 H   0  0  0  0  0  0  0  0  0  0  0  0
   -1.8843   -1.0180   -0.4925 H   0  0  0  0  0  0  0  0  0  0  0  0
   -1.3067    0.5530   -1.9943 H   0  0  0  0  0  0  0  0  0  0  0  0
   -0.6736    2.7580   -1.5715 H   0  0  0  0  0  0  0  0  0  0  0  0
   -0.2828    2.4833    0.1456 H   0  0  0  0  0  0  0  0  0  0  0  0
   -2.9285    2.6227   -1.3725 H   0  0  0  0  0  0  0  0  0  0  0  0
   -2.4985    3.1747    0.2655 H   0  0  0  0  0  0  0  0  0  0  0  0
    0.7951    0.5349    1.4696 H   0  0  0  0  0  0  0  0  0  0  0  0
    1.2317   -1.7991    2.2108 H   0  0  0  0  0  0  0  0  0  0  0  0
    2.2691   -0.8895   -0.7105 H   0  0  0  0  0  0  0  0  0  0  0  0
    0.6806   -0.4844   -2.1921 H   0  0  0  0  0  0  0  0  0  0  0  0
    1.2738    2.3014   -1.9204 H   0  0  0  0  0  0  0  0  0  0  0  0
    2.9289    1.6423   -0.9429 H   0  0  0  0  0  0  0  0  0  0  0  0
    3.2701    0.5035    1.7644 H   0  0  0  0  0  0  0  0  0  0  0  0
    4.0116    2.6913    0.8070 H   0  0  0  0  0  0  0  0  0  0  0  0
    4.0415   -1.3261    0.0994 H   0  0  0  0  0  0  0  0  0  0  0  0
    5.3393    1.0921   -1.1465 H   0  0  0  0  0  0  0  0  0  0  0  0
    4.6772   -0.3844   -1.8761 H   0  0  0  0  0  0  0  0  0  0  0  0
    6.7718   -0.8977   -2.2542 H   0  0  0  0  0  0  0  0  0  0  0  0
    5.6394   -2.3015   -0.6650 H   0  0  0  0  0  0  0  0  0  0  0  0
    7.8065   -2.5408   -1.7650 H   0  0  0  0  0  0  0  0  0  0  0  0
    6.1902   -2.7285    1.4526 H   0  0  0  0  0  0  0  0  0  0  0  0
    7.5419   -1.6205    1.6374 H   0  0  0  0  0  0  0  0  0  0  0  0
    6.0005    0.2773    1.8321 H   0  0  0  0  0  0  0  0  0  0  0  0
    4.9437   -1.0647    2.2617 H   0  0  0  0  0  0  0  0  0  0  0  0
    7.3796    1.0676    0.0988 H   0  0  0  0  0  0  0  0  0  0  0  0
    7.4095    1.4036   -1.6232 H   0  0  0  0  0  0  0  0  0  0  0  0
    9.4192    0.0314   -1.9628 H   0  0  0  0  0  0  0  0  0  0  0  0
    9.5839    1.3926   -0.8649 H   0  0  0  0  0  0  0  0  0  0  0  0
    9.4758   -1.5010    0.1353 H   0  0  0  0  0  0  0  0  0  0  0  0
   11.7383    0.4848   -0.0025 H   0  0  0  0  0  0  0  0  0  0  0  0
   11.3747   -0.5853   -1.3942 H   0  0  0  0  0  0  0  0  0  0  0  0
   11.7187   -1.3568    0.1669 H   0  0  0  0  0  0  0  0  0  0  0  0
    8.7451    0.7294    1.5694 H   0  0  0  0  0  0  0  0  0  0  0  0
    9.8000   -0.6074    2.2457 H   0  0  0  0  0  0  0  0  0  0  0  0
   10.5425    0.8521    1.5401 H   0  0  0  0  0  0  0  0  0  0  0  0
  1  2  1  0
  3  4  1  0
  4  5  1  0
  4  6  1  0
  2  7  1  0
  6  8  1  0
  7  8  1  0
  8  9  1  0
  9 10  1  0
  9 11  1  0
 11 12  1  0
  7 13  1  0
 12 13  1  0
 13 14  1  0
 13 15  1  0
 11 16  1  0
 16 17  1  0
 17 18  1  0
 18 19  1  0
 18 20  1  0
 20 21  1  0
 21 22  1  0
 17 23  1  0
 22 23  1  0
 20 24  1  0
 24 25  1  0
 25 26  1  0
 25 27  1  0
 21 28  1  0
 27 28  1  0
 28 29  1  0
 27 30  1  0
 30 31  1  0
 31 32  1  0
 31 33  1  0
 33 34  1  0
 34 35  1  0
 35 36  1  0
 36 37  1  0
 36 38  1  0
 33 39  1  0
 38 39  1  0
 35 40  1  0
 40 41  1  0
 41 42  1  0
 42 43  1  0
 42 44  1  0
 45 46  1  0
 47 48  1  0
 48 49  1  0
 48 50  1  0
 46 51  1  0
 50 52  1  0
 51 52  1  0
 52 53  1  0
 53 54  1  0
 53 55  1  0
 55 56  1  0
 51 57  1  0
 56 57  1  0
 57 58  1  0
 57 59  1  0
 55 60  1  0
 60 61  1  0
 61 62  1  0
 62 63  1  0
 62 64  1  0
 64 65  1  0
 65 66  1  0
 61 67  1  0
 66 67  1  0
 64 68  1  0
 68 69  1  0
 69 70  1  0
 69 71  1  0
 65 72  1  0
 71 72  1  0
 72 73  1  0
 71 74  1  0
 74 75  1  0
 75 76  1  0
 75 77  1  0
 77 78  1  0
 78 79  1  0
 79 80  1  0
 80 81  1  0
 80 82  1  0
 77 83  1  0
 82 83  1  0
 79 84  1  0
 84 85  1  0
 85 86  1  0
 86 87  1  0
 86 88  1  0
 89 90  1  0
 91 92  1  0
 92 93  1  0
 92 94  1  0
 90 95  1  0
 94 96  1  0
 95 96  1  0
 96 97  1  0
 97 98  1  0
 97 99  1  0
 99100  1  0
 95101  1  0
100101  1  0
101102  1  0
101103  1  0
 99104  1  0
104105  1  0
105106  1  0
106107  1  0
106108  1  0
108109  1  0
109110  1  0
105111  1  0
110111  1  0
108112  1  0
112113  1  0
113114  1  0
113115  1  0
109116  1  0
115116  1  0
116117  1  0
115118  1  0
118119  1  0
119120  1  0
119121  1  0
121122  1  0
122123  1  0
123124  1  0
124125  1  0
124126  1  0
121127  1  0
126127  1  0
123128  1  0
128129  1  0
129130  1  0
130131  1  0
130132  1  0
133134  1  0
135136  1  0
136137  1  0
136138  1  0
134139  1  0
138140  1  0
139140  1  0
140141  1  0
141142  1  0
141143  1  0
143144  1  0
139145  1  0
144145  1  0
145146  1  0
145147  1  0
143148  1  0
148149  1  0
149150  1  0
150151  1  0
150152  1  0
152153  1  0
153154  1  0
149155  1  0
154155  1  0
152156  1  0
156157  1  0
157158  1  0
157159  1  0
153160  1  0
159160  1  0
160161  1  0
159162  1  0
162163  1  0
163164  1  0
163165  1  0
165166  1  0
166167  1  0
167168  1  0
168169  1  0
168170  1  0
165171  1  0
170171  1  0
167172  1  0
172173  1  0
173174  1  0
174175  1  0
174176  1  0
  1177  1  0
  1178  1  0
  1179  1  0
  3180  1  0
  3181  1  0
  4182  1  0
  5183  1  0
  7184  1  1
  8185  1  6
  9186  1  1
 10187  1  0
 11188  1  6
 14189  1  0
 14190  1  0
 14191  1  0
 15192  1  0
 15193  1  0
 15194  1  0
 17195  1  0
 18196  1  1
 19197  1  0
 19198  1  0
 19199  1  0
 20200  1  0
 21201  1  0
 22202  1  0
 22203  1  0
 23204  1  0
 23205  1  0
 25206  1  0
 26207  1  0
 27208  1  1
 28209  1  0
 29210  1  0
 30211  1  0
 31212  1  0
 32213  1  0
 33214  1  1
 34215  1  0
 34216  1  0
 35217  1  0
 36218  1  6
 37219  1  0
 38220  1  0
 38221  1  0
 39222  1  0
 39223  1  0
 40224  1  0
 40225  1  0
 41226  1  0
 41227  1  0
 42228  1  0
 43229  1  0
 43230  1  0
 43231  1  0
 44232  1  0
 44233  1  0
 44234  1  0
 45235  1  0
 45236  1  0
 45237  1  0
 47238  1  0
 47239  1  0
 48240  1  0
 49241  1  0
 51242  1  1
 52243  1  6
 53244  1  1
 54245  1  0
 55246  1  6
 58247  1  0
 58248  1  0
 58249  1  0
 59250  1  0
 59251  1  0
 59252  1  0
 61253  1  0
 62254  1  0
 63255  1  0
 63256  1  0
 63257  1  0
 64258  1  0
 65259  1  0
 66260  1  0
 66261  1  0
 67262  1  0
 67263  1  0
 69264  1  0
 70265  1  0
 71266  1  1
 72267  1  0
 73268  1  0
 74269  1  0
 75270  1  0
 76271  1  0
 77272  1  0
 78273  1  0
 78274  1  0
 79275  1  0
 80276  1  0
 81277  1  0
 82278  1  0
 82279  1  0
 83280  1  0
 83281  1  0
 84282  1  0
 84283  1  0
 85284  1  0
 85285  1  0
 86286  1  0
 87287  1  0
 87288  1  0
 87289  1  0
 88290  1  0
 88291  1  0
 88292  1  0
 89293  1  0
 89294  1  0
 89295  1  0
 91296  1  0
 91297  1  0
 92298  1  0
 93299  1  0
 95300  1  6
 96301  1  1
 97302  1  1
 98303  1  0
 99304  1  6
102305  1  0
102306  1  0
102307  1  0
103308  1  0
103309  1  0
103310  1  0
105311  1  0
106312  1  0
107313  1  0
107314  1  0
107315  1  0
108316  1  0
109317  1  0
110318  1  0
110319  1  0
111320  1  0
111321  1  0
113322  1  0
114323  1  0
115324  1  6
116325  1  0
117326  1  0
118327  1  0
119328  1  0
120329  1  0
121330  1  6
122331  1  0
122332  1  0
123333  1  6
124334  1  0
125335  1  0
126336  1  0
126337  1  0
127338  1  0
127339  1  0
128340  1  0
128341  1  0
129342  1  0
129343  1  0
130344  1  0
131345  1  0
131346  1  0
131347  1  0
132348  1  0
132349  1  0
132350  1  0
133351  1  0
133352  1  0
133353  1  0
135354  1  0
135355  1  0
136356  1  0
137357  1  0
139358  1  6
140359  1  1
141360  1  1
142361  1  0
143362  1  6
146363  1  0
146364  1  0
146365  1  0
147366  1  0
147367  1  0
147368  1  0
149369  1  0
150370  1  1
151371  1  0
151372  1  0
151373  1  0
152374  1  0
153375  1  0
154376  1  0
154377  1  0
155378  1  0
155379  1  0
157380  1  0
158381  1  0
159382  1  6
160383  1  0
161384  1  0
162385  1  0
163386  1  1
164387  1  0
165388  1  6
166389  1  0
166390  1  0
167391  1  0
168392  1  0
169393  1  0
170394  1  0
170395  1  0
171396  1  0
171397  1  0
172398  1  0
172399  1  0
173400  1  0
173401  1  0
174402  1  0
175403  1  0
175404  1  0
175405  1  0
176406  1  0
176407  1  0
176408  1  0
M  END
>  <PDBID>  (1) 
4URO

>  <PDB ID>  (1) 
4URO

>  <Generic Name>  (1) 
Novobiocin

>  <Brand Name>  (1) 
Albamycin

>  <DrugBank ID>  (1) 
DB01051

>  <ATC Codes>  (1) 
nan

>  <Ligand ID>  (1) 
NOV

>  <Target Name>  (1) 
DNA gyrase subunit B

>  <UniProt ID>  (1) 
P0A0K8

>  <PDB ID.1>  (1) 
4URO

>  <Seq. Identity>  (1) 
84%

$$$$
