PDB_DB01199_08
     RDKit          3D

550580  0  0  0  0  0  0  0  0999 V2000
    3.9802   -2.3310    1.3782 N   0  0  0  0  0  0  0  0  0  0  0  0
    5.2256   -1.7469    1.7779 C   0  0  0  0  0  0  0  0  0  0  0  0
    6.1475   -1.4503    0.6319 C   0  0  0  0  0  0  0  0  0  0  0  0
    5.4681   -0.5304   -0.3270 C   0  0  0  0  0  0  0  0  0  0  0  0
    4.1193   -1.0132   -0.7146 C   0  0  0  0  0  0  0  0  0  0  0  0
    3.7329   -2.3070   -0.0254 C   0  0  2  0  0  0  0  0  0  0  0  0
    5.4562    0.8602    0.2659 C   0  0  0  0  0  0  0  0  0  0  0  0
    4.7616    1.8517   -0.6424 C   0  0  0  0  0  0  0  0  0  0  0  0
    3.3714    1.3898   -1.0441 C   0  0  1  0  0  0  0  0  0  0  0  0
    3.0997    0.0150   -0.4746 C   0  0  0  0  0  0  0  0  0  0  0  0
    2.4805    2.1977   -0.3826 O   0  0  0  0  0  0  0  0  0  0  0  0
    1.6869    3.0324   -1.0810 C   0  0  2  0  0  0  0  0  0  0  0  0
    1.2790    4.1151   -0.0516 C   0  0  0  0  0  0  0  0  0  0  0  0
    0.9102    3.2872    1.1614 C   0  0  0  0  0  0  0  0  0  0  0  0
   -0.3822    2.5856    0.8748 C   0  0  0  0  0  0  0  0  0  0  0  0
   -0.4411    1.8617   -0.4127 C   0  0  2  0  0  0  0  0  0  0  0  0
    0.3571    2.4955   -1.5408 C   0  0  0  0  0  0  0  0  0  0  0  0
   -1.7768    1.4545   -0.9148 C   0  0  0  0  0  0  0  0  0  0  0  0
   -2.9029    1.4341    0.0564 C   0  0  1  0  0  0  0  0  0  0  0  0
   -3.7791    2.5820   -0.0552 N   0  0  0  0  0  0  0  0  0  0  0  0
   -5.1175    2.2515   -0.5672 C   0  0  0  0  0  0  0  0  0  0  0  0
   -5.0129    1.1951   -1.6496 C   0  0  0  0  0  0  0  0  0  0  0  0
   -4.7642   -0.0469   -0.8174 C   0  0  0  0  0  0  0  0  0  0  0  0
   -3.6943    0.2156    0.2200 C   0  0  1  0  0  0  0  0  0  0  0  0
   -4.5308   -1.2819   -1.6219 C   0  0  0  0  0  0  0  0  0  0  0  0
   -4.6956   -2.4718   -0.6978 C   0  0  0  0  0  0  0  0  0  0  0  0
   -4.2388   -2.0331    0.6833 C   0  0  2  0  0  0  0  0  0  0  0  0
   -3.0354   -1.1056    0.4633 C   0  0  2  0  0  0  0  0  0  0  0  0
   -2.0706   -1.1575    1.3873 O   0  0  0  0  0  0  0  0  0  0  0  0
   -1.4224   -2.2877    1.6843 C   0  0  0  0  0  0  0  0  0  0  0  0
   -0.1060   -2.0745    2.4544 C   0  0  0  0  0  0  0  0  0  0  0  0
    1.0709   -1.8376    1.5673 C   0  0  0  0  0  0  0  0  0  0  0  0
    1.3473   -2.9506    0.6327 C   0  0  0  0  0  0  0  0  0  0  0  0
    0.0487   -3.1052   -0.1846 C   0  0  0  0  0  0  0  0  0  0  0  0
   -1.1457   -3.3213    0.6761 C   0  0  0  0  0  0  0  0  0  0  0  0
    2.3896   -2.7783   -0.3964 C   0  0  0  0  0  0  0  0  0  0  0  0
    5.5691    2.0685   -1.7529 O   0  0  0  0  0  0  0  0  0  0  0  0
    6.0631    3.3895   -1.7790 C   0  0  0  0  0  0  0  0  0  0  0  0
    0.2224    4.8158   -0.5733 O   0  0  0  0  0  0  0  0  0  0  0  0
   -6.0264   -2.8773   -0.6160 O   0  0  0  0  0  0  0  0  0  0  0  0
   -6.1597   -4.2068   -1.0364 C   0  0  0  0  0  0  0  0  0  0  0  0
   -4.0692   -3.0458    1.5589 O   0  0  0  0  0  0  0  0  0  0  0  0
    3.9867   -3.7184    1.8121 C   0  0  0  0  0  0  0  0  0  0  0  0
   -4.0392    3.2093    1.2302 C   0  0  0  0  0  0  0  0  0  0  0  0
   -3.3546    3.5815   -1.0145 C   0  0  0  0  0  0  0  0  0  0  0  0
    4.1475   -3.0626    0.1523 N   0  0  0  0  0  0  0  0  0  0  0  0
    4.7786   -2.6395    1.3353 C   0  0  0  0  0  0  0  0  0  0  0  0
    5.6534   -1.4386    1.0773 C   0  0  0  0  0  0  0  0  0  0  0  0
    4.6699   -0.3189    0.7043 C   0  0  0  0  0  0  0  0  0  0  0  0
    3.8403   -0.6728   -0.4567 C   0  0  2  0  0  0  0  0  0  0  0  0
    3.5574   -2.1141   -0.6995 C   0  0  2  0  0  0  0  0  0  0  0  0
    5.4925    0.9035    0.5046 C   0  0  0  0  0  0  0  0  0  0  0  0
    4.7836    2.0246   -0.2601 C   0  0  0  0  0  0  0  0  0  0  0  0
    4.0025    1.5608   -1.4200 C   0  0  0  0  0  0  0  0  0  0  0  0
    4.4150    0.0825   -1.6649 C   0  0  0  0  0  0  0  0  0  0  0  0
    2.6836    1.6084   -1.4490 O   0  0  0  0  0  0  0  0  0  0  0  0
    1.8406    2.0852   -0.5525 C   0  0  0  0  0  0  0  0  0  0  0  0
    1.6835    3.6165   -0.5147 C   0  0  0  0  0  0  0  0  0  0  0  0
    0.7672    3.8773    0.6617 C   0  0  0  0  0  0  0  0  0  0  0  0
   -0.6157    3.2993    0.4715 C   0  0  0  0  0  0  0  0  0  0  0  0
   -0.5895    1.8352    0.0832 C   0  0  0  0  0  0  0  0  0  0  0  0
    0.4427    1.6151   -0.9862 C   0  0  0  0  0  0  0  0  0  0  0  0
   -1.9120    1.4372   -0.5659 C   0  0  0  0  0  0  0  0  0  0  0  0
   -3.1003    1.3790    0.3202 C   0  0  1  0  0  0  0  0  0  0  0  0
   -4.0241    2.4443    0.0172 N   0  0  0  0  0  0  0  0  0  0  0  0
   -5.4313    2.1199    0.1002 C   0  0  0  0  0  0  0  0  0  0  0  0
   -5.5863    0.7959   -0.5533 C   0  0  0  0  0  0  0  0  0  0  0  0
   -5.1359   -0.1117    0.6114 C   0  0  0  0  0  0  0  0  0  0  0  0
   -3.6473    0.0317    0.6940 C   0  0  1  0  0  0  0  0  0  0  0  0
   -5.7493   -1.4051    0.3358 C   0  0  0  0  0  0  0  0  0  0  0  0
   -4.9518   -2.2927   -0.5936 C   0  0  0  0  0  0  0  0  0  0  0  0
   -3.6386   -2.4519    0.1890 C   0  0  0  0  0  0  0  0  0  0  0  0
   -2.8879   -1.1590    0.1220 C   0  0  2  0  0  0  0  0  0  0  0  0
   -1.6424   -1.3569    0.6080 O   0  0  0  0  0  0  0  0  0  0  0  0
   -1.3392   -2.2258    1.5670 C   0  0  0  0  0  0  0  0  0  0  0  0
   -0.0528   -1.7119    2.2664 C   0  0  0  0  0  0  0  0  0  0  0  0
    1.0969   -1.5922    1.3216 C   0  0  0  0  0  0  0  0  0  0  0  0
    1.3731   -2.7728    0.4538 C   0  0  0  0  0  0  0  0  0  0  0  0
    0.0484   -3.3932   -0.0319 C   0  0  0  0  0  0  0  0  0  0  0  0
   -0.8654   -3.6104    1.1305 C   0  0  0  0  0  0  0  0  0  0  0  0
    2.0813   -2.4296   -0.8263 C   0  0  0  0  0  0  0  0  0  0  0  0
    5.8578    2.8090   -0.7347 O   0  0  0  0  0  0  0  0  0  0  0  0
    5.8809    4.0129   -0.0828 C   0  0  0  0  0  0  0  0  0  0  0  0
    1.0342    3.9529   -1.7000 O   0  0  0  0  0  0  0  0  0  0  0  0
   -5.5795   -3.4911   -0.7920 O   0  0  0  0  0  0  0  0  0  0  0  0
   -5.8888   -3.7750   -2.1001 C   0  0  0  0  0  0  0  0  0  0  0  0
   -3.9540   -2.9675    1.3844 O   0  0  0  0  0  0  0  0  0  0  0  0
    5.0170   -4.0091   -0.5398 C   0  0  0  0  0  0  0  0  0  0  0  0
   -3.9018    3.6111    0.8798 C   0  0  0  0  0  0  0  0  0  0  0  0
   -3.8869    2.9967   -1.3384 C   0  0  0  0  0  0  0  0  0  0  0  0
    3.9907   -2.6950    0.5566 N   0  0  0  0  0  0  0  0  0  0  0  0
    5.0656   -2.0818    1.2409 C   0  0  0  0  0  0  0  0  0  0  0  0
    6.0932   -1.5996    0.2789 C   0  0  0  0  0  0  0  0  0  0  0  0
    5.4865   -0.4717   -0.5395 C   0  0  0  0  0  0  0  0  0  0  0  0
    4.1469   -0.8254   -1.0812 C   0  0  0  0  0  0  0  0  0  0  0  0
    3.7032   -2.2157   -0.7692 C   0  0  2  0  0  0  0  0  0  0  0  0
    5.4992    0.7488    0.3367 C   0  0  0  0  0  0  0  0  0  0  0  0
    4.8855    1.9679   -0.3052 C   0  0  0  0  0  0  0  0  0  0  0  0
    3.7771    1.5668   -1.2464 C   0  0  0  0  0  0  0  0  0  0  0  0
    3.2059    0.2758   -0.6892 C   0  0  0  0  0  0  0  0  0  0  0  0
    2.8223    2.5393   -1.4123 O   0  0  0  0  0  0  0  0  0  0  0  0
    1.8021    2.5640   -0.5025 C   0  0  0  0  0  0  0  0  0  0  0  0
    1.6693    3.9456    0.1623 C   0  0  0  0  0  0  0  0  0  0  0  0
    0.6833    3.7429    1.2839 C   0  0  0  0  0  0  0  0  0  0  0  0
   -0.6844    3.3096    0.7693 C   0  0  0  0  0  0  0  0  0  0  0  0
   -0.5547    2.0427    0.0353 C   0  0  2  0  0  0  0  0  0  0  0  0
    0.4424    2.3128   -1.1051 C   0  0  0  0  0  0  0  0  0  0  0  0
   -1.7293    1.3709   -0.5463 C   0  0  0  0  0  0  0  0  0  0  0  0
   -3.0137    1.3638    0.2271 C   0  0  1  0  0  0  0  0  0  0  0  0
   -3.8919    2.3666   -0.2911 N   0  0  0  0  0  0  0  0  0  0  0  0
   -5.2581    2.0025   -0.5673 C   0  0  0  0  0  0  0  0  0  0  0  0
   -5.3982    0.5269   -0.7736 C   0  0  0  0  0  0  0  0  0  0  0  0
   -5.0426    0.0265    0.6386 C   0  0  0  0  0  0  0  0  0  0  0  0
   -3.5558    0.0693    0.7171 C   0  0  1  0  0  0  0  0  0  0  0  0
   -5.7566   -1.2525    0.7640 C   0  0  0  0  0  0  0  0  0  0  0  0
   -5.1608   -2.2118   -0.2380 C   0  0  0  0  0  0  0  0  0  0  0  0
   -3.7393   -2.4128    0.2393 C   0  0  0  0  0  0  0  0  0  0  0  0
   -2.8783   -1.2003    0.1781 C   0  0  2  0  0  0  0  0  0  0  0  0
   -1.6455   -1.4368    0.6350 O   0  0  0  0  0  0  0  0  0  0  0  0
   -1.2323   -2.4081    1.4207 C   0  0  0  0  0  0  0  0  0  0  0  0
    0.1167   -1.9446    2.0403 C   0  0  0  0  0  0  0  0  0  0  0  0
    1.1547   -1.7004    1.0103 C   0  0  0  0  0  0  0  0  0  0  0  0
    1.4398   -2.8978    0.1395 C   0  0  0  0  0  0  0  0  0  0  0  0
    0.1012   -3.3965   -0.4073 C   0  0  0  0  0  0  0  0  0  0  0  0
   -0.7985   -3.7148    0.7499 C   0  0  0  0  0  0  0  0  0  0  0  0
    2.2793   -2.5240   -1.0682 C   0  0  0  0  0  0  0  0  0  0  0  0
    5.8203    2.7886   -0.8953 O   0  0  0  0  0  0  0  0  0  0  0  0
    5.8188    4.0271   -0.2625 C   0  0  0  0  0  0  0  0  0  0  0  0
    1.1308    4.8058   -0.7777 O   0  0  0  0  0  0  0  0  0  0  0  0
   -5.7974   -3.4495   -0.2098 O   0  0  0  0  0  0  0  0  0  0  0  0
   -6.3596   -3.7807   -1.4323 C   0  0  0  0  0  0  0  0  0  0  0  0
   -3.8276   -3.0868    1.4231 O   0  0  0  0  0  0  0  0  0  0  0  0
    4.2653   -4.1416    0.5041 C   0  0  0  0  0  0  0  0  0  0  0  0
   -4.0043    3.5531    0.5872 C   0  0  0  0  0  0  0  0  0  0  0  0
   -3.4829    2.9701   -1.5680 C   0  0  0  0  0  0  0  0  0  0  0  0
    3.9077   -2.6874    0.7904 N   0  0  0  0  0  0  0  0  0  0  0  0
    4.9865   -2.0422    1.4466 C   0  0  0  0  0  0  0  0  0  0  0  0
    6.0358   -1.6225    0.4560 C   0  0  0  0  0  0  0  0  0  0  0  0
    5.4348   -0.5667   -0.4302 C   0  0  0  0  0  0  0  0  0  0  0  0
    4.0647   -0.8787   -0.9034 C   0  0  0  0  0  0  0  0  0  0  0  0
    3.6405   -2.2755   -0.5578 C   0  0  2  0  0  0  0  0  0  0  0  0
    5.5075    0.7490    0.3509 C   0  0  0  0  0  0  0  0  0  0  0  0
    4.9896    1.8461   -0.5524 C   0  0  1  0  0  0  0  0  0  0  0  0
    3.5424    1.5731   -0.8130 C   0  0  1  0  0  0  0  0  0  0  0  0
    3.1160    0.1687   -0.4455 C   0  0  0  0  0  0  0  0  0  0  0  0
    2.6983    2.3909   -0.0281 O   0  0  0  0  0  0  0  0  0  0  0  0
    1.7613    3.0841   -0.7102 C   0  0  2  0  0  0  0  0  0  0  0  0
    1.4170    4.3063    0.1625 C   0  0  0  0  0  0  0  0  0  0  0  0
    0.8326    3.6455    1.4203 C   0  0  0  0  0  0  0  0  0  0  0  0
   -0.5776    3.1875    0.9931 C   0  0  0  0  0  0  0  0  0  0  0  0
   -0.4078    2.0364    0.1128 C   0  0  0  0  0  0  0  0  0  0  0  0
    0.4869    2.4412   -1.0618 C   0  0  0  0  0  0  0  0  0  0  0  0
   -1.5819    1.3410   -0.4762 C   0  0  0  0  0  0  0  0  0  0  0  0
   -2.8866    1.3581    0.2534 C   0  0  1  0  0  0  0  0  0  0  0  0
   -3.7552    2.3957   -0.2205 N   0  0  0  0  0  0  0  0  0  0  0  0
   -5.1097    2.0597   -0.5692 C   0  0  0  0  0  0  0  0  0  0  0  0
   -5.2569    0.5999   -0.8403 C   0  0  0  0  0  0  0  0  0  0  0  0
   -4.9762    0.0414    0.5666 C   0  0  0  0  0  0  0  0  0  0  0  0
   -3.4827    0.0523    0.6879 C   0  0  1  0  0  0  0  0  0  0  0  0
   -5.7041   -1.2207    0.6238 C   0  0  0  0  0  0  0  0  0  0  0  0
   -5.1204   -2.1156   -0.4443 C   0  0  0  0  0  0  0  0  0  0  0  0
   -3.7201   -2.4039    0.0911 C   0  0  0  0  0  0  0  0  0  0  0  0
   -2.8319   -1.2105    0.1407 C   0  0  2  0  0  0  0  0  0  0  0  0
   -1.6272   -1.5084    0.6725 O   0  0  0  0  0  0  0  0  0  0  0  0
   -1.3239   -2.5225    1.4496 C   0  0  0  0  0  0  0  0  0  0  0  0
   -0.0093   -2.1509    2.1940 C   0  0  0  0  0  0  0  0  0  0  0  0
    1.0617   -1.9101    1.2063 C   0  0  0  0  0  0  0  0  0  0  0  0
    1.3581   -3.0186    0.2603 C   0  0  0  0  0  0  0  0  0  0  0  0
    0.0270   -3.4604   -0.3724 C   0  0  0  0  0  0  0  0  0  0  0  0
   -0.8913   -3.8251    0.7573 C   0  0  0  0  0  0  0  0  0  0  0  0
    2.2349   -2.6185   -0.8917 C   0  0  0  0  0  0  0  0  0  0  0  0
    5.2271    3.1072   -0.0386 O   0  0  0  0  0  0  0  0  0  0  0  0
    6.0499    3.8845   -0.8179 C   0  0  0  0  0  0  0  0  0  0  0  0
    0.4393    5.0751   -0.4198 O   0  0  0  0  0  0  0  0  0  0  0  0
   -5.7985   -3.3029   -0.5894 O   0  0  0  0  0  0  0  0  0  0  0  0
   -6.2987   -3.5202   -1.8584 C   0  0  0  0  0  0  0  0  0  0  0  0
   -3.9358   -3.0888    1.2590 O   0  0  0  0  0  0  0  0  0  0  0  0
    4.1673   -4.1332    0.8082 C   0  0  0  0  0  0  0  0  0  0  0  0
   -3.8916    3.5175    0.7337 C   0  0  0  0  0  0  0  0  0  0  0  0
   -3.3095    3.0688   -1.4537 C   0  0  0  0  0  0  0  0  0  0  0  0
    3.7647   -2.4860    0.9817 N   0  0  0  0  0  0  0  0  0  0  0  0
    4.9672   -1.9463    1.5841 C   0  0  0  0  0  0  0  0  0  0  0  0
    6.0115   -1.7367    0.5392 C   0  0  0  0  0  0  0  0  0  0  0  0
    5.5617   -0.5736   -0.3568 C   0  0  0  0  0  0  0  0  0  0  0  0
    4.1638   -0.7885   -0.7771 C   0  0  0  0  0  0  0  0  0  0  0  0
    3.6175   -2.1492   -0.4051 C   0  0  2  0  0  0  0  0  0  0  0  0
    5.8407    0.6789    0.3923 C   0  0  0  0  0  0  0  0  0  0  0  0
    5.1815    1.9138   -0.1213 C   0  0  0  0  0  0  0  0  0  0  0  0
    3.9053    1.6461   -0.8621 C   0  0  1  0  0  0  0  0  0  0  0  0
    3.3231    0.3554   -0.3113 C   0  0  0  0  0  0  0  0  0  0  0  0
    3.0152    2.6749   -0.8857 O   0  0  0  0  0  0  0  0  0  0  0  0
    1.8987    2.5820   -0.1113 C   0  0  0  0  0  0  0  0  0  0  0  0
    1.7350    3.8910    0.6823 C   0  0  0  0  0  0  0  0  0  0  0  0
    0.5960    3.6445    1.6488 C   0  0  0  0  0  0  0  0  0  0  0  0
   -0.7181    3.3794    0.8954 C   0  0  0  0  0  0  0  0  0  0  0  0
   -0.5164    2.1453    0.1178 C   0  0  0  0  0  0  0  0  0  0  0  0
    0.6185    2.4365   -0.8827 C   0  0  0  0  0  0  0  0  0  0  0  0
   -1.6343    1.6111   -0.6950 C   0  0  0  0  0  0  0  0  0  0  0  0
   -2.9683    1.4620   -0.0828 C   0  0  1  0  0  0  0  0  0  0  0  0
   -3.9253    2.3154   -0.7436 N   0  0  0  0  0  0  0  0  0  0  0  0
   -5.2953    2.1157   -0.3265 C   0  0  0  0  0  0  0  0  0  0  0  0
   -5.7362    0.6928   -0.3673 C   0  0  0  0  0  0  0  0  0  0  0  0
   -4.8571   -0.0113    0.6157 C   0  0  0  0  0  0  0  0  0  0  0  0
   -3.4099    0.0611    0.2125 C   0  0  0  0  0  0  0  0  0  0  0  0
   -5.2809   -1.3889    0.9646 C   0  0  0  0  0  0  0  0  0  0  0  0
   -5.0468   -2.3963   -0.1372 C   0  0  0  0  0  0  0  0  0  0  0  0
   -4.0650   -1.9769   -1.1520 C   0  0  0  0  0  0  0  0  0  0  0  0
   -2.9870   -1.0162   -0.7301 C   0  0  2  0  0  0  0  0  0  0  0  0
   -1.7922   -1.6179   -0.4121 O   0  0  0  0  0  0  0  0  0  0  0  0
   -1.6443   -2.2790    0.7498 C   0  0  0  0  0  0  0  0  0  0  0  0
   -0.5245   -1.6968    1.6350 C   0  0  0  0  0  0  0  0  0  0  0  0
    0.7018   -1.4925    0.7962 C   0  0  0  0  0  0  0  0  0  0  0  0
    1.2104   -2.7467    0.1400 C   0  0  0  0  0  0  0  0  0  0  0  0
    0.0273   -3.3981   -0.5947 C   0  0  0  0  0  0  0  0  0  0  0  0
   -1.0350   -3.6605    0.4213 C   0  0  0  0  0  0  0  0  0  0  0  0
    2.2435   -2.4102   -0.9000 C   0  0  0  0  0  0  0  0  0  0  0  0
    6.0575    2.6737   -0.8950 O   0  0  0  0  0  0  0  0  0  0  0  0
    6.2701    3.9374   -0.3496 C   0  0  0  0  0  0  0  0  0  0  0  0
    1.3689    4.9185   -0.1895 O   0  0  0  0  0  0  0  0  0  0  0  0
   -4.7899   -3.6476    0.4189 O   0  0  0  0  0  0  0  0  0  0  0  0
   -5.8049   -4.5417    0.2015 C   0  0  0  0  0  0  0  0  0  0  0  0
   -3.4053   -3.1421   -1.6217 O   0  0  0  0  0  0  0  0  0  0  0  0
    3.9149   -3.9506    1.0616 C   0  0  0  0  0  0  0  0  0  0  0  0
   -3.6993    3.7270   -0.3313 C   0  0  0  0  0  0  0  0  0  0  0  0
   -3.8778    2.3630   -2.1616 C   0  0  0  0  0  0  0  0  0  0  0  0
    4.9930   -0.8443    2.3870 H   0  0  0  0  0  0  0  0  0  0  0  0
    5.8018   -2.4171    2.4809 H   0  0  0  0  0  0  0  0  0  0  0  0
    6.3846   -2.4271    0.1465 H   0  0  0  0  0  0  0  0  0  0  0  0
    7.0856   -1.0442    1.0171 H   0  0  0  0  0  0  0  0  0  0  0  0
    6.1375   -0.4612   -1.2350 H   0  0  0  0  0  0  0  0  0  0  0  0
    4.1138   -1.2594   -1.8183 H   0  0  0  0  0  0  0  0  0  0  0  0
    4.5094   -3.0299   -0.4452 H   0  0  0  0  0  0  0  0  0  0  0  0
    6.5092    1.1891    0.3579 H   0  0  0  0  0  0  0  0  0  0  0  0
    4.9927    0.9233    1.2488 H   0  0  0  0  0  0  0  0  0  0  0  0
    4.7363    2.8145   -0.0740 H   0  0  0  0  0  0  0  0  0  0  0  0
    3.2434    1.4105   -2.1482 H   0  0  0  0  0  0  0  0  0  0  0  0
    2.1057   -0.2317   -0.9060 H   0  0  0  0  0  0  0  0  0  0  0  0
    3.0244    0.1598    0.6435 H   0  0  0  0  0  0  0  0  0  0  0  0
    2.1692    3.5127   -1.9290 H   0  0  0  0  0  0  0  0  0  0  0  0
    2.1487    4.7644    0.1715 H   0  0  0  0  0  0  0  0  0  0  0  0
    1.7343    2.5889    1.4144 H   0  0  0  0  0  0  0  0  0  0  0  0
    0.7599    4.0156    1.9951 H   0  0  0  0  0  0  0  0  0  0  0  0
   -1.1583    3.3836    1.0181 H   0  0  0  0  0  0  0  0  0  0  0  0
   -0.4801    1.8161    1.7035 H   0  0  0  0  0  0  0  0  0  0  0  0
    0.1164    0.8887   -0.2362 H   0  0  0  0  0  0  0  0  0  0  0  0
    0.4105    1.8038   -2.3823 H   0  0  0  0  0  0  0  0  0  0  0  0
   -0.2362    3.3713   -1.8763 H   0  0  0  0  0  0  0  0  0  0  0  0
   -1.7519    0.4273   -1.3906 H   0  0  0  0  0  0  0  0  0  0  0  0
   -2.0577    2.1205   -1.7590 H   0  0  0  0  0  0  0  0  0  0  0  0
   -2.3919    1.5915    1.0653 H   0  0  0  0  0  0  0  0  0  0  0  0
   -5.7754    1.8579    0.2306 H   0  0  0  0  0  0  0  0  0  0  0  0
   -5.6193    3.1122   -1.0015 H   0  0  0  0  0  0  0  0  0  0  0  0
   -4.2490    1.3848   -2.3929 H   0  0  0  0  0  0  0  0  0  0  0  0
   -6.0298    1.1392   -2.1224 H   0  0  0  0  0  0  0  0  0  0  0  0
   -5.7852   -0.2124   -0.3429 H   0  0  0  0  0  0  0  0  0  0  0  0
   -4.2848    0.3808    1.1856 H   0  0  0  0  0  0  0  0  0  0  0  0
   -3.6401   -1.2992   -2.2360 H   0  0  0  0  0  0  0  0  0  0  0  0
   -5.4035   -1.3487   -2.3392 H   0  0  0  0  0  0  0  0  0  0  0  0
   -4.0335   -3.2689   -1.0702 H   0  0  0  0  0  0  0  0  0  0  0  0
   -5.1289   -1.4565    1.0912 H   0  0  0  0  0  0  0  0  0  0  0  0
   -2.5516   -1.3880   -0.5212 H   0  0  0  0  0  0  0  0  0  0  0  0
   -2.0276   -2.7913    2.5111 H   0  0  0  0  0  0  0  0  0  0  0  0
   -0.2070   -1.2458    3.1793 H   0  0  0  0  0  0  0  0  0  0  0  0
    0.1339   -2.9935    3.0606 H   0  0  0  0  0  0  0  0  0  0  0  0
    0.8076   -0.9500    0.9585 H   0  0  0  0  0  0  0  0  0  0  0  0
    1.9279   -1.6426    2.2433 H   0  0  0  0  0  0  0  0  0  0  0  0
    1.4162   -3.8931    1.2132 H   0  0  0  0  0  0  0  0  0  0  0  0
   -0.0423   -2.2669   -0.8972 H   0  0  0  0  0  0  0  0  0  0  0  0
    0.1974   -4.0194   -0.8011 H   0  0  0  0  0  0  0  0  0  0  0  0
   -0.9175   -4.2783    1.2480 H   0  0  0  0  0  0  0  0  0  0  0  0
   -1.9459   -3.6259   -0.0051 H   0  0  0  0  0  0  0  0  0  0  0  0
    1.9412   -2.2026   -1.2661 H   0  0  0  0  0  0  0  0  0  0  0  0
    2.4770   -3.8097   -0.8788 H   0  0  0  0  0  0  0  0  0  0  0  0
    5.2406    4.1325   -1.8175 H   0  0  0  0  0  0  0  0  0  0  0  0
    6.8292    3.5245   -2.5396 H   0  0  0  0  0  0  0  0  0  0  0  0
    6.5356    3.5412   -0.7640 H   0  0  0  0  0  0  0  0  0  0  0  0
    0.5241    5.2274   -1.4196 H   0  0  0  0  0  0  0  0  0  0  0  0
   -5.5472   -4.8869   -0.4003 H   0  0  0  0  0  0  0  0  0  0  0  0
   -5.8675   -4.3053   -2.0828 H   0  0  0  0  0  0  0  0  0  0  0  0
   -7.2191   -4.4827   -0.8639 H   0  0  0  0  0  0  0  0  0  0  0  0
   -4.4238   -2.8705    2.4594 H   0  0  0  0  0  0  0  0  0  0  0  0
    5.0038   -4.0318    2.1797 H   0  0  0  0  0  0  0  0  0  0  0  0
    3.7497   -4.4129    0.9814 H   0  0  0  0  0  0  0  0  0  0  0  0
    3.3148   -3.8668    2.6961 H   0  0  0  0  0  0  0  0  0  0  0  0
   -5.0769    3.5637    1.3308 H   0  0  0  0  0  0  0  0  0  0  0  0
   -3.7744    2.5330    2.0720 H   0  0  0  0  0  0  0  0  0  0  0  0
   -3.4107    4.1415    1.3136 H   0  0  0  0  0  0  0  0  0  0  0  0
   -4.0207    4.4717   -0.7880 H   0  0  0  0  0  0  0  0  0  0  0  0
   -3.6745    3.3125   -2.0652 H   0  0  0  0  0  0  0  0  0  0  0  0
   -2.3514    3.9498   -0.9310 H   0  0  0  0  0  0  0  0  0  0  0  0
    5.4745   -3.4606    1.6721 H   0  0  0  0  0  0  0  0  0  0  0  0
    4.1368   -2.4006    2.1926 H   0  0  0  0  0  0  0  0  0  0  0  0
    6.3654   -1.6079    0.2412 H   0  0  0  0  0  0  0  0  0  0  0  0
    6.2214   -1.1040    1.9488 H   0  0  0  0  0  0  0  0  0  0  0  0
    4.0293   -0.1941    1.6190 H   0  0  0  0  0  0  0  0  0  0  0  0
    2.8514   -0.2059   -0.3397 H   0  0  0  0  0  0  0  0  0  0  0  0
    3.9730   -2.3109   -1.7396 H   0  0  0  0  0  0  0  0  0  0  0  0
    6.4923    0.6743    0.0274 H   0  0  0  0  0  0  0  0  0  0  0  0
    5.7639    1.3027    1.5063 H   0  0  0  0  0  0  0  0  0  0  0  0
    4.2698    2.6227    0.4855 H   0  0  0  0  0  0  0  0  0  0  0  0
    4.3808    2.0516   -2.3755 H   0  0  0  0  0  0  0  0  0  0  0  0
    5.5117    0.0368   -1.6604 H   0  0  0  0  0  0  0  0  0  0  0  0
    3.9736   -0.2583   -2.6033 H   0  0  0  0  0  0  0  0  0  0  0  0
    1.9338    1.7948    0.5083 H   0  0  0  0  0  0  0  0  0  0  0  0
    2.6194    4.1410   -0.3631 H   0  0  0  0  0  0  0  0  0  0  0  0
    1.1918    3.4080    1.5766 H   0  0  0  0  0  0  0  0  0  0  0  0
    0.6570    4.9640    0.7733 H   0  0  0  0  0  0  0  0  0  0  0  0
   -1.0739    3.9201   -0.3196 H   0  0  0  0  0  0  0  0  0  0  0  0
   -1.0964    3.3599    1.4593 H   0  0  0  0  0  0  0  0  0  0  0  0
   -0.4235    1.2573    1.0088 H   0  0  0  0  0  0  0  0  0  0  0  0
    0.1630    2.2405   -1.8553 H   0  0  0  0  0  0  0  0  0  0  0  0
    0.4786    0.5495   -1.2398 H   0  0  0  0  0  0  0  0  0  0  0  0
   -1.6804    0.5440   -1.1636 H   0  0  0  0  0  0  0  0  0  0  0  0
   -1.9864    2.2279   -1.3761 H   0  0  0  0  0  0  0  0  0  0  0  0
   -2.6535    1.7503    1.3133 H   0  0  0  0  0  0  0  0  0  0  0  0
   -5.7763    2.1499    1.1697 H   0  0  0  0  0  0  0  0  0  0  0  0
   -6.0194    2.8603   -0.4321 H   0  0  0  0  0  0  0  0  0  0  0  0
   -4.8679    0.6697   -1.3665 H   0  0  0  0  0  0  0  0  0  0  0  0
   -6.6286    0.5434   -0.8310 H   0  0  0  0  0  0  0  0  0  0  0  0
   -5.6008    0.2566    1.5791 H   0  0  0  0  0  0  0  0  0  0  0  0
   -3.4536   -0.2079    1.8054 H   0  0  0  0  0  0  0  0  0  0  0  0
   -6.7310   -1.2500   -0.2130 H   0  0  0  0  0  0  0  0  0  0  0  0
   -6.1038   -1.9319    1.2529 H   0  0  0  0  0  0  0  0  0  0  0  0
   -4.8074   -1.7662   -1.5343 H   0  0  0  0  0  0  0  0  0  0  0  0
   -3.0766   -3.1743   -0.4300 H   0  0  0  0  0  0  0  0  0  0  0  0
   -2.8829   -0.9930   -0.9990 H   0  0  0  0  0  0  0  0  0  0  0  0
   -2.0092   -2.2979    2.4505 H   0  0  0  0  0  0  0  0  0  0  0  0
   -0.2304   -0.7412    2.7256 H   0  0  0  0  0  0  0  0  0  0  0  0
    0.1796   -2.4652    3.0583 H   0  0  0  0  0  0  0  0  0  0  0  0
    0.8510   -0.6738    0.7291 H   0  0  0  0  0  0  0  0  0  0  0  0
    1.9785   -1.3908    2.0020 H   0  0  0  0  0  0  0  0  0  0  0  0
    1.8649   -3.5482    1.0451 H   0  0  0  0  0  0  0  0  0  0  0  0
   -0.3769   -2.7586   -0.8207 H   0  0  0  0  0  0  0  0  0  0  0  0
    0.3286   -4.3717   -0.4731 H   0  0  0  0  0  0  0  0  0  0  0  0
   -0.2019   -4.0550    1.9430 H   0  0  0  0  0  0  0  0  0  0  0  0
   -1.6364   -4.3485    0.9950 H   0  0  0  0  0  0  0  0  0  0  0  0
    1.6025   -1.5656   -1.2884 H   0  0  0  0  0  0  0  0  0  0  0  0
    1.9787   -3.2893   -1.5231 H   0  0  0  0  0  0  0  0  0  0  0  0
    4.9424    4.5722   -0.2550 H   0  0  0  0  0  0  0  0  0  0  0  0
    6.7228    4.6666   -0.4043 H   0  0  0  0  0  0  0  0  0  0  0  0
    5.9687    3.8812    1.0174 H   0  0  0  0  0  0  0  0  0  0  0  0
    1.7049    4.2323   -2.3933 H   0  0  0  0  0  0  0  0  0  0  0  0
   -6.5609   -3.0483   -2.5836 H   0  0  0  0  0  0  0  0  0  0  0  0
   -6.4636   -4.7470   -2.0888 H   0  0  0  0  0  0  0  0  0  0  0  0
   -4.9821   -4.0068   -2.7183 H   0  0  0  0  0  0  0  0  0  0  0  0
   -4.3417   -2.4194    2.0736 H   0  0  0  0  0  0  0  0  0  0  0  0
    5.6759   -3.3708   -1.1973 H   0  0  0  0  0  0  0  0  0  0  0  0
    4.4376   -4.6472   -1.2260 H   0  0  0  0  0  0  0  0  0  0  0  0
    5.6623   -4.5567    0.1483 H   0  0  0  0  0  0  0  0  0  0  0  0
   -4.8636    4.0850    1.1500 H   0  0  0  0  0  0  0  0  0  0  0  0
   -3.4527    3.2585    1.8202 H   0  0  0  0  0  0  0  0  0  0  0  0
   -3.2806    4.4078    0.4612 H   0  0  0  0  0  0  0  0  0  0  0  0
   -4.8623    3.5445   -1.5581 H   0  0  0  0  0  0  0  0  0  0  0  0
   -3.8475    2.2542   -2.1246 H   0  0  0  0  0  0  0  0  0  0  0  0
   -3.1807    3.8430   -1.3918 H   0  0  0  0  0  0  0  0  0  0  0  0
    5.5750   -2.8455    1.9014 H   0  0  0  0  0  0  0  0  0  0  0  0
    4.7025   -1.3193    1.9560 H   0  0  0  0  0  0  0  0  0  0  0  0
    6.4110   -2.4431   -0.3478 H   0  0  0  0  0  0  0  0  0  0  0  0
    6.9450   -1.1783    0.8753 H   0  0  0  0  0  0  0  0  0  0  0  0
    6.2437   -0.2697   -1.3551 H   0  0  0  0  0  0  0  0  0  0  0  0
    4.2190   -0.7606   -2.2097 H   0  0  0  0  0  0  0  0  0  0  0  0
    4.3307   -2.8776   -1.4479 H   0  0  0  0  0  0  0  0  0  0  0  0
    6.5902    1.0055    0.4911 H   0  0  0  0  0  0  0  0  0  0  0  0
    5.1112    0.5773    1.3614 H   0  0  0  0  0  0  0  0  0  0  0  0
    4.3945    2.5341    0.5132 H   0  0  0  0  0  0  0  0  0  0  0  0
    4.2507    1.3582   -2.2344 H   0  0  0  0  0  0  0  0  0  0  0  0
    2.2132    0.1962   -1.1616 H   0  0  0  0  0  0  0  0  0  0  0  0
    3.2040    0.3113    0.4137 H   0  0  0  0  0  0  0  0  0  0  0  0
    1.9010    1.8608    0.3492 H   0  0  0  0  0  0  0  0  0  0  0  0
    2.6120    4.2767    0.6014 H   0  0  0  0  0  0  0  0  0  0  0  0
    1.0811    2.9350    1.9326 H   0  0  0  0  0  0  0  0  0  0  0  0
    0.5950    4.6686    1.8575 H   0  0  0  0  0  0  0  0  0  0  0  0
   -0.9785    4.1293    0.0698 H   0  0  0  0  0  0  0  0  0  0  0  0
   -1.2997    3.2910    1.6909 H   0  0  0  0  0  0  0  0  0  0  0  0
   -0.0006    1.3257    0.7129 H   0  0  0  0  0  0  0  0  0  0  0  0
    0.0932    3.2893   -1.5537 H   0  0  0  0  0  0  0  0  0  0  0  0
    0.3987    1.5742   -1.8927 H   0  0  0  0  0  0  0  0  0  0  0  0
   -1.3440    0.3334   -0.7958 H   0  0  0  0  0  0  0  0  0  0  0  0
   -1.8480    1.7469   -1.6086 H   0  0  0  0  0  0  0  0  0  0  0  0
   -2.6497    1.8455    1.2066 H   0  0  0  0  0  0  0  0  0  0  0  0
   -5.9107    2.2540    0.3240 H   0  0  0  0  0  0  0  0  0  0  0  0
   -5.7274    2.5061   -1.4081 H   0  0  0  0  0  0  0  0  0  0  0  0
   -4.6443    0.1263   -1.4859 H   0  0  0  0  0  0  0  0  0  0  0  0
   -6.4338    0.2880   -1.0411 H   0  0  0  0  0  0  0  0  0  0  0  0
   -5.4393    0.7064    1.4309 H   0  0  0  0  0  0  0  0  0  0  0  0
   -3.3777   -0.1146    1.8334 H   0  0  0  0  0  0  0  0  0  0  0  0
   -6.8083   -1.0620    0.3802 H   0  0  0  0  0  0  0  0  0  0  0  0
   -5.9022   -1.6549    1.7650 H   0  0  0  0  0  0  0  0  0  0  0  0
   -5.2542   -1.7847   -1.2321 H   0  0  0  0  0  0  0  0  0  0  0  0
   -3.3171   -3.1433   -0.5158 H   0  0  0  0  0  0  0  0  0  0  0  0
   -2.8348   -0.9982   -0.9406 H   0  0  0  0  0  0  0  0  0  0  0  0
   -1.7895   -2.6203    2.3629 H   0  0  0  0  0  0  0  0  0  0  0  0
   -0.1313   -0.9826    2.5278 H   0  0  0  0  0  0  0  0  0  0  0  0
    0.4159   -2.6725    2.8221 H   0  0  0  0  0  0  0  0  0  0  0  0
    0.7662   -0.8673    0.3749 H   0  0  0  0  0  0  0  0  0  0  0  0
    2.0885   -1.4654    1.5450 H   0  0  0  0  0  0  0  0  0  0  0  0
    1.8522   -3.6861    0.7593 H   0  0  0  0  0  0  0  0  0  0  0  0
   -0.3289   -2.7261   -1.1497 H   0  0  0  0  0  0  0  0  0  0  0  0
    0.3458   -4.3798   -0.9040 H   0  0  0  0  0  0  0  0  0  0  0  0
   -0.1397   -4.2694    1.4886 H   0  0  0  0  0  0  0  0  0  0  0  0
   -1.6006   -4.4045    0.5331 H   0  0  0  0  0  0  0  0  0  0  0  0
    1.7253   -1.7270   -1.5993 H   0  0  0  0  0  0  0  0  0  0  0  0
    2.1796   -3.4228   -1.7522 H   0  0  0  0  0  0  0  0  0  0  0  0
    4.8023    4.4589   -0.3720 H   0  0  0  0  0  0  0  0  0  0  0  0
    6.6059    4.7009   -0.6545 H   0  0  0  0  0  0  0  0  0  0  0  0
    5.9581    3.8740    0.8458 H   0  0  0  0  0  0  0  0  0  0  0  0
    1.6688    4.7419   -1.6214 H   0  0  0  0  0  0  0  0  0  0  0  0
   -6.8385   -4.7774   -1.3035 H   0  0  0  0  0  0  0  0  0  0  0  0
   -5.5978   -3.9062   -2.2417 H   0  0  0  0  0  0  0  0  0  0  0  0
   -7.1688   -3.0865   -1.7435 H   0  0  0  0  0  0  0  0  0  0  0  0
   -4.1732   -2.6224    2.1903 H   0  0  0  0  0  0  0  0  0  0  0  0
    5.3718   -4.2000    0.2805 H   0  0  0  0  0  0  0  0  0  0  0  0
    3.7680   -4.6305   -0.3325 H   0  0  0  0  0  0  0  0  0  0  0  0
    4.1382   -4.6119    1.4831 H   0  0  0  0  0  0  0  0  0  0  0  0
   -5.0291    3.9716    0.5941 H   0  0  0  0  0  0  0  0  0  0  0  0
   -3.6897    3.2226    1.6036 H   0  0  0  0  0  0  0  0  0  0  0  0
   -3.3410    4.3634    0.2881 H   0  0  0  0  0  0  0  0  0  0  0  0
   -4.3206    3.7277   -1.7495 H   0  0  0  0  0  0  0  0  0  0  0  0
   -3.6152    2.2787   -2.4207 H   0  0  0  0  0  0  0  0  0  0  0  0
   -2.6120    3.5917   -1.5409 H   0  0  0  0  0  0  0  0  0  0  0  0
    5.4885   -2.7765    2.1401 H   0  0  0  0  0  0  0  0  0  0  0  0
    4.6857   -1.2052    2.1095 H   0  0  0  0  0  0  0  0  0  0  0  0
    6.4237   -2.4849   -0.0831 H   0  0  0  0  0  0  0  0  0  0  0  0
    6.8851   -1.1825    1.0404 H   0  0  0  0  0  0  0  0  0  0  0  0
    6.1665   -0.4229   -1.2802 H   0  0  0  0  0  0  0  0  0  0  0  0
    4.0823   -0.8315   -2.0335 H   0  0  0  0  0  0  0  0  0  0  0  0
    4.3076   -2.9326   -1.2004 H   0  0  0  0  0  0  0  0  0  0  0  0
    6.6007    0.8962    0.5797 H   0  0  0  0  0  0  0  0  0  0  0  0
    4.9184    0.6293    1.2612 H   0  0  0  0  0  0  0  0  0  0  0  0
    5.5438    1.7614   -1.5103 H   0  0  0  0  0  0  0  0  0  0  0  0
    3.3029    1.7660   -1.8876 H   0  0  0  0  0  0  0  0  0  0  0  0
    2.1076    0.0866   -0.9260 H   0  0  0  0  0  0  0  0  0  0  0  0
    2.9749    0.1766    0.6552 H   0  0  0  0  0  0  0  0  0  0  0  0
    2.1780    3.5270   -1.6378 H   0  0  0  0  0  0  0  0  0  0  0  0
    2.3285    4.8770    0.4046 H   0  0  0  0  0  0  0  0  0  0  0  0
    1.3881    2.7428    1.6797 H   0  0  0  0  0  0  0  0  0  0  0  0
    0.7758    4.3976    2.2104 H   0  0  0  0  0  0  0  0  0  0  0  0
   -0.9649    4.0630    0.4381 H   0  0  0  0  0  0  0  0  0  0  0  0
   -1.0725    3.0139    1.9627 H   0  0  0  0  0  0  0  0  0  0  0  0
    0.2520    1.3065    0.6830 H   0  0  0  0  0  0  0  0  0  0  0  0
    0.5446    1.6255   -1.8274 H   0  0  0  0  0  0  0  0  0  0  0  0
   -0.1150    3.2318   -1.6088 H   0  0  0  0  0  0  0  0  0  0  0  0
   -1.1885    0.3082   -0.7139 H   0  0  0  0  0  0  0  0  0  0  0  0
   -1.7791    1.7160   -1.5199 H   0  0  0  0  0  0  0  0  0  0  0  0
   -2.5227    1.7868    1.2572 H   0  0  0  0  0  0  0  0  0  0  0  0
   -5.8078    2.2844    0.2966 H   0  0  0  0  0  0  0  0  0  0  0  0
   -5.5467    2.5970   -1.4074 H   0  0  0  0  0  0  0  0  0  0  0  0
   -4.4320    0.3166   -1.5298 H   0  0  0  0  0  0  0  0  0  0  0  0
   -6.2539    0.3402   -1.1930 H   0  0  0  0  0  0  0  0  0  0  0  0
   -5.3923    0.7074    1.3687 H   0  0  0  0  0  0  0  0  0  0  0  0
   -3.3554   -0.1444    1.8090 H   0  0  0  0  0  0  0  0  0  0  0  0
   -6.7539   -1.0300    0.3057 H   0  0  0  0  0  0  0  0  0  0  0  0
   -5.7842   -1.7092    1.6074 H   0  0  0  0  0  0  0  0  0  0  0  0
   -5.1189   -1.5761   -1.3899 H   0  0  0  0  0  0  0  0  0  0  0  0
   -3.2912   -3.1175   -0.6478 H   0  0  0  0  0  0  0  0  0  0  0  0
   -2.6889   -0.9736   -0.9599 H   0  0  0  0  0  0  0  0  0  0  0  0
   -1.9550   -2.7576    2.3371 H   0  0  0  0  0  0  0  0  0  0  0  0
   -0.2448   -1.2059    2.7091 H   0  0  0  0  0  0  0  0  0  0  0  0
    0.2427   -2.9688    2.9131 H   0  0  0  0  0  0  0  0  0  0  0  0
    0.6965   -1.0430    0.5819 H   0  0  0  0  0  0  0  0  0  0  0  0
    1.9867   -1.6765    1.7691 H   0  0  0  0  0  0  0  0  0  0  0  0
    1.7147   -3.8851    0.8257 H   0  0  0  0  0  0  0  0  0  0  0  0
   -0.3758   -2.6621   -1.0118 H   0  0  0  0  0  0  0  0  0  0  0  0
    0.2596   -4.3737   -0.9554 H   0  0  0  0  0  0  0  0  0  0  0  0
   -0.2609   -4.4296    1.4796 H   0  0  0  0  0  0  0  0  0  0  0  0
   -1.7088   -4.4849    0.4975 H   0  0  0  0  0  0  0  0  0  0  0  0
    1.6789   -1.8210   -1.4529 H   0  0  0  0  0  0  0  0  0  0  0  0
    2.1773   -3.4962   -1.6096 H   0  0  0  0  0  0  0  0  0  0  0  0
    7.0374    3.4103   -0.9429 H   0  0  0  0  0  0  0  0  0  0  0  0
    6.1894    4.8543   -0.2607 H   0  0  0  0  0  0  0  0  0  0  0  0
    5.6122    4.1801   -1.7943 H   0  0  0  0  0  0  0  0  0  0  0  0
    0.6247    5.2978   -1.3541 H   0  0  0  0  0  0  0  0  0  0  0  0
   -7.0132   -2.7310   -2.1644 H   0  0  0  0  0  0  0  0  0  0  0  0
   -6.8890   -4.4707   -1.8084 H   0  0  0  0  0  0  0  0  0  0  0  0
   -5.5085   -3.6876   -2.6150 H   0  0  0  0  0  0  0  0  0  0  0  0
   -4.8082   -3.4814    1.3710 H   0  0  0  0  0  0  0  0  0  0  0  0
    5.2716   -4.2552    0.7967 H   0  0  0  0  0  0  0  0  0  0  0  0
    3.7960   -4.6291   -0.1069 H   0  0  0  0  0  0  0  0  0  0  0  0
    3.8145   -4.5940    1.7452 H   0  0  0  0  0  0  0  0  0  0  0  0
   -4.9367    3.8363    0.8743 H   0  0  0  0  0  0  0  0  0  0  0  0
   -3.4446    3.1288    1.6836 H   0  0  0  0  0  0  0  0  0  0  0  0
   -3.3254    4.3994    0.4422 H   0  0  0  0  0  0  0  0  0  0  0  0
   -4.1211    3.8614   -1.5996 H   0  0  0  0  0  0  0  0  0  0  0  0
   -3.4697    2.4279   -2.3522 H   0  0  0  0  0  0  0  0  0  0  0  0
   -2.4171    3.6399   -1.3928 H   0  0  0  0  0  0  0  0  0  0  0  0
    5.3992   -2.6826    2.3254 H   0  0  0  0  0  0  0  0  0  0  0  0
    4.6887   -1.0723    2.1669 H   0  0  0  0  0  0  0  0  0  0  0  0
    6.1265   -2.6600   -0.0381 H   0  0  0  0  0  0  0  0  0  0  0  0
    6.9453   -1.3910    1.0234 H   0  0  0  0  0  0  0  0  0  0  0  0
    6.2774   -0.6138   -1.2309 H   0  0  0  0  0  0  0  0  0  0  0  0
    4.1348   -0.7624   -1.9079 H   0  0  0  0  0  0  0  0  0  0  0  0
    4.2989   -2.8699   -0.9583 H   0  0  0  0  0  0  0  0  0  0  0  0
    6.9557    0.8605    0.3305 H   0  0  0  0  0  0  0  0  0  0  0  0
    5.6505    0.5903    1.4917 H   0  0  0  0  0  0  0  0  0  0  0  0
    4.8927    2.5722    0.7513 H   0  0  0  0  0  0  0  0  0  0  0  0
    4.1899    1.4174   -1.9293 H   0  0  0  0  0  0  0  0  0  0  0  0
    2.3188    0.3082   -0.7793 H   0  0  0  0  0  0  0  0  0  0  0  0
    3.3217    0.3349    0.7887 H   0  0  0  0  0  0  0  0  0  0  0  0
    1.9084    1.7888    0.6569 H   0  0  0  0  0  0  0  0  0  0  0  0
    2.6223    4.1133    1.2721 H   0  0  0  0  0  0  0  0  0  0  0  0
    0.8152    2.7157    2.2157 H   0  0  0  0  0  0  0  0  0  0  0  0
    0.5092    4.5395    2.2847 H   0  0  0  0  0  0  0  0  0  0  0  0
   -0.8225    4.2525    0.2199 H   0  0  0  0  0  0  0  0  0  0  0  0
   -1.4789    3.3220    1.6894 H   0  0  0  0  0  0  0  0  0  0  0  0
   -0.0903    1.3429    0.7828 H   0  0  0  0  0  0  0  0  0  0  0  0
    0.3754    3.4464   -1.3147 H   0  0  0  0  0  0  0  0  0  0  0  0
    0.6375    1.7389   -1.7094 H   0  0  0  0  0  0  0  0  0  0  0  0
   -1.2085    0.6540   -1.1255 H   0  0  0  0  0  0  0  0  0  0  0  0
   -1.7066    2.2706   -1.6121 H   0  0  0  0  0  0  0  0  0  0  0  0
   -2.8718    1.9666    0.9384 H   0  0  0  0  0  0  0  0  0  0  0  0
   -5.4591    2.4916    0.7162 H   0  0  0  0  0  0  0  0  0  0  0  0
   -5.9269    2.6893   -1.0348 H   0  0  0  0  0  0  0  0  0  0  0  0
   -5.7106    0.3505   -1.3926 H   0  0  0  0  0  0  0  0  0  0  0  0
   -6.7872    0.6621   -0.0102 H   0  0  0  0  0  0  0  0  0  0  0  0
   -4.9386    0.5927    1.5720 H   0  0  0  0  0  0  0  0  0  0  0  0
   -2.8908   -0.2412    1.1821 H   0  0  0  0  0  0  0  0  0  0  0  0
   -6.3567   -1.3591    1.2907 H   0  0  0  0  0  0  0  0  0  0  0  0
   -4.7217   -1.7253    1.8591 H   0  0  0  0  0  0  0  0  0  0  0  0
   -6.0650   -2.5124   -0.6208 H   0  0  0  0  0  0  0  0  0  0  0  0
   -4.6160   -1.6461   -2.0852 H   0  0  0  0  0  0  0  0  0  0  0  0
   -2.7481   -0.4999   -1.7143 H   0  0  0  0  0  0  0  0  0  0  0  0
   -2.5062   -2.4751    1.3714 H   0  0  0  0  0  0  0  0  0  0  0  0
   -0.7726   -0.7752    2.1311 H   0  0  0  0  0  0  0  0  0  0  0  0
   -0.3221   -2.4734    2.4095 H   0  0  0  0  0  0  0  0  0  0  0  0
    0.3669   -0.8352   -0.0504 H   0  0  0  0  0  0  0  0  0  0  0  0
    1.4877   -1.0654    1.4210 H   0  0  0  0  0  0  0  0  0  0  0  0
    1.5130   -3.4484    0.9089 H   0  0  0  0  0  0  0  0  0  0  0  0
   -0.3466   -2.6231   -1.3145 H   0  0  0  0  0  0  0  0  0  0  0  0
    0.3384   -4.2720   -1.1720 H   0  0  0  0  0  0  0  0  0  0  0  0
   -0.5053   -4.0778    1.3305 H   0  0  0  0  0  0  0  0  0  0  0  0
   -1.7742   -4.4043    0.1680 H   0  0  0  0  0  0  0  0  0  0  0  0
    1.8172   -1.5384   -1.4810 H   0  0  0  0  0  0  0  0  0  0  0  0
    2.1959   -3.2543   -1.6535 H   0  0  0  0  0  0  0  0  0  0  0  0
    5.2649    4.4486   -0.3038 H   0  0  0  0  0  0  0  0  0  0  0  0
    6.9321    4.5100   -0.9967 H   0  0  0  0  0  0  0  0  0  0  0  0
    6.6520    3.8806    0.7037 H   0  0  0  0  0  0  0  0  0  0  0  0
    1.8604    4.8579   -1.0506 H   0  0  0  0  0  0  0  0  0  0  0  0
   -5.5879   -5.5129    0.6419 H   0  0  0  0  0  0  0  0  0  0  0  0
   -5.9740   -4.6910   -0.8834 H   0  0  0  0  0  0  0  0  0  0  0  0
   -6.7417   -4.0889    0.6139 H   0  0  0  0  0  0  0  0  0  0  0  0
   -3.7114   -3.9466   -1.1718 H   0  0  0  0  0  0  0  0  0  0  0  0
    3.4568   -4.3506    1.9880 H   0  0  0  0  0  0  0  0  0  0  0  0
    3.5552   -4.4437    0.1399 H   0  0  0  0  0  0  0  0  0  0  0  0
    5.0040   -4.2278    1.1344 H   0  0  0  0  0  0  0  0  0  0  0  0
   -4.6233    4.3193   -0.6121 H   0  0  0  0  0  0  0  0  0  0  0  0
   -3.6106    3.8315    0.7462 H   0  0  0  0  0  0  0  0  0  0  0  0
   -2.9015    4.1742   -0.9451 H   0  0  0  0  0  0  0  0  0  0  0  0
   -4.9059    2.6191   -2.5615 H   0  0  0  0  0  0  0  0  0  0  0  0
   -3.5651    1.4892   -2.7087 H   0  0  0  0  0  0  0  0  0  0  0  0
   -3.2462    3.2172   -2.5529 H   0  0  0  0  0  0  0  0  0  0  0  0
  1  2  1  0
  2  3  1  0
  3  4  1  0
  4  5  1  0
  1  6  1  0
  5  6  1  0
  4  7  1  0
  7  8  1  0
  8  9  1  0
  5 10  1  0
  9 10  1  0
  9 11  1  0
 11 12  1  0
 12 13  1  0
 13 14  1  0
 14 15  1  0
 15 16  1  0
 12 17  1  0
 16 17  1  0
 16 18  1  0
 18 19  1  0
 19 20  1  0
 20 21  1  0
 21 22  1  0
 22 23  1  0
 19 24  1  0
 23 24  1  0
 23 25  1  0
 25 26  1  0
 26 27  1  0
 24 28  1  0
 27 28  1  0
 28 29  1  0
 29 30  1  0
 30 31  1  0
 31 32  1  0
 32 33  1  0
 33 34  1  0
 30 35  1  0
 34 35  1  0
  6 36  1  0
 33 36  1  0
  8 37  1  0
 37 38  1  0
 13 39  1  0
 26 40  1  0
 40 41  1  0
 27 42  1  0
  1 43  1  0
 20 44  1  0
 20 45  1  0
 46 47  1  0
 47 48  1  0
 48 49  1  0
 49 50  1  0
 46 51  1  0
 50 51  1  0
 49 52  1  0
 52 53  1  0
 53 54  1  0
 50 55  1  0
 54 55  1  0
 54 56  1  0
 56 57  1  0
 57 58  1  0
 58 59  1  0
 59 60  1  0
 60 61  1  0
 57 62  1  0
 61 62  1  0
 61 63  1  0
 63 64  1  0
 64 65  1  0
 65 66  1  0
 66 67  1  0
 67 68  1  0
 64 69  1  0
 68 69  1  0
 68 70  1  0
 70 71  1  0
 71 72  1  0
 69 73  1  0
 72 73  1  0
 73 74  1  0
 74 75  1  0
 75 76  1  0
 76 77  1  0
 77 78  1  0
 78 79  1  0
 75 80  1  0
 79 80  1  0
 51 81  1  0
 78 81  1  0
 53 82  1  0
 82 83  1  0
 58 84  1  0
 71 85  1  0
 85 86  1  0
 72 87  1  0
 46 88  1  0
 65 89  1  0
 65 90  1  0
 91 92  1  0
 92 93  1  0
 93 94  1  0
 94 95  1  0
 91 96  1  0
 95 96  1  0
 94 97  1  0
 97 98  1  0
 98 99  1  0
 95100  1  0
 99100  1  0
 99101  1  0
101102  1  0
102103  1  0
103104  1  0
104105  1  0
105106  1  0
102107  1  0
106107  1  0
106108  1  0
108109  1  0
109110  1  0
110111  1  0
111112  1  0
112113  1  0
109114  1  0
113114  1  0
113115  1  0
115116  1  0
116117  1  0
114118  1  0
117118  1  0
118119  1  0
119120  1  0
120121  1  0
121122  1  0
122123  1  0
123124  1  0
120125  1  0
124125  1  0
 96126  1  0
123126  1  0
 98127  1  0
127128  1  0
103129  1  0
116130  1  0
130131  1  0
117132  1  0
 91133  1  0
110134  1  0
110135  1  0
136137  1  0
137138  1  0
138139  1  0
139140  1  0
136141  1  0
140141  1  0
139142  1  0
142143  1  0
143144  1  0
140145  1  0
144145  1  0
144146  1  0
146147  1  0
147148  1  0
148149  1  0
149150  1  0
150151  1  0
147152  1  0
151152  1  0
151153  1  0
153154  1  0
154155  1  0
155156  1  0
156157  1  0
157158  1  0
154159  1  0
158159  1  0
158160  1  0
160161  1  0
161162  1  0
159163  1  0
162163  1  0
163164  1  0
164165  1  0
165166  1  0
166167  1  0
167168  1  0
168169  1  0
165170  1  0
169170  1  0
141171  1  0
168171  1  0
143172  1  0
172173  1  0
148174  1  0
161175  1  0
175176  1  0
162177  1  0
136178  1  0
155179  1  0
155180  1  0
181182  1  0
182183  1  0
183184  1  0
184185  1  0
181186  1  0
185186  1  0
184187  1  0
187188  1  0
188189  1  0
185190  1  0
189190  1  0
189191  1  0
191192  1  0
192193  1  0
193194  1  0
194195  1  0
195196  1  0
192197  1  0
196197  1  0
196198  1  0
198199  1  0
199200  1  0
200201  1  0
201202  1  0
202203  1  0
199204  1  0
203204  1  0
203205  1  0
205206  1  0
206207  1  0
204208  1  0
207208  1  0
208209  1  0
209210  1  0
210211  1  0
211212  1  0
212213  1  0
213214  1  0
210215  1  0
214215  1  0
186216  1  0
213216  1  0
188217  1  0
217218  1  0
193219  1  0
206220  1  0
220221  1  0
207222  1  0
181223  1  0
200224  1  0
200225  1  0
  2226  1  0
  2227  1  0
  3228  1  0
  3229  1  0
  4230  1  0
  5231  1  0
  6232  1  6
  7233  1  0
  7234  1  0
  8235  1  0
  9236  1  6
 10237  1  0
 10238  1  0
 12239  1  6
 13240  1  0
 14241  1  0
 14242  1  0
 15243  1  0
 15244  1  0
 16245  1  1
 17246  1  0
 17247  1  0
 18248  1  0
 18249  1  0
 19250  1  1
 21251  1  0
 21252  1  0
 22253  1  0
 22254  1  0
 23255  1  0
 24256  1  1
 25257  1  0
 25258  1  0
 26259  1  0
 27260  1  1
 28261  1  6
 30262  1  0
 31263  1  0
 31264  1  0
 32265  1  0
 32266  1  0
 33267  1  0
 34268  1  0
 34269  1  0
 35270  1  0
 35271  1  0
 36272  1  0
 36273  1  0
 38274  1  0
 38275  1  0
 38276  1  0
 39277  1  0
 41278  1  0
 41279  1  0
 41280  1  0
 42281  1  0
 43282  1  0
 43283  1  0
 43284  1  0
 44285  1  0
 44286  1  0
 44287  1  0
 45288  1  0
 45289  1  0
 45290  1  0
 47291  1  0
 47292  1  0
 48293  1  0
 48294  1  0
 49295  1  0
 50296  1  1
 51297  1  6
 52298  1  0
 52299  1  0
 53300  1  0
 54301  1  0
 55302  1  0
 55303  1  0
 57304  1  0
 58305  1  0
 59306  1  0
 59307  1  0
 60308  1  0
 60309  1  0
 61310  1  0
 62311  1  0
 62312  1  0
 63313  1  0
 63314  1  0
 64315  1  1
 66316  1  0
 66317  1  0
 67318  1  0
 67319  1  0
 68320  1  0
 69321  1  1
 70322  1  0
 70323  1  0
 71324  1  0
 72325  1  0
 73326  1  6
 75327  1  0
 76328  1  0
 76329  1  0
 77330  1  0
 77331  1  0
 78332  1  0
 79333  1  0
 79334  1  0
 80335  1  0
 80336  1  0
 81337  1  0
 81338  1  0
 83339  1  0
 83340  1  0
 83341  1  0
 84342  1  0
 86343  1  0
 86344  1  0
 86345  1  0
 87346  1  0
 88347  1  0
 88348  1  0
 88349  1  0
 89350  1  0
 89351  1  0
 89352  1  0
 90353  1  0
 90354  1  0
 90355  1  0
 92356  1  0
 92357  1  0
 93358  1  0
 93359  1  0
 94360  1  0
 95361  1  0
 96362  1  6
 97363  1  0
 97364  1  0
 98365  1  0
 99366  1  0
100367  1  0
100368  1  0
102369  1  0
103370  1  0
104371  1  0
104372  1  0
105373  1  0
105374  1  0
106375  1  1
107376  1  0
107377  1  0
108378  1  0
108379  1  0
109380  1  1
111381  1  0
111382  1  0
112383  1  0
112384  1  0
113385  1  0
114386  1  1
115387  1  0
115388  1  0
116389  1  0
117390  1  0
118391  1  6
120392  1  0
121393  1  0
121394  1  0
122395  1  0
122396  1  0
123397  1  0
124398  1  0
124399  1  0
125400  1  0
125401  1  0
126402  1  0
126403  1  0
128404  1  0
128405  1  0
128406  1  0
129407  1  0
131408  1  0
131409  1  0
131410  1  0
132411  1  0
133412  1  0
133413  1  0
133414  1  0
134415  1  0
134416  1  0
134417  1  0
135418  1  0
135419  1  0
135420  1  0
137421  1  0
137422  1  0
138423  1  0
138424  1  0
139425  1  0
140426  1  0
141427  1  6
142428  1  0
142429  1  0
143430  1  6
144431  1  6
145432  1  0
145433  1  0
147434  1  6
148435  1  0
149436  1  0
149437  1  0
150438  1  0
150439  1  0
151440  1  0
152441  1  0
152442  1  0
153443  1  0
153444  1  0
154445  1  1
156446  1  0
156447  1  0
157448  1  0
157449  1  0
158450  1  0
159451  1  1
160452  1  0
160453  1  0
161454  1  0
162455  1  0
163456  1  6
165457  1  0
166458  1  0
166459  1  0
167460  1  0
167461  1  0
168462  1  0
169463  1  0
169464  1  0
170465  1  0
170466  1  0
171467  1  0
171468  1  0
173469  1  0
173470  1  0
173471  1  0
174472  1  0
176473  1  0
176474  1  0
176475  1  0
177476  1  0
178477  1  0
178478  1  0
178479  1  0
179480  1  0
179481  1  0
179482  1  0
180483  1  0
180484  1  0
180485  1  0
182486  1  0
182487  1  0
183488  1  0
183489  1  0
184490  1  0
185491  1  0
186492  1  6
187493  1  0
187494  1  0
188495  1  0
189496  1  6
190497  1  0
190498  1  0
192499  1  0
193500  1  0
194501  1  0
194502  1  0
195503  1  0
195504  1  0
196505  1  0
197506  1  0
197507  1  0
198508  1  0
198509  1  0
199510  1  1
201511  1  0
201512  1  0
202513  1  0
202514  1  0
203515  1  0
204516  1  0
205517  1  0
205518  1  0
206519  1  0
207520  1  0
208521  1  6
210522  1  0
211523  1  0
211524  1  0
212525  1  0
212526  1  0
213527  1  0
214528  1  0
214529  1  0
215530  1  0
215531  1  0
216532  1  0
216533  1  0
218534  1  0
218535  1  0
218536  1  0
219537  1  0
221538  1  0
221539  1  0
221540  1  0
222541  1  0
223542  1  0
223543  1  0
223544  1  0
224545  1  0
224546  1  0
224547  1  0
225548  1  0
225549  1  0
225550  1  0
M  CHG  5  20   1  65   1 110   1 155   1 200   1
M  END
>  <PDBID>  (1) 
2XYT

>  <PDB ID>  (1) 
2XYT

>  <Generic Name>  (1) 
Tubocurarine

>  <Brand Name>  (1) 
Tubocurarine Chloride Inj 3mg/ml#Tubocurarine Chloride Inj 3mg/ml USP#Tubarine

>  <DrugBank ID>  (1) 
DB01199

>  <ATC Codes>  (1) 
M03AA02

>  <Ligand ID>  (1) 
TC9,TUB

>  <Target Name>  (1) 
Neuronal acetylcholine receptor subunit alpha-2

>  <UniProt ID>  (1) 
Q15822

>  <PDB ID.1>  (1) 
2XYT

>  <Seq. Identity>  (1) 
31%

$$$$
