PDB_DB01273_03
     RDKit          3D

195210  0  0  0  0  0  0  0  0999 V2000
   -2.3724   -1.3757    1.0502 C   0  0  0  0  0  0  0  0  0  0  0  0
   -3.3444   -0.3790    1.3469 N   0  0  0  0  0  0  0  0  0  0  0  0
   -3.0309    0.9434    0.9247 C   0  0  0  0  0  0  0  0  0  0  0  0
   -2.2373    0.8889   -0.3919 C   0  0  2  0  0  0  0  0  0  0  0  0
   -2.8162   -0.3521   -1.0959 C   0  0  0  0  0  0  0  0  0  0  0  0
   -1.9434   -1.4183   -0.4006 C   0  0  1  0  0  0  0  0  0  0  0  0
   -0.6155   -0.8006   -0.6522 C   0  0  0  0  0  0  0  0  0  0  0  0
    0.5502   -1.3805    0.0256 C   0  0  0  0  0  0  0  0  0  0  0  0
    1.7565   -0.5109   -0.2351 C   0  0  0  0  0  0  0  0  0  0  0  0
    2.5101   -0.3194    0.9918 N   0  0  0  0  0  0  0  0  0  0  0  0
    3.8864   -0.0161    0.5693 C   0  0  0  0  0  0  0  0  0  0  0  0
    3.8469    0.9668   -0.5851 C   0  0  0  0  0  0  0  0  0  0  0  0
    2.5860    1.6780   -0.6552 N   0  0  0  0  0  0  0  0  0  0  0  0
    1.4778    0.7569   -0.9443 C   0  0  0  0  0  0  0  0  0  0  0  0
    0.2150    1.4662   -0.5511 C   0  0  0  0  0  0  0  0  0  0  0  0
   -0.8420    0.5827   -0.0228 C   0  0  0  0  0  0  0  0  0  0  0  0
   -2.3724   -1.3757    1.0502 C   0  0  0  0  0  0  0  0  0  0  0  0
   -3.3444   -0.3790    1.3469 N   0  0  0  0  0  0  0  0  0  0  0  0
   -3.0309    0.9434    0.9247 C   0  0  0  0  0  0  0  0  0  0  0  0
   -2.2373    0.8889   -0.3919 C   0  0  2  0  0  0  0  0  0  0  0  0
   -2.8162   -0.3521   -1.0959 C   0  0  0  0  0  0  0  0  0  0  0  0
   -1.9434   -1.4183   -0.4006 C   0  0  1  0  0  0  0  0  0  0  0  0
   -0.6155   -0.8006   -0.6522 C   0  0  0  0  0  0  0  0  0  0  0  0
    0.5502   -1.3805    0.0256 C   0  0  0  0  0  0  0  0  0  0  0  0
    1.7565   -0.5109   -0.2351 C   0  0  0  0  0  0  0  0  0  0  0  0
    2.5101   -0.3194    0.9918 N   0  0  0  0  0  0  0  0  0  0  0  0
    3.8864   -0.0161    0.5693 C   0  0  0  0  0  0  0  0  0  0  0  0
    3.8469    0.9668   -0.5851 C   0  0  0  0  0  0  0  0  0  0  0  0
    2.5860    1.6780   -0.6552 N   0  0  0  0  0  0  0  0  0  0  0  0
    1.4778    0.7569   -0.9443 C   0  0  0  0  0  0  0  0  0  0  0  0
    0.2150    1.4662   -0.5511 C   0  0  0  0  0  0  0  0  0  0  0  0
   -0.8420    0.5827   -0.0228 C   0  0  0  0  0  0  0  0  0  0  0  0
   -2.3724   -1.3757    1.0502 C   0  0  0  0  0  0  0  0  0  0  0  0
   -3.3444   -0.3790    1.3469 N   0  0  0  0  0  0  0  0  0  0  0  0
   -3.0309    0.9434    0.9247 C   0  0  0  0  0  0  0  0  0  0  0  0
   -2.2373    0.8889   -0.3919 C   0  0  2  0  0  0  0  0  0  0  0  0
   -2.8162   -0.3521   -1.0959 C   0  0  0  0  0  0  0  0  0  0  0  0
   -1.9434   -1.4183   -0.4006 C   0  0  1  0  0  0  0  0  0  0  0  0
   -0.6155   -0.8006   -0.6522 C   0  0  0  0  0  0  0  0  0  0  0  0
    0.5502   -1.3805    0.0256 C   0  0  0  0  0  0  0  0  0  0  0  0
    1.7565   -0.5109   -0.2351 C   0  0  0  0  0  0  0  0  0  0  0  0
    2.5101   -0.3194    0.9918 N   0  0  0  0  0  0  0  0  0  0  0  0
    3.8864   -0.0161    0.5693 C   0  0  0  0  0  0  0  0  0  0  0  0
    3.8469    0.9668   -0.5851 C   0  0  0  0  0  0  0  0  0  0  0  0
    2.5860    1.6780   -0.6552 N   0  0  0  0  0  0  0  0  0  0  0  0
    1.4778    0.7569   -0.9443 C   0  0  0  0  0  0  0  0  0  0  0  0
    0.2150    1.4662   -0.5511 C   0  0  0  0  0  0  0  0  0  0  0  0
   -0.8420    0.5827   -0.0228 C   0  0  0  0  0  0  0  0  0  0  0  0
   -2.3724   -1.3757    1.0502 C   0  0  0  0  0  0  0  0  0  0  0  0
   -3.3444   -0.3790    1.3469 N   0  0  0  0  0  0  0  0  0  0  0  0
   -3.0309    0.9434    0.9247 C   0  0  0  0  0  0  0  0  0  0  0  0
   -2.2373    0.8889   -0.3919 C   0  0  2  0  0  0  0  0  0  0  0  0
   -2.8162   -0.3521   -1.0959 C   0  0  0  0  0  0  0  0  0  0  0  0
   -1.9434   -1.4183   -0.4006 C   0  0  1  0  0  0  0  0  0  0  0  0
   -0.6155   -0.8006   -0.6522 C   0  0  0  0  0  0  0  0  0  0  0  0
    0.5502   -1.3805    0.0256 C   0  0  0  0  0  0  0  0  0  0  0  0
    1.7565   -0.5109   -0.2351 C   0  0  0  0  0  0  0  0  0  0  0  0
    2.5101   -0.3194    0.9918 N   0  0  0  0  0  0  0  0  0  0  0  0
    3.8864   -0.0161    0.5693 C   0  0  0  0  0  0  0  0  0  0  0  0
    3.8469    0.9668   -0.5851 C   0  0  0  0  0  0  0  0  0  0  0  0
    2.5860    1.6780   -0.6552 N   0  0  0  0  0  0  0  0  0  0  0  0
    1.4778    0.7569   -0.9443 C   0  0  0  0  0  0  0  0  0  0  0  0
    0.2150    1.4662   -0.5511 C   0  0  0  0  0  0  0  0  0  0  0  0
   -0.8420    0.5827   -0.0228 C   0  0  0  0  0  0  0  0  0  0  0  0
   -2.3724   -1.3757    1.0502 C   0  0  0  0  0  0  0  0  0  0  0  0
   -3.3444   -0.3790    1.3469 N   0  0  0  0  0  0  0  0  0  0  0  0
   -3.0309    0.9434    0.9247 C   0  0  0  0  0  0  0  0  0  0  0  0
   -2.2373    0.8889   -0.3919 C   0  0  2  0  0  0  0  0  0  0  0  0
   -2.8162   -0.3521   -1.0959 C   0  0  0  0  0  0  0  0  0  0  0  0
   -1.9434   -1.4183   -0.4006 C   0  0  1  0  0  0  0  0  0  0  0  0
   -0.6155   -0.8006   -0.6522 C   0  0  0  0  0  0  0  0  0  0  0  0
    0.5502   -1.3805    0.0256 C   0  0  0  0  0  0  0  0  0  0  0  0
    1.7565   -0.5109   -0.2351 C   0  0  0  0  0  0  0  0  0  0  0  0
    2.5101   -0.3194    0.9918 N   0  0  0  0  0  0  0  0  0  0  0  0
    3.8864   -0.0161    0.5693 C   0  0  0  0  0  0  0  0  0  0  0  0
    3.8469    0.9668   -0.5851 C   0  0  0  0  0  0  0  0  0  0  0  0
    2.5860    1.6780   -0.6552 N   0  0  0  0  0  0  0  0  0  0  0  0
    1.4778    0.7569   -0.9443 C   0  0  0  0  0  0  0  0  0  0  0  0
    0.2150    1.4662   -0.5511 C   0  0  0  0  0  0  0  0  0  0  0  0
   -0.8420    0.5827   -0.0228 C   0  0  0  0  0  0  0  0  0  0  0  0
   -1.5478   -1.3055    1.7571 H   0  0  0  0  0  0  0  0  0  0  0  0
   -2.8614   -2.3767    1.2446 H   0  0  0  0  0  0  0  0  0  0  0  0
   -4.3238   -0.6685    1.2254 H   0  0  0  0  0  0  0  0  0  0  0  0
   -2.4422    1.4848    1.6981 H   0  0  0  0  0  0  0  0  0  0  0  0
   -3.9694    1.5150    0.7280 H   0  0  0  0  0  0  0  0  0  0  0  0
   -2.4052    1.7734   -1.0009 H   0  0  0  0  0  0  0  0  0  0  0  0
   -2.6336   -0.3330   -2.1707 H   0  0  0  0  0  0  0  0  0  0  0  0
   -3.8544   -0.5356   -0.8079 H   0  0  0  0  0  0  0  0  0  0  0  0
   -2.1126   -2.3834   -0.8821 H   0  0  0  0  0  0  0  0  0  0  0  0
   -0.4985   -0.6385   -1.7359 H   0  0  0  0  0  0  0  0  0  0  0  0
    0.3835   -1.3924    1.1132 H   0  0  0  0  0  0  0  0  0  0  0  0
    0.7284   -2.4510   -0.2646 H   0  0  0  0  0  0  0  0  0  0  0  0
    2.4357   -1.1253   -0.8995 H   0  0  0  0  0  0  0  0  0  0  0  0
    2.5696   -1.2732    1.4500 H   0  0  0  0  0  0  0  0  0  0  0  0
    4.4906    0.3478    1.4063 H   0  0  0  0  0  0  0  0  0  0  0  0
    4.3301   -0.9680    0.1775 H   0  0  0  0  0  0  0  0  0  0  0  0
    4.0011    0.4746   -1.5658 H   0  0  0  0  0  0  0  0  0  0  0  0
    4.6372    1.7255   -0.4712 H   0  0  0  0  0  0  0  0  0  0  0  0
    2.4092    2.0583    0.3210 H   0  0  0  0  0  0  0  0  0  0  0  0
    1.4797    0.6250   -2.0502 H   0  0  0  0  0  0  0  0  0  0  0  0
    0.4216    2.2677    0.1985 H   0  0  0  0  0  0  0  0  0  0  0  0
   -0.1940    2.0173   -1.4480 H   0  0  0  0  0  0  0  0  0  0  0  0
   -0.6706    0.4313    1.0660 H   0  0  0  0  0  0  0  0  0  0  0  0
   -1.5478   -1.3055    1.7571 H   0  0  0  0  0  0  0  0  0  0  0  0
   -2.8614   -2.3767    1.2446 H   0  0  0  0  0  0  0  0  0  0  0  0
   -4.3238   -0.6685    1.2254 H   0  0  0  0  0  0  0  0  0  0  0  0
   -2.4422    1.4848    1.6981 H   0  0  0  0  0  0  0  0  0  0  0  0
   -3.9694    1.5150    0.7280 H   0  0  0  0  0  0  0  0  0  0  0  0
   -2.4052    1.7734   -1.0009 H   0  0  0  0  0  0  0  0  0  0  0  0
   -2.6336   -0.3330   -2.1707 H   0  0  0  0  0  0  0  0  0  0  0  0
   -3.8544   -0.5356   -0.8079 H   0  0  0  0  0  0  0  0  0  0  0  0
   -2.1126   -2.3834   -0.8821 H   0  0  0  0  0  0  0  0  0  0  0  0
   -0.4985   -0.6385   -1.7359 H   0  0  0  0  0  0  0  0  0  0  0  0
    0.3835   -1.3924    1.1132 H   0  0  0  0  0  0  0  0  0  0  0  0
    0.7284   -2.4510   -0.2646 H   0  0  0  0  0  0  0  0  0  0  0  0
    2.4357   -1.1253   -0.8995 H   0  0  0  0  0  0  0  0  0  0  0  0
    2.5696   -1.2732    1.4500 H   0  0  0  0  0  0  0  0  0  0  0  0
    4.4906    0.3478    1.4063 H   0  0  0  0  0  0  0  0  0  0  0  0
    4.3301   -0.9680    0.1775 H   0  0  0  0  0  0  0  0  0  0  0  0
    4.0011    0.4746   -1.5658 H   0  0  0  0  0  0  0  0  0  0  0  0
    4.6372    1.7255   -0.4712 H   0  0  0  0  0  0  0  0  0  0  0  0
    2.4092    2.0583    0.3210 H   0  0  0  0  0  0  0  0  0  0  0  0
    1.4797    0.6250   -2.0502 H   0  0  0  0  0  0  0  0  0  0  0  0
    0.4216    2.2677    0.1985 H   0  0  0  0  0  0  0  0  0  0  0  0
   -0.1940    2.0173   -1.4480 H   0  0  0  0  0  0  0  0  0  0  0  0
   -0.6706    0.4313    1.0660 H   0  0  0  0  0  0  0  0  0  0  0  0
   -1.5478   -1.3055    1.7571 H   0  0  0  0  0  0  0  0  0  0  0  0
   -2.8614   -2.3767    1.2446 H   0  0  0  0  0  0  0  0  0  0  0  0
   -4.3238   -0.6685    1.2254 H   0  0  0  0  0  0  0  0  0  0  0  0
   -2.4422    1.4848    1.6981 H   0  0  0  0  0  0  0  0  0  0  0  0
   -3.9694    1.5150    0.7280 H   0  0  0  0  0  0  0  0  0  0  0  0
   -2.4052    1.7734   -1.0009 H   0  0  0  0  0  0  0  0  0  0  0  0
   -2.6336   -0.3330   -2.1707 H   0  0  0  0  0  0  0  0  0  0  0  0
   -3.8544   -0.5356   -0.8079 H   0  0  0  0  0  0  0  0  0  0  0  0
   -2.1126   -2.3834   -0.8821 H   0  0  0  0  0  0  0  0  0  0  0  0
   -0.4985   -0.6385   -1.7359 H   0  0  0  0  0  0  0  0  0  0  0  0
    0.3835   -1.3924    1.1132 H   0  0  0  0  0  0  0  0  0  0  0  0
    0.7284   -2.4510   -0.2646 H   0  0  0  0  0  0  0  0  0  0  0  0
    2.4357   -1.1253   -0.8995 H   0  0  0  0  0  0  0  0  0  0  0  0
    2.5696   -1.2732    1.4500 H   0  0  0  0  0  0  0  0  0  0  0  0
    4.4906    0.3478    1.4063 H   0  0  0  0  0  0  0  0  0  0  0  0
    4.3301   -0.9680    0.1775 H   0  0  0  0  0  0  0  0  0  0  0  0
    4.0011    0.4746   -1.5658 H   0  0  0  0  0  0  0  0  0  0  0  0
    4.6372    1.7255   -0.4712 H   0  0  0  0  0  0  0  0  0  0  0  0
    2.4092    2.0583    0.3210 H   0  0  0  0  0  0  0  0  0  0  0  0
    1.4797    0.6250   -2.0502 H   0  0  0  0  0  0  0  0  0  0  0  0
    0.4216    2.2677    0.1985 H   0  0  0  0  0  0  0  0  0  0  0  0
   -0.1940    2.0173   -1.4480 H   0  0  0  0  0  0  0  0  0  0  0  0
   -0.6706    0.4313    1.0660 H   0  0  0  0  0  0  0  0  0  0  0  0
   -1.5478   -1.3055    1.7571 H   0  0  0  0  0  0  0  0  0  0  0  0
   -2.8614   -2.3767    1.2446 H   0  0  0  0  0  0  0  0  0  0  0  0
   -4.3238   -0.6685    1.2254 H   0  0  0  0  0  0  0  0  0  0  0  0
   -2.4422    1.4848    1.6981 H   0  0  0  0  0  0  0  0  0  0  0  0
   -3.9694    1.5150    0.7280 H   0  0  0  0  0  0  0  0  0  0  0  0
   -2.4052    1.7734   -1.0009 H   0  0  0  0  0  0  0  0  0  0  0  0
   -2.6336   -0.3330   -2.1707 H   0  0  0  0  0  0  0  0  0  0  0  0
   -3.8544   -0.5356   -0.8079 H   0  0  0  0  0  0  0  0  0  0  0  0
   -2.1126   -2.3834   -0.8821 H   0  0  0  0  0  0  0  0  0  0  0  0
   -0.4985   -0.6385   -1.7359 H   0  0  0  0  0  0  0  0  0  0  0  0
    0.3835   -1.3924    1.1132 H   0  0  0  0  0  0  0  0  0  0  0  0
    0.7284   -2.4510   -0.2646 H   0  0  0  0  0  0  0  0  0  0  0  0
    2.4357   -1.1253   -0.8995 H   0  0  0  0  0  0  0  0  0  0  0  0
    2.5696   -1.2732    1.4500 H   0  0  0  0  0  0  0  0  0  0  0  0
    4.4906    0.3478    1.4063 H   0  0  0  0  0  0  0  0  0  0  0  0
    4.3301   -0.9680    0.1775 H   0  0  0  0  0  0  0  0  0  0  0  0
    4.0011    0.4746   -1.5658 H   0  0  0  0  0  0  0  0  0  0  0  0
    4.6372    1.7255   -0.4712 H   0  0  0  0  0  0  0  0  0  0  0  0
    2.4092    2.0583    0.3210 H   0  0  0  0  0  0  0  0  0  0  0  0
    1.4797    0.6250   -2.0502 H   0  0  0  0  0  0  0  0  0  0  0  0
    0.4216    2.2677    0.1985 H   0  0  0  0  0  0  0  0  0  0  0  0
   -0.1940    2.0173   -1.4480 H   0  0  0  0  0  0  0  0  0  0  0  0
   -0.6706    0.4313    1.0660 H   0  0  0  0  0  0  0  0  0  0  0  0
   -1.5478   -1.3055    1.7571 H   0  0  0  0  0  0  0  0  0  0  0  0
   -2.8614   -2.3767    1.2446 H   0  0  0  0  0  0  0  0  0  0  0  0
   -4.3238   -0.6685    1.2254 H   0  0  0  0  0  0  0  0  0  0  0  0
   -2.4422    1.4848    1.6981 H   0  0  0  0  0  0  0  0  0  0  0  0
   -3.9694    1.5150    0.7280 H   0  0  0  0  0  0  0  0  0  0  0  0
   -2.4052    1.7734   -1.0009 H   0  0  0  0  0  0  0  0  0  0  0  0
   -2.6336   -0.3330   -2.1707 H   0  0  0  0  0  0  0  0  0  0  0  0
   -3.8544   -0.5356   -0.8079 H   0  0  0  0  0  0  0  0  0  0  0  0
   -2.1126   -2.3834   -0.8821 H   0  0  0  0  0  0  0  0  0  0  0  0
   -0.4985   -0.6385   -1.7359 H   0  0  0  0  0  0  0  0  0  0  0  0
    0.3835   -1.3924    1.1132 H   0  0  0  0  0  0  0  0  0  0  0  0
    0.7284   -2.4510   -0.2646 H   0  0  0  0  0  0  0  0  0  0  0  0
    2.4357   -1.1253   -0.8995 H   0  0  0  0  0  0  0  0  0  0  0  0
    2.5696   -1.2732    1.4500 H   0  0  0  0  0  0  0  0  0  0  0  0
    4.4906    0.3478    1.4063 H   0  0  0  0  0  0  0  0  0  0  0  0
    4.3301   -0.9680    0.1775 H   0  0  0  0  0  0  0  0  0  0  0  0
    4.0011    0.4746   -1.5658 H   0  0  0  0  0  0  0  0  0  0  0  0
    4.6372    1.7255   -0.4712 H   0  0  0  0  0  0  0  0  0  0  0  0
    2.4092    2.0583    0.3210 H   0  0  0  0  0  0  0  0  0  0  0  0
    1.4797    0.6250   -2.0502 H   0  0  0  0  0  0  0  0  0  0  0  0
    0.4216    2.2677    0.1985 H   0  0  0  0  0  0  0  0  0  0  0  0
   -0.1940    2.0173   -1.4480 H   0  0  0  0  0  0  0  0  0  0  0  0
   -0.6706    0.4313    1.0660 H   0  0  0  0  0  0  0  0  0  0  0  0
  1  2  1  0
  2  3  1  0
  3  4  1  0
  4  5  1  0
  1  6  1  0
  5  6  1  0
  6  7  1  0
  7  8  1  0
  8  9  1  0
  9 10  1  0
 10 11  1  0
 11 12  1  0
 12 13  1  0
  9 14  1  0
 13 14  1  0
 14 15  1  0
  4 16  1  0
  7 16  1  0
 15 16  1  0
 17 18  1  0
 18 19  1  0
 19 20  1  0
 20 21  1  0
 17 22  1  0
 21 22  1  0
 22 23  1  0
 23 24  1  0
 24 25  1  0
 25 26  1  0
 26 27  1  0
 27 28  1  0
 28 29  1  0
 25 30  1  0
 29 30  1  0
 30 31  1  0
 20 32  1  0
 23 32  1  0
 31 32  1  0
 33 34  1  0
 34 35  1  0
 35 36  1  0
 36 37  1  0
 33 38  1  0
 37 38  1  0
 38 39  1  0
 39 40  1  0
 40 41  1  0
 41 42  1  0
 42 43  1  0
 43 44  1  0
 44 45  1  0
 41 46  1  0
 45 46  1  0
 46 47  1  0
 36 48  1  0
 39 48  1  0
 47 48  1  0
 49 50  1  0
 50 51  1  0
 51 52  1  0
 52 53  1  0
 49 54  1  0
 53 54  1  0
 54 55  1  0
 55 56  1  0
 56 57  1  0
 57 58  1  0
 58 59  1  0
 59 60  1  0
 60 61  1  0
 57 62  1  0
 61 62  1  0
 62 63  1  0
 52 64  1  0
 55 64  1  0
 63 64  1  0
 65 66  1  0
 66 67  1  0
 67 68  1  0
 68 69  1  0
 65 70  1  0
 69 70  1  0
 70 71  1  0
 71 72  1  0
 72 73  1  0
 73 74  1  0
 74 75  1  0
 75 76  1  0
 76 77  1  0
 73 78  1  0
 77 78  1  0
 78 79  1  0
 68 80  1  0
 71 80  1  0
 79 80  1  0
  1 81  1  0
  1 82  1  0
  2 83  1  0
  3 84  1  0
  3 85  1  0
  4 86  1  6
  5 87  1  0
  5 88  1  0
  6 89  1  6
  7 90  1  0
  8 91  1  0
  8 92  1  0
  9 93  1  0
 10 94  1  0
 11 95  1  0
 11 96  1  0
 12 97  1  0
 12 98  1  0
 13 99  1  0
 14100  1  0
 15101  1  0
 15102  1  0
 16103  1  0
 17104  1  0
 17105  1  0
 18106  1  0
 19107  1  0
 19108  1  0
 20109  1  6
 21110  1  0
 21111  1  0
 22112  1  6
 23113  1  0
 24114  1  0
 24115  1  0
 25116  1  0
 26117  1  0
 27118  1  0
 27119  1  0
 28120  1  0
 28121  1  0
 29122  1  0
 30123  1  0
 31124  1  0
 31125  1  0
 32126  1  0
 33127  1  0
 33128  1  0
 34129  1  0
 35130  1  0
 35131  1  0
 36132  1  6
 37133  1  0
 37134  1  0
 38135  1  6
 39136  1  0
 40137  1  0
 40138  1  0
 41139  1  0
 42140  1  0
 43141  1  0
 43142  1  0
 44143  1  0
 44144  1  0
 45145  1  0
 46146  1  0
 47147  1  0
 47148  1  0
 48149  1  0
 49150  1  0
 49151  1  0
 50152  1  0
 51153  1  0
 51154  1  0
 52155  1  6
 53156  1  0
 53157  1  0
 54158  1  6
 55159  1  0
 56160  1  0
 56161  1  0
 57162  1  0
 58163  1  0
 59164  1  0
 59165  1  0
 60166  1  0
 60167  1  0
 61168  1  0
 62169  1  0
 63170  1  0
 63171  1  0
 64172  1  0
 65173  1  0
 65174  1  0
 66175  1  0
 67176  1  0
 67177  1  0
 68178  1  6
 69179  1  0
 69180  1  0
 70181  1  6
 71182  1  0
 72183  1  0
 72184  1  0
 73185  1  0
 74186  1  0
 75187  1  0
 75188  1  0
 76189  1  0
 76190  1  0
 77191  1  0
 78192  1  0
 79193  1  0
 79194  1  0
 80195  1  0
M  END
>  <PDBID>  (1) 
4AFG

>  <PDB ID>  (1) 
4AFG

>  <Generic Name>  (1) 
Varenicline

>  <Brand Name>  (1) 
Champix#Chantix#Gd-varenicline

>  <DrugBank ID>  (1) 
DB01273

>  <ATC Codes>  (1) 
N07BA03

>  <Ligand ID>  (1) 
QMR

>  <Target Name>  (1) 
Neuronal acetylcholine receptor subunit alpha-4

>  <UniProt ID>  (1) 
P43681

>  <PDB ID.1>  (1) 
4AFG

>  <Seq. Identity>  (1) 
31%

$$$$
