PDB_DB00877_07
     RDKit          3D

162165  0  0  0  0  0  0  0  0999 V2000
    2.3456   -1.9895   -0.8366 C   0  0  0  0  0  0  0  0  0  0  0  0
    2.9627   -0.9281   -0.1549 O   0  0  0  0  0  0  0  0  0  0  0  0
    1.2297   -1.4707   -1.4767 O   0  0  0  0  0  0  0  0  0  0  0  0
    1.9413   -3.0204    0.1752 C   0  0  2  0  0  0  0  0  0  0  0  0
    3.2223   -3.5032    0.8682 C   0  0  0  0  0  0  0  0  0  0  0  0
    4.1182   -4.2150   -0.1015 C   0  0  0  0  0  0  0  0  0  0  0  0
    3.3471   -5.3019   -0.8157 C   0  0  0  0  0  0  0  0  0  0  0  0
    2.0547   -4.7565   -1.4293 C   0  0  0  0  0  0  0  0  0  0  0  0
    1.3028   -4.1679   -0.3698 N   0  0  0  0  0  0  0  0  0  0  0  0
   -0.1015   -4.0645   -0.5925 C   0  0  2  0  0  0  0  0  0  0  0  0
   -0.6797   -3.5915    0.6034 O   0  0  0  0  0  0  0  0  0  0  0  0
   -0.6962   -5.4009   -0.8834 C   0  0  0  0  0  0  0  0  0  0  0  0
   -0.9818   -5.4842   -2.2573 O   0  0  0  0  0  0  0  0  0  0  0  0
   -1.9510   -5.7193   -0.1461 C   0  0  1  0  0  0  0  0  0  0  0  0
   -2.6826   -4.6421    0.2857 O   0  0  0  0  0  0  0  0  0  0  0  0
   -2.7995   -6.5026   -0.9621 O   0  0  0  0  0  0  0  0  0  0  0  0
   -1.6459   -6.6116    1.0642 C   0  0  1  0  0  0  0  0  0  0  0  0
   -2.9966   -7.2183    1.4540 C   0  0  0  0  0  0  0  0  0  0  0  0
   -3.9115   -6.0648    1.7574 C   0  0  0  0  0  0  0  0  0  0  0  0
   -3.9887   -5.1082    0.5612 C   0  0  1  0  0  0  0  0  0  0  0  0
   -4.8932   -3.9740    1.0064 C   0  0  0  0  0  0  0  0  0  0  0  0
   -5.5379   -3.2415   -0.1201 C   0  0  2  0  0  0  0  0  0  0  0  0
   -4.8896   -3.5857   -1.3035 O   0  0  0  0  0  0  0  0  0  0  0  0
   -5.5735   -1.7443    0.0825 C   0  0  0  0  0  0  0  0  0  0  0  0
   -6.9770   -1.2830    0.2971 C   0  0  0  0  0  0  0  0  0  0  0  0
   -7.1112    0.0448    0.9590 C   0  0  0  0  0  0  0  0  0  0  0  0
   -6.5466    1.1825    0.1689 C   0  0  0  0  0  0  0  0  0  0  0  0
   -7.6120    2.1040   -0.3943 C   0  0  0  0  0  0  0  0  0  0  0  0
   -7.1826    3.5684   -0.2355 C   0  0  0  0  0  0  0  0  0  0  0  0
   -5.6924    3.7275   -0.5109 C   0  0  2  0  0  0  0  0  0  0  0  0
   -4.9594    4.2846    0.6755 C   0  0  0  0  0  0  0  0  0  0  0  0
   -4.1152    5.4948    0.3441 C   0  0  2  0  0  0  0  0  0  0  0  0
   -2.7840    5.4019    1.0179 C   0  0  0  0  0  0  0  0  0  0  0  0
   -2.8150    5.8005    2.3498 O   0  0  0  0  0  0  0  0  0  0  0  0
   -1.6827    6.0904    0.2361 C   0  0  2  0  0  0  0  0  0  0  0  0
   -2.0052    6.0745   -1.1002 O   0  0  0  0  0  0  0  0  0  0  0  0
   -0.3340    5.4286    0.5161 C   0  0  2  0  0  0  0  0  0  0  0  0
    0.4064    6.3006    1.2789 O   0  0  0  0  0  0  0  0  0  0  0  0
    0.3854    5.0693   -0.7815 C   0  0  0  0  0  0  0  0  0  0  0  0
    0.8969    3.6799   -0.7790 C   0  0  0  0  0  0  0  0  0  0  0  0
    2.2692    3.4642   -0.2727 C   0  0  2  0  0  0  0  0  0  0  0  0
    2.4206    1.9630    0.0174 C   0  0  0  0  0  0  0  0  0  0  0  0
    1.1522    1.5614    0.4996 O   0  0  0  0  0  0  0  0  0  0  0  0
    2.6542    1.1902   -1.2479 C   0  0  0  0  0  0  0  0  0  0  0  0
    3.5152   -0.0292   -1.0665 C   0  0  1  0  0  0  0  0  0  0  0  0
    4.9044    0.4071   -0.6549 C   0  0  1  0  0  0  0  0  0  0  0  0
    5.8467   -0.7619   -0.5531 C   0  0  0  0  0  0  0  0  0  0  0  0
    7.2375   -0.4289   -0.1540 C   0  0  1  0  0  0  0  0  0  0  0  0
    7.3702    0.2392    1.1956 C   0  0  0  0  0  0  0  0  0  0  0  0
    8.7594    0.8950    1.1925 C   0  0  1  0  0  0  0  0  0  0  0  0
    8.9666    1.7057    2.2619 O   0  0  0  0  0  0  0  0  0  0  0  0
    9.7646   -0.1974    1.0086 C   0  0  2  0  0  0  0  0  0  0  0  0
   10.5276   -0.0213   -0.1636 O   0  0  0  0  0  0  0  0  0  0  0  0
    9.1584   -1.5640    0.9392 C   0  0  0  0  0  0  0  0  0  0  0  0
    8.0684   -1.7186   -0.0607 C   0  0  0  0  0  0  0  0  0  0  0  0
   -0.7068   -7.7236    0.7195 C   0  0  0  0  0  0  0  0  0  0  0  0
   -4.6152   -1.2629    1.1264 C   0  0  0  0  0  0  0  0  0  0  0  0
   -5.5681    4.5849   -1.7457 C   0  0  0  0  0  0  0  0  0  0  0  0
   -4.8397    6.6995    0.9540 C   0  0  0  0  0  0  0  0  0  0  0  0
    1.4276    6.1079   -1.1327 C   0  0  0  0  0  0  0  0  0  0  0  0
    2.6299    4.1788    0.9859 C   0  0  0  0  0  0  0  0  0  0  0  0
    5.3771    1.4326   -1.6630 C   0  0  0  0  0  0  0  0  0  0  0  0
   -5.7435   -4.2426   -2.1877 C   0  0  0  0  0  0  0  0  0  0  0  0
   -2.2165    7.3606   -1.5814 C   0  0  0  0  0  0  0  0  0  0  0  0
    9.1433    3.0432    1.9663 C   0  0  0  0  0  0  0  0  0  0  0  0
   -2.2852   -7.1706   -1.4795 H   0  0  0  0  0  0  0  0  0  0  0  0
   -0.1758    6.6968    1.9627 H   0  0  0  0  0  0  0  0  0  0  0  0
   10.7278   -0.8937   -0.5828 H   0  0  0  0  0  0  0  0  0  0  0  0
    3.1163   -2.3585   -1.5572 H   0  0  0  0  0  0  0  0  0  0  0  0
    0.6775   -1.0326   -0.7791 H   0  0  0  0  0  0  0  0  0  0  0  0
    1.3010   -2.5350    0.9184 H   0  0  0  0  0  0  0  0  0  0  0  0
    3.7421   -2.6823    1.3801 H   0  0  0  0  0  0  0  0  0  0  0  0
    2.8820   -4.2697    1.6152 H   0  0  0  0  0  0  0  0  0  0  0  0
    4.9028   -4.7321    0.4978 H   0  0  0  0  0  0  0  0  0  0  0  0
    4.6042   -3.5639   -0.8328 H   0  0  0  0  0  0  0  0  0  0  0  0
    3.0163   -6.0301   -0.0351 H   0  0  0  0  0  0  0  0  0  0  0  0
    3.9565   -5.8505   -1.5346 H   0  0  0  0  0  0  0  0  0  0  0  0
    2.2768   -4.0720   -2.2737 H   0  0  0  0  0  0  0  0  0  0  0  0
    1.5458   -5.6305   -1.8729 H   0  0  0  0  0  0  0  0  0  0  0  0
   -0.3754   -3.3654   -1.4080 H   0  0  0  0  0  0  0  0  0  0  0  0
   -0.8639   -2.6134    0.4868 H   0  0  0  0  0  0  0  0  0  0  0  0
    0.0574   -6.1926   -0.6003 H   0  0  0  0  0  0  0  0  0  0  0  0
   -0.7276   -6.3634   -2.6141 H   0  0  0  0  0  0  0  0  0  0  0  0
   -1.2600   -6.0044    1.9019 H   0  0  0  0  0  0  0  0  0  0  0  0
   -3.3651   -7.7223    0.5359 H   0  0  0  0  0  0  0  0  0  0  0  0
   -2.9237   -7.8619    2.3297 H   0  0  0  0  0  0  0  0  0  0  0  0
   -4.9290   -6.3824    2.0260 H   0  0  0  0  0  0  0  0  0  0  0  0
   -3.4653   -5.4721    2.5832 H   0  0  0  0  0  0  0  0  0  0  0  0
   -4.3959   -5.6736   -0.2785 H   0  0  0  0  0  0  0  0  0  0  0  0
   -4.2816   -3.3412    1.6793 H   0  0  0  0  0  0  0  0  0  0  0  0
   -5.6903   -4.4105    1.6780 H   0  0  0  0  0  0  0  0  0  0  0  0
   -6.5951   -3.6075   -0.2218 H   0  0  0  0  0  0  0  0  0  0  0  0
   -5.2328   -1.2867   -0.8932 H   0  0  0  0  0  0  0  0  0  0  0  0
   -7.5061   -2.0324    0.9273 H   0  0  0  0  0  0  0  0  0  0  0  0
   -7.5525   -1.2622   -0.6663 H   0  0  0  0  0  0  0  0  0  0  0  0
   -6.6620   -0.0347    1.9837 H   0  0  0  0  0  0  0  0  0  0  0  0
   -8.1862    0.2416    1.1193 H   0  0  0  0  0  0  0  0  0  0  0  0
   -5.9408    0.8306   -0.6887 H   0  0  0  0  0  0  0  0  0  0  0  0
   -5.9551    1.8110    0.8850 H   0  0  0  0  0  0  0  0  0  0  0  0
   -8.5871    1.9893    0.1078 H   0  0  0  0  0  0  0  0  0  0  0  0
   -7.7664    1.9458   -1.4811 H   0  0  0  0  0  0  0  0  0  0  0  0
   -7.8026    4.1851   -0.9099 H   0  0  0  0  0  0  0  0  0  0  0  0
   -7.3501    3.8166    0.8387 H   0  0  0  0  0  0  0  0  0  0  0  0
   -5.2288    2.7387   -0.7786 H   0  0  0  0  0  0  0  0  0  0  0  0
   -5.7261    4.5059    1.4627 H   0  0  0  0  0  0  0  0  0  0  0  0
   -4.2883    3.5138    1.1549 H   0  0  0  0  0  0  0  0  0  0  0  0
   -3.9511    5.6143   -0.7362 H   0  0  0  0  0  0  0  0  0  0  0  0
   -2.5082    4.3064    1.0363 H   0  0  0  0  0  0  0  0  0  0  0  0
   -2.0992    5.2975    2.8431 H   0  0  0  0  0  0  0  0  0  0  0  0
   -1.6799    7.1495    0.5801 H   0  0  0  0  0  0  0  0  0  0  0  0
   -0.5540    4.4727    1.0161 H   0  0  0  0  0  0  0  0  0  0  0  0
   -0.3966    5.1351   -1.5749 H   0  0  0  0  0  0  0  0  0  0  0  0
    0.8634    3.2922   -1.8341 H   0  0  0  0  0  0  0  0  0  0  0  0
    0.1603    3.0410   -0.2277 H   0  0  0  0  0  0  0  0  0  0  0  0
    3.0039    3.7100   -1.0423 H   0  0  0  0  0  0  0  0  0  0  0  0
    3.1195    1.7730    0.8287 H   0  0  0  0  0  0  0  0  0  0  0  0
    1.0517    1.9833    1.4064 H   0  0  0  0  0  0  0  0  0  0  0  0
    1.6772    0.9387   -1.7280 H   0  0  0  0  0  0  0  0  0  0  0  0
    3.1565    1.8607   -1.9729 H   0  0  0  0  0  0  0  0  0  0  0  0
    3.5696   -0.5481   -2.0433 H   0  0  0  0  0  0  0  0  0  0  0  0
    4.8905    0.9145    0.3304 H   0  0  0  0  0  0  0  0  0  0  0  0
    5.4393   -1.5320    0.1319 H   0  0  0  0  0  0  0  0  0  0  0  0
    5.8649   -1.2452   -1.5572 H   0  0  0  0  0  0  0  0  0  0  0  0
    7.7909    0.1743   -0.9198 H   0  0  0  0  0  0  0  0  0  0  0  0
    7.3264   -0.5742    1.9624 H   0  0  0  0  0  0  0  0  0  0  0  0
    6.5907    0.9686    1.4124 H   0  0  0  0  0  0  0  0  0  0  0  0
    8.7781    1.5191    0.2676 H   0  0  0  0  0  0  0  0  0  0  0  0
   10.5216   -0.2236    1.8377 H   0  0  0  0  0  0  0  0  0  0  0  0
    8.8168   -1.9604    1.9151 H   0  0  0  0  0  0  0  0  0  0  0  0
    9.9890   -2.2619    0.6281 H   0  0  0  0  0  0  0  0  0  0  0  0
    8.4174   -2.0409   -1.0615 H   0  0  0  0  0  0  0  0  0  0  0  0
    7.3348   -2.5082    0.2641 H   0  0  0  0  0  0  0  0  0  0  0  0
   -0.9432   -8.6213    1.3460 H   0  0  0  0  0  0  0  0  0  0  0  0
    0.3168   -7.4088    1.0162 H   0  0  0  0  0  0  0  0  0  0  0  0
   -0.7715   -8.0487   -0.3326 H   0  0  0  0  0  0  0  0  0  0  0  0
   -4.9093   -1.4611    2.1553 H   0  0  0  0  0  0  0  0  0  0  0  0
   -3.5977   -1.6093    0.8528 H   0  0  0  0  0  0  0  0  0  0  0  0
   -4.5699   -0.1413    1.0238 H   0  0  0  0  0  0  0  0  0  0  0  0
   -5.8254    5.6381   -1.5847 H   0  0  0  0  0  0  0  0  0  0  0  0
   -4.5991    4.4261   -2.2617 H   0  0  0  0  0  0  0  0  0  0  0  0
   -6.3431    4.1928   -2.4684 H   0  0  0  0  0  0  0  0  0  0  0  0
   -5.4915    6.3726    1.7754 H   0  0  0  0  0  0  0  0  0  0  0  0
   -4.0957    7.3964    1.4010 H   0  0  0  0  0  0  0  0  0  0  0  0
   -5.3362    7.2315    0.1403 H   0  0  0  0  0  0  0  0  0  0  0  0
    2.3949    5.6527   -1.4304 H   0  0  0  0  0  0  0  0  0  0  0  0
    1.5529    6.8376   -0.2816 H   0  0  0  0  0  0  0  0  0  0  0  0
    1.1233    6.7430   -1.9978 H   0  0  0  0  0  0  0  0  0  0  0  0
    3.5551    3.6630    1.3869 H   0  0  0  0  0  0  0  0  0  0  0  0
    2.9052    5.2275    0.8747 H   0  0  0  0  0  0  0  0  0  0  0  0
    1.8746    4.0357    1.7998 H   0  0  0  0  0  0  0  0  0  0  0  0
    4.9316    1.1487   -2.6411 H   0  0  0  0  0  0  0  0  0  0  0  0
    6.4738    1.4041   -1.8348 H   0  0  0  0  0  0  0  0  0  0  0  0
    5.0175    2.4577   -1.4369 H   0  0  0  0  0  0  0  0  0  0  0  0
   -6.5849   -3.5275   -2.4037 H   0  0  0  0  0  0  0  0  0  0  0  0
   -6.2222   -5.1233   -1.7295 H   0  0  0  0  0  0  0  0  0  0  0  0
   -5.2679   -4.4466   -3.1526 H   0  0  0  0  0  0  0  0  0  0  0  0
   -3.0381    7.8142   -1.0232 H   0  0  0  0  0  0  0  0  0  0  0  0
   -2.4213    7.2744   -2.6745 H   0  0  0  0  0  0  0  0  0  0  0  0
   -1.2611    7.9187   -1.4968 H   0  0  0  0  0  0  0  0  0  0  0  0
    8.3114    3.5201    1.4557 H   0  0  0  0  0  0  0  0  0  0  0  0
   10.0995    3.2252    1.3989 H   0  0  0  0  0  0  0  0  0  0  0  0
    9.2910    3.5780    2.9404 H   0  0  0  0  0  0  0  0  0  0  0  0
  1  2  1  0
  1  3  1  0
  1  4  1  0
  4  5  1  0
  5  6  1  0
  6  7  1  0
  7  8  1  0
  4  9  1  0
  8  9  1  0
  9 10  1  0
 10 11  1  0
 10 12  1  0
 12 13  1  0
 12 14  1  0
 14 15  1  0
 14 16  1  6
 14 17  1  0
 17 18  1  0
 18 19  1  0
 15 20  1  0
 19 20  1  0
 20 21  1  0
 21 22  1  0
 22 23  1  0
 22 24  1  0
 24 25  1  0
 25 26  1  0
 26 27  1  0
 27 28  1  0
 28 29  1  0
 29 30  1  0
 30 31  1  0
 31 32  1  0
 32 33  1  0
 33 34  1  0
 33 35  1  0
 35 36  1  0
 35 37  1  0
 37 38  1  0
 37 39  1  0
 39 40  1  0
 40 41  1  0
 41 42  1  0
 42 43  1  0
 42 44  1  0
  2 45  1  0
 44 45  1  0
 45 46  1  0
 46 47  1  0
 47 48  1  0
 48 49  1  0
 49 50  1  0
 50 51  1  0
 50 52  1  0
 52 53  1  0
 52 54  1  0
 48 55  1  0
 54 55  1  0
 17 56  1  0
 24 57  1  0
 30 58  1  0
 32 59  1  0
 39 60  1  0
 41 61  1  0
 46 62  1  0
 23 63  1  0
 36 64  1  0
 51 65  1  0
 16 66  1  0
 38 67  1  0
 53 68  1  0
  1 69  1  0
  3 70  1  0
  4 71  1  1
  5 72  1  0
  5 73  1  0
  6 74  1  0
  6 75  1  0
  7 76  1  0
  7 77  1  0
  8 78  1  0
  8 79  1  0
 10 80  1  6
 11 81  1  0
 12 82  1  0
 13 83  1  0
 17 84  1  1
 18 85  1  0
 18 86  1  0
 19 87  1  0
 19 88  1  0
 20 89  1  6
 21 90  1  0
 21 91  1  0
 22 92  1  6
 24 93  1  0
 25 94  1  0
 25 95  1  0
 26 96  1  0
 26 97  1  0
 27 98  1  0
 27 99  1  0
 28100  1  0
 28101  1  0
 29102  1  0
 29103  1  0
 30104  1  6
 31105  1  0
 31106  1  0
 32107  1  6
 33108  1  0
 34109  1  0
 35110  1  1
 37111  1  1
 39112  1  0
 40113  1  0
 40114  1  0
 41115  1  6
 42116  1  0
 43117  1  0
 44118  1  0
 44119  1  0
 45120  1  6
 46121  1  1
 47122  1  0
 47123  1  0
 48124  1  6
 49125  1  0
 49126  1  0
 50127  1  6
 52128  1  1
 54129  1  0
 54130  1  0
 55131  1  0
 55132  1  0
 56133  1  0
 56134  1  0
 56135  1  0
 57136  1  0
 57137  1  0
 57138  1  0
 58139  1  0
 58140  1  0
 58141  1  0
 59142  1  0
 59143  1  0
 59144  1  0
 60145  1  0
 60146  1  0
 60147  1  0
 61148  1  0
 61149  1  0
 61150  1  0
 62151  1  0
 62152  1  0
 62153  1  0
 63154  1  0
 63155  1  0
 63156  1  0
 64157  1  0
 64158  1  0
 64159  1  0
 65160  1  0
 65161  1  0
 65162  1  0
M  END
>  <PDBID>  (1) 
1FKB

>  <PDB ID>  (1) 
1FKB

>  <Generic Name>  (1) 
Sirolimus

>  <Brand Name>  (1) 
Gd-sirolimus#Rapamune#Rapamune Oral Solution#Sirolimus

>  <DrugBank ID>  (1) 
DB00877

>  <ATC Codes>  (1) 
S01XA23#L04AA10

>  <Ligand ID>  (1) 
RAP

>  <Target Name>  (1) 
Peptidyl-prolyl cis-trans isomerase FKBP1A

>  <UniProt ID>  (1) 
P62942

>  <PDB ID.1>  (1) 
1FKB

>  <Seq. Identity>  (1) 
100%

$$$$
