PDB_DB01222_07
     RDKit          3D

 73 77  0  0  0  0  0  0  0  0999 V2000
   -4.3995    3.4952   -1.1198 C   0  0  0  0  0  0  0  0  0  0  0  0
   -4.3240    2.1646   -0.4178 C   0  0  0  0  0  0  0  0  0  0  0  0
   -3.3697    2.1885    0.7579 C   0  0  0  0  0  0  0  0  0  0  0  0
   -2.1285   -0.6698    2.4678 C   0  0  1  0  0  0  0  0  0  0  0  0
   -0.5999   -0.6846    2.6253 C   0  0  0  0  0  0  0  0  0  0  0  0
   -0.2031   -0.4607    1.2293 C   0  0  1  0  0  0  0  0  0  0  0  0
    1.2089   -0.4894    0.8615 C   0  0  2  0  0  0  0  0  0  0  0  0
    2.1058    0.2804    1.7730 C   0  0  0  0  0  0  0  0  0  0  0  0
    3.5178    0.1615    1.2864 C   0  0  0  0  0  0  0  0  0  0  0  0
    3.6342   -0.1520   -0.1680 C   0  0  0  0  0  0  0  0  0  0  0  0
    4.0961    2.4482   -1.4284 C   0  0  0  0  0  0  0  0  0  0  0  0
    2.7342    2.0142   -1.0010 C   0  0  0  0  0  0  0  0  0  0  0  0
    2.5710    0.4944   -1.0143 C   0  0  2  0  0  0  0  0  0  0  0  0
   -0.8512   -1.2234   -0.9770 C   0  0  0  0  0  0  0  0  0  0  0  0
   -3.3882   -2.2556    0.9982 C   0  0  0  0  0  0  0  0  0  0  0  0
   -3.9576   -2.4988   -0.3807 C   0  0  0  0  0  0  0  0  0  0  0  0
   -0.5970   -2.9043    0.7884 C   0  0  0  0  0  0  0  0  0  0  0  0
   -3.4136    0.7748    1.3525 C   0  0  2  0  0  0  0  0  0  0  0  0
   -2.5899    0.6443    2.4368 O   0  0  0  0  0  0  0  0  0  0  0  0
    4.9804    0.2121   -0.6944 C   0  0  0  0  0  0  0  0  0  0  0  0
    5.2201    1.6703   -0.8454 C   0  0  0  0  0  0  0  0  0  0  0  0
    5.6388    2.2833    0.3541 O   0  0  0  0  0  0  0  0  0  0  0  0
    1.2340    0.1007   -0.5607 C   0  0  1  0  0  0  0  0  0  0  0  0
    0.5422   -0.9228   -1.4139 C   0  0  1  0  0  0  0  0  0  0  0  0
   -1.0307   -1.4959    0.4729 C   0  0  1  0  0  0  0  0  0  0  0  0
   -2.3637   -1.1836    1.0395 C   0  0  2  0  0  0  0  0  0  0  0  0
   -2.8716   -0.0603    0.4078 O   0  0  0  0  0  0  0  0  0  0  0  0
   -3.0409   -3.4460    1.5842 O   0  0  0  0  0  0  0  0  0  0  0  0
   -4.3266   -1.3471   -1.0320 O   0  0  0  0  0  0  0  0  0  0  0  0
    1.2686   -2.1353   -1.3926 O   0  0  0  0  0  0  0  0  0  0  0  0
    2.8375    0.0706   -2.4555 C   0  0  0  0  0  0  0  0  0  0  0  0
   -3.5704    3.5104   -1.8794 H   0  0  0  0  0  0  0  0  0  0  0  0
   -4.2703    4.3495   -0.4474 H   0  0  0  0  0  0  0  0  0  0  0  0
   -5.3493    3.5322   -1.6930 H   0  0  0  0  0  0  0  0  0  0  0  0
   -3.9209    1.3662   -1.1077 H   0  0  0  0  0  0  0  0  0  0  0  0
   -5.3146    1.8133   -0.0788 H   0  0  0  0  0  0  0  0  0  0  0  0
   -3.7283    2.9264    1.5066 H   0  0  0  0  0  0  0  0  0  0  0  0
   -2.3328    2.3549    0.4462 H   0  0  0  0  0  0  0  0  0  0  0  0
   -2.6204   -1.2971    3.2132 H   0  0  0  0  0  0  0  0  0  0  0  0
   -0.2887    0.1578    3.3065 H   0  0  0  0  0  0  0  0  0  0  0  0
   -0.2421   -1.6002    3.0918 H   0  0  0  0  0  0  0  0  0  0  0  0
   -0.6372    0.5325    0.9068 H   0  0  0  0  0  0  0  0  0  0  0  0
    1.6635   -1.5061    0.7415 H   0  0  0  0  0  0  0  0  0  0  0  0
    2.0606   -0.2141    2.7707 H   0  0  0  0  0  0  0  0  0  0  0  0
    1.7740    1.3238    1.9418 H   0  0  0  0  0  0  0  0  0  0  0  0
    4.0668   -0.6570    1.8397 H   0  0  0  0  0  0  0  0  0  0  0  0
    4.0480    1.0969    1.5890 H   0  0  0  0  0  0  0  0  0  0  0  0
    3.5126   -1.2575   -0.2940 H   0  0  0  0  0  0  0  0  0  0  0  0
    4.2037    2.5260   -2.5484 H   0  0  0  0  0  0  0  0  0  0  0  0
    4.2172    3.5162   -1.0796 H   0  0  0  0  0  0  0  0  0  0  0  0
    2.0136    2.3813   -1.7899 H   0  0  0  0  0  0  0  0  0  0  0  0
    2.4134    2.4696   -0.0662 H   0  0  0  0  0  0  0  0  0  0  0  0
   -1.1573   -2.1565   -1.5374 H   0  0  0  0  0  0  0  0  0  0  0  0
   -1.5784   -0.4478   -1.3233 H   0  0  0  0  0  0  0  0  0  0  0  0
   -4.2651   -1.8669    1.6024 H   0  0  0  0  0  0  0  0  0  0  0  0
   -3.2967   -3.0957   -1.0311 H   0  0  0  0  0  0  0  0  0  0  0  0
   -4.8715   -3.1505   -0.2430 H   0  0  0  0  0  0  0  0  0  0  0  0
   -1.2163   -3.5675    0.1304 H   0  0  0  0  0  0  0  0  0  0  0  0
    0.4424   -3.1237    0.5550 H   0  0  0  0  0  0  0  0  0  0  0  0
   -0.7417   -3.1530    1.8693 H   0  0  0  0  0  0  0  0  0  0  0  0
   -4.4464    0.5105    1.6510 H   0  0  0  0  0  0  0  0  0  0  0  0
    5.7375   -0.1745    0.0497 H   0  0  0  0  0  0  0  0  0  0  0  0
    5.2421   -0.3277   -1.6442 H   0  0  0  0  0  0  0  0  0  0  0  0
    6.1036    1.7922   -1.5394 H   0  0  0  0  0  0  0  0  0  0  0  0
    6.3736    1.7970    0.7620 H   0  0  0  0  0  0  0  0  0  0  0  0
    0.5708    1.0138   -0.5645 H   0  0  0  0  0  0  0  0  0  0  0  0
    0.4919   -0.6177   -2.4868 H   0  0  0  0  0  0  0  0  0  0  0  0
   -3.6287   -4.1531    1.1760 H   0  0  0  0  0  0  0  0  0  0  0  0
   -5.1118   -0.8944   -0.6357 H   0  0  0  0  0  0  0  0  0  0  0  0
    0.6775   -2.8030   -1.8121 H   0  0  0  0  0  0  0  0  0  0  0  0
    2.9680   -1.0097   -2.5328 H   0  0  0  0  0  0  0  0  0  0  0  0
    2.0701    0.4880   -3.1520 H   0  0  0  0  0  0  0  0  0  0  0  0
    3.8044    0.5418   -2.8006 H   0  0  0  0  0  0  0  0  0  0  0  0
  1  2  1  0
  2  3  1  0
  4  5  1  0
  5  6  1  0
  6  7  1  0
  7  8  1  0
  8  9  1  0
  9 10  1  0
 11 12  1  0
 10 13  1  0
 12 13  1  0
 15 16  1  0
  3 18  1  0
  4 19  1  0
 18 19  1  0
 10 20  1  0
 11 21  1  0
 20 21  1  0
 21 22  1  0
  7 23  1  0
 13 23  1  0
 14 24  1  0
 23 24  1  0
  6 25  1  0
 14 25  1  0
 25 17  1  6
  4 26  1  0
 26 15  1  1
 25 26  1  0
 18 27  1  0
 26 27  1  0
 15 28  1  0
 16 29  1  0
 24 30  1  0
 13 31  1  6
  1 32  1  0
  1 33  1  0
  1 34  1  0
  2 35  1  0
  2 36  1  0
  3 37  1  0
  3 38  1  0
  4 39  1  1
  5 40  1  0
  5 41  1  0
  6 42  1  6
  7 43  1  6
  8 44  1  0
  8 45  1  0
  9 46  1  0
  9 47  1  0
 10 48  1  0
 11 49  1  0
 11 50  1  0
 12 51  1  0
 12 52  1  0
 14 53  1  0
 14 54  1  0
 15 55  1  0
 16 56  1  0
 16 57  1  0
 17 58  1  0
 17 59  1  0
 17 60  1  0
 18 61  1  1
 20 62  1  0
 20 63  1  0
 21 64  1  0
 22 65  1  0
 23 66  1  1
 24 67  1  6
 28 68  1  0
 29 69  1  0
 30 70  1  0
 31 71  1  0
 31 72  1  0
 31 73  1  0
M  END
>  <PDBID>  (1) 
5NFP

>  <PDB ID>  (1) 
5NFP

>  <Generic Name>  (1) 
Budesonide

>  <Brand Name>  (1) 
Budesonide#Budesonide (enteric Coated)#Budesonide Inhalation#Budesonide Nasal#Childrens Rhinocort Allergy#Cortiment#Entocort#Entocort EC#Entocort Enema#Mylan-budesonide AQ#Pulmicort Flexhaler#Pulmicort Nebuamp 0.125 mg/ml#Pulmicort Nebuamp 0.25 mg/ml#Pulmicort Nebuamp 0.5 mg/ml#Pulmicort Respules#Pulmicort Turbuhaler 100 Mcg/dose#Pulmicort Turbuhaler 200 Mcg/dose#Pulmicort Turbuhaler 400 Mcg/dose#Rhinocort Allergy#Rhinocort Aqua#Rhinocort Aqua 100mcg#Rhinocort Turbuhaler 100 Mcg/dose#Symbicort#Symbicort 100 Turbuhaler#Symbicort 200 Turbuhaler#Symbicort Forte Turbuhaler#Uceris#Bidien#Budeson#Budicort#ENTOCORT#Noex#Pulmicort#Rhinocort#Rhinosol#Spirocort

>  <DrugBank ID>  (1) 
DB01222

>  <ATC Codes>  (1) 
R03AK07#A07EA06#R03BA02#D07AC09#R03AK12#R01AD05

>  <Ligand ID>  (1) 
8W5

>  <Target Name>  (1) 
Glucocorticoid receptor

>  <UniProt ID>  (1) 
P04150

>  <PDB ID.1>  (1) 
5NFP

>  <Seq. Identity>  (1) 
98%

$$$$
