PDB_DB01229_01
     RDKit          3D

290302  0  0  0  0  0  0  0  0999 V2000
   -1.1029   -0.6144    2.3902 O   0  0  0  0  0  0  0  0  0  0  0  0
   -1.5602   -1.0374    1.0883 C   0  0  1  0  0  0  0  0  0  0  0  0
   -3.0203   -0.8286    1.2441 C   0  0  1  0  0  0  0  0  0  0  0  0
   -3.0855    0.5811    1.4740 O   0  0  0  0  0  0  0  0  0  0  0  0
   -3.1184    1.0769    2.6855 C   0  0  0  0  0  0  0  0  0  0  0  0
   -4.5440    1.3582    3.0679 O   0  0  0  0  0  0  0  0  0  0  0  0
   -2.4740    2.3493    3.0397 C   0  0  0  0  0  0  0  0  0  0  0  0
   -1.0338    2.5286    2.8985 C   0  0  0  0  0  0  0  0  0  0  0  0
   -0.7238    3.5408    1.7680 C   0  0  0  0  0  0  0  0  0  0  0  0
   -1.1343    4.8901    2.2881 C   0  0  0  0  0  0  0  0  0  0  0  0
   -2.5422    4.7703    2.8399 C   0  0  0  0  0  0  0  0  0  0  0  0
   -3.2340    3.5385    2.3699 C   0  0  0  0  0  0  0  0  0  0  0  0
   -3.9942   -1.1767    0.2409 C   0  0  2  0  0  0  0  0  0  0  0  0
   -5.3573   -0.6543    0.6564 C   0  0  2  0  0  0  0  0  0  0  0  0
   -5.5166    0.6169    0.3103 O   0  0  0  0  0  0  0  0  0  0  0  0
   -6.5652    1.3998    0.4544 C   0  0  0  0  0  0  0  0  0  0  0  0
   -7.3131    1.4679   -0.8127 O   0  0  0  0  0  0  0  0  0  0  0  0
   -6.4292    2.7978    0.9627 C   0  0  0  0  0  0  0  0  0  0  0  0
   -5.8451   -1.0408    2.0182 C   0  0  0  0  0  0  0  0  0  0  0  0
   -6.5776   -2.1222    1.5073 O   0  0  0  0  0  0  0  0  0  0  0  0
   -6.5469   -1.4811    0.2834 C   0  0  2  0  0  0  0  0  0  0  0  0
   -6.5103   -2.1956   -0.9812 C   0  0  0  0  0  0  0  0  0  0  0  0
   -5.1513   -2.2489   -1.5815 C   0  0  2  0  0  0  0  0  0  0  0  0
   -5.1892   -3.4552   -2.3365 O   0  0  0  0  0  0  0  0  0  0  0  0
   -4.0187   -2.4552   -0.5163 C   0  0  2  0  0  0  0  0  0  0  0  0
   -4.4770   -3.7043    0.0983 C   0  0  0  0  0  0  0  0  0  0  0  0
   -2.8455   -2.6310   -1.4226 C   0  0  0  0  0  0  0  0  0  0  0  0
   -3.2268   -3.0905   -2.7364 O   0  0  0  0  0  0  0  0  0  0  0  0
   -1.6940   -3.4349   -1.0670 C   0  0  2  0  0  0  0  0  0  0  0  0
   -1.8404   -4.7176   -0.6403 O   0  0  0  0  0  0  0  0  0  0  0  0
   -1.3146   -5.7066   -1.4423 C   0  0  0  0  0  0  0  0  0  0  0  0
   -0.2821   -6.3967   -0.7683 O   0  0  0  0  0  0  0  0  0  0  0  0
   -2.4272   -6.7010   -1.7328 C   0  0  0  0  0  0  0  0  0  0  0  0
   -0.5978   -2.7991   -0.2792 C   0  0  1  0  0  0  0  0  0  0  0  0
    0.0859   -1.7752   -1.1395 C   0  0  0  0  0  0  0  0  0  0  0  0
    0.2847   -0.4411   -0.5488 C   0  0  1  0  0  0  0  0  0  0  0  0
    0.5663    0.5320   -1.5201 O   0  0  0  0  0  0  0  0  0  0  0  0
    1.6501    1.3330   -1.1898 C   0  0  0  0  0  0  0  0  0  0  0  0
    1.2304    2.6754   -1.0420 O   0  0  0  0  0  0  0  0  0  0  0  0
    2.7497    1.3598   -2.2229 C   0  0  2  0  0  0  0  0  0  0  0  0
    3.2947    0.1355   -2.4820 O   0  0  0  0  0  0  0  0  0  0  0  0
    3.8847    2.2065   -1.6799 C   0  0  1  0  0  0  0  0  0  0  0  0
    4.4511    1.7336   -0.4850 N   0  0  0  0  0  0  0  0  0  0  0  0
    5.0866    0.4788   -0.4278 C   0  0  0  0  0  0  0  0  0  0  0  0
    6.1199    0.2869   -1.3094 O   0  0  0  0  0  0  0  0  0  0  0  0
    5.6362    0.1898    0.9812 C   0  0  0  0  0  0  0  0  0  0  0  0
    6.2880   -1.1742    0.9192 C   0  0  0  0  0  0  0  0  0  0  0  0
    6.9475   -1.5277    2.2239 C   0  0  0  0  0  0  0  0  0  0  0  0
    7.9655   -0.4312    2.5141 C   0  0  0  0  0  0  0  0  0  0  0  0
    7.1826    0.8414    2.7578 C   0  0  0  0  0  0  0  0  0  0  0  0
    6.5556    1.2597    1.4510 C   0  0  0  0  0  0  0  0  0  0  0  0
    4.8708    2.3878   -2.8139 C   0  0  0  0  0  0  0  0  0  0  0  0
    6.0626    3.2186   -2.3999 C   0  0  0  0  0  0  0  0  0  0  0  0
    5.8341    4.6841   -2.5840 C   0  0  0  0  0  0  0  0  0  0  0  0
    5.7559    5.0065   -4.0596 C   0  0  0  0  0  0  0  0  0  0  0  0
    5.2645    3.7711   -4.7864 C   0  0  0  0  0  0  0  0  0  0  0  0
    4.1658    3.1611   -3.9082 C   0  0  0  0  0  0  0  0  0  0  0  0
   -0.9946   -0.0292    0.1568 C   0  0  0  0  0  0  0  0  0  0  0  0
    1.3436   -2.3501   -1.7850 C   0  0  0  0  0  0  0  0  0  0  0  0
   -0.8882   -2.3595    1.1022 C   0  0  0  0  0  0  0  0  0  0  0  0
    0.5408   -2.2396    1.7293 C   0  0  0  0  0  0  0  0  0  0  0  0
   -1.5598   -3.3058    2.0139 C   0  0  0  0  0  0  0  0  0  0  0  0
   -1.1029   -0.6144    2.3902 O   0  0  0  0  0  0  0  0  0  0  0  0
   -1.5602   -1.0374    1.0883 C   0  0  1  0  0  0  0  0  0  0  0  0
   -3.0203   -0.8286    1.2441 C   0  0  1  0  0  0  0  0  0  0  0  0
   -3.0855    0.5811    1.4740 O   0  0  0  0  0  0  0  0  0  0  0  0
   -3.1184    1.0769    2.6855 C   0  0  0  0  0  0  0  0  0  0  0  0
   -4.5440    1.3582    3.0679 O   0  0  0  0  0  0  0  0  0  0  0  0
   -2.4740    2.3493    3.0397 C   0  0  0  0  0  0  0  0  0  0  0  0
   -1.0338    2.5286    2.8985 C   0  0  0  0  0  0  0  0  0  0  0  0
   -0.7238    3.5408    1.7680 C   0  0  0  0  0  0  0  0  0  0  0  0
   -1.1343    4.8901    2.2881 C   0  0  0  0  0  0  0  0  0  0  0  0
   -2.5422    4.7703    2.8399 C   0  0  0  0  0  0  0  0  0  0  0  0
   -3.2340    3.5385    2.3699 C   0  0  0  0  0  0  0  0  0  0  0  0
   -3.9942   -1.1767    0.2409 C   0  0  2  0  0  0  0  0  0  0  0  0
   -5.3573   -0.6543    0.6564 C   0  0  2  0  0  0  0  0  0  0  0  0
   -5.5166    0.6169    0.3103 O   0  0  0  0  0  0  0  0  0  0  0  0
   -6.5652    1.3998    0.4544 C   0  0  0  0  0  0  0  0  0  0  0  0
   -7.3131    1.4679   -0.8127 O   0  0  0  0  0  0  0  0  0  0  0  0
   -6.4292    2.7978    0.9627 C   0  0  0  0  0  0  0  0  0  0  0  0
   -5.8451   -1.0408    2.0182 C   0  0  0  0  0  0  0  0  0  0  0  0
   -6.5776   -2.1222    1.5073 O   0  0  0  0  0  0  0  0  0  0  0  0
   -6.5469   -1.4811    0.2834 C   0  0  2  0  0  0  0  0  0  0  0  0
   -6.5103   -2.1956   -0.9812 C   0  0  0  0  0  0  0  0  0  0  0  0
   -5.1513   -2.2489   -1.5815 C   0  0  2  0  0  0  0  0  0  0  0  0
   -5.1892   -3.4552   -2.3365 O   0  0  0  0  0  0  0  0  0  0  0  0
   -4.0187   -2.4552   -0.5163 C   0  0  2  0  0  0  0  0  0  0  0  0
   -4.4770   -3.7043    0.0983 C   0  0  0  0  0  0  0  0  0  0  0  0
   -2.8455   -2.6310   -1.4226 C   0  0  0  0  0  0  0  0  0  0  0  0
   -3.2268   -3.0905   -2.7364 O   0  0  0  0  0  0  0  0  0  0  0  0
   -1.6940   -3.4349   -1.0670 C   0  0  2  0  0  0  0  0  0  0  0  0
   -1.8404   -4.7176   -0.6403 O   0  0  0  0  0  0  0  0  0  0  0  0
   -1.3146   -5.7066   -1.4423 C   0  0  0  0  0  0  0  0  0  0  0  0
   -0.2821   -6.3967   -0.7683 O   0  0  0  0  0  0  0  0  0  0  0  0
   -2.4272   -6.7010   -1.7328 C   0  0  0  0  0  0  0  0  0  0  0  0
   -0.5978   -2.7991   -0.2792 C   0  0  1  0  0  0  0  0  0  0  0  0
    0.0859   -1.7752   -1.1395 C   0  0  0  0  0  0  0  0  0  0  0  0
    0.2847   -0.4411   -0.5488 C   0  0  1  0  0  0  0  0  0  0  0  0
    0.5663    0.5320   -1.5201 O   0  0  0  0  0  0  0  0  0  0  0  0
    1.6501    1.3330   -1.1898 C   0  0  0  0  0  0  0  0  0  0  0  0
    1.2304    2.6754   -1.0420 O   0  0  0  0  0  0  0  0  0  0  0  0
    2.7497    1.3598   -2.2229 C   0  0  2  0  0  0  0  0  0  0  0  0
    3.2947    0.1355   -2.4820 O   0  0  0  0  0  0  0  0  0  0  0  0
    3.8847    2.2065   -1.6799 C   0  0  1  0  0  0  0  0  0  0  0  0
    4.4511    1.7336   -0.4850 N   0  0  0  0  0  0  0  0  0  0  0  0
    5.0866    0.4788   -0.4278 C   0  0  0  0  0  0  0  0  0  0  0  0
    6.1199    0.2869   -1.3094 O   0  0  0  0  0  0  0  0  0  0  0  0
    5.6362    0.1898    0.9812 C   0  0  0  0  0  0  0  0  0  0  0  0
    6.2880   -1.1742    0.9192 C   0  0  0  0  0  0  0  0  0  0  0  0
    6.9475   -1.5277    2.2239 C   0  0  0  0  0  0  0  0  0  0  0  0
    7.9655   -0.4312    2.5141 C   0  0  0  0  0  0  0  0  0  0  0  0
    7.1826    0.8414    2.7578 C   0  0  0  0  0  0  0  0  0  0  0  0
    6.5556    1.2597    1.4510 C   0  0  0  0  0  0  0  0  0  0  0  0
    4.8708    2.3878   -2.8139 C   0  0  0  0  0  0  0  0  0  0  0  0
    6.0626    3.2186   -2.3999 C   0  0  0  0  0  0  0  0  0  0  0  0
    5.8341    4.6841   -2.5840 C   0  0  0  0  0  0  0  0  0  0  0  0
    5.7559    5.0065   -4.0596 C   0  0  0  0  0  0  0  0  0  0  0  0
    5.2645    3.7711   -4.7864 C   0  0  0  0  0  0  0  0  0  0  0  0
    4.1658    3.1611   -3.9082 C   0  0  0  0  0  0  0  0  0  0  0  0
   -0.9946   -0.0292    0.1568 C   0  0  0  0  0  0  0  0  0  0  0  0
    1.3436   -2.3501   -1.7850 C   0  0  0  0  0  0  0  0  0  0  0  0
   -0.8882   -2.3595    1.1022 C   0  0  0  0  0  0  0  0  0  0  0  0
    0.5408   -2.2396    1.7293 C   0  0  0  0  0  0  0  0  0  0  0  0
   -1.5598   -3.3058    2.0139 C   0  0  0  0  0  0  0  0  0  0  0  0
   -1.2470   -1.2972    3.0600 H   0  0  0  0  0  0  0  0  0  0  0  0
   -3.2575   -1.2377    2.2545 H   0  0  0  0  0  0  0  0  0  0  0  0
   -2.8538    0.3976    3.5624 H   0  0  0  0  0  0  0  0  0  0  0  0
   -4.4684    1.6340    4.0214 H   0  0  0  0  0  0  0  0  0  0  0  0
   -2.7070    2.5917    4.1516 H   0  0  0  0  0  0  0  0  0  0  0  0
   -0.5971    3.1176    3.8139 H   0  0  0  0  0  0  0  0  0  0  0  0
   -0.3556    1.7075    2.7842 H   0  0  0  0  0  0  0  0  0  0  0  0
   -1.2837    3.3287    0.8574 H   0  0  0  0  0  0  0  0  0  0  0  0
    0.3560    3.4930    1.5448 H   0  0  0  0  0  0  0  0  0  0  0  0
   -1.0744    5.6325    1.4713 H   0  0  0  0  0  0  0  0  0  0  0  0
   -0.4624    5.2557    3.0954 H   0  0  0  0  0  0  0  0  0  0  0  0
   -3.0960    5.6739    2.4896 H   0  0  0  0  0  0  0  0  0  0  0  0
   -2.5167    4.8278    3.9377 H   0  0  0  0  0  0  0  0  0  0  0  0
   -3.2663    3.4143    1.2958 H   0  0  0  0  0  0  0  0  0  0  0  0
   -4.2478    3.5009    2.7889 H   0  0  0  0  0  0  0  0  0  0  0  0
   -3.7464   -0.4836   -0.6571 H   0  0  0  0  0  0  0  0  0  0  0  0
   -7.3479    0.8956    1.0521 H   0  0  0  0  0  0  0  0  0  0  0  0
   -8.0419    2.1096   -0.6907 H   0  0  0  0  0  0  0  0  0  0  0  0
   -6.4559    2.9381    2.0413 H   0  0  0  0  0  0  0  0  0  0  0  0
   -5.4995    3.3024    0.5856 H   0  0  0  0  0  0  0  0  0  0  0  0
   -7.3356    3.3748    0.5902 H   0  0  0  0  0  0  0  0  0  0  0  0
   -5.1433   -1.2999    2.7992 H   0  0  0  0  0  0  0  0  0  0  0  0
   -6.6036   -0.3329    2.4615 H   0  0  0  0  0  0  0  0  0  0  0  0
   -7.4804   -0.8529    0.2966 H   0  0  0  0  0  0  0  0  0  0  0  0
   -7.1219   -1.6686   -1.7979 H   0  0  0  0  0  0  0  0  0  0  0  0
   -7.0614   -3.1768   -0.9591 H   0  0  0  0  0  0  0  0  0  0  0  0
   -4.9479   -1.3753   -2.1953 H   0  0  0  0  0  0  0  0  0  0  0  0
   -6.0719   -3.5735   -2.7671 H   0  0  0  0  0  0  0  0  0  0  0  0
   -3.9985   -4.5494   -0.4977 H   0  0  0  0  0  0  0  0  0  0  0  0
   -5.5411   -3.9935   -0.0148 H   0  0  0  0  0  0  0  0  0  0  0  0
   -4.2888   -3.8015    1.1828 H   0  0  0  0  0  0  0  0  0  0  0  0
   -2.5459   -1.5961   -1.6971 H   0  0  0  0  0  0  0  0  0  0  0  0
   -2.4105   -3.3383   -3.2246 H   0  0  0  0  0  0  0  0  0  0  0  0
   -1.1232   -3.6015   -2.0622 H   0  0  0  0  0  0  0  0  0  0  0  0
   -0.8345   -5.3096   -2.3563 H   0  0  0  0  0  0  0  0  0  0  0  0
    0.1884   -7.0228   -1.3413 H   0  0  0  0  0  0  0  0  0  0  0  0
   -3.0760   -6.7484   -0.8327 H   0  0  0  0  0  0  0  0  0  0  0  0
   -3.0742   -6.3937   -2.5683 H   0  0  0  0  0  0  0  0  0  0  0  0
   -1.9953   -7.6755   -1.9634 H   0  0  0  0  0  0  0  0  0  0  0  0
    0.1652   -3.6410   -0.1760 H   0  0  0  0  0  0  0  0  0  0  0  0
   -0.5627   -1.5838   -2.0547 H   0  0  0  0  0  0  0  0  0  0  0  0
    1.0707   -0.2997    0.1988 H   0  0  0  0  0  0  0  0  0  0  0  0
    2.0454    1.0086   -0.2057 H   0  0  0  0  0  0  0  0  0  0  0  0
    1.7393    3.1745   -0.3867 H   0  0  0  0  0  0  0  0  0  0  0  0
    2.3288    1.7780   -3.1501 H   0  0  0  0  0  0  0  0  0  0  0  0
    3.4419   -0.0437   -3.4379 H   0  0  0  0  0  0  0  0  0  0  0  0
    3.4561    3.2127   -1.4843 H   0  0  0  0  0  0  0  0  0  0  0  0
    3.8215    1.8806    0.3067 H   0  0  0  0  0  0  0  0  0  0  0  0
    4.3864   -0.4049   -0.5570 H   0  0  0  0  0  0  0  0  0  0  0  0
    6.0714   -0.6041   -1.7820 H   0  0  0  0  0  0  0  0  0  0  0  0
    4.7989    0.1011    1.7041 H   0  0  0  0  0  0  0  0  0  0  0  0
    6.9765   -1.2983    0.0815 H   0  0  0  0  0  0  0  0  0  0  0  0
    5.4576   -1.9204    0.7734 H   0  0  0  0  0  0  0  0  0  0  0  0
    6.2038   -1.6102    3.0460 H   0  0  0  0  0  0  0  0  0  0  0  0
    7.4757   -2.4840    2.1206 H   0  0  0  0  0  0  0  0  0  0  0  0
    8.5269   -0.7683    3.4017 H   0  0  0  0  0  0  0  0  0  0  0  0
    8.5478   -0.2941    1.6010 H   0  0  0  0  0  0  0  0  0  0  0  0
    6.3962    0.6345    3.4892 H   0  0  0  0  0  0  0  0  0  0  0  0
    7.8770    1.6750    3.0627 H   0  0  0  0  0  0  0  0  0  0  0  0
    5.9669    2.1973    1.5454 H   0  0  0  0  0  0  0  0  0  0  0  0
    7.3820    1.3639    0.7175 H   0  0  0  0  0  0  0  0  0  0  0  0
    5.1751    1.4186   -3.2609 H   0  0  0  0  0  0  0  0  0  0  0  0
    6.9374    2.8514   -2.9991 H   0  0  0  0  0  0  0  0  0  0  0  0
    6.3532    3.0632   -1.3357 H   0  0  0  0  0  0  0  0  0  0  0  0
    4.9369    4.9735   -2.0327 H   0  0  0  0  0  0  0  0  0  0  0  0
    6.7069    5.2180   -2.1087 H   0  0  0  0  0  0  0  0  0  0  0  0
    6.7955    5.2300   -4.3835 H   0  0  0  0  0  0  0  0  0  0  0  0
    5.0449    5.8147   -4.2532 H   0  0  0  0  0  0  0  0  0  0  0  0
    6.0786    2.9949   -4.8412 H   0  0  0  0  0  0  0  0  0  0  0  0
    4.9005    3.9937   -5.7963 H   0  0  0  0  0  0  0  0  0  0  0  0
    3.5022    3.9610   -3.5006 H   0  0  0  0  0  0  0  0  0  0  0  0
    3.5633    2.5179   -4.5837 H   0  0  0  0  0  0  0  0  0  0  0  0
   -0.7580    0.9477    0.6247 H   0  0  0  0  0  0  0  0  0  0  0  0
   -1.7544    0.2309   -0.6196 H   0  0  0  0  0  0  0  0  0  0  0  0
    1.4650   -1.8598   -2.7665 H   0  0  0  0  0  0  0  0  0  0  0  0
    2.2462   -2.1856   -1.1677 H   0  0  0  0  0  0  0  0  0  0  0  0
    1.1550   -3.4214   -1.9893 H   0  0  0  0  0  0  0  0  0  0  0  0
    1.3324   -2.5010    1.0236 H   0  0  0  0  0  0  0  0  0  0  0  0
    0.6926   -3.0365    2.5234 H   0  0  0  0  0  0  0  0  0  0  0  0
    0.6566   -1.3206    2.2989 H   0  0  0  0  0  0  0  0  0  0  0  0
   -1.6071   -4.3595    1.5928 H   0  0  0  0  0  0  0  0  0  0  0  0
   -2.5091   -3.0155    2.4603 H   0  0  0  0  0  0  0  0  0  0  0  0
   -0.9335   -3.5088    2.9539 H   0  0  0  0  0  0  0  0  0  0  0  0
   -1.2470   -1.2972    3.0600 H   0  0  0  0  0  0  0  0  0  0  0  0
   -3.2575   -1.2377    2.2545 H   0  0  0  0  0  0  0  0  0  0  0  0
   -2.8538    0.3976    3.5624 H   0  0  0  0  0  0  0  0  0  0  0  0
   -4.4684    1.6340    4.0214 H   0  0  0  0  0  0  0  0  0  0  0  0
   -2.7070    2.5917    4.1516 H   0  0  0  0  0  0  0  0  0  0  0  0
   -0.5971    3.1176    3.8139 H   0  0  0  0  0  0  0  0  0  0  0  0
   -0.3556    1.7075    2.7842 H   0  0  0  0  0  0  0  0  0  0  0  0
   -1.2837    3.3287    0.8574 H   0  0  0  0  0  0  0  0  0  0  0  0
    0.3560    3.4930    1.5448 H   0  0  0  0  0  0  0  0  0  0  0  0
   -1.0744    5.6325    1.4713 H   0  0  0  0  0  0  0  0  0  0  0  0
   -0.4624    5.2557    3.0954 H   0  0  0  0  0  0  0  0  0  0  0  0
   -3.0960    5.6739    2.4896 H   0  0  0  0  0  0  0  0  0  0  0  0
   -2.5167    4.8278    3.9377 H   0  0  0  0  0  0  0  0  0  0  0  0
   -3.2663    3.4143    1.2958 H   0  0  0  0  0  0  0  0  0  0  0  0
   -4.2478    3.5009    2.7889 H   0  0  0  0  0  0  0  0  0  0  0  0
   -3.7464   -0.4836   -0.6571 H   0  0  0  0  0  0  0  0  0  0  0  0
   -7.3479    0.8956    1.0521 H   0  0  0  0  0  0  0  0  0  0  0  0
   -8.0419    2.1096   -0.6907 H   0  0  0  0  0  0  0  0  0  0  0  0
   -6.4559    2.9381    2.0413 H   0  0  0  0  0  0  0  0  0  0  0  0
   -5.4995    3.3024    0.5856 H   0  0  0  0  0  0  0  0  0  0  0  0
   -7.3356    3.3748    0.5902 H   0  0  0  0  0  0  0  0  0  0  0  0
   -5.1433   -1.2999    2.7992 H   0  0  0  0  0  0  0  0  0  0  0  0
   -6.6036   -0.3329    2.4615 H   0  0  0  0  0  0  0  0  0  0  0  0
   -7.4804   -0.8529    0.2966 H   0  0  0  0  0  0  0  0  0  0  0  0
   -7.1219   -1.6686   -1.7979 H   0  0  0  0  0  0  0  0  0  0  0  0
   -7.0614   -3.1768   -0.9591 H   0  0  0  0  0  0  0  0  0  0  0  0
   -4.9479   -1.3753   -2.1953 H   0  0  0  0  0  0  0  0  0  0  0  0
   -6.0719   -3.5735   -2.7671 H   0  0  0  0  0  0  0  0  0  0  0  0
   -3.9985   -4.5494   -0.4977 H   0  0  0  0  0  0  0  0  0  0  0  0
   -5.5411   -3.9935   -0.0148 H   0  0  0  0  0  0  0  0  0  0  0  0
   -4.2888   -3.8015    1.1828 H   0  0  0  0  0  0  0  0  0  0  0  0
   -2.5459   -1.5961   -1.6971 H   0  0  0  0  0  0  0  0  0  0  0  0
   -2.4105   -3.3383   -3.2246 H   0  0  0  0  0  0  0  0  0  0  0  0
   -1.1232   -3.6015   -2.0622 H   0  0  0  0  0  0  0  0  0  0  0  0
   -0.8345   -5.3096   -2.3563 H   0  0  0  0  0  0  0  0  0  0  0  0
    0.1884   -7.0228   -1.3413 H   0  0  0  0  0  0  0  0  0  0  0  0
   -3.0760   -6.7484   -0.8327 H   0  0  0  0  0  0  0  0  0  0  0  0
   -3.0742   -6.3937   -2.5683 H   0  0  0  0  0  0  0  0  0  0  0  0
   -1.9953   -7.6755   -1.9634 H   0  0  0  0  0  0  0  0  0  0  0  0
    0.1652   -3.6410   -0.1760 H   0  0  0  0  0  0  0  0  0  0  0  0
   -0.5627   -1.5838   -2.0547 H   0  0  0  0  0  0  0  0  0  0  0  0
    1.0707   -0.2997    0.1988 H   0  0  0  0  0  0  0  0  0  0  0  0
    2.0454    1.0086   -0.2057 H   0  0  0  0  0  0  0  0  0  0  0  0
    1.7393    3.1745   -0.3867 H   0  0  0  0  0  0  0  0  0  0  0  0
    2.3288    1.7780   -3.1501 H   0  0  0  0  0  0  0  0  0  0  0  0
    3.4419   -0.0437   -3.4379 H   0  0  0  0  0  0  0  0  0  0  0  0
    3.4561    3.2127   -1.4843 H   0  0  0  0  0  0  0  0  0  0  0  0
    3.8215    1.8806    0.3067 H   0  0  0  0  0  0  0  0  0  0  0  0
    4.3864   -0.4049   -0.5570 H   0  0  0  0  0  0  0  0  0  0  0  0
    6.0714   -0.6041   -1.7820 H   0  0  0  0  0  0  0  0  0  0  0  0
    4.7989    0.1011    1.7041 H   0  0  0  0  0  0  0  0  0  0  0  0
    6.9765   -1.2983    0.0815 H   0  0  0  0  0  0  0  0  0  0  0  0
    5.4576   -1.9204    0.7734 H   0  0  0  0  0  0  0  0  0  0  0  0
    6.2038   -1.6102    3.0460 H   0  0  0  0  0  0  0  0  0  0  0  0
    7.4757   -2.4840    2.1206 H   0  0  0  0  0  0  0  0  0  0  0  0
    8.5269   -0.7683    3.4017 H   0  0  0  0  0  0  0  0  0  0  0  0
    8.5478   -0.2941    1.6010 H   0  0  0  0  0  0  0  0  0  0  0  0
    6.3962    0.6345    3.4892 H   0  0  0  0  0  0  0  0  0  0  0  0
    7.8770    1.6750    3.0627 H   0  0  0  0  0  0  0  0  0  0  0  0
    5.9669    2.1973    1.5454 H   0  0  0  0  0  0  0  0  0  0  0  0
    7.3820    1.3639    0.7175 H   0  0  0  0  0  0  0  0  0  0  0  0
    5.1751    1.4186   -3.2609 H   0  0  0  0  0  0  0  0  0  0  0  0
    6.9374    2.8514   -2.9991 H   0  0  0  0  0  0  0  0  0  0  0  0
    6.3532    3.0632   -1.3357 H   0  0  0  0  0  0  0  0  0  0  0  0
    4.9369    4.9735   -2.0327 H   0  0  0  0  0  0  0  0  0  0  0  0
    6.7069    5.2180   -2.1087 H   0  0  0  0  0  0  0  0  0  0  0  0
    6.7955    5.2300   -4.3835 H   0  0  0  0  0  0  0  0  0  0  0  0
    5.0449    5.8147   -4.2532 H   0  0  0  0  0  0  0  0  0  0  0  0
    6.0786    2.9949   -4.8412 H   0  0  0  0  0  0  0  0  0  0  0  0
    4.9005    3.9937   -5.7963 H   0  0  0  0  0  0  0  0  0  0  0  0
    3.5022    3.9610   -3.5006 H   0  0  0  0  0  0  0  0  0  0  0  0
    3.5633    2.5179   -4.5837 H   0  0  0  0  0  0  0  0  0  0  0  0
   -0.7580    0.9477    0.6247 H   0  0  0  0  0  0  0  0  0  0  0  0
   -1.7544    0.2309   -0.6196 H   0  0  0  0  0  0  0  0  0  0  0  0
    1.4650   -1.8598   -2.7665 H   0  0  0  0  0  0  0  0  0  0  0  0
    2.2462   -2.1856   -1.1677 H   0  0  0  0  0  0  0  0  0  0  0  0
    1.1550   -3.4214   -1.9893 H   0  0  0  0  0  0  0  0  0  0  0  0
    1.3324   -2.5010    1.0236 H   0  0  0  0  0  0  0  0  0  0  0  0
    0.6926   -3.0365    2.5234 H   0  0  0  0  0  0  0  0  0  0  0  0
    0.6566   -1.3206    2.2989 H   0  0  0  0  0  0  0  0  0  0  0  0
   -1.6071   -4.3595    1.5928 H   0  0  0  0  0  0  0  0  0  0  0  0
   -2.5091   -3.0155    2.4603 H   0  0  0  0  0  0  0  0  0  0  0  0
   -0.9335   -3.5088    2.9539 H   0  0  0  0  0  0  0  0  0  0  0  0
  2  1  1  1
  2  3  1  0
  3  4  1  0
  4  5  1  0
  5  6  1  0
  5  7  1  0
  7  8  1  0
  8  9  1  0
  9 10  1  0
 10 11  1  0
  7 12  1  0
 11 12  1  0
  3 13  1  0
 13 14  1  0
 14 15  1  1
 15 16  1  0
 16 17  1  0
 16 18  1  0
 14 19  1  0
 19 20  1  0
 14 21  1  0
 20 21  1  0
 21 22  1  0
 22 23  1  0
 23 24  1  0
 13 25  1  0
 23 25  1  0
 25 26  1  1
 25 27  1  0
 27 28  1  0
 27 29  1  0
 29 30  1  0
 30 31  1  0
 31 32  1  0
 31 33  1  0
 29 34  1  0
 34 35  1  0
 35 36  1  0
 36 37  1  0
 37 38  1  0
 38 39  1  0
 38 40  1  0
 40 41  1  0
 40 42  1  0
 42 43  1  0
 43 44  1  0
 44 45  1  0
 44 46  1  0
 46 47  1  0
 47 48  1  0
 48 49  1  0
 49 50  1  0
 46 51  1  0
 50 51  1  0
 42 52  1  0
 52 53  1  0
 53 54  1  0
 54 55  1  0
 55 56  1  0
 52 57  1  0
 56 57  1  0
  2 58  1  0
 36 58  1  0
 35 59  1  0
  2 60  1  0
 34 60  1  0
 60 61  1  0
 60 62  1  0
 64 63  1  1
 64 65  1  0
 65 66  1  0
 66 67  1  0
 67 68  1  0
 67 69  1  0
 69 70  1  0
 70 71  1  0
 71 72  1  0
 72 73  1  0
 69 74  1  0
 73 74  1  0
 65 75  1  0
 75 76  1  0
 76 77  1  1
 77 78  1  0
 78 79  1  0
 78 80  1  0
 76 81  1  0
 81 82  1  0
 76 83  1  0
 82 83  1  0
 83 84  1  0
 84 85  1  0
 85 86  1  0
 75 87  1  0
 85 87  1  0
 87 88  1  1
 87 89  1  0
 89 90  1  0
 89 91  1  0
 91 92  1  0
 92 93  1  0
 93 94  1  0
 93 95  1  0
 91 96  1  0
 96 97  1  0
 97 98  1  0
 98 99  1  0
 99100  1  0
100101  1  0
100102  1  0
102103  1  0
102104  1  0
104105  1  0
105106  1  0
106107  1  0
106108  1  0
108109  1  0
109110  1  0
110111  1  0
111112  1  0
108113  1  0
112113  1  0
104114  1  0
114115  1  0
115116  1  0
116117  1  0
117118  1  0
114119  1  0
118119  1  0
 64120  1  0
 98120  1  0
 97121  1  0
 64122  1  0
 96122  1  0
122123  1  0
122124  1  0
  1125  1  0
  3126  1  1
  5127  1  0
  6128  1  0
  7129  1  0
  8130  1  0
  8131  1  0
  9132  1  0
  9133  1  0
 10134  1  0
 10135  1  0
 11136  1  0
 11137  1  0
 12138  1  0
 12139  1  0
 13140  1  6
 16141  1  0
 17142  1  0
 18143  1  0
 18144  1  0
 18145  1  0
 19146  1  0
 19147  1  0
 21148  1  6
 22149  1  0
 22150  1  0
 23151  1  6
 24152  1  0
 26153  1  0
 26154  1  0
 26155  1  0
 27156  1  0
 28157  1  0
 29158  1  6
 31159  1  0
 32160  1  0
 33161  1  0
 33162  1  0
 33163  1  0
 34164  1  1
 35165  1  0
 36166  1  1
 38167  1  0
 39168  1  0
 40169  1  6
 41170  1  0
 42171  1  1
 43172  1  0
 44173  1  0
 45174  1  0
 46175  1  0
 47176  1  0
 47177  1  0
 48178  1  0
 48179  1  0
 49180  1  0
 49181  1  0
 50182  1  0
 50183  1  0
 51184  1  0
 51185  1  0
 52186  1  0
 53187  1  0
 53188  1  0
 54189  1  0
 54190  1  0
 55191  1  0
 55192  1  0
 56193  1  0
 56194  1  0
 57195  1  0
 57196  1  0
 58197  1  0
 58198  1  0
 59199  1  0
 59200  1  0
 59201  1  0
 61202  1  0
 61203  1  0
 61204  1  0
 62205  1  0
 62206  1  0
 62207  1  0
 63208  1  0
 65209  1  1
 67210  1  0
 68211  1  0
 69212  1  0
 70213  1  0
 70214  1  0
 71215  1  0
 71216  1  0
 72217  1  0
 72218  1  0
 73219  1  0
 73220  1  0
 74221  1  0
 74222  1  0
 75223  1  6
 78224  1  0
 79225  1  0
 80226  1  0
 80227  1  0
 80228  1  0
 81229  1  0
 81230  1  0
 83231  1  6
 84232  1  0
 84233  1  0
 85234  1  6
 86235  1  0
 88236  1  0
 88237  1  0
 88238  1  0
 89239  1  0
 90240  1  0
 91241  1  6
 93242  1  0
 94243  1  0
 95244  1  0
 95245  1  0
 95246  1  0
 96247  1  1
 97248  1  0
 98249  1  1
100250  1  0
101251  1  0
102252  1  6
103253  1  0
104254  1  1
105255  1  0
106256  1  0
107257  1  0
108258  1  0
109259  1  0
109260  1  0
110261  1  0
110262  1  0
111263  1  0
111264  1  0
112265  1  0
112266  1  0
113267  1  0
113268  1  0
114269  1  0
115270  1  0
115271  1  0
116272  1  0
116273  1  0
117274  1  0
117275  1  0
118276  1  0
118277  1  0
119278  1  0
119279  1  0
120280  1  0
120281  1  0
121282  1  0
121283  1  0
121284  1  0
123285  1  0
123286  1  0
123287  1  0
124288  1  0
124289  1  0
124290  1  0
M  END
>  <PDBID>  (1) 
5M50

>  <PDB ID>  (1) 
5M50

>  <Generic Name>  (1) 
Paclitaxel

>  <Brand Name>  (1) 
Abraxane#Abraxane for Injectable Suspension#Aj-paclitaxel#Apo-paclitaxel Injectable#Paclitaxel#Paclitaxel Injection#Paclitaxel Injection USP#Paclitaxel Injection, USP#Paclitaxel Paclitaxel#Paclitaxel for Injection#Paclitaxel for Injection USP#Paxene#Taxol#Teva-paclitaxel for Injection#Onxol#Paxceed

>  <DrugBank ID>  (1) 
DB01229

>  <ATC Codes>  (1) 
L01CD01

>  <Ligand ID>  (1) 
TA1

>  <Target Name>  (1) 
Tubulin beta-1 chain

>  <UniProt ID>  (1) 
Q9H4B7

>  <PDB ID.1>  (1) 
5M50

>  <Seq. Identity>  (1) 
78%

$$$$
