PDB_DB00773_08
     RDKit          3D

176188  0  0  0  0  0  0  0  0999 V2000
   -0.4535    1.4081   -5.7299 C   0  0  0  0  0  0  0  0  0  0  0  0
    0.5363    0.6428   -5.0815 O   0  0  0  0  0  0  0  0  0  0  0  0
   -1.3050    0.6475   -3.8638 C   0  0  0  0  0  0  0  0  0  0  0  0
   -1.4783    1.6286   -4.8100 O   0  0  0  0  0  0  0  0  0  0  0  0
   -1.9949    0.8939   -2.5444 C   0  0  0  0  0  0  0  0  0  0  0  0
   -0.0718   -0.9453    2.7697 O   0  0  0  0  0  0  0  0  0  0  0  0
   -1.0186    0.6699   -1.4233 C   0  0  0  0  0  0  0  0  0  0  0  0
   -1.3155    0.8134    3.1974 O   0  0  0  0  0  0  0  0  0  0  0  0
   -1.6479    0.7562   -0.0431 C   0  0  2  0  0  0  0  0  0  0  0  0
   -5.4245   -2.2577    0.1063 O   0  0  0  0  0  0  0  0  0  0  0  0
   -0.8530    0.0379    0.9397 C   0  0  1  0  0  0  0  0  0  0  0  0
   -6.2015    0.5319    0.1310 O   0  0  0  0  0  0  0  0  0  0  0  0
   -1.2485   -0.2713    2.3012 C   0  0  1  0  0  0  0  0  0  0  0  0
   -5.5097    1.6314    2.6649 O   0  0  0  0  0  0  0  0  0  0  0  0
    0.2957   -1.8044    1.7657 C   0  0  0  0  0  0  0  0  0  0  0  0
    1.3904    0.1277   -0.1792 O   0  0  0  0  0  0  0  0  0  0  0  0
   -0.3125   -1.3284    0.5117 C   0  0  2  0  0  0  0  0  0  0  0  0
    3.2401    0.0136    1.1775 O   0  0  0  0  0  0  0  0  0  0  0  0
    0.6863   -0.9698   -0.5824 C   0  0  1  0  0  0  0  0  0  0  0  0
    6.4304   -1.3263    2.1500 O   0  0  0  0  0  0  0  0  0  0  0  0
   -0.2581   -0.5690   -1.6972 C   0  0  0  0  0  0  0  0  0  0  0  0
    6.7231   -0.0277    0.3145 O   0  0  0  0  0  0  0  0  0  0  0  0
    0.5807   -0.5161   -2.9573 C   0  0  0  0  0  0  0  0  0  0  0  0
    5.6329    1.7915   -1.6019 O   0  0  0  0  0  0  0  0  0  0  0  0
    0.2235    0.7031   -3.7206 C   0  0  0  0  0  0  0  0  0  0  0  0
    2.9427    1.5975   -2.0272 O   0  0  0  0  0  0  0  0  0  0  0  0
   -3.1586    0.6583   -0.0330 C   0  0  0  0  0  0  0  0  0  0  0  0
   -3.8051   -0.5966   -0.4386 C   0  0  0  0  0  0  0  0  0  0  0  0
   -4.6709   -1.2377    0.6691 C   0  0  0  0  0  0  0  0  0  0  0  0
   -5.6216   -0.1865    1.1935 C   0  0  0  0  0  0  0  0  0  0  0  0
   -4.6889    0.7294    1.9884 C   0  0  0  0  0  0  0  0  0  0  0  0
   -3.8401    1.4600    1.0233 C   0  0  0  0  0  0  0  0  0  0  0  0
   -5.2058   -3.4598    0.7534 C   0  0  0  0  0  0  0  0  0  0  0  0
   -5.3554    1.5230    4.0483 C   0  0  0  0  0  0  0  0  0  0  0  0
    2.7454    0.0626   -0.1572 C   0  0  2  0  0  0  0  0  0  0  0  0
    4.5503   -0.4921    1.0443 C   0  0  2  0  0  0  0  0  0  0  0  0
    5.1239   -0.9159    2.3615 C   0  0  0  0  0  0  0  0  0  0  0  0
    7.1621   -0.2478    1.6256 C   0  0  2  0  0  0  0  0  0  0  0  0
    5.4622    0.5503    0.4084 C   0  0  2  0  0  0  0  0  0  0  0  0
    4.9551    0.7379   -1.0242 C   0  0  1  0  0  0  0  0  0  0  0  0
    3.4910    1.1632   -0.8559 C   0  0  1  0  0  0  0  0  0  0  0  0
    8.6413   -0.4744    1.6651 C   0  0  0  0  0  0  0  0  0  0  0  0
   -0.4535    1.4081   -5.7299 C   0  0  0  0  0  0  0  0  0  0  0  0
    0.5363    0.6428   -5.0815 O   0  0  0  0  0  0  0  0  0  0  0  0
   -1.3050    0.6475   -3.8638 C   0  0  0  0  0  0  0  0  0  0  0  0
   -1.4783    1.6286   -4.8100 O   0  0  0  0  0  0  0  0  0  0  0  0
   -1.9949    0.8939   -2.5444 C   0  0  0  0  0  0  0  0  0  0  0  0
   -0.0718   -0.9453    2.7697 O   0  0  0  0  0  0  0  0  0  0  0  0
   -1.0186    0.6699   -1.4233 C   0  0  0  0  0  0  0  0  0  0  0  0
   -1.3155    0.8134    3.1974 O   0  0  0  0  0  0  0  0  0  0  0  0
   -1.6479    0.7562   -0.0431 C   0  0  2  0  0  0  0  0  0  0  0  0
   -5.4245   -2.2577    0.1063 O   0  0  0  0  0  0  0  0  0  0  0  0
   -0.8530    0.0379    0.9397 C   0  0  1  0  0  0  0  0  0  0  0  0
   -6.2015    0.5319    0.1310 O   0  0  0  0  0  0  0  0  0  0  0  0
   -1.2485   -0.2713    2.3012 C   0  0  1  0  0  0  0  0  0  0  0  0
   -5.5097    1.6314    2.6649 O   0  0  0  0  0  0  0  0  0  0  0  0
    0.2957   -1.8044    1.7657 C   0  0  0  0  0  0  0  0  0  0  0  0
    1.3904    0.1277   -0.1792 O   0  0  0  0  0  0  0  0  0  0  0  0
   -0.3125   -1.3284    0.5117 C   0  0  2  0  0  0  0  0  0  0  0  0
    3.2401    0.0136    1.1775 O   0  0  0  0  0  0  0  0  0  0  0  0
    0.6863   -0.9698   -0.5824 C   0  0  1  0  0  0  0  0  0  0  0  0
    6.4304   -1.3263    2.1500 O   0  0  0  0  0  0  0  0  0  0  0  0
   -0.2581   -0.5690   -1.6972 C   0  0  0  0  0  0  0  0  0  0  0  0
    6.7231   -0.0277    0.3145 O   0  0  0  0  0  0  0  0  0  0  0  0
    0.5807   -0.5161   -2.9573 C   0  0  0  0  0  0  0  0  0  0  0  0
    5.6329    1.7915   -1.6019 O   0  0  0  0  0  0  0  0  0  0  0  0
    0.2235    0.7031   -3.7206 C   0  0  0  0  0  0  0  0  0  0  0  0
    2.9427    1.5975   -2.0272 O   0  0  0  0  0  0  0  0  0  0  0  0
   -3.1586    0.6583   -0.0330 C   0  0  0  0  0  0  0  0  0  0  0  0
   -3.8051   -0.5966   -0.4386 C   0  0  0  0  0  0  0  0  0  0  0  0
   -4.6709   -1.2377    0.6691 C   0  0  0  0  0  0  0  0  0  0  0  0
   -5.6216   -0.1865    1.1935 C   0  0  0  0  0  0  0  0  0  0  0  0
   -4.6889    0.7294    1.9884 C   0  0  0  0  0  0  0  0  0  0  0  0
   -3.8401    1.4600    1.0233 C   0  0  0  0  0  0  0  0  0  0  0  0
   -5.2058   -3.4598    0.7534 C   0  0  0  0  0  0  0  0  0  0  0  0
   -5.3554    1.5230    4.0483 C   0  0  0  0  0  0  0  0  0  0  0  0
    2.7454    0.0626   -0.1572 C   0  0  2  0  0  0  0  0  0  0  0  0
    4.5503   -0.4921    1.0443 C   0  0  2  0  0  0  0  0  0  0  0  0
    5.1239   -0.9159    2.3615 C   0  0  0  0  0  0  0  0  0  0  0  0
    7.1621   -0.2478    1.6256 C   0  0  2  0  0  0  0  0  0  0  0  0
    5.4622    0.5503    0.4084 C   0  0  2  0  0  0  0  0  0  0  0  0
    4.9551    0.7379   -1.0242 C   0  0  1  0  0  0  0  0  0  0  0  0
    3.4910    1.1632   -0.8559 C   0  0  1  0  0  0  0  0  0  0  0  0
    8.6413   -0.4744    1.6651 C   0  0  0  0  0  0  0  0  0  0  0  0
   -0.8595    0.8680   -6.6199 H   0  0  0  0  0  0  0  0  0  0  0  0
   -0.0726    2.4052   -6.0303 H   0  0  0  0  0  0  0  0  0  0  0  0
   -1.5037   -0.3696   -4.2761 H   0  0  0  0  0  0  0  0  0  0  0  0
   -2.3375    1.9526   -2.6023 H   0  0  0  0  0  0  0  0  0  0  0  0
   -2.8309    0.1761   -2.5618 H   0  0  0  0  0  0  0  0  0  0  0  0
   -0.2585    1.5058   -1.5594 H   0  0  0  0  0  0  0  0  0  0  0  0
   -0.6937    1.5199    2.9762 H   0  0  0  0  0  0  0  0  0  0  0  0
   -1.5195    1.8523    0.2091 H   0  0  0  0  0  0  0  0  0  0  0  0
    0.1151    0.6229    1.0918 H   0  0  0  0  0  0  0  0  0  0  0  0
   -6.6392   -0.1155   -0.4732 H   0  0  0  0  0  0  0  0  0  0  0  0
   -2.0170   -1.0161    2.4868 H   0  0  0  0  0  0  0  0  0  0  0  0
    1.3926   -1.9690    1.7001 H   0  0  0  0  0  0  0  0  0  0  0  0
   -0.1382   -2.8148    2.0213 H   0  0  0  0  0  0  0  0  0  0  0  0
   -1.0571   -1.9976    0.1192 H   0  0  0  0  0  0  0  0  0  0  0  0
    1.2837   -1.8327   -0.8876 H   0  0  0  0  0  0  0  0  0  0  0  0
   -1.0088   -1.4026   -1.7708 H   0  0  0  0  0  0  0  0  0  0  0  0
    1.6509   -0.6426   -2.7586 H   0  0  0  0  0  0  0  0  0  0  0  0
    0.3018   -1.4050   -3.6060 H   0  0  0  0  0  0  0  0  0  0  0  0
    5.9043    2.5010   -0.9888 H   0  0  0  0  0  0  0  0  0  0  0  0
    0.5815    1.6584   -3.3644 H   0  0  0  0  0  0  0  0  0  0  0  0
    3.5929    2.0969   -2.5600 H   0  0  0  0  0  0  0  0  0  0  0  0
   -3.3638    1.3235   -0.9658 H   0  0  0  0  0  0  0  0  0  0  0  0
   -4.6235   -0.4879   -1.2230 H   0  0  0  0  0  0  0  0  0  0  0  0
   -3.1839   -1.4113   -0.8068 H   0  0  0  0  0  0  0  0  0  0  0  0
   -4.0900   -1.6367    1.4885 H   0  0  0  0  0  0  0  0  0  0  0  0
   -6.3595   -0.6166    1.8711 H   0  0  0  0  0  0  0  0  0  0  0  0
   -4.0857    0.1189    2.6571 H   0  0  0  0  0  0  0  0  0  0  0  0
   -4.5202    2.2826    0.6216 H   0  0  0  0  0  0  0  0  0  0  0  0
   -3.0748    2.0465    1.5679 H   0  0  0  0  0  0  0  0  0  0  0  0
   -4.1384   -3.7673    0.7012 H   0  0  0  0  0  0  0  0  0  0  0  0
   -5.4900   -3.4301    1.8212 H   0  0  0  0  0  0  0  0  0  0  0  0
   -5.8519   -4.2364    0.2850 H   0  0  0  0  0  0  0  0  0  0  0  0
   -5.6120    0.5112    4.4175 H   0  0  0  0  0  0  0  0  0  0  0  0
   -4.3341    1.8519    4.3632 H   0  0  0  0  0  0  0  0  0  0  0  0
   -6.0674    2.2292    4.5139 H   0  0  0  0  0  0  0  0  0  0  0  0
    3.0725   -0.9119   -0.5745 H   0  0  0  0  0  0  0  0  0  0  0  0
    4.4985   -1.3354    0.3278 H   0  0  0  0  0  0  0  0  0  0  0  0
    4.5580   -1.7554    2.7749 H   0  0  0  0  0  0  0  0  0  0  0  0
    5.1705   -0.0362    3.0388 H   0  0  0  0  0  0  0  0  0  0  0  0
    6.9402    0.6744    2.2119 H   0  0  0  0  0  0  0  0  0  0  0  0
    5.4691    1.4918    0.9600 H   0  0  0  0  0  0  0  0  0  0  0  0
    5.0588   -0.1917   -1.5805 H   0  0  0  0  0  0  0  0  0  0  0  0
    3.5763    2.0534   -0.1492 H   0  0  0  0  0  0  0  0  0  0  0  0
    9.0651   -0.7021    0.6709 H   0  0  0  0  0  0  0  0  0  0  0  0
    8.9445   -1.2646    2.4086 H   0  0  0  0  0  0  0  0  0  0  0  0
    9.1810    0.4536    2.0137 H   0  0  0  0  0  0  0  0  0  0  0  0
   -0.8595    0.8680   -6.6199 H   0  0  0  0  0  0  0  0  0  0  0  0
   -0.0726    2.4052   -6.0303 H   0  0  0  0  0  0  0  0  0  0  0  0
   -1.5037   -0.3696   -4.2761 H   0  0  0  0  0  0  0  0  0  0  0  0
   -2.3375    1.9526   -2.6023 H   0  0  0  0  0  0  0  0  0  0  0  0
   -2.8309    0.1761   -2.5618 H   0  0  0  0  0  0  0  0  0  0  0  0
   -0.2585    1.5058   -1.5594 H   0  0  0  0  0  0  0  0  0  0  0  0
   -0.6937    1.5199    2.9762 H   0  0  0  0  0  0  0  0  0  0  0  0
   -1.5195    1.8523    0.2091 H   0  0  0  0  0  0  0  0  0  0  0  0
    0.1151    0.6229    1.0918 H   0  0  0  0  0  0  0  0  0  0  0  0
   -6.6392   -0.1155   -0.4732 H   0  0  0  0  0  0  0  0  0  0  0  0
   -2.0170   -1.0161    2.4868 H   0  0  0  0  0  0  0  0  0  0  0  0
    1.3926   -1.9690    1.7001 H   0  0  0  0  0  0  0  0  0  0  0  0
   -0.1382   -2.8148    2.0213 H   0  0  0  0  0  0  0  0  0  0  0  0
   -1.0571   -1.9976    0.1192 H   0  0  0  0  0  0  0  0  0  0  0  0
    1.2837   -1.8327   -0.8876 H   0  0  0  0  0  0  0  0  0  0  0  0
   -1.0088   -1.4026   -1.7708 H   0  0  0  0  0  0  0  0  0  0  0  0
    1.6509   -0.6426   -2.7586 H   0  0  0  0  0  0  0  0  0  0  0  0
    0.3018   -1.4050   -3.6060 H   0  0  0  0  0  0  0  0  0  0  0  0
    5.9043    2.5010   -0.9888 H   0  0  0  0  0  0  0  0  0  0  0  0
    0.5815    1.6584   -3.3644 H   0  0  0  0  0  0  0  0  0  0  0  0
    3.5929    2.0969   -2.5600 H   0  0  0  0  0  0  0  0  0  0  0  0
   -3.3638    1.3235   -0.9658 H   0  0  0  0  0  0  0  0  0  0  0  0
   -4.6235   -0.4879   -1.2230 H   0  0  0  0  0  0  0  0  0  0  0  0
   -3.1839   -1.4113   -0.8068 H   0  0  0  0  0  0  0  0  0  0  0  0
   -4.0900   -1.6367    1.4885 H   0  0  0  0  0  0  0  0  0  0  0  0
   -6.3595   -0.6166    1.8711 H   0  0  0  0  0  0  0  0  0  0  0  0
   -4.0857    0.1189    2.6571 H   0  0  0  0  0  0  0  0  0  0  0  0
   -4.5202    2.2826    0.6216 H   0  0  0  0  0  0  0  0  0  0  0  0
   -3.0748    2.0465    1.5679 H   0  0  0  0  0  0  0  0  0  0  0  0
   -4.1384   -3.7673    0.7012 H   0  0  0  0  0  0  0  0  0  0  0  0
   -5.4900   -3.4301    1.8212 H   0  0  0  0  0  0  0  0  0  0  0  0
   -5.8519   -4.2364    0.2850 H   0  0  0  0  0  0  0  0  0  0  0  0
   -5.6120    0.5112    4.4175 H   0  0  0  0  0  0  0  0  0  0  0  0
   -4.3341    1.8519    4.3632 H   0  0  0  0  0  0  0  0  0  0  0  0
   -6.0674    2.2292    4.5139 H   0  0  0  0  0  0  0  0  0  0  0  0
    3.0725   -0.9119   -0.5745 H   0  0  0  0  0  0  0  0  0  0  0  0
    4.4985   -1.3354    0.3278 H   0  0  0  0  0  0  0  0  0  0  0  0
    4.5580   -1.7554    2.7749 H   0  0  0  0  0  0  0  0  0  0  0  0
    5.1705   -0.0362    3.0388 H   0  0  0  0  0  0  0  0  0  0  0  0
    6.9402    0.6744    2.2119 H   0  0  0  0  0  0  0  0  0  0  0  0
    5.4691    1.4918    0.9600 H   0  0  0  0  0  0  0  0  0  0  0  0
    5.0588   -0.1917   -1.5805 H   0  0  0  0  0  0  0  0  0  0  0  0
    3.5763    2.0534   -0.1492 H   0  0  0  0  0  0  0  0  0  0  0  0
    9.0651   -0.7021    0.6709 H   0  0  0  0  0  0  0  0  0  0  0  0
    8.9445   -1.2646    2.4086 H   0  0  0  0  0  0  0  0  0  0  0  0
    9.1810    0.4536    2.0137 H   0  0  0  0  0  0  0  0  0  0  0  0
  1  2  1  0
  1  4  1  0
  3  4  1  0
  3  5  1  0
  5  7  1  0
  7  9  1  0
  9 11  1  0
  6 13  1  0
  8 13  1  0
 11 13  1  0
  6 15  1  0
 11 17  1  0
 15 17  1  0
 16 19  1  0
 17 19  1  0
  7 21  1  0
 19 21  1  0
 21 23  1  0
  2 25  1  0
  3 25  1  0
 23 25  1  0
  9 27  1  0
 27 28  1  0
 10 29  1  0
 28 29  1  0
 12 30  1  0
 29 30  1  0
 14 31  1  0
 30 31  1  0
 27 32  1  0
 31 32  1  0
 10 33  1  0
 14 34  1  0
 16 35  1  0
 18 35  1  0
 18 36  1  0
 20 37  1  0
 36 37  1  0
 20 38  1  0
 22 38  1  0
 22 39  1  0
 36 39  1  0
 24 40  1  0
 39 40  1  0
 26 41  1  0
 35 41  1  0
 40 41  1  0
 38 42  1  0
 43 44  1  0
 43 46  1  0
 45 46  1  0
 45 47  1  0
 47 49  1  0
 49 51  1  0
 51 53  1  0
 48 55  1  0
 50 55  1  0
 53 55  1  0
 48 57  1  0
 53 59  1  0
 57 59  1  0
 58 61  1  0
 59 61  1  0
 49 63  1  0
 61 63  1  0
 63 65  1  0
 44 67  1  0
 45 67  1  0
 65 67  1  0
 51 69  1  0
 69 70  1  0
 52 71  1  0
 70 71  1  0
 54 72  1  0
 71 72  1  0
 56 73  1  0
 72 73  1  0
 69 74  1  0
 73 74  1  0
 52 75  1  0
 56 76  1  0
 58 77  1  0
 60 77  1  0
 60 78  1  0
 62 79  1  0
 78 79  1  0
 62 80  1  0
 64 80  1  0
 64 81  1  0
 78 81  1  0
 66 82  1  0
 81 82  1  0
 68 83  1  0
 77 83  1  0
 82 83  1  0
 80 84  1  0
  1 85  1  0
  1 86  1  0
  3 87  1  0
  5 88  1  0
  5 89  1  0
  7 90  1  0
  8 91  1  0
  9 92  1  1
 11 93  1  1
 12 94  1  0
 13 95  1  6
 15 96  1  0
 15 97  1  0
 17 98  1  6
 19 99  1  6
 21100  1  0
 23101  1  0
 23102  1  0
 24103  1  0
 25104  1  0
 26105  1  0
 27106  1  0
 28107  1  0
 28108  1  0
 29109  1  0
 30110  1  0
 31111  1  0
 32112  1  0
 32113  1  0
 33114  1  0
 33115  1  0
 33116  1  0
 34117  1  0
 34118  1  0
 34119  1  0
 35120  1  6
 36121  1  6
 37122  1  0
 37123  1  0
 38124  1  1
 39125  1  1
 40126  1  6
 41127  1  1
 42128  1  0
 42129  1  0
 42130  1  0
 43131  1  0
 43132  1  0
 45133  1  0
 47134  1  0
 47135  1  0
 49136  1  0
 50137  1  0
 51138  1  1
 53139  1  1
 54140  1  0
 55141  1  6
 57142  1  0
 57143  1  0
 59144  1  6
 61145  1  6
 63146  1  0
 65147  1  0
 65148  1  0
 66149  1  0
 67150  1  0
 68151  1  0
 69152  1  0
 70153  1  0
 70154  1  0
 71155  1  0
 72156  1  0
 73157  1  0
 74158  1  0
 74159  1  0
 75160  1  0
 75161  1  0
 75162  1  0
 76163  1  0
 76164  1  0
 76165  1  0
 77166  1  6
 78167  1  6
 79168  1  0
 79169  1  0
 80170  1  1
 81171  1  1
 82172  1  6
 83173  1  1
 84174  1  0
 84175  1  0
 84176  1  0
M  END
>  <PDBID>  (1) 
5GWK

>  <PDB ID>  (1) 
5GWK

>  <Generic Name>  (1) 
Etoposide

>  <Brand Name>  (1) 
Dom-etoposide#Eposin#Etopophos#Etoposide#Etoposide - Liq IV 20mg/ml#Etoposide Injection#Etoposide Injection USP#Etoposide Injection, USP#PMS-etoposide#Toposar#Vepesid#Vepesid Inj 20mg/ml#Etopofos#Lastet#Nexvep#Vepesid K#Vépéside

>  <DrugBank ID>  (1) 
DB00773

>  <ATC Codes>  (1) 
L01CB01

>  <Ligand ID>  (1) 
EVP

>  <Target Name>  (1) 
DNA topoisomerase 2-alpha

>  <UniProt ID>  (1) 
P11388

>  <PDB ID.1>  (1) 
5GWK

>  <Seq. Identity>  (1) 
96%

$$$$
