PDB_DB00367_04
     RDKit          3D

118124  0  0  0  0  0  0  0  0999 V2000
    2.9180   -0.8235    1.7182 C   0  0  0  0  0  0  0  0  0  0  0  0
    4.4240   -0.6858    1.6447 C   0  0  0  0  0  0  0  0  0  0  0  0
    4.9747   -1.2419    0.3506 C   0  0  1  0  0  0  0  0  0  0  0  0
    3.9111   -1.0933   -0.7258 C   0  0  0  0  0  0  0  0  0  0  0  0
    3.2081    0.2310   -0.4546 C   0  0  1  0  0  0  0  0  0  0  0  0
    2.6209    0.8158   -1.6912 C   0  0  0  0  0  0  0  0  0  0  0  0
    1.2600    0.2556   -2.0480 C   0  0  0  0  0  0  0  0  0  0  0  0
    0.3863    0.4552   -0.8276 C   0  0  2  0  0  0  0  0  0  0  0  0
    0.9609   -0.4874    0.2451 C   0  0  1  0  0  0  0  0  0  0  0  0
    2.2524    0.1079    0.6961 C   0  0  1  0  0  0  0  0  0  0  0  0
   -0.0155   -0.8079    1.3010 C   0  0  0  0  0  0  0  0  0  0  0  0
   -1.2147    0.0421    1.4151 C   0  0  0  0  0  0  0  0  0  0  0  0
   -1.8266    0.5544    0.1846 C   0  0  1  0  0  0  0  0  0  0  0  0
   -1.0071    0.0431   -0.9961 C   0  0  1  0  0  0  0  0  0  0  0  0
   -1.7770    0.5482   -2.1428 C   0  0  0  0  0  0  0  0  0  0  0  0
   -3.2174    0.3652   -1.7029 C   0  0  0  0  0  0  0  0  0  0  0  0
   -3.1655    0.0254   -0.2062 C   0  0  1  0  0  0  0  0  0  0  0  0
   -1.9379    2.0784    0.1471 C   0  0  0  0  0  0  0  0  0  0  0  0
   -2.7618    2.6150    1.2671 C   0  0  0  0  0  0  0  0  0  0  0  0
   -3.3893   -1.4271    0.0206 C   0  0  0  0  0  0  0  0  0  0  0  0
   -4.8210   -1.7258   -0.4544 C   0  0  0  0  0  0  0  0  0  0  0  0
    6.0738   -0.4811   -0.0632 O   0  0  0  0  0  0  0  0  0  0  0  0
   -4.1743    0.7358    0.3937 O   0  0  0  0  0  0  0  0  0  0  0  0
    2.9180   -0.8235    1.7182 C   0  0  0  0  0  0  0  0  0  0  0  0
    4.4240   -0.6858    1.6447 C   0  0  0  0  0  0  0  0  0  0  0  0
    4.9747   -1.2419    0.3506 C   0  0  1  0  0  0  0  0  0  0  0  0
    3.9111   -1.0933   -0.7258 C   0  0  0  0  0  0  0  0  0  0  0  0
    3.2081    0.2310   -0.4546 C   0  0  1  0  0  0  0  0  0  0  0  0
    2.6209    0.8158   -1.6912 C   0  0  0  0  0  0  0  0  0  0  0  0
    1.2600    0.2556   -2.0480 C   0  0  0  0  0  0  0  0  0  0  0  0
    0.3863    0.4552   -0.8276 C   0  0  2  0  0  0  0  0  0  0  0  0
    0.9609   -0.4874    0.2451 C   0  0  1  0  0  0  0  0  0  0  0  0
    2.2524    0.1079    0.6961 C   0  0  1  0  0  0  0  0  0  0  0  0
   -0.0155   -0.8079    1.3010 C   0  0  0  0  0  0  0  0  0  0  0  0
   -1.2147    0.0421    1.4151 C   0  0  0  0  0  0  0  0  0  0  0  0
   -1.8266    0.5544    0.1846 C   0  0  1  0  0  0  0  0  0  0  0  0
   -1.0071    0.0431   -0.9961 C   0  0  1  0  0  0  0  0  0  0  0  0
   -1.7770    0.5482   -2.1428 C   0  0  0  0  0  0  0  0  0  0  0  0
   -3.2174    0.3652   -1.7029 C   0  0  0  0  0  0  0  0  0  0  0  0
   -3.1655    0.0254   -0.2062 C   0  0  1  0  0  0  0  0  0  0  0  0
   -1.9379    2.0784    0.1471 C   0  0  0  0  0  0  0  0  0  0  0  0
   -2.7618    2.6150    1.2671 C   0  0  0  0  0  0  0  0  0  0  0  0
   -3.3893   -1.4271    0.0206 C   0  0  0  0  0  0  0  0  0  0  0  0
   -4.8210   -1.7258   -0.4544 C   0  0  0  0  0  0  0  0  0  0  0  0
    6.0738   -0.4811   -0.0632 O   0  0  0  0  0  0  0  0  0  0  0  0
   -4.1743    0.7358    0.3937 O   0  0  0  0  0  0  0  0  0  0  0  0
    2.6743   -1.8835    1.4975 H   0  0  0  0  0  0  0  0  0  0  0  0
    2.6040   -0.4998    2.7246 H   0  0  0  0  0  0  0  0  0  0  0  0
    4.7181    0.3874    1.7733 H   0  0  0  0  0  0  0  0  0  0  0  0
    4.8510   -1.2470    2.4913 H   0  0  0  0  0  0  0  0  0  0  0  0
    5.2981   -2.2948    0.4463 H   0  0  0  0  0  0  0  0  0  0  0  0
    4.3839   -1.0453   -1.7447 H   0  0  0  0  0  0  0  0  0  0  0  0
    3.2324   -1.9462   -0.6533 H   0  0  0  0  0  0  0  0  0  0  0  0
    4.0228    0.9339   -0.1136 H   0  0  0  0  0  0  0  0  0  0  0  0
    3.3148    0.6127   -2.5332 H   0  0  0  0  0  0  0  0  0  0  0  0
    2.5281    1.9138   -1.5616 H   0  0  0  0  0  0  0  0  0  0  0  0
    0.8482    0.9280   -2.8511 H   0  0  0  0  0  0  0  0  0  0  0  0
    1.3015   -0.7822   -2.3892 H   0  0  0  0  0  0  0  0  0  0  0  0
    0.5982    1.4623   -0.4635 H   0  0  0  0  0  0  0  0  0  0  0  0
    1.2133   -1.4288   -0.3191 H   0  0  0  0  0  0  0  0  0  0  0  0
    2.0663    1.0784    1.1584 H   0  0  0  0  0  0  0  0  0  0  0  0
   -0.3513   -1.8857    1.2361 H   0  0  0  0  0  0  0  0  0  0  0  0
    0.5267   -0.7704    2.2932 H   0  0  0  0  0  0  0  0  0  0  0  0
   -1.9790   -0.5046    2.0244 H   0  0  0  0  0  0  0  0  0  0  0  0
   -0.9454    0.9279    2.0645 H   0  0  0  0  0  0  0  0  0  0  0  0
   -1.0594   -1.0653   -0.9530 H   0  0  0  0  0  0  0  0  0  0  0  0
   -1.6081   -0.1673   -3.0017 H   0  0  0  0  0  0  0  0  0  0  0  0
   -1.5362    1.5816   -2.4467 H   0  0  0  0  0  0  0  0  0  0  0  0
   -3.7352    1.3307   -1.8741 H   0  0  0  0  0  0  0  0  0  0  0  0
   -3.7179   -0.4700   -2.2633 H   0  0  0  0  0  0  0  0  0  0  0  0
   -0.9454    2.5779    0.2086 H   0  0  0  0  0  0  0  0  0  0  0  0
   -2.3816    2.4235   -0.8083 H   0  0  0  0  0  0  0  0  0  0  0  0
   -3.7343    2.9701    0.8709 H   0  0  0  0  0  0  0  0  0  0  0  0
   -2.3039    3.5409    1.7297 H   0  0  0  0  0  0  0  0  0  0  0  0
   -2.9997    1.8686    2.0574 H   0  0  0  0  0  0  0  0  0  0  0  0
   -3.3952   -1.6343    1.0970 H   0  0  0  0  0  0  0  0  0  0  0  0
   -2.7492   -2.1122   -0.5291 H   0  0  0  0  0  0  0  0  0  0  0  0
   -5.3438   -2.3972    0.2572 H   0  0  0  0  0  0  0  0  0  0  0  0
   -4.7991   -2.1716   -1.4755 H   0  0  0  0  0  0  0  0  0  0  0  0
   -5.4217   -0.7947   -0.5150 H   0  0  0  0  0  0  0  0  0  0  0  0
    5.8273    0.2047   -0.7349 H   0  0  0  0  0  0  0  0  0  0  0  0
   -4.6849    0.2588    1.0703 H   0  0  0  0  0  0  0  0  0  0  0  0
    2.6743   -1.8835    1.4975 H   0  0  0  0  0  0  0  0  0  0  0  0
    2.6040   -0.4998    2.7246 H   0  0  0  0  0  0  0  0  0  0  0  0
    4.7181    0.3874    1.7733 H   0  0  0  0  0  0  0  0  0  0  0  0
    4.8510   -1.2470    2.4913 H   0  0  0  0  0  0  0  0  0  0  0  0
    5.2981   -2.2948    0.4463 H   0  0  0  0  0  0  0  0  0  0  0  0
    4.3839   -1.0453   -1.7447 H   0  0  0  0  0  0  0  0  0  0  0  0
    3.2324   -1.9462   -0.6533 H   0  0  0  0  0  0  0  0  0  0  0  0
    4.0228    0.9339   -0.1136 H   0  0  0  0  0  0  0  0  0  0  0  0
    3.3148    0.6127   -2.5332 H   0  0  0  0  0  0  0  0  0  0  0  0
    2.5281    1.9138   -1.5616 H   0  0  0  0  0  0  0  0  0  0  0  0
    0.8482    0.9280   -2.8511 H   0  0  0  0  0  0  0  0  0  0  0  0
    1.3015   -0.7822   -2.3892 H   0  0  0  0  0  0  0  0  0  0  0  0
    0.5982    1.4623   -0.4635 H   0  0  0  0  0  0  0  0  0  0  0  0
    1.2133   -1.4288   -0.3191 H   0  0  0  0  0  0  0  0  0  0  0  0
    2.0663    1.0784    1.1584 H   0  0  0  0  0  0  0  0  0  0  0  0
   -0.3513   -1.8857    1.2361 H   0  0  0  0  0  0  0  0  0  0  0  0
    0.5267   -0.7704    2.2932 H   0  0  0  0  0  0  0  0  0  0  0  0
   -1.9790   -0.5046    2.0244 H   0  0  0  0  0  0  0  0  0  0  0  0
   -0.9454    0.9279    2.0645 H   0  0  0  0  0  0  0  0  0  0  0  0
   -1.0594   -1.0653   -0.9530 H   0  0  0  0  0  0  0  0  0  0  0  0
   -1.6081   -0.1673   -3.0017 H   0  0  0  0  0  0  0  0  0  0  0  0
   -1.5362    1.5816   -2.4467 H   0  0  0  0  0  0  0  0  0  0  0  0
   -3.7352    1.3307   -1.8741 H   0  0  0  0  0  0  0  0  0  0  0  0
   -3.7179   -0.4700   -2.2633 H   0  0  0  0  0  0  0  0  0  0  0  0
   -0.9454    2.5779    0.2086 H   0  0  0  0  0  0  0  0  0  0  0  0
   -2.3816    2.4235   -0.8083 H   0  0  0  0  0  0  0  0  0  0  0  0
   -3.7343    2.9701    0.8709 H   0  0  0  0  0  0  0  0  0  0  0  0
   -2.3039    3.5409    1.7297 H   0  0  0  0  0  0  0  0  0  0  0  0
   -2.9997    1.8686    2.0574 H   0  0  0  0  0  0  0  0  0  0  0  0
   -3.3952   -1.6343    1.0970 H   0  0  0  0  0  0  0  0  0  0  0  0
   -2.7492   -2.1122   -0.5291 H   0  0  0  0  0  0  0  0  0  0  0  0
   -5.3438   -2.3972    0.2572 H   0  0  0  0  0  0  0  0  0  0  0  0
   -4.7991   -2.1716   -1.4755 H   0  0  0  0  0  0  0  0  0  0  0  0
   -5.4217   -0.7947   -0.5150 H   0  0  0  0  0  0  0  0  0  0  0  0
    5.8273    0.2047   -0.7349 H   0  0  0  0  0  0  0  0  0  0  0  0
   -4.6849    0.2588    1.0703 H   0  0  0  0  0  0  0  0  0  0  0  0
  1  2  1  0
  2  3  1  0
  3  4  1  0
  4  5  1  0
  5  6  1  0
  6  7  1  0
  7  8  1  0
  8  9  1  0
  1 10  1  0
  5 10  1  0
  9 10  1  0
  9 11  1  0
 11 12  1  0
 12 13  1  0
  8 14  1  0
 13 14  1  0
 14 15  1  0
 15 16  1  0
 13 17  1  0
 16 17  1  0
 13 18  1  1
 18 19  1  0
 17 20  1  0
 20 21  1  0
  3 22  1  0
 17 23  1  1
 24 25  1  0
 25 26  1  0
 26 27  1  0
 27 28  1  0
 28 29  1  0
 29 30  1  0
 30 31  1  0
 31 32  1  0
 24 33  1  0
 28 33  1  0
 32 33  1  0
 32 34  1  0
 34 35  1  0
 35 36  1  0
 31 37  1  0
 36 37  1  0
 37 38  1  0
 38 39  1  0
 36 40  1  0
 39 40  1  0
 36 41  1  1
 41 42  1  0
 40 43  1  0
 43 44  1  0
 26 45  1  0
 40 46  1  1
  1 47  1  0
  1 48  1  0
  2 49  1  0
  2 50  1  0
  3 51  1  1
  4 52  1  0
  4 53  1  0
  5 54  1  1
  6 55  1  0
  6 56  1  0
  7 57  1  0
  7 58  1  0
  8 59  1  1
  9 60  1  6
 10 61  1  1
 11 62  1  0
 11 63  1  0
 12 64  1  0
 12 65  1  0
 14 66  1  6
 15 67  1  0
 15 68  1  0
 16 69  1  0
 16 70  1  0
 18 71  1  0
 18 72  1  0
 19 73  1  0
 19 74  1  0
 19 75  1  0
 20 76  1  0
 20 77  1  0
 21 78  1  0
 21 79  1  0
 21 80  1  0
 22 81  1  0
 23 82  1  0
 24 83  1  0
 24 84  1  0
 25 85  1  0
 25 86  1  0
 26 87  1  1
 27 88  1  0
 27 89  1  0
 28 90  1  1
 29 91  1  0
 29 92  1  0
 30 93  1  0
 30 94  1  0
 31 95  1  1
 32 96  1  6
 33 97  1  1
 34 98  1  0
 34 99  1  0
 35100  1  0
 35101  1  0
 37102  1  6
 38103  1  0
 38104  1  0
 39105  1  0
 39106  1  0
 41107  1  0
 41108  1  0
 42109  1  0
 42110  1  0
 42111  1  0
 43112  1  0
 43113  1  0
 44114  1  0
 44115  1  0
 44116  1  0
 45117  1  0
 46118  1  0
M  END
>  <PDBID>  (1) 
3D90

>  <PDB ID>  (1) 
3D90

>  <Generic Name>  (1) 
Levonorgestrel

>  <Brand Name>  (1) 
Afirmelle#Aftera#Afterpill#Alesse 21#Alesse 28#Altavera#Alysena 21#Alysena 28#Amethia#Amethyst#Athentia Next#Aubra#Aviane#Aviane 21#Aviane 28#Aviane 28 Day#Ayuna#Backup Plan#Backup Plan Onestep#Camrese#Camrese Lo#Chateal#Climara Pro#Contingency#Contingency One#Daysee#Delyla#Econtra Ez#Enpresse#Esme 21#Esme 28#Falessa#Fallback Solo#Falmina#Her Style#Indayo#Introvale#Jaydess#Jolessa#Kurvelo#Kyleena#Larissia#Lessina#Levonest#Levonorgestrel#Levonorgestrel Emergency Contraceptive#Levonorgestrel Tablets, 0.75mg#Levonorgestrel and Ethinyl Estradiol#Levonorgestrel and Ethinyl Estradiol Tablets, 0.1 Mg/0.02 mg#Levonorgestrel and Ethinyl Estradiol and Ethinyl Estradiol#Levora#Liletta#Lillow#Lutera#Lutera 21#Lutera 28#Marlissa#Min-ovral 21#Min-ovral 21 Tab#Min-ovral 28#Min-ovral 28 Tab#Mirena#Morning After#My Way#Myzilra#Next Choice#Next Choice One Dose#Norlevo#Norplant System Kit 36mg/implant#Opcicon One-step#Option 2#Orsythia#Ovima 21#Ovima 28#Plan B#Plan B One-step#Portia#Portia 21#Portia 28#Preven Emergency Contraceptive#Preven Tablets#Quasense#React#Seasonale#Seasonique#Setlakin#Skyla#Sronyx#Take Action#Teva-levonorgestrel#Triphasil 21#Triphasil 21 Tab#Triphasil 28#Triphasil 28 Tab#Triquilar 21#Triquilar 28#Trivora#Vienva Tm#Jadelle#Levonelle#Medonor#Microlut#Microval#Neogest#Norgeston#Norplant#Postinor

>  <DrugBank ID>  (1) 
DB00367

>  <ATC Codes>  (1) 
G03FA11#G03FB09#G03AC03#G03AB03#G03AA07#G03AD01

>  <Ligand ID>  (1) 
NOG

>  <Target Name>  (1) 
Estrogen receptor

>  <UniProt ID>  (1) 
P03372

>  <PDB ID.1>  (1) 
3D90

>  <Seq. Identity>  (1) 
31%

$$$$
