PDB_DB00540_09
     RDKit          3D

 55 57  0  0  0  0  0  0  0  0999 V2000
    5.2322   -1.8022    0.5561 C   0  0  0  0  0  0  0  0  0  0  0  0
    4.0963   -1.7407   -0.3186 N   0  0  0  0  0  0  0  0  0  0  0  0
    3.1695   -0.6837    0.0389 C   0  0  0  0  0  0  0  0  0  0  0  0
    2.0339   -0.7436   -0.9649 C   0  0  0  0  0  0  0  0  0  0  0  0
    0.9721    0.2768   -0.7204 C   0  0  0  0  0  0  0  0  0  0  0  0
    0.1596    0.2436    0.5005 C   0  0  0  0  0  0  0  0  0  0  0  0
   -0.7526    1.5040    0.5840 C   0  0  0  0  0  0  0  0  0  0  0  0
    0.0669    2.5950    1.2381 C   0  0  0  0  0  0  0  0  0  0  0  0
    0.2995    3.7825    0.3507 C   0  0  0  0  0  0  0  0  0  0  0  0
   -1.0775    4.2988    0.0111 C   0  0  0  0  0  0  0  0  0  0  0  0
   -0.6648   -0.9266    0.8597 C   0  0  0  0  0  0  0  0  0  0  0  0
    0.1022   -2.2045    0.8155 C   0  0  0  0  0  0  0  0  0  0  0  0
   -0.6583   -3.1310    1.8104 C   0  0  0  0  0  0  0  0  0  0  0  0
   -1.9112   -3.4973    1.0885 C   0  0  0  0  0  0  0  0  0  0  0  0
   -2.4819   -2.5062    0.1624 C   0  0  0  0  0  0  0  0  0  0  0  0
   -2.0531   -1.0589    0.3627 C   0  0  0  0  0  0  0  0  0  0  0  0
   -2.4226   -0.3570   -0.9112 C   0  0  0  0  0  0  0  0  0  0  0  0
   -2.7361    1.0919   -0.7275 C   0  0  0  0  0  0  0  0  0  0  0  0
   -1.4055    1.8672   -0.6703 C   0  0  0  0  0  0  0  0  0  0  0  0
   -1.8311    3.3107   -0.7805 C   0  0  0  0  0  0  0  0  0  0  0  0
    5.0733   -2.5247    1.3715 H   0  0  0  0  0  0  0  0  0  0  0  0
    5.4672   -0.7713    0.9366 H   0  0  0  0  0  0  0  0  0  0  0  0
    6.1590   -2.1370    0.0125 H   0  0  0  0  0  0  0  0  0  0  0  0
    4.3547   -1.7056   -1.3231 H   0  0  0  0  0  0  0  0  0  0  0  0
    3.7497    0.2689   -0.1526 H   0  0  0  0  0  0  0  0  0  0  0  0
    2.8916   -0.7379    1.0751 H   0  0  0  0  0  0  0  0  0  0  0  0
    1.7041   -1.7767   -1.0651 H   0  0  0  0  0  0  0  0  0  0  0  0
    2.5558   -0.5452   -1.9577 H   0  0  0  0  0  0  0  0  0  0  0  0
    0.3403    0.2025   -1.6744 H   0  0  0  0  0  0  0  0  0  0  0  0
    1.5244    1.2765   -0.7715 H   0  0  0  0  0  0  0  0  0  0  0  0
    0.8588    0.4100    1.3467 H   0  0  0  0  0  0  0  0  0  0  0  0
   -1.5125    1.2249    1.3440 H   0  0  0  0  0  0  0  0  0  0  0  0
   -0.4317    3.0071    2.1658 H   0  0  0  0  0  0  0  0  0  0  0  0
    1.0300    2.1872    1.6152 H   0  0  0  0  0  0  0  0  0  0  0  0
    0.8458    3.5337   -0.5574 H   0  0  0  0  0  0  0  0  0  0  0  0
    0.8451    4.5314    0.9783 H   0  0  0  0  0  0  0  0  0  0  0  0
   -1.6093    4.5504    0.9569 H   0  0  0  0  0  0  0  0  0  0  0  0
   -0.9209    5.2774   -0.5043 H   0  0  0  0  0  0  0  0  0  0  0  0
   -0.7915   -0.7901    2.0126 H   0  0  0  0  0  0  0  0  0  0  0  0
   -0.0338   -2.7444   -0.1539 H   0  0  0  0  0  0  0  0  0  0  0  0
    1.1067   -2.1656    1.2108 H   0  0  0  0  0  0  0  0  0  0  0  0
   -0.8217   -2.6057    2.7639 H   0  0  0  0  0  0  0  0  0  0  0  0
   -0.0263   -4.0256    1.9515 H   0  0  0  0  0  0  0  0  0  0  0  0
   -2.6222   -3.8642    1.8668 H   0  0  0  0  0  0  0  0  0  0  0  0
   -1.6787   -4.4347    0.4947 H   0  0  0  0  0  0  0  0  0  0  0  0
   -3.6037   -2.5730    0.2424 H   0  0  0  0  0  0  0  0  0  0  0  0
   -2.2798   -2.7810   -0.9155 H   0  0  0  0  0  0  0  0  0  0  0  0
   -2.7617   -0.6545    1.1198 H   0  0  0  0  0  0  0  0  0  0  0  0
   -1.8399   -0.6135   -1.7916 H   0  0  0  0  0  0  0  0  0  0  0  0
   -3.4490   -0.8073   -1.1701 H   0  0  0  0  0  0  0  0  0  0  0  0
   -3.2535    1.2793    0.2060 H   0  0  0  0  0  0  0  0  0  0  0  0
   -3.3651    1.4894   -1.5492 H   0  0  0  0  0  0  0  0  0  0  0  0
   -0.9122    1.6235   -1.6166 H   0  0  0  0  0  0  0  0  0  0  0  0
   -1.8085    3.6402   -1.8536 H   0  0  0  0  0  0  0  0  0  0  0  0
   -2.9225    3.4367   -0.5099 H   0  0  0  0  0  0  0  0  0  0  0  0
  1  2  1  0
  2  3  1  0
  3  4  1  0
  4  5  1  0
  5  6  1  0
  6  7  1  0
  7  8  1  0
  8  9  1  0
  9 10  1  0
  6 11  1  0
 11 12  1  0
 12 13  1  0
 13 14  1  0
 14 15  1  0
 11 16  1  0
 15 16  1  0
 16 17  1  0
 17 18  1  0
  7 19  1  0
 18 19  1  0
 10 20  1  0
 19 20  1  0
  1 21  1  0
  1 22  1  0
  1 23  1  0
  2 24  1  0
  3 25  1  0
  3 26  1  0
  4 27  1  0
  4 28  1  0
  5 29  1  0
  5 30  1  0
  6 31  1  0
  7 32  1  0
  8 33  1  0
  8 34  1  0
  9 35  1  0
  9 36  1  0
 10 37  1  0
 10 38  1  0
 11 39  1  0
 12 40  1  0
 12 41  1  0
 13 42  1  0
 13 43  1  0
 14 44  1  0
 14 45  1  0
 15 46  1  0
 15 47  1  0
 16 48  1  0
 17 49  1  0
 17 50  1  0
 18 51  1  0
 18 52  1  0
 19 53  1  0
 20 54  1  0
 20 55  1  0
M  END
>  <PDBID>  (1) 
4M48

>  <PDB ID>  (1) 
4M48

>  <Generic Name>  (1) 
Nortriptyline

>  <Brand Name>  (1) 
Apo-nortriptyline - Cap 10mg#Apo-nortriptyline - Cap 25mg#Ava-nortriptyline#Aventyl#Dom-nortriptyline 10mg Capsules#Dom-nortriptyline 25mg Capsules#Gen-nortriptyline Capsules 10mg#Gen-nortriptyline Capsules 25mg#Nortriptyline#Nortriptyline Hydrochloride#Nortriptyline-10#Nortriptyline-25#Norventyl#Nu-nortriptyline - Cap 10mg#Nu-nortriptyline - Cap 25mg#PMS-nortriptyline#Pamelor#Ratio-nortriptyline#Teva-nortriptyline#Allegron#Noritren#Norpress#Nortrilen#Sensoval

>  <DrugBank ID>  (1) 
DB00540

>  <ATC Codes>  (1) 
N06AA10

>  <Ligand ID>  (1) 
21B

>  <Target Name>  (1) 
Sodium-dependent noradrenaline transporter

>  <UniProt ID>  (1) 
P23975

>  <PDB ID.1>  (1) 
4M48

>  <Seq. Identity>  (1) 
57%

$$$$
