PDB_DB06243_03
     RDKit          3D

 76 72  0  0  0  0  0  0  0  0999 V2000
   -1.7824   -0.1566    0.0234 C   0  0  2  0  0  0  0  0  0  0  0  0
   -1.8918    1.1663   -0.7527 C   0  0  0  0  0  0  0  0  0  0  0  0
   -1.7492    0.1760    1.3929 N   0  0  0  0  0  0  0  0  0  0  0  0
   -0.6660   -0.9714   -0.5082 C   0  0  0  0  0  0  0  0  0  0  0  0
    0.6959   -0.4262   -0.4733 C   0  0  0  0  0  0  0  0  0  0  0  0
    1.2953   -0.0680    0.8283 C   0  0  0  0  0  0  0  0  0  0  0  0
    2.6333    0.4373    0.5328 N   0  0  0  0  0  0  0  0  0  0  0  0
   -1.3811    0.4891   -0.0854 C   0  0  0  0  0  0  0  0  0  0  0  0
   -2.7954    0.3671   -0.5995 C   0  0  0  0  0  0  0  0  0  0  0  0
   -1.0631    1.8862    0.0011 N   0  0  0  0  0  0  0  0  0  0  0  0
   -0.4039   -0.2800   -0.9359 C   0  0  0  0  0  0  0  0  0  0  0  0
    1.0036   -0.1863   -0.4632 C   0  0  0  0  0  0  0  0  0  0  0  0
    1.1962   -0.7153    0.9401 C   0  0  0  0  0  0  0  0  0  0  0  0
    2.5931   -0.5842    1.3152 N   0  0  0  0  0  0  0  0  0  0  0  0
   -1.7824   -0.1566    0.0234 C   0  0  2  0  0  0  0  0  0  0  0  0
   -1.8918    1.1663   -0.7527 C   0  0  0  0  0  0  0  0  0  0  0  0
   -1.7492    0.1760    1.3929 N   0  0  0  0  0  0  0  0  0  0  0  0
   -0.6660   -0.9714   -0.5082 C   0  0  0  0  0  0  0  0  0  0  0  0
    0.6959   -0.4262   -0.4733 C   0  0  0  0  0  0  0  0  0  0  0  0
    1.2953   -0.0680    0.8283 C   0  0  0  0  0  0  0  0  0  0  0  0
    2.6333    0.4373    0.5328 N   0  0  0  0  0  0  0  0  0  0  0  0
   -1.7824   -0.1566    0.0234 C   0  0  2  0  0  0  0  0  0  0  0  0
   -1.8918    1.1663   -0.7527 C   0  0  0  0  0  0  0  0  0  0  0  0
   -1.7492    0.1760    1.3929 N   0  0  0  0  0  0  0  0  0  0  0  0
   -0.6660   -0.9714   -0.5082 C   0  0  0  0  0  0  0  0  0  0  0  0
    0.6959   -0.4262   -0.4733 C   0  0  0  0  0  0  0  0  0  0  0  0
    1.2953   -0.0680    0.8283 C   0  0  0  0  0  0  0  0  0  0  0  0
    2.6333    0.4373    0.5328 N   0  0  0  0  0  0  0  0  0  0  0  0
   -2.7477   -0.6695   -0.1807 H   0  0  0  0  0  0  0  0  0  0  0  0
   -0.9735    1.7181   -0.5403 H   0  0  0  0  0  0  0  0  0  0  0  0
   -1.9891    0.9884   -1.8377 H   0  0  0  0  0  0  0  0  0  0  0  0
   -1.6037    1.1874    1.6082 H   0  0  0  0  0  0  0  0  0  0  0  0
   -0.8963   -1.2121   -1.5706 H   0  0  0  0  0  0  0  0  0  0  0  0
   -0.6775   -1.9597    0.0101 H   0  0  0  0  0  0  0  0  0  0  0  0
    1.3784   -1.1619   -0.9548 H   0  0  0  0  0  0  0  0  0  0  0  0
    0.7541    0.4852   -1.1387 H   0  0  0  0  0  0  0  0  0  0  0  0
    0.8036    0.7661    1.3631 H   0  0  0  0  0  0  0  0  0  0  0  0
    1.4545   -0.9561    1.4881 H   0  0  0  0  0  0  0  0  0  0  0  0
    2.6036    0.9400   -0.3826 H   0  0  0  0  0  0  0  0  0  0  0  0
    3.3585   -0.2832    0.6003 H   0  0  0  0  0  0  0  0  0  0  0  0
   -1.3070    0.0682    0.9488 H   0  0  0  0  0  0  0  0  0  0  0  0
   -3.0672    1.2887   -1.1561 H   0  0  0  0  0  0  0  0  0  0  0  0
   -2.9294   -0.4757   -1.3021 H   0  0  0  0  0  0  0  0  0  0  0  0
   -1.3458    2.2440    0.9420 H   0  0  0  0  0  0  0  0  0  0  0  0
   -0.4479    0.1663   -1.9546 H   0  0  0  0  0  0  0  0  0  0  0  0
   -0.6874   -1.3407   -1.0554 H   0  0  0  0  0  0  0  0  0  0  0  0
    1.6225   -0.8369   -1.1272 H   0  0  0  0  0  0  0  0  0  0  0  0
    1.4364    0.8285   -0.5528 H   0  0  0  0  0  0  0  0  0  0  0  0
    0.6265   -0.0721    1.6549 H   0  0  0  0  0  0  0  0  0  0  0  0
    0.8568   -1.7686    1.0027 H   0  0  0  0  0  0  0  0  0  0  0  0
    2.9221    0.3172    0.8868 H   0  0  0  0  0  0  0  0  0  0  0  0
    3.1712   -1.3957    1.0481 H   0  0  0  0  0  0  0  0  0  0  0  0
   -2.7477   -0.6695   -0.1807 H   0  0  0  0  0  0  0  0  0  0  0  0
   -0.9735    1.7181   -0.5403 H   0  0  0  0  0  0  0  0  0  0  0  0
   -1.9891    0.9884   -1.8377 H   0  0  0  0  0  0  0  0  0  0  0  0
   -1.6037    1.1874    1.6082 H   0  0  0  0  0  0  0  0  0  0  0  0
   -0.8963   -1.2121   -1.5706 H   0  0  0  0  0  0  0  0  0  0  0  0
   -0.6775   -1.9597    0.0101 H   0  0  0  0  0  0  0  0  0  0  0  0
    1.3784   -1.1619   -0.9548 H   0  0  0  0  0  0  0  0  0  0  0  0
    0.7541    0.4852   -1.1387 H   0  0  0  0  0  0  0  0  0  0  0  0
    0.8036    0.7661    1.3631 H   0  0  0  0  0  0  0  0  0  0  0  0
    1.4545   -0.9561    1.4881 H   0  0  0  0  0  0  0  0  0  0  0  0
    2.6036    0.9400   -0.3826 H   0  0  0  0  0  0  0  0  0  0  0  0
    3.3585   -0.2832    0.6003 H   0  0  0  0  0  0  0  0  0  0  0  0
   -2.7477   -0.6695   -0.1807 H   0  0  0  0  0  0  0  0  0  0  0  0
   -0.9735    1.7181   -0.5403 H   0  0  0  0  0  0  0  0  0  0  0  0
   -1.9891    0.9884   -1.8377 H   0  0  0  0  0  0  0  0  0  0  0  0
   -1.6037    1.1874    1.6082 H   0  0  0  0  0  0  0  0  0  0  0  0
   -0.8963   -1.2121   -1.5706 H   0  0  0  0  0  0  0  0  0  0  0  0
   -0.6775   -1.9597    0.0101 H   0  0  0  0  0  0  0  0  0  0  0  0
    1.3784   -1.1619   -0.9548 H   0  0  0  0  0  0  0  0  0  0  0  0
    0.7541    0.4852   -1.1387 H   0  0  0  0  0  0  0  0  0  0  0  0
    0.8036    0.7661    1.3631 H   0  0  0  0  0  0  0  0  0  0  0  0
    1.4545   -0.9561    1.4881 H   0  0  0  0  0  0  0  0  0  0  0  0
    2.6036    0.9400   -0.3826 H   0  0  0  0  0  0  0  0  0  0  0  0
    3.3585   -0.2832    0.6003 H   0  0  0  0  0  0  0  0  0  0  0  0
  1  2  1  0
  1  3  1  0
  1  4  1  0
  4  5  1  0
  5  6  1  0
  6  7  1  0
  8  9  1  0
  8 10  1  0
  8 11  1  0
 11 12  1  0
 12 13  1  0
 13 14  1  0
 15 16  1  0
 15 17  1  0
 15 18  1  0
 18 19  1  0
 19 20  1  0
 20 21  1  0
 22 23  1  0
 22 24  1  0
 22 25  1  0
 25 26  1  0
 26 27  1  0
 27 28  1  0
  1 29  1  1
  2 30  1  0
  2 31  1  0
  3 32  1  0
  4 33  1  0
  4 34  1  0
  5 35  1  0
  5 36  1  0
  6 37  1  0
  6 38  1  0
  7 39  1  0
  7 40  1  0
  8 41  1  0
  9 42  1  0
  9 43  1  0
 10 44  1  0
 11 45  1  0
 11 46  1  0
 12 47  1  0
 12 48  1  0
 13 49  1  0
 13 50  1  0
 14 51  1  0
 14 52  1  0
 15 53  1  1
 16 54  1  0
 16 55  1  0
 17 56  1  0
 18 57  1  0
 18 58  1  0
 19 59  1  0
 19 60  1  0
 20 61  1  0
 20 62  1  0
 21 63  1  0
 21 64  1  0
 22 65  1  1
 23 66  1  0
 23 67  1  0
 24 68  1  0
 25 69  1  0
 25 70  1  0
 26 71  1  0
 26 72  1  0
 27 73  1  0
 27 74  1  0
 28 75  1  0
 28 76  1  0
M  END
>  <PDBID>  (1) 
2TOD

>  <PDB ID>  (1) 
2TOD

>  <Generic Name>  (1) 
Eflornithine

>  <Brand Name>  (1) 
Vaniqa

>  <DrugBank ID>  (1) 
DB06243

>  <ATC Codes>  (1) 
D11AX16#P01CX03

>  <Ligand ID>  (1) 
DMO

>  <Target Name>  (1) 
Ornithine decarboxylase

>  <UniProt ID>  (1) 
P11926

>  <PDB ID.1>  (1) 
2TOD

>  <Seq. Identity>  (1) 
65%

$$$$
