PDB_DB01336_07
     RDKit          3D

  0  0  0  0  0  0  0  0  0  0999 V3000
M  V30 BEGIN CTAB
M  V30 COUNTS 960 1008 0 0 0
M  V30 BEGIN ATOM
M  V30 1 N -5.19429 -2.18393 -0.868215 0 CHG=1
M  V30 2 C -6.40222 -1.99609 -0.112629 0
M  V30 3 C -6.38859 -0.582831 0.417053 0
M  V30 4 C -5.24721 -0.450109 1.38155 0
M  V30 5 C -3.91512 -0.921697 0.857241 0
M  V30 6 C -4.0192 -2.14265 0.00719808 0 CFG=2
M  V30 7 C -5.1491 0.892957 2.03629 0
M  V30 8 C -4.48864 1.97641 1.27516 0
M  V30 9 C -3.68217 1.53679 0.117099 0
M  V30 10 C -3.04187 0.157084 0.348458 0
M  V30 11 O -2.78817 2.33064 -0.442474 0
M  V30 12 C -1.63074 2.78453 -0.019752 0
M  V30 13 C -1.13691 3.74285 -1.13928 0
M  V30 14 C -0.0717189 4.61565 -0.57158 0
M  V30 15 C 1.09306 3.86503 0.0122869 0
M  V30 16 C 0.901797 2.40605 -0.121261 0
M  V30 17 C -0.494266 1.94396 0.31626 0
M  V30 18 C 1.85092 1.5331 0.682722 0
M  V30 19 C 3.21641 1.33685 0.117982 0 CFG=1
M  V30 20 N 4.28271 1.90316 0.973761 0 CHG=1
M  V30 21 C 5.47768 2.20361 0.191286 0
M  V30 22 C 5.4871 1.42111 -1.13739 0
M  V30 23 C 5.08672 0.0616972 -0.731684 0 CFG=1
M  V30 24 C 3.54576 0.0976714 -0.562608 0
M  V30 25 C 5.3955 -1.07145 -1.63742 0
M  V30 26 C 5.41612 -2.32624 -0.73804 0
M  V30 27 C 4.40433 -2.07123 0.365505 0
M  V30 28 C 3.20566 -1.2728 -0.212537 0
M  V30 29 O 2.14122 -1.64542 0.51415 0
M  V30 30 C 1.32431 -2.65474 -0.0744757 0
M  V30 31 C 0.419098 -3.25454 0.917774 0
M  V30 32 C -0.939992 -3.66798 0.425046 0
M  V30 33 C -1.48926 -2.43364 -0.326055 0
M  V30 34 C -0.602826 -2.52358 -1.58598 0
M  V30 35 C 0.706629 -1.94851 -1.24966 0
M  V30 36 C -2.86548 -2.54803 -0.790503 0
M  V30 37 O -3.78927 2.77065 2.18795 0
M  V30 38 C -4.29087 4.04652 2.3023 0
M  V30 39 O -2.25572 4.54659 -1.39479 0
M  V30 40 O 6.71014 -2.38675 -0.22424 0
M  V30 41 C 7.36803 -3.55414 -0.595624 0
M  V30 42 O 3.90023 -3.3203 0.710694 0
M  V30 43 C -5.14597 -1.38805 -2.02818 0
M  V30 44 C 4.51353 1.18527 2.17542 0
M  V30 45 C 3.9124 3.25759 1.43464 0
M  V30 46 C 4.07812 -3.58861 2.08738 0
M  V30 47 C -5.24475 -3.59148 -1.32145 0
M  V30 48 C -2.69338 4.41882 -2.70792 0
M  V30 49 N -5.00446 -2.60895 -0.984358 0 CHG=1
M  V30 50 C -6.03511 -2.40342 -0.00407149 0
M  V30 51 C -6.00337 -0.983341 0.519436 0
M  V30 52 C -4.70668 -0.897613 1.28744 0 CFG=1
M  V30 53 C -3.57777 -1.0383 0.291221 0 CFG=1
M  V30 54 C -3.67874 -2.27419 -0.534454 0 CFG=2
M  V30 55 C -4.54227 0.33852 2.06638 0
M  V30 56 C -3.26924 1.14664 1.70947 0 CFG=1
M  V30 57 C -3.38687 1.48264 0.28523 0
M  V30 58 C -3.36287 0.185086 -0.521146 0
M  V30 59 O -2.60122 2.34109 -0.333368 0
M  V30 60 C -1.4729 2.883 0.0966994 0
M  V30 61 C -1.27932 4.12136 -0.810635 0
M  V30 62 C -0.335581 4.99648 -0.0648923 0
M  V30 63 C 0.982239 4.3301 -0.00340112 0
M  V30 64 C 1.05741 2.86041 -0.192739 0 CFG=2
M  V30 65 C -0.206078 2.09107 0.0217107 0
M  V30 66 C 2.16654 2.25546 0.692821 0
M  V30 67 C 3.3004 1.64764 -0.0531222 0 CFG=1
M  V30 68 N 4.52385 2.47316 0.0493086 0 CHG=1
M  V30 69 C 5.50586 2.12405 -0.932994 0
M  V30 70 C 5.27766 0.755995 -1.52464 0
M  V30 71 C 4.99748 -0.0983959 -0.333478 0 CFG=1
M  V30 72 C 3.72367 0.282867 0.396187 0 CFG=2
M  V30 73 C 4.97952 -1.59895 -0.689247 0
M  V30 74 C 4.76012 -2.20167 0.705557 0 CFG=1
M  V30 75 C 3.22204 -2.11943 0.824397 0
M  V30 76 C 2.68301 -0.798541 0.336777 0 CFG=2
M  V30 77 O 2.07437 -0.907737 -0.898166 0
M  V30 78 C 1.08421 -1.83018 -0.993543 0
M  V30 79 C 0.0534076 -1.84525 0.113251 0
M  V30 80 C -0.800564 -3.08174 -0.0970432 0
M  V30 81 C -1.48642 -3.19443 -1.39083 0
M  V30 82 C -0.503934 -2.89437 -2.51478 0
M  V30 83 C 0.247787 -1.61536 -2.27847 0
M  V30 84 C -2.71816 -2.41045 -1.64941 0
M  V30 85 O -3.42522 2.23911 2.59217 0
M  V30 86 C -2.46764 2.19726 3.59172 0
M  V30 87 O -2.53615 4.68147 -0.985122 0
M  V30 88 O 5.12965 -3.52091 0.762565 0
M  V30 89 C 6.04296 -3.72126 1.81764 0
M  V30 90 O 3.02401 -2.33576 2.19547 0
M  V30 91 C -5.41329 -1.99611 -2.20107 0
M  V30 92 C 5.02753 2.52392 1.40975 0
M  V30 93 C 4.22462 3.8766 -0.268249 0
M  V30 94 C 2.54683 -3.58139 2.49487 0
M  V30 95 C -4.99197 -4.06492 -1.23106 0
M  V30 96 C -2.90427 4.74257 -2.32637 0
M  V30 97 N -4.87799 -2.51146 -0.456922 0 CHG=1
M  V30 98 C -6.1711 -2.27796 0.143254 0
M  V30 99 C -6.29411 -0.802145 0.364524 0
M  V30 100 C -5.39425 -0.50079 1.5451 0
M  V30 101 C -4.05012 -1.13362 1.44858 0
M  V30 102 C -3.76623 -2.05673 0.331239 0 CFG=2
M  V30 103 C -5.43941 0.953178 1.83425 0
M  V30 104 C -4.55896 1.86932 1.05876 0
M  V30 105 C -3.33737 1.11897 0.581929 0
M  V30 106 C -3.07386 0.0465881 1.59829 0
M  V30 107 O -2.34078 1.73361 0.000825756 0
M  V30 108 C -1.39886 2.51213 0.497023 0
M  V30 109 C -1.03204 3.49401 -0.640878 0
M  V30 110 C -0.013164 4.49161 -0.152497 0
M  V30 111 C 1.30119 3.74189 -0.0473137 0
M  V30 112 C 1.09832 2.25902 0.0765221 0
M  V30 113 C -0.0992956 1.90574 0.931399 0
M  V30 114 C 2.31536 1.69864 0.824263 0
M  V30 115 C 3.50116 1.4781 -0.0704784 0 CFG=1
M  V30 116 N 4.72109 1.9679 0.450036 0 CHG=1
M  V30 117 C 5.84042 1.64399 -0.388214 0
M  V30 118 C 5.43908 1.1668 -1.74918 0
M  V30 119 C 4.60694 -0.108377 -1.67655 0
M  V30 120 C 3.49658 0.121083 -0.725242 0 CFG=1
M  V30 121 C 5.51161 -1.24293 -1.41479 0
M  V30 122 C 5.25627 -2.09004 -0.233504 0
M  V30 123 C 3.738 -2.34202 -0.13832 0
M  V30 124 C 3.09946 -1.02775 0.134155 0 CFG=2
M  V30 125 O 1.72867 -1.08538 0.304646 0
M  V30 126 C 0.990195 -1.94137 -0.425116 0
M  V30 127 C 0.0332981 -2.60185 0.579982 0
M  V30 128 C -0.962131 -3.51097 -0.0195944 0
M  V30 129 C -1.7882 -2.85138 -1.05606 0
M  V30 130 C -0.84788 -2.26063 -2.0885 0
M  V30 131 C 0.109323 -1.27029 -1.48891 0
M  V30 132 C -2.63778 -1.69372 -0.571361 0
M  V30 133 O -4.28526 2.9448 1.85892 0
M  V30 134 C -4.82169 4.13881 1.38526 0
M  V30 135 O -2.17623 4.15697 -1.01469 0
M  V30 136 O 5.79343 -1.55846 0.897656 0
M  V30 137 C 6.75876 -2.36511 1.44149 0
M  V30 138 O 3.62246 -3.19399 0.955047 0
M  V30 139 C -4.9567 -1.97237 -1.79715 0
M  V30 140 C 5.00288 1.73567 1.83648 0
M  V30 141 C 4.6407 3.45652 0.378495 0
M  V30 142 C 3.31757 -4.4886 0.707802 0
M  V30 143 C -4.8125 -3.97388 -0.664771 0
M  V30 144 C -2.4905 4.01787 -2.36011 0
M  V30 145 N -5.01593 -1.90977 -0.836123 0 CHG=1
M  V30 146 C -6.19358 -1.41255 -0.158072 0
M  V30 147 C -5.84879 -0.159086 0.595469 0
M  V30 148 C -4.77015 -0.422943 1.59126 0
M  V30 149 C -3.50577 -1.00646 0.929123 0
M  V30 150 C -3.96838 -2.18005 0.152946 0 CFG=2
M  V30 151 C -4.37441 0.793241 2.36276 0
M  V30 152 C -3.89181 1.90606 1.47279 0
M  V30 153 C -3.08871 1.44869 0.304343 0
M  V30 154 C -2.61971 0.0025507 0.378217 0
M  V30 155 O -1.94282 2.28396 0.315078 0
M  V30 156 C -1.43826 2.64283 -0.875882 0 CFG=1
M  V30 157 C -1.47692 4.17376 -0.918279 0 CFG=1
M  V30 158 C -0.289294 4.71873 -0.162193 0
M  V30 159 C 0.408898 3.67937 0.69385 0
M  V30 160 C 1.02227 2.66937 -0.228586 0
M  V30 161 C -0.0281023 2.22661 -1.19416 0
M  V30 162 C 1.74323 1.53574 0.473976 0
M  V30 163 C 3.14328 1.27982 0.0316322 0 CFG=1
M  V30 164 N 4.16703 1.79462 0.967004 0 CHG=1
M  V30 165 C 5.41643 2.08892 0.257204 0
M  V30 166 C 5.48506 1.33057 -1.08136 0
M  V30 167 C 5.02373 -0.0297112 -0.736832 0
M  V30 168 C 3.47728 0.0269436 -0.629614 0
M  V30 169 C 5.34393 -1.14132 -1.66497 0
M  V30 170 C 5.27983 -2.4221 -0.805112 0
M  V30 171 C 4.24716 -2.18239 0.30217 0
M  V30 172 C 3.09459 -1.3197 -0.272144 0
M  V30 173 O 1.99425 -1.62624 0.453227 0
M  V30 174 C 1.19951 -2.6512 -0.103982 0
M  V30 175 C 0.539362 -3.48468 0.910386 0
M  V30 176 C -0.771444 -4.09074 0.517527 0
M  V30 177 C -1.57447 -2.99137 -0.161375 0
M  V30 178 C -0.826005 -2.85465 -1.50043 0
M  V30 179 C 0.343508 -1.96042 -1.11651 0
M  V30 180 C -3.00881 -3.20773 -0.317562 0
M  V30 181 O -5.02232 2.58832 0.96903 0
M  V30 182 C -5.11589 3.88037 1.47774 0
M  V30 183 O -1.55794 4.6588 -2.19409 0
M  V30 184 O 6.56293 -2.56195 -0.277726 0
M  V30 185 C 7.16549 -3.75018 -0.672631 0
M  V30 186 O 3.74733 -3.44268 0.619314 0
M  V30 187 C -4.62048 -1.13868 -1.95282 0
M  V30 188 C 4.3177 1.0342 2.15185 0
M  V30 189 C 3.78372 3.14278 1.43335 0
M  V30 190 C 3.94752 -3.75342 1.98453 0
M  V30 191 C -5.40042 -3.23719 -1.35334 0
M  V30 192 C -2.74614 5.36969 -2.32372 0
M  V30 193 N -4.84626 -2.06705 -1.19876 0 CHG=1
M  V30 194 C -5.99732 -1.99421 -0.367856 0
M  V30 195 C -5.84577 -0.702689 0.453991 0
M  V30 196 C -4.73766 -1.02061 1.40994 0 CFG=1
M  V30 197 C -3.42993 -1.32312 0.702667 0
M  V30 198 C -3.60174 -2.26115 -0.456476 0 CFG=2
M  V30 199 C -4.49171 0.0334865 2.45004 0
M  V30 200 C -4.15108 1.37862 1.84388 0
M  V30 201 C -3.23137 1.23604 0.687656 0
M  V30 202 C -2.6413 -0.116905 0.471875 0
M  V30 203 O -2.10424 2.10031 0.767267 0
M  V30 204 C -1.59217 2.42607 -0.486943 0 CFG=1
M  V30 205 C -1.45085 3.94557 -0.458168 0
M  V30 206 C -0.5318 4.33414 -1.59695 0
M  V30 207 C 0.848371 3.88077 -1.09713 0
M  V30 208 C 0.913043 2.39757 -1.03417 0 CFG=2
M  V30 209 C -0.420729 1.70288 -0.959535 0
M  V30 210 C 1.85392 1.945 0.0888243 0
M  V30 211 C 3.1779 1.44418 -0.392043 0 CFG=1
M  V30 212 N 4.25052 2.29558 0.153028 0 CHG=1
M  V30 213 C 5.53526 2.03557 -0.414689 0
M  V30 214 C 5.59051 0.751679 -1.23931 0
M  V30 215 C 4.94331 -0.244868 -0.333233 0 CFG=1
M  V30 216 C 3.42662 0.018578 -0.436342 0
M  V30 217 C 5.23904 -1.67049 -0.688424 0
M  V30 218 C 4.91796 -2.45223 0.555693 0 CFG=1
M  V30 219 C 3.67953 -1.94422 1.16067 0
M  V30 220 C 2.82442 -0.932505 0.51347 0 CFG=2
M  V30 221 O 1.65235 -1.53101 0.157989 0
M  V30 222 C 1.56458 -2.53722 -0.725523 0
M  V30 223 C 0.751603 -3.639 -0.134567 0
M  V30 224 C -0.687399 -3.75491 -0.458325 0
M  V30 225 C -1.1238 -2.40779 -1.05224 0
M  V30 226 C -0.297642 -2.47357 -2.35931 0
M  V30 227 C 1.02053 -1.93033 -2.00235 0
M  V30 228 C -2.51514 -2.29549 -1.44341 0
M  V30 229 O -3.65874 2.21253 2.83471 0
M  V30 230 C -4.55587 3.2589 3.13391 0
M  V30 231 O -2.65622 4.59356 -0.562907 0
M  V30 232 O 4.77084 -3.80006 0.21404 0
M  V30 233 C 5.79991 -4.51754 0.812206 0
M  V30 234 O 3.99517 -1.46027 2.47401 0
M  V30 235 C -4.84035 -0.991879 -2.12606 0
M  V30 236 C 4.29289 2.31304 1.57974 0
M  V30 237 C 3.99259 3.69886 -0.239931 0
M  V30 238 C 3.51172 -2.25275 3.4725 0
M  V30 239 C -4.99635 -3.29254 -2.00846 0
M  V30 240 C -2.8485 5.46569 0.507717 0
M  V30 241 N -5.07113 -2.77038 -0.35449 0 CHG=1
M  V30 242 C -6.06877 -2.46882 0.646237 0
M  V30 243 C -6.52548 -1.03607 0.590604 0
M  V30 244 C -5.4192 -0.0907644 0.148251 0 CFG=2
M  V30 245 C -4.03617 -0.659511 0.389464 0
M  V30 246 C -3.81728 -2.04934 -0.0689276 0 CFG=2
M  V30 247 C -5.54781 1.11202 1.07963 0
M  V30 248 C -4.51365 2.17513 0.839143 0
M  V30 249 C -3.57976 1.76141 -0.229698 0
M  V30 250 C -3.04807 0.348046 -0.0845549 0
M  V30 251 O -2.55798 2.60669 -0.538039 0
M  V30 252 C -1.44044 2.61084 0.269147 0
M  V30 253 C -1.06061 4.10017 0.392132 0 CFG=1
M  V30 254 C 0.394703 4.26924 0.677896 0
M  V30 255 C 0.893284 2.97179 1.33258 0
M  V30 256 C 0.985583 1.85348 0.362427 0 CFG=1
M  V30 257 C -0.327992 1.97199 -0.454497 0
M  V30 258 C 2.01769 1.80061 -0.639596 0
M  V30 259 C 3.41775 1.42716 -0.506492 0 CFG=1
M  V30 260 N 4.32391 2.44131 0.012112 0 CHG=1
M  V30 261 C 5.65827 2.31604 -0.616972 0
M  V30 262 C 5.97119 0.941779 -1.02259 0
M  V30 263 C 5.3072 -0.130016 -0.231976 0 CFG=1
M  V30 264 C 3.81178 0.115954 0.0342573 0
M  V30 265 C 5.54953 -1.3718 -1.09915 0
M  V30 266 C 5.22823 -2.55844 -0.265228 0
M  V30 267 C 3.94375 -2.19471 0.469102 0
M  V30 268 C 3.16596 -1.1434 -0.353829 0
M  V30 269 O 1.85391 -1.37628 -0.0502126 0
M  V30 270 C 1.29476 -2.47521 -0.754216 0
M  V30 271 C 0.463088 -3.34597 0.121295 0
M  V30 272 C -0.974222 -3.53192 -0.22483 0
M  V30 273 C -1.4533 -2.28658 -0.942533 0
M  V30 274 C -0.718604 -2.42132 -2.29349 0
M  V30 275 C 0.667284 -1.92122 -1.97207 0
M  V30 276 C -2.92141 -2.27572 -1.227 0
M  V30 277 O -3.97092 2.54054 2.04085 0
M  V30 278 C -4.31824 3.83957 2.42716 0
M  V30 279 O -1.26679 4.6487 -0.895596 0
M  V30 280 O 6.21875 -2.66972 0.715447 0
M  V30 281 C 6.80305 -3.93192 0.722711 0
M  V30 282 O 3.28789 -3.31864 0.784024 0
M  V30 283 C -5.5511 -2.53125 -1.67507 0
M  V30 284 C 4.59794 2.30471 1.4266 0
M  V30 285 C 3.97252 3.7911 -0.313939 0
M  V30 286 C 3.14641 -3.50158 2.15843 0
M  V30 287 C -4.78842 -4.19308 -0.246116 0
M  V30 288 C -2.23273 5.63436 -0.857609 0
M  V30 289 N -4.67745 -2.35475 -0.685271 0 CHG=1
M  V30 290 C -6.01175 -2.09767 -0.172396 0
M  V30 291 C -5.99995 -0.636019 0.246388 0
M  V30 292 C -5.19569 -0.62403 1.51871 0
M  V30 293 C -3.8 -1.17441 1.33982 0
M  V30 294 C -3.63312 -2.18264 0.289979 0 CFG=2
M  V30 295 C -5.189 0.802571 2.02192 0
M  V30 296 C -4.49755 1.7348 1.04116 0
M  V30 297 C -3.18759 1.16234 0.546831 0
M  V30 298 C -2.85768 -0.0157421 1.40741 0
M  V30 299 O -2.12452 2.06745 0.633199 0
M  V30 300 C -1.54393 2.32394 -0.605506 0 CFG=1
M  V30 301 C -1.24236 3.78993 -0.807961 0
M  V30 302 C -0.379354 3.96004 -2.04706 0
M  V30 303 C 0.99837 3.445 -1.60218 0
M  V30 304 C 0.936442 2.04412 -1.11315 0 CFG=2
M  V30 305 C -0.409321 1.43665 -0.969096 0
M  V30 306 C 1.82579 1.79771 0.126037 0
M  V30 307 C 3.26345 1.6515 -0.196719 0 CFG=1
M  V30 308 N 4.17839 2.34706 0.695747 0 CHG=1
M  V30 309 C 5.49768 2.45666 0.0971976 0
M  V30 310 C 5.76651 1.43764 -0.978121 0
M  V30 311 C 5.23457 0.130405 -0.383489 0
M  V30 312 C 3.70965 0.263798 -0.527396 0
M  V30 313 C 5.64011 -1.06174 -1.20432 0
M  V30 314 C 4.93676 -2.28261 -0.673592 0
M  V30 315 C 3.97934 -2.00427 0.449409 0 CFG=2
M  V30 316 C 2.99346 -0.87448 0.114288 0 CFG=2
M  V30 317 O 1.9794 -1.27787 -0.69553 0
M  V30 318 C 1.32306 -2.43928 -0.45695 0
M  V30 319 C 0.631264 -2.37366 0.857103 0
M  V30 320 C -0.554121 -3.24483 1.04242 0
M  V30 321 C -1.45704 -3.41511 -0.117682 0
M  V30 322 C -0.590872 -3.75137 -1.32417 0
M  V30 323 C 0.266526 -2.53775 -1.56832 0
M  V30 324 C -2.3155 -2.20292 -0.448496 0
M  V30 325 O -4.30636 2.93019 1.71903 0
M  V30 326 C -5.08266 3.92147 1.14488 0
M  V30 327 O -2.33779 4.60572 -0.869228 0
M  V30 328 O 5.84127 -3.22809 -0.198184 0
M  V30 329 C 5.72817 -4.44211 -0.864132 0
M  V30 330 O 4.65102 -1.74177 1.64326 0
M  V30 331 C -4.53752 -1.62884 -1.90455 0
M  V30 332 C 4.23364 1.88099 2.02872 0
M  V30 333 C 3.75365 3.75609 0.788401 0
M  V30 334 C 4.46733 -2.67851 2.62317 0
M  V30 335 C -4.74881 -3.77622 -1.10254 0
M  V30 336 C -2.34246 5.59608 0.11125 0
M  V30 337 N -4.89937 -2.20226 0.12773 0 CHG=1
M  V30 338 C -5.87477 -2.0539 1.16517 0
M  V30 339 C -6.02475 -0.576927 1.39334 0
M  V30 340 C -4.773 -0.139636 2.07204 0
M  V30 341 C -3.48884 -0.734832 1.53573 0
M  V30 342 C -3.54186 -1.81886 0.575715 0 CFG=2
M  V30 343 C -4.78366 1.37323 2.05747 0
M  V30 344 C -4.33953 1.95411 0.739281 0
M  V30 345 C -2.94845 1.43662 0.340898 0
M  V30 346 C -2.56648 0.422668 1.34796 0
M  V30 347 O -2.02119 2.48351 0.330788 0
M  V30 348 C -1.51501 2.7262 -0.945486 0 CFG=1
M  V30 349 C -1.1477 4.16749 -1.04078 0 CFG=1
M  V30 350 C 0.127866 4.25003 -1.85489 0
M  V30 351 C 1.17022 3.53813 -0.981591 0
M  V30 352 C 0.944828 2.07847 -1.10033 0 CFG=2
M  V30 353 C -0.472858 1.76962 -1.39284 0
M  V30 354 C 1.53637 1.26824 0.0693552 0
M  V30 355 C 3.0222 1.14779 0.00682405 0 CFG=1
M  V30 356 N 3.72116 1.60446 1.22553 0 CHG=1
M  V30 357 C 5.09114 2.02842 0.891086 0
M  V30 358 C 5.54832 1.42428 -0.44717 0
M  V30 359 C 5.12581 0.0116452 -0.364079 0
M  V30 360 C 3.60554 -0.0106066 -0.652629 0
M  V30 361 C 5.73575 -0.960574 -1.30646 0
M  V30 362 C 5.54309 -2.34073 -0.644241 0
M  V30 363 C 4.26973 -2.28821 0.205776 0
M  V30 364 C 3.22298 -1.40451 -0.518593 0
M  V30 365 O 2.01653 -1.79634 -0.0583658 0
M  V30 366 C 1.3543 -2.76738 -0.861638 0
M  V30 367 C 0.547116 -3.58746 0.0597146 0
M  V30 368 C -0.939327 -3.61788 -0.18599 0
M  V30 369 C -1.30033 -2.22072 -0.615745 0
M  V30 370 C -0.802668 -2.20137 -2.07954 0
M  V30 371 C 0.681846 -2.13581 -2.02567 0
M  V30 372 C -2.7468 -1.90157 -0.655605 0
M  V30 373 O -4.27215 3.33377 0.889604 0
M  V30 374 C -5.17364 3.91108 0.0014895 0
M  V30 375 O -2.14981 4.99325 -1.50043 0
M  V30 376 O 6.67251 -2.51141 0.151688 0
M  V30 377 C 7.40973 -3.62629 -0.196328 0
M  V30 378 O 3.80564 -3.60185 0.24722 0
M  V30 379 C -5.32468 -1.46867 -1.02316 0
M  V30 380 C 3.64154 0.714648 2.32641 0
M  V30 381 C 3.14976 2.87335 1.71571 0
M  V30 382 C 3.71523 -4.08352 1.57214 0
M  V30 383 C -4.92802 -3.60263 -0.264333 0
M  V30 384 C -2.46619 6.00772 -0.596757 0
M  V30 385 H -6.50719 -2.71894 0.708363 0
M  V30 386 H -7.25227 -2.07589 -0.820844 0
M  V30 387 H -7.33279 -0.489199 1.03493 0
M  V30 388 H -6.47753 0.162746 -0.356932 0
M  V30 389 H -5.55411 -1.1492 2.22964 0
M  V30 390 H -3.39305 -1.31723 1.80168 0
M  V30 391 H -4.2528 -3.01828 0.701271 0
M  V30 392 H -4.64074 0.739842 3.03401 0
M  V30 393 H -6.20271 1.17924 2.32839 0
M  V30 394 H -5.30604 2.64856 0.875045 0
M  V30 395 H -4.42967 1.31143 -0.712582 0
M  V30 396 H -2.31247 0.443291 1.15658 0
M  V30 397 H -2.61475 -0.0332822 -0.632295 0
M  V30 398 H -1.79816 3.51782 0.829859 0
M  V30 399 H -0.842763 3.1821 -2.02938 0
M  V30 400 H 0.223361 5.33914 -1.37358 0
M  V30 401 H -0.576544 5.27319 0.197658 0
M  V30 402 H 1.20652 4.19999 1.04252 0
M  V30 403 H 1.96494 4.13143 -0.657668 0
M  V30 404 H 1.09625 2.11706 -1.19396 0
M  V30 405 H -0.4018 1.86232 1.42352 0
M  V30 406 H -0.489405 0.924649 -0.174442 0
M  V30 407 H 1.3677 0.532911 0.647693 0
M  V30 408 H 1.82121 1.78693 1.76336 0
M  V30 409 H 3.23996 2.17217 -0.674466 0
M  V30 410 H 5.60708 3.2405 -0.0946761 0
M  V30 411 H 6.35767 1.79795 0.762402 0
M  V30 412 H 6.5291 1.4144 -1.50698 0
M  V30 413 H 4.85724 1.90051 -1.88755 0
M  V30 414 H 5.59335 -0.156537 0.231327 0
M  V30 415 H 3.24078 0.238838 -1.6613 0
M  V30 416 H 4.62089 -1.27639 -2.40397 0
M  V30 417 H 6.39272 -1.00765 -2.11939 0
M  V30 418 H 5.21602 -3.22533 -1.32205 0
M  V30 419 H 4.80395 -1.64051 1.27287 0
M  V30 420 H 3.10313 -1.873 -1.18439 0
M  V30 421 H 2.00014 -3.46038 -0.465597 0
M  V30 422 H 0.249424 -2.51814 1.7638 0
M  V30 423 H 0.913854 -4.14534 1.36601 0
M  V30 424 H -1.57626 -3.84423 1.33871 0
M  V30 425 H -0.880093 -4.53869 -0.228641 0
M  V30 426 H -1.20498 -1.62062 0.333432 0
M  V30 427 H -1.13009 -1.88721 -2.33523 0
M  V30 428 H -0.521675 -3.56943 -1.94634 0
M  V30 429 H 1.3634 -2.09759 -2.15514 0
M  V30 430 H 0.641721 -0.861222 -1.11588 0
M  V30 431 H -2.97101 -2.04513 -1.80431 0
M  V30 432 H -3.02018 -3.6382 -1.07615 0
M  V30 433 H -4.22371 4.51738 1.29128 0
M  V30 434 H -5.32249 4.00424 2.67669 0
M  V30 435 H -3.60379 4.61732 2.95434 0
M  V30 436 H 7.45265 -3.63952 -1.70354 0
M  V30 437 H 8.40451 -3.47821 -0.206867 0
M  V30 438 H 6.92369 -4.46462 -0.143374 0
M  V30 439 H -5.12896 -1.9856 -2.99001 0
M  V30 440 H -6.13465 -0.839193 -2.10863 0
M  V30 441 H -4.38768 -0.622436 -2.11611 0
M  V30 442 H 3.89176 0.279339 2.3005 0
M  V30 443 H 4.26927 1.76563 3.12266 0
M  V30 444 H 5.6028 1.00569 2.28946 0
M  V30 445 H 4.82834 3.53108 2.05977 0
M  V30 446 H 3.10376 3.28499 2.1442 0
M  V30 447 H 3.93804 3.98964 0.630242 0
M  V30 448 H 5.19797 -3.54303 2.22918 0
M  V30 449 H 3.61659 -2.8058 2.71513 0
M  V30 450 H 3.79146 -4.61026 2.33769 0
M  V30 451 H -4.88561 -4.27953 -0.558195 0
M  V30 452 H -4.66375 -3.65166 -2.28163 0
M  V30 453 H -6.30155 -3.76464 -1.61965 0
M  V30 454 H -3.57378 5.08629 -2.81336 0
M  V30 455 H -1.93659 4.78672 -3.4375 0
M  V30 456 H -3.04935 3.39698 -2.94303 0
M  V30 457 H -5.93966 -3.07674 0.872707 0
M  V30 458 H -7.00467 -2.56562 -0.494157 0
M  V30 459 H -6.85792 -0.799706 1.19149 0
M  V30 460 H -5.96116 -0.227751 -0.280429 0
M  V30 461 H -4.66165 -1.77873 1.96034 0
M  V30 462 H -2.67661 -1.11299 0.975321 0
M  V30 463 H -3.41568 -3.11434 0.189334 0
M  V30 464 H -4.62148 0.210406 3.15941 0
M  V30 465 H -5.37745 1.04336 1.77947 0
M  V30 466 H -2.3951 0.564665 2.02476 0
M  V30 467 H -4.45689 1.87272 0.167257 0
M  V30 468 H -2.35392 0.131138 -0.977779 0
M  V30 469 H -4.0728 0.317109 -1.35613 0
M  V30 470 H -1.50906 3.33878 1.12727 0
M  V30 471 H -0.818784 3.83278 -1.77374 0
M  V30 472 H -0.295832 6.01396 -0.554365 0
M  V30 473 H -0.732638 5.19371 0.954555 0
M  V30 474 H 1.44509 4.65221 0.983799 0
M  V30 475 H 1.57197 4.81284 -0.845832 0
M  V30 476 H 1.3958 2.64973 -1.25499 0
M  V30 477 H -0.0778264 1.4868 0.968118 0
M  V30 478 H -0.25341 1.29573 -0.779012 0
M  V30 479 H 1.71273 1.48792 1.34983 0
M  V30 480 H 2.47963 3.07207 1.38302 0
M  V30 481 H 3.04108 1.68298 -1.1385 0
M  V30 482 H 5.65888 2.82077 -1.74981 0
M  V30 483 H 6.49276 2.05877 -0.387794 0
M  V30 484 H 4.52219 0.728468 -2.31191 0
M  V30 485 H 6.22707 0.402689 -1.97025 0
M  V30 486 H 5.90561 -0.0315626 0.304692 0
M  V30 487 H 4.01054 0.38251 1.46273 0
M  V30 488 H 4.17873 -1.84685 -1.37814 0
M  V30 489 H 5.98407 -1.8635 -1.04016 0
M  V30 490 H 5.26282 -1.626 1.49796 0
M  V30 491 H 2.92254 -2.99407 0.214135 0
M  V30 492 H 1.8777 -0.509987 1.03637 0
M  V30 493 H 1.41981 -2.88415 -1.09553 0
M  V30 494 H -0.510258 -0.916902 0.0259816 0
M  V30 495 H 0.530332 -1.96914 1.11134 0
M  V30 496 H -1.42774 -3.3133 0.786615 0
M  V30 497 H -0.0365175 -3.92668 -0.0827413 0
M  V30 498 H -1.72342 -4.29629 -1.52498 0
M  V30 499 H -1.05875 -2.86873 -3.47669 0
M  V30 500 H 0.251962 -3.71728 -2.52703 0
M  V30 501 H 0.951897 -1.46625 -3.09569 0
M  V30 502 H -0.44351 -0.769601 -2.13748 0
M  V30 503 H -2.43288 -1.45816 -2.16489 0
M  V30 504 H -3.22697 -2.97041 -2.50307 0
M  V30 505 H -2.60787 3.06598 4.26605 0
M  V30 506 H -1.44042 2.22123 3.21801 0
M  V30 507 H -2.55106 1.28253 4.21945 0
M  V30 508 H 6.31744 -4.78664 1.83306 0
M  V30 509 H 6.89016 -3.02494 1.77318 0
M  V30 510 H 5.47947 -3.50036 2.75545 0
M  V30 511 H -5.91317 -2.73243 -2.90032 0
M  V30 512 H -6.21258 -1.21124 -2.04714 0
M  V30 513 H -4.6298 -1.51811 -2.79259 0
M  V30 514 H 5.93255 1.95111 1.5952 0
M  V30 515 H 4.2004 2.28316 2.133 0
M  V30 516 H 5.31226 3.57624 1.72313 0
M  V30 517 H 5.25782 4.33993 -0.369933 0
M  V30 518 H 3.79166 4.40448 0.576235 0
M  V30 519 H 3.76721 3.98989 -1.24544 0
M  V30 520 H 1.57618 -3.857 2.04923 0
M  V30 521 H 3.28483 -4.40101 2.35605 0
M  V30 522 H 2.35112 -3.57906 3.60895 0
M  V30 523 H -4.35552 -4.57705 -0.465525 0
M  V30 524 H -4.72781 -4.31812 -2.25921 0
M  V30 525 H -6.02009 -4.45732 -1.06805 0
M  V30 526 H -3.91833 5.20279 -2.36158 0
M  V30 527 H -2.23265 5.40782 -2.91275 0
M  V30 528 H -2.97747 3.73692 -2.75327 0
M  V30 529 H -6.22866 -2.76242 1.14569 0
M  V30 530 H -6.93161 -2.66331 -0.552621 0
M  V30 531 H -7.35496 -0.618854 0.697637 0
M  V30 532 H -6.14145 -0.155768 -0.484601 0
M  V30 533 H -5.97478 -0.971632 2.40809 0
M  V30 534 H -3.87729 -1.66705 2.43778 0
M  V30 535 H -3.39315 -3.0295 0.803426 0
M  V30 536 H -5.28453 1.0977 2.94701 0
M  V30 537 H -6.5161 1.26861 1.69051 0
M  V30 538 H -5.16846 2.2679 0.193718 0
M  V30 539 H -3.83021 0.534466 -0.274685 0
M  V30 540 H -3.35901 0.504552 2.59843 0
M  V30 541 H -2.06111 -0.274341 1.75034 0
M  V30 542 H -1.69829 3.20917 1.32393 0
M  V30 543 H -0.588389 2.96494 -1.50135 0
M  V30 544 H 0.10082 5.26006 -0.927482 0
M  V30 545 H -0.28317 4.93851 0.82355 0
M  V30 546 H 1.86451 4.13811 0.808997 0
M  V30 547 H 1.9037 3.91236 -0.962044 0
M  V30 548 H 0.969788 1.75041 -0.903225 0
M  V30 549 H 0.197424 2.20684 1.9809 0
M  V30 550 H -0.115431 0.798265 0.966651 0
M  V30 551 H 2.62567 2.51959 1.54315 0
M  V30 552 H 2.04657 0.867035 1.47547 0
M  V30 553 H 3.28807 2.2009 -0.937909 0
M  V30 554 H 6.51421 2.53725 -0.586543 0
M  V30 555 H 6.5154 0.937084 0.132283 0
M  V30 556 H 4.9504 1.95222 -2.32013 0
M  V30 557 H 6.38685 0.9175 -2.30233 0
M  V30 558 H 4.25779 -0.223271 -2.75247 0
M  V30 559 H 2.5759 0.214086 -1.41679 0
M  V30 560 H 5.59777 -1.9418 -2.30852 0
M  V30 561 H 6.59134 -0.89801 -1.31712 0
M  V30 562 H 5.76921 -3.07993 -0.410072 0
M  V30 563 H 3.50304 -2.83219 -1.08564 0
M  V30 564 H 3.4679 -0.767316 1.17986 0
M  V30 565 H 1.48602 -2.74387 -0.958976 0
M  V30 566 H -0.353927 -1.83408 1.25989 0
M  V30 567 H 0.720123 -3.22853 1.22897 0
M  V30 568 H -1.5487 -3.96457 0.80738 0
M  V30 569 H -0.4261 -4.35005 -0.510663 0
M  V30 570 H -2.37191 -3.62665 -1.58657 0
M  V30 571 H -1.37545 -1.76732 -2.90512 0
M  V30 572 H -0.25405 -3.09831 -2.50712 0
M  V30 573 H 0.819365 -1.0288 -2.33747 0
M  V30 574 H -0.305957 -0.321069 -1.1788 0
M  V30 575 H -1.92153 -0.967978 -0.151967 0
M  V30 576 H -2.96362 -1.22625 -1.55177 0
M  V30 577 H -4.55699 4.95906 2.08507 0
M  V30 578 H -4.56353 4.34915 0.338266 0
M  V30 579 H -5.94383 4.03907 1.48077 0
M  V30 580 H 7.15217 -1.86464 2.36133 0
M  V30 581 H 7.63722 -2.51196 0.77529 0
M  V30 582 H 6.30567 -3.32043 1.7834 0
M  V30 583 H -4.25951 -2.47731 -2.50711 0
M  V30 584 H -5.97947 -2.218 -2.21762 0
M  V30 585 H -4.90771 -0.875589 -1.86652 0
M  V30 586 H 5.03145 0.697024 2.16727 0
M  V30 587 H 4.41294 2.40011 2.50528 0
M  V30 588 H 6.06755 2.10083 1.98349 0
M  V30 589 H 5.71154 3.81657 0.424479 0
M  V30 590 H 4.18117 3.87027 1.2917 0
M  V30 591 H 4.25372 3.80346 -0.570279 0
M  V30 592 H 4.11569 -4.91607 0.0628532 0
M  V30 593 H 3.15931 -5.10045 1.62457 0
M  V30 594 H 2.37763 -4.56813 0.142688 0
M  V30 595 H -4.01058 -4.40841 -0.0269322 0
M  V30 596 H -4.68423 -4.23718 -1.72857 0
M  V30 597 H -5.75557 -4.44084 -0.33921 0
M  V30 598 H -3.44202 4.60408 -2.52469 0
M  V30 599 H -1.74207 4.55363 -3.00955 0
M  V30 600 H -2.68093 2.99962 -2.69341 0
M  V30 601 H -6.50937 -2.1787 0.577013 0
M  V30 602 H -6.98685 -1.2495 -0.888444 0
M  V30 603 H -6.7539 0.137773 1.16475 0
M  V30 604 H -5.64765 0.626391 -0.129346 0
M  V30 605 H -5.1569 -1.17427 2.31143 0
M  V30 606 H -2.98158 -1.47016 1.83287 0
M  V30 607 H -4.60198 -2.73863 0.935668 0
M  V30 608 H -3.61266 0.50948 3.11276 0
M  V30 609 H -5.27708 1.16211 2.89931 0
M  V30 610 H -3.38381 2.62803 2.1471 0
M  V30 611 H -3.56629 1.6821 -0.679101 0
M  V30 612 H -1.67436 0.115914 1.00496 0
M  V30 613 H -2.38388 -0.252357 -0.676643 0
M  V30 614 H -2.0669 2.29962 -1.71969 0
M  V30 615 H -2.37699 4.48491 -0.358319 0
M  V30 616 H 0.453395 5.04977 -0.919483 0
M  V30 617 H -0.539776 5.63089 0.429518 0
M  V30 618 H -0.2106 3.26595 1.49654 0
M  V30 619 H 1.17308 4.30432 1.24798 0
M  V30 620 H 1.81308 3.20935 -0.806383 0
M  V30 621 H 0.173096 2.68592 -2.21527 0
M  V30 622 H 0.100247 1.15439 -1.36429 0
M  V30 623 H 1.68212 1.77645 1.57694 0
M  V30 624 H 1.06959 0.662706 0.378475 0
M  V30 625 H 3.28775 2.10788 -0.757495 0
M  V30 626 H 6.30518 1.78093 0.868246 0
M  V30 627 H 5.5594 3.13212 -0.00436012 0
M  V30 628 H 6.55416 1.29585 -1.37976 0
M  V30 629 H 4.95252 1.83784 -1.88293 0
M  V30 630 H 5.48917 -0.284744 0.236591 0
M  V30 631 H 3.21969 0.17179 -1.73911 0
M  V30 632 H 4.54781 -1.27054 -2.42283 0
M  V30 633 H 6.34135 -1.06785 -2.15082 0
M  V30 634 H 5.0271 -3.2894 -1.42106 0
M  V30 635 H 4.66053 -1.78501 1.21985 0
M  V30 636 H 2.95362 -1.92149 -1.24155 0
M  V30 637 H 1.91056 -3.28769 -0.69947 0
M  V30 638 H 0.373564 -2.94946 1.87019 0
M  V30 639 H 1.21611 -4.35671 1.15608 0
M  V30 640 H -1.28024 -4.47334 1.42065 0
M  V30 641 H -0.61551 -4.93581 -0.206183 0
M  V30 642 H -1.40688 -2.13286 0.504939 0
M  V30 643 H -1.42017 -2.31314 -2.24348 0
M  V30 644 H -0.495824 -3.84938 -1.85317 0
M  V30 645 H 0.92175 -1.68802 -1.99477 0
M  V30 646 H -0.149013 -1.05816 -0.656065 0
M  V30 647 H -3.19828 -3.33267 -1.43153 0
M  V30 648 H -3.22518 -4.2564 0.0603488 0
M  V30 649 H -6.01016 4.35068 1.04691 0
M  V30 650 H -4.17725 4.40787 1.2137 0
M  V30 651 H -5.13784 3.85532 2.59138 0
M  V30 652 H 7.25973 -3.81106 -1.77542 0
M  V30 653 H 8.20116 -3.72586 -0.270752 0
M  V30 654 H 6.66136 -4.6177 -0.22808 0
M  V30 655 H -3.64522 -1.45502 -2.31787 0
M  V30 656 H -5.33852 -1.39699 -2.79192 0
M  V30 657 H -4.74746 -0.0450536 -1.8322 0
M  V30 658 H 3.6786 0.132209 2.21016 0
M  V30 659 H 4.02362 1.5831 3.10338 0
M  V30 660 H 5.39744 0.839477 2.32318 0
M  V30 661 H 3.62691 3.8038 0.58634 0
M  V30 662 H 3.02099 3.12546 2.2138 0
M  V30 663 H 4.69102 3.58055 1.96168 0
M  V30 664 H 3.39087 -2.94435 2.54324 0
M  V30 665 H 5.00053 -3.75765 2.26045 0
M  V30 666 H 3.41093 -4.68858 2.24278 0
M  V30 667 H -5.10657 -4.04753 -0.690082 0
M  V30 668 H -5.00666 -3.414 -2.36192 0
M  V30 669 H -6.52105 -3.30895 -1.45703 0
M  V30 670 H -3.63829 4.73419 -2.1284 0
M  V30 671 H -2.80798 6.19443 -1.55716 0
M  V30 672 H -2.84682 5.87073 -3.30406 0
M  V30 673 H -6.09516 -2.82876 0.351215 0
M  V30 674 H -6.89046 -1.98366 -0.989941 0
M  V30 675 H -6.77648 -0.609161 1.05032 0
M  V30 676 H -5.67478 0.167472 -0.177115 0
M  V30 677 H -5.09015 -1.931 1.9847 0
M  V30 678 H -2.90127 -1.96734 1.48067 0
M  V30 679 H -3.7149 -3.32903 -0.0766104 0
M  V30 680 H -3.70231 -0.34846 3.12471 0
M  V30 681 H -5.41415 0.142906 3.05397 0
M  V30 682 H -5.15912 1.80385 1.5529 0
M  V30 683 H -3.78371 1.64058 -0.214585 0
M  V30 684 H -1.72868 -0.150517 1.14081 0
M  V30 685 H -2.38199 -0.0584514 -0.604614 0
M  V30 686 H -2.47706 2.26901 -1.18239 0
M  V30 687 H -0.945201 4.28618 0.468059 0
M  V30 688 H -0.787594 3.87148 -2.54906 0
M  V30 689 H -0.475828 5.42463 -1.70564 0
M  V30 690 H 0.95883 4.32996 -0.0799347 0
M  V30 691 H 1.56136 4.33858 -1.82138 0
M  V30 692 H 1.48099 2.08439 -1.96665 0
M  V30 693 H -0.621385 1.32621 -2.00743 0
M  V30 694 H -0.166679 0.744006 -0.414197 0
M  V30 695 H 1.89886 2.80537 0.77361 0
M  V30 696 H 1.26974 1.18589 0.652579 0
M  V30 697 H 3.20776 1.81012 -1.47489 0
M  V30 698 H 6.26179 1.85336 0.432305 0
M  V30 699 H 5.97819 2.81075 -1.02481 0
M  V30 700 H 6.66529 0.544807 -1.42338 0
M  V30 701 H 5.02556 0.924834 -2.1865 0
M  V30 702 H 5.31513 -0.0882749 0.69968 0
M  V30 703 H 3.20497 -0.41174 -1.46656 0
M  V30 704 H 6.32527 -1.71577 -0.939868 0
M  V30 705 H 4.6081 -1.96936 -1.53907 0
M  V30 706 H 5.82237 -2.32434 1.21598 0
M  V30 707 H 3.09344 -2.88874 1.43386 0
M  V30 708 H 2.47632 -0.245683 1.37835 0
M  V30 709 H 2.52591 -2.9858 -1.0583 0
M  V30 710 H 0.846357 -3.5765 0.992471 0
M  V30 711 H 1.23497 -4.61975 -0.367201 0
M  V30 712 H -1.28501 -3.92241 0.435479 0
M  V30 713 H -0.844179 -4.56989 -1.19469 0
M  V30 714 H -0.698328 -1.70401 -0.340424 0
M  V30 715 H -0.803296 -1.75693 -3.06293 0
M  V30 716 H -0.34179 -3.44811 -2.8293 0
M  V30 717 H 1.69737 -2.06048 -2.87509 0
M  V30 718 H 0.898004 -0.809804 -1.92854 0
M  V30 719 H -2.64573 -1.4052 -2.10853 0
M  V30 720 H -2.74419 -3.16506 -2.13499 0
M  V30 721 H -4.17195 3.91727 3.90955 0
M  V30 722 H -4.80786 3.84502 2.22766 0
M  V30 723 H -5.52701 2.79372 3.45621 0
M  V30 724 H 5.7425 -5.59826 0.58066 0
M  V30 725 H 6.80488 -4.15802 0.504732 0
M  V30 726 H 5.74142 -4.39355 1.92304 0
M  V30 727 H -4.40885 -1.31594 -3.12006 0
M  V30 728 H -5.9247 -0.789912 -2.3856 0
M  V30 729 H -4.45019 -0.0351437 -1.79253 0
M  V30 730 H 4.05946 1.39432 2.10068 0
M  V30 731 H 3.69643 3.12411 2.04114 0
M  V30 732 H 5.3625 2.5606 1.85367 0
M  V30 733 H 4.97411 4.24336 -0.0674208 0
M  V30 734 H 3.30045 4.21247 0.409955 0
M  V30 735 H 3.82556 3.76051 -1.31512 0
M  V30 736 H 3.81056 -1.78868 4.43409 0
M  V30 737 H 3.90434 -3.28461 3.47394 0
M  V30 738 H 2.39865 -2.22378 3.44656 0
M  V30 739 H -4.44882 -4.13238 -1.55099 0
M  V30 740 H -4.57807 -3.12758 -3.02421 0
M  V30 741 H -6.05589 -3.58931 -2.0795 0
M  V30 742 H -3.82922 5.9661 0.388897 0
M  V30 743 H -2.83267 4.97572 1.48826 0
M  V30 744 H -2.0914 6.29959 0.446607 0
M  V30 745 H -5.68632 -2.7539 1.65102 0
M  V30 746 H -6.94098 -3.11292 0.438985 0
M  V30 747 H -6.92593 -0.790777 1.59531 0
M  V30 748 H -7.37969 -0.898602 -0.123117 0
M  V30 749 H -5.59006 0.256731 -0.863309 0
M  V30 750 H -3.98622 -0.666069 1.52631 0
M  V30 751 H -3.36932 -2.66793 0.773439 0
M  V30 752 H -5.44357 0.701335 2.12681 0
M  V30 753 H -6.5901 1.4875 1.032 0
M  V30 754 H -5.09861 3.07013 0.46882 0
M  V30 755 H -4.21593 1.72928 -1.17293 0
M  V30 756 H -2.23416 0.412836 0.653436 0
M  V30 757 H -2.72073 0.0697906 -1.10331 0
M  V30 758 H -1.69496 2.27638 1.2624 0
M  V30 759 H -1.70609 4.57281 1.12774 0
M  V30 760 H 0.995887 4.39162 -0.242644 0
M  V30 761 H 0.596606 5.06439 1.4262 0
M  V30 762 H 0.0913874 2.7167 2.0613 0
M  V30 763 H 1.76126 3.1645 1.97312 0
M  V30 764 H 0.84069 0.92218 0.948227 0
M  V30 765 H -0.122567 2.63479 -1.35362 0
M  V30 766 H -0.501452 0.988216 -0.874761 0
M  V30 767 H 1.62392 1.14945 -1.46198 0
M  V30 768 H 1.98856 2.80477 -1.18219 0
M  V30 769 H 3.7868 1.37126 -1.59209 0
M  V30 770 H 5.74073 2.96448 -1.52336 0
M  V30 771 H 6.44665 2.71181 0.0788611 0
M  V30 772 H 5.8205 0.796721 -2.13327 0
M  V30 773 H 7.07965 0.778399 -0.889077 0
M  V30 774 H 5.86579 -0.360409 0.698861 0
M  V30 775 H 3.76096 0.131839 1.17855 0
M  V30 776 H 5.13702 -1.31374 -2.09326 0
M  V30 777 H 6.66739 -1.37182 -1.23201 0
M  V30 778 H 5.11388 -3.50046 -0.834613 0
M  V30 779 H 4.19818 -1.67184 1.44046 0
M  V30 780 H 3.25737 -1.39146 -1.44355 0
M  V30 781 H 2.12367 -3.14977 -1.13806 0
M  V30 782 H 0.503766 -2.88956 1.15476 0
M  V30 783 H 0.859716 -4.37788 0.262791 0
M  V30 784 H -1.56466 -3.60403 0.732622 0
M  V30 785 H -1.166 -4.44856 -0.824528 0
M  V30 786 H -1.06389 -1.45214 -0.360752 0
M  V30 787 H -1.19856 -1.71997 -2.98105 0
M  V30 788 H -0.758265 -3.46267 -2.62252 0
M  V30 789 H 1.27568 -2.1468 -2.89977 0
M  V30 790 H 0.592046 -0.817278 -1.97308 0
M  V30 791 H -3.09775 -1.64507 -2.11286 0
M  V30 792 H -3.14012 -3.32428 -1.60262 0
M  V30 793 H -3.83404 4.04392 3.39479 0
M  V30 794 H -4.03669 4.5232 1.62649 0
M  V30 795 H -5.4297 3.81114 2.5551 0
M  V30 796 H 7.56859 -3.91789 1.52827 0
M  V30 797 H 7.38231 -4.01562 -0.240947 0
M  V30 798 H 6.07589 -4.73834 0.82895 0
M  V30 799 H -5.43588 -3.42556 -2.34613 0
M  V30 800 H -6.66685 -2.38325 -1.61174 0
M  V30 801 H -5.1344 -1.6825 -2.19958 0
M  V30 802 H 5.56403 1.80573 1.64192 0
M  V30 803 H 3.76929 1.93534 2.03085 0
M  V30 804 H 4.76781 3.36085 1.80713 0
M  V30 805 H 4.87999 4.47791 -0.252059 0
M  V30 806 H 3.31327 4.19655 0.470336 0
M  V30 807 H 3.56267 3.99269 -1.28678 0
M  V30 808 H 4.18804 -3.54753 2.58035 0
M  V30 809 H 2.52767 -2.73611 2.63872 0
M  V30 810 H 2.72711 -4.52609 2.30284 0
M  V30 811 H -3.8537 -4.38865 0.318136 0
M  V30 812 H -4.6833 -4.68725 -1.2273 0
M  V30 813 H -5.61215 -4.73168 0.291406 0
M  V30 814 H -3.17046 5.19606 -0.500871 0
M  V30 815 H -1.84438 6.4343 -0.163512 0
M  V30 816 H -2.32168 6.04381 -1.88485 0
M  V30 817 H -6.21678 -2.71365 0.711319 0
M  V30 818 H -6.70816 -2.28989 -1.01114 0
M  V30 819 H -7.01572 -0.312678 0.482871 0
M  V30 820 H -5.52521 0.0108017 -0.491965 0
M  V30 821 H -5.80294 -1.20394 2.26469 0
M  V30 822 H -3.62139 -1.6875 2.35104 0
M  V30 823 H -3.64115 -3.20726 0.805329 0
M  V30 824 H -4.86215 0.914118 3.05352 0
M  V30 825 H -6.27557 1.11971 2.01318 0
M  V30 826 H -5.22131 1.92477 0.192491 0
M  V30 827 H -3.32108 0.960023 -0.518791 0
M  V30 828 H -2.98241 0.420563 2.4578 0
M  V30 829 H -1.7926 -0.301907 1.43525 0
M  V30 830 H -2.37813 2.12027 -1.34675 0
M  V30 831 H -0.617055 4.12292 0.04428 0
M  V30 832 H -0.698968 3.33195 -2.87637 0
M  V30 833 H -0.251986 5.02376 -2.26446 0
M  V30 834 H 1.4157 4.15484 -0.837009 0
M  V30 835 H 1.64843 3.58953 -2.49749 0
M  V30 836 H 1.47428 1.42914 -1.90373 0
M  V30 837 H -0.672293 0.790264 -1.85923 0
M  V30 838 H -0.317125 0.673849 -0.1398 0
M  V30 839 H 1.55969 2.61764 0.820546 0
M  V30 840 H 1.35936 0.892094 0.584097 0
M  V30 841 H 3.3893 2.26891 -1.15101 0
M  V30 842 H 5.75321 3.43462 -0.299596 0
M  V30 843 H 6.24471 2.24825 0.918204 0
M  V30 844 H 5.20116 1.69855 -1.88123 0
M  V30 845 H 6.85782 1.38764 -1.13596 0
M  V30 846 H 5.586 0.115336 0.638221 0
M  V30 847 H 3.59154 0.116355 -1.64981 0
M  V30 848 H 6.73716 -1.17503 -1.27589 0
M  V30 849 H 5.2868 -0.874906 -2.24811 0
M  V30 850 H 4.35322 -2.77743 -1.48176 0
M  V30 851 H 3.44732 -2.963 0.647156 0
M  V30 852 H 2.53975 -0.653149 1.11361 0
M  V30 853 H 1.91468 -3.37282 -0.605537 0
M  V30 854 H 0.323819 -1.30586 1.01163 0
M  V30 855 H 1.33508 -2.60158 1.70539 0
M  V30 856 H -1.16732 -2.78406 1.87437 0
M  V30 857 H -0.299774 -4.25521 1.42822 0
M  V30 858 H -2.12959 -4.29226 0.111064 0
M  V30 859 H -1.23993 -3.92178 -2.18013 0
M  V30 860 H 0.0765715 -4.59637 -1.09047 0
M  V30 861 H 0.855186 -2.75298 -2.49615 0
M  V30 862 H -0.270196 -1.61087 -1.7273 0
M  V30 863 H -1.71945 -1.28825 -0.332456 0
M  V30 864 H -2.47018 -2.29599 -1.56831 0
M  V30 865 H -4.93492 4.89201 1.68428 0
M  V30 866 H -4.86654 4.11637 0.077908 0
M  V30 867 H -6.16883 3.65392 1.19128 0
M  V30 868 H 4.68621 -4.79891 -0.69647 0
M  V30 869 H 5.87993 -4.3712 -1.9434 0
M  V30 870 H 6.40588 -5.20904 -0.459547 0
M  V30 871 H -4.33095 -2.283 -2.80721 0
M  V30 872 H -5.50919 -1.12887 -2.20893 0
M  V30 873 H -3.79472 -0.839838 -1.93921 0
M  V30 874 H 3.98189 0.857844 2.24838 0
M  V30 875 H 3.63551 2.5156 2.74867 0
M  V30 876 H 5.29668 2.02972 2.38666 0
M  V30 877 H 4.64387 4.25447 1.28845 0
M  V30 878 H 2.93299 3.92214 1.47684 0
M  V30 879 H 3.70449 4.21898 -0.194689 0
M  V30 880 H 3.39783 -2.77525 2.9024 0
M  V30 881 H 4.98134 -2.30383 3.53545 0
M  V30 882 H 4.926 -3.66254 2.39384 0
M  V30 883 H -4.59834 -4.37894 -0.203675 0
M  V30 884 H -3.90078 -3.994 -1.79676 0
M  V30 885 H -5.72922 -3.99657 -1.57052 0
M  V30 886 H -3.26791 6.19031 -0.0355109 0
M  V30 887 H -2.42516 5.16858 1.14051 0
M  V30 888 H -1.4918 6.29905 0.017117 0
M  V30 889 H -5.60379 -2.52475 2.12031 0
M  V30 890 H -6.82115 -2.45512 0.809106 0
M  V30 891 H -6.89345 -0.447171 2.07293 0
M  V30 892 H -6.2695 -0.00737861 0.482132 0
M  V30 893 H -4.9412 -0.383958 3.16755 0
M  V30 894 H -3.01607 -1.1702 2.49891 0
M  V30 895 H -3.25434 -2.78973 1.11737 0
M  V30 896 H -4.32046 1.83981 2.94613 0
M  V30 897 H -5.86624 1.66882 2.15824 0
M  V30 898 H -5.08875 1.72944 -0.0351449 0
M  V30 899 H -3.04945 1.1254 -0.692057 0
M  V30 900 H -2.61051 1.0027 2.33602 0
M  V30 901 H -1.48846 0.164907 1.37328 0
M  V30 902 H -2.40774 2.58981 -1.62991 0
M  V30 903 H -0.856126 4.55854 -0.0205846 0
M  V30 904 H 0.0447903 3.78747 -2.83724 0
M  V30 905 H 0.444883 5.32056 -1.87404 0
M  V30 906 H 1.039 3.93516 0.0462596 0
M  V30 907 H 2.15072 3.85073 -1.39539 0
M  V30 908 H 1.56704 1.73262 -1.98313 0
M  V30 909 H -0.608797 1.58289 -2.501 0
M  V30 910 H -0.706822 0.787752 -0.931734 0
M  V30 911 H 1.12714 1.63811 1.03197 0
M  V30 912 H 0.992648 0.284897 -0.0588489 0
M  V30 913 H 3.29926 2.06137 -0.637484 0
M  V30 914 H 5.22608 3.09633 0.775438 0
M  V30 915 H 5.79322 1.62991 1.65767 0
M  V30 916 H 6.66167 1.44965 -0.446392 0
M  V30 917 H 5.21401 1.99771 -1.31019 0
M  V30 918 H 5.35907 -0.335588 0.657446 0
M  V30 919 H 3.6234 0.227027 -1.77432 0
M  V30 920 H 5.20173 -0.970756 -2.27654 0
M  V30 921 H 6.81587 -0.754722 -1.42718 0
M  V30 922 H 5.41873 -3.11034 -1.41072 0
M  V30 923 H 4.43127 -2.00105 1.23632 0
M  V30 924 H 3.28963 -1.91322 -1.54525 0
M  V30 925 H 2.14245 -3.44596 -1.31977 0
M  V30 926 H 0.660526 -3.26371 1.13651 0
M  V30 927 H 0.914172 -4.6477 0.0735288 0
M  V30 928 H -1.43767 -3.95688 0.722099 0
M  V30 929 H -1.17292 -4.33757 -1.00641 0
M  V30 930 H -0.716956 -1.43669 -0.152577 0
M  V30 931 H -1.19052 -1.30447 -2.5922 0
M  V30 932 H -1.10871 -3.14088 -2.58736 0
M  V30 933 H 1.02517 -2.56289 -3.01886 0
M  V30 934 H 0.966245 -1.04077 -2.03419 0
M  V30 935 H -2.89394 -1.10932 -1.42274 0
M  V30 936 H -3.1625 -2.80239 -1.2335 0
M  V30 937 H -5.14133 4.99459 0.100237 0
M  V30 938 H -4.95052 3.59507 -1.05329 0
M  V30 939 H -6.17157 3.47153 0.21752 0
M  V30 940 H 6.79957 -4.53316 -0.0967479 0
M  V30 941 H 8.21709 -3.7141 0.589594 0
M  V30 942 H 7.94641 -3.53142 -1.1481 0
M  V30 943 H -5.11625 -2.01934 -1.98848 0
M  V30 944 H -6.43335 -1.40806 -0.986043 0
M  V30 945 H -4.95825 -0.430096 -1.0753 0
M  V30 946 H 3.11816 -0.234671 2.12581 0
M  V30 947 H 3.07264 1.12764 3.21787 0
M  V30 948 H 4.66085 0.564563 2.74651 0
M  V30 949 H 3.90234 3.16625 2.52246 0
M  V30 950 H 2.22644 2.77738 2.25836 0
M  V30 951 H 3.25611 3.68177 0.989499 0
M  V30 952 H 4.73063 -4.03977 2.01181 0
M  V30 953 H 3.0902 -3.35712 2.17037 0
M  V30 954 H 3.23214 -5.0548 1.62194 0
M  V30 955 H -4.03674 -4.15263 0.159329 0
M  V30 956 H -4.96638 -3.73804 -1.36601 0
M  V30 957 H -5.82048 -4.13257 0.131092 0
M  V30 958 H -3.27662 6.60773 -1.05739 0
M  V30 959 H -2.84686 5.62969 0.370197 0
M  V30 960 H -1.615 6.71642 -0.461735 0
M  V30 END ATOM
M  V30 BEGIN BOND
M  V30 1 1 1 2
M  V30 2 1 2 3
M  V30 3 1 3 4
M  V30 4 1 4 5
M  V30 5 1 1 6
M  V30 6 1 5 6
M  V30 7 1 4 7
M  V30 8 1 7 8
M  V30 9 1 8 9
M  V30 10 1 5 10
M  V30 11 1 9 10
M  V30 12 1 9 11
M  V30 13 1 11 12
M  V30 14 1 12 13
M  V30 15 1 13 14
M  V30 16 1 14 15
M  V30 17 1 15 16
M  V30 18 1 12 17
M  V30 19 1 16 17
M  V30 20 1 16 18
M  V30 21 1 18 19
M  V30 22 1 19 20
M  V30 23 1 20 21
M  V30 24 1 21 22
M  V30 25 1 22 23
M  V30 26 1 19 24
M  V30 27 1 23 24
M  V30 28 1 23 25
M  V30 29 1 25 26
M  V30 30 1 26 27
M  V30 31 1 24 28
M  V30 32 1 27 28
M  V30 33 1 28 29
M  V30 34 1 29 30
M  V30 35 1 30 31
M  V30 36 1 31 32
M  V30 37 1 32 33
M  V30 38 1 33 34
M  V30 39 1 30 35
M  V30 40 1 34 35
M  V30 41 1 6 36
M  V30 42 1 33 36
M  V30 43 1 8 37
M  V30 44 1 37 38
M  V30 45 1 13 39
M  V30 46 1 26 40
M  V30 47 1 40 41
M  V30 48 1 27 42
M  V30 49 1 1 43
M  V30 50 1 20 44
M  V30 51 1 20 45
M  V30 52 1 42 46
M  V30 53 1 1 47
M  V30 54 1 39 48
M  V30 55 1 49 50
M  V30 56 1 50 51
M  V30 57 1 51 52
M  V30 58 1 52 53
M  V30 59 1 49 54
M  V30 60 1 53 54
M  V30 61 1 52 55
M  V30 62 1 55 56
M  V30 63 1 56 57
M  V30 64 1 53 58
M  V30 65 1 57 58
M  V30 66 1 57 59
M  V30 67 1 59 60
M  V30 68 1 60 61
M  V30 69 1 61 62
M  V30 70 1 62 63
M  V30 71 1 63 64
M  V30 72 1 60 65
M  V30 73 1 64 65
M  V30 74 1 64 66
M  V30 75 1 66 67
M  V30 76 1 67 68
M  V30 77 1 68 69
M  V30 78 1 69 70
M  V30 79 1 70 71
M  V30 80 1 67 72
M  V30 81 1 71 72
M  V30 82 1 71 73
M  V30 83 1 73 74
M  V30 84 1 74 75
M  V30 85 1 72 76
M  V30 86 1 75 76
M  V30 87 1 76 77
M  V30 88 1 77 78
M  V30 89 1 78 79
M  V30 90 1 79 80
M  V30 91 1 80 81
M  V30 92 1 81 82
M  V30 93 1 78 83
M  V30 94 1 82 83
M  V30 95 1 54 84
M  V30 96 1 81 84
M  V30 97 1 56 85
M  V30 98 1 85 86
M  V30 99 1 61 87
M  V30 100 1 74 88
M  V30 101 1 88 89
M  V30 102 1 75 90
M  V30 103 1 49 91
M  V30 104 1 68 92
M  V30 105 1 68 93
M  V30 106 1 90 94
M  V30 107 1 49 95
M  V30 108 1 87 96
M  V30 109 1 97 98
M  V30 110 1 98 99
M  V30 111 1 99 100
M  V30 112 1 100 101
M  V30 113 1 97 102
M  V30 114 1 101 102
M  V30 115 1 100 103
M  V30 116 1 103 104
M  V30 117 1 104 105
M  V30 118 1 101 106
M  V30 119 1 105 106
M  V30 120 1 105 107
M  V30 121 1 107 108
M  V30 122 1 108 109
M  V30 123 1 109 110
M  V30 124 1 110 111
M  V30 125 1 111 112
M  V30 126 1 108 113
M  V30 127 1 112 113
M  V30 128 1 112 114
M  V30 129 1 114 115
M  V30 130 1 115 116
M  V30 131 1 116 117
M  V30 132 1 117 118
M  V30 133 1 118 119
M  V30 134 1 115 120
M  V30 135 1 119 120
M  V30 136 1 119 121
M  V30 137 1 121 122
M  V30 138 1 122 123
M  V30 139 1 120 124
M  V30 140 1 123 124
M  V30 141 1 124 125
M  V30 142 1 125 126
M  V30 143 1 126 127
M  V30 144 1 127 128
M  V30 145 1 128 129
M  V30 146 1 129 130
M  V30 147 1 126 131
M  V30 148 1 130 131
M  V30 149 1 102 132
M  V30 150 1 129 132
M  V30 151 1 104 133
M  V30 152 1 133 134
M  V30 153 1 109 135
M  V30 154 1 122 136
M  V30 155 1 136 137
M  V30 156 1 123 138
M  V30 157 1 97 139
M  V30 158 1 116 140
M  V30 159 1 116 141
M  V30 160 1 138 142
M  V30 161 1 97 143
M  V30 162 1 135 144
M  V30 163 1 145 146
M  V30 164 1 146 147
M  V30 165 1 147 148
M  V30 166 1 148 149
M  V30 167 1 145 150
M  V30 168 1 149 150
M  V30 169 1 148 151
M  V30 170 1 151 152
M  V30 171 1 152 153
M  V30 172 1 149 154
M  V30 173 1 153 154
M  V30 174 1 153 155
M  V30 175 1 155 156
M  V30 176 1 156 157
M  V30 177 1 157 158
M  V30 178 1 158 159
M  V30 179 1 159 160
M  V30 180 1 156 161
M  V30 181 1 160 161
M  V30 182 1 160 162
M  V30 183 1 162 163
M  V30 184 1 163 164
M  V30 185 1 164 165
M  V30 186 1 165 166
M  V30 187 1 166 167
M  V30 188 1 163 168
M  V30 189 1 167 168
M  V30 190 1 167 169
M  V30 191 1 169 170
M  V30 192 1 170 171
M  V30 193 1 168 172
M  V30 194 1 171 172
M  V30 195 1 172 173
M  V30 196 1 173 174
M  V30 197 1 174 175
M  V30 198 1 175 176
M  V30 199 1 176 177
M  V30 200 1 177 178
M  V30 201 1 174 179
M  V30 202 1 178 179
M  V30 203 1 150 180
M  V30 204 1 177 180
M  V30 205 1 152 181
M  V30 206 1 181 182
M  V30 207 1 157 183
M  V30 208 1 170 184
M  V30 209 1 184 185
M  V30 210 1 171 186
M  V30 211 1 145 187
M  V30 212 1 164 188
M  V30 213 1 164 189
M  V30 214 1 186 190
M  V30 215 1 145 191
M  V30 216 1 183 192
M  V30 217 1 193 194
M  V30 218 1 194 195
M  V30 219 1 195 196
M  V30 220 1 196 197
M  V30 221 1 193 198
M  V30 222 1 197 198
M  V30 223 1 196 199
M  V30 224 1 199 200
M  V30 225 1 200 201
M  V30 226 1 197 202
M  V30 227 1 201 202
M  V30 228 1 201 203
M  V30 229 1 203 204
M  V30 230 1 204 205
M  V30 231 1 205 206
M  V30 232 1 206 207
M  V30 233 1 207 208
M  V30 234 1 204 209
M  V30 235 1 208 209
M  V30 236 1 208 210
M  V30 237 1 210 211
M  V30 238 1 211 212
M  V30 239 1 212 213
M  V30 240 1 213 214
M  V30 241 1 214 215
M  V30 242 1 211 216
M  V30 243 1 215 216
M  V30 244 1 215 217
M  V30 245 1 217 218
M  V30 246 1 218 219
M  V30 247 1 216 220
M  V30 248 1 219 220
M  V30 249 1 220 221
M  V30 250 1 221 222
M  V30 251 1 222 223
M  V30 252 1 223 224
M  V30 253 1 224 225
M  V30 254 1 225 226
M  V30 255 1 222 227
M  V30 256 1 226 227
M  V30 257 1 198 228
M  V30 258 1 225 228
M  V30 259 1 200 229
M  V30 260 1 229 230
M  V30 261 1 205 231
M  V30 262 1 218 232
M  V30 263 1 232 233
M  V30 264 1 219 234
M  V30 265 1 193 235
M  V30 266 1 212 236
M  V30 267 1 212 237
M  V30 268 1 234 238
M  V30 269 1 193 239
M  V30 270 1 231 240
M  V30 271 1 241 242
M  V30 272 1 242 243
M  V30 273 1 243 244
M  V30 274 1 244 245
M  V30 275 1 241 246
M  V30 276 1 245 246
M  V30 277 1 244 247
M  V30 278 1 247 248
M  V30 279 1 248 249
M  V30 280 1 245 250
M  V30 281 1 249 250
M  V30 282 1 249 251
M  V30 283 1 251 252
M  V30 284 1 252 253
M  V30 285 1 253 254
M  V30 286 1 254 255
M  V30 287 1 255 256
M  V30 288 1 252 257
M  V30 289 1 256 257
M  V30 290 1 256 258
M  V30 291 1 258 259
M  V30 292 1 259 260
M  V30 293 1 260 261
M  V30 294 1 261 262
M  V30 295 1 262 263
M  V30 296 1 259 264
M  V30 297 1 263 264
M  V30 298 1 263 265
M  V30 299 1 265 266
M  V30 300 1 266 267
M  V30 301 1 264 268
M  V30 302 1 267 268
M  V30 303 1 268 269
M  V30 304 1 269 270
M  V30 305 1 270 271
M  V30 306 1 271 272
M  V30 307 1 272 273
M  V30 308 1 273 274
M  V30 309 1 270 275
M  V30 310 1 274 275
M  V30 311 1 246 276
M  V30 312 1 273 276
M  V30 313 1 248 277
M  V30 314 1 277 278
M  V30 315 1 253 279
M  V30 316 1 266 280
M  V30 317 1 280 281
M  V30 318 1 267 282
M  V30 319 1 241 283
M  V30 320 1 260 284
M  V30 321 1 260 285
M  V30 322 1 282 286
M  V30 323 1 241 287
M  V30 324 1 279 288
M  V30 325 1 289 290
M  V30 326 1 290 291
M  V30 327 1 291 292
M  V30 328 1 292 293
M  V30 329 1 289 294
M  V30 330 1 293 294
M  V30 331 1 292 295
M  V30 332 1 295 296
M  V30 333 1 296 297
M  V30 334 1 293 298
M  V30 335 1 297 298
M  V30 336 1 297 299
M  V30 337 1 299 300
M  V30 338 1 300 301
M  V30 339 1 301 302
M  V30 340 1 302 303
M  V30 341 1 303 304
M  V30 342 1 300 305
M  V30 343 1 304 305
M  V30 344 1 304 306
M  V30 345 1 306 307
M  V30 346 1 307 308
M  V30 347 1 308 309
M  V30 348 1 309 310
M  V30 349 1 310 311
M  V30 350 1 307 312
M  V30 351 1 311 312
M  V30 352 1 311 313
M  V30 353 1 313 314
M  V30 354 1 314 315
M  V30 355 1 312 316
M  V30 356 1 315 316
M  V30 357 1 316 317
M  V30 358 1 317 318
M  V30 359 1 318 319
M  V30 360 1 319 320
M  V30 361 1 320 321
M  V30 362 1 321 322
M  V30 363 1 318 323
M  V30 364 1 322 323
M  V30 365 1 294 324
M  V30 366 1 321 324
M  V30 367 1 296 325
M  V30 368 1 325 326
M  V30 369 1 301 327
M  V30 370 1 314 328
M  V30 371 1 328 329
M  V30 372 1 315 330
M  V30 373 1 289 331
M  V30 374 1 308 332
M  V30 375 1 308 333
M  V30 376 1 330 334
M  V30 377 1 289 335
M  V30 378 1 327 336
M  V30 379 1 337 338
M  V30 380 1 338 339
M  V30 381 1 339 340
M  V30 382 1 340 341
M  V30 383 1 337 342
M  V30 384 1 341 342
M  V30 385 1 340 343
M  V30 386 1 343 344
M  V30 387 1 344 345
M  V30 388 1 341 346
M  V30 389 1 345 346
M  V30 390 1 345 347
M  V30 391 1 347 348
M  V30 392 1 348 349
M  V30 393 1 349 350
M  V30 394 1 350 351
M  V30 395 1 351 352
M  V30 396 1 348 353
M  V30 397 1 352 353
M  V30 398 1 352 354
M  V30 399 1 354 355
M  V30 400 1 355 356
M  V30 401 1 356 357
M  V30 402 1 357 358
M  V30 403 1 358 359
M  V30 404 1 355 360
M  V30 405 1 359 360
M  V30 406 1 359 361
M  V30 407 1 361 362
M  V30 408 1 362 363
M  V30 409 1 360 364
M  V30 410 1 363 364
M  V30 411 1 364 365
M  V30 412 1 365 366
M  V30 413 1 366 367
M  V30 414 1 367 368
M  V30 415 1 368 369
M  V30 416 1 369 370
M  V30 417 1 366 371
M  V30 418 1 370 371
M  V30 419 1 342 372
M  V30 420 1 369 372
M  V30 421 1 344 373
M  V30 422 1 373 374
M  V30 423 1 349 375
M  V30 424 1 362 376
M  V30 425 1 376 377
M  V30 426 1 363 378
M  V30 427 1 337 379
M  V30 428 1 356 380
M  V30 429 1 356 381
M  V30 430 1 378 382
M  V30 431 1 337 383
M  V30 432 1 375 384
M  V30 433 1 2 385
M  V30 434 1 2 386
M  V30 435 1 3 387
M  V30 436 1 3 388
M  V30 437 1 4 389
M  V30 438 1 5 390
M  V30 439 1 6 391 CFG=1
M  V30 440 1 7 392
M  V30 441 1 7 393
M  V30 442 1 8 394
M  V30 443 1 9 395
M  V30 444 1 10 396
M  V30 445 1 10 397
M  V30 446 1 12 398
M  V30 447 1 13 399
M  V30 448 1 14 400
M  V30 449 1 14 401
M  V30 450 1 15 402
M  V30 451 1 15 403
M  V30 452 1 16 404
M  V30 453 1 17 405
M  V30 454 1 17 406
M  V30 455 1 18 407
M  V30 456 1 18 408
M  V30 457 1 19 409 CFG=3
M  V30 458 1 21 410
M  V30 459 1 21 411
M  V30 460 1 22 412
M  V30 461 1 22 413
M  V30 462 1 23 414 CFG=1
M  V30 463 1 24 415
M  V30 464 1 25 416
M  V30 465 1 25 417
M  V30 466 1 26 418
M  V30 467 1 27 419
M  V30 468 1 28 420
M  V30 469 1 30 421
M  V30 470 1 31 422
M  V30 471 1 31 423
M  V30 472 1 32 424
M  V30 473 1 32 425
M  V30 474 1 33 426
M  V30 475 1 34 427
M  V30 476 1 34 428
M  V30 477 1 35 429
M  V30 478 1 35 430
M  V30 479 1 36 431
M  V30 480 1 36 432
M  V30 481 1 38 433
M  V30 482 1 38 434
M  V30 483 1 38 435
M  V30 484 1 41 436
M  V30 485 1 41 437
M  V30 486 1 41 438
M  V30 487 1 43 439
M  V30 488 1 43 440
M  V30 489 1 43 441
M  V30 490 1 44 442
M  V30 491 1 44 443
M  V30 492 1 44 444
M  V30 493 1 45 445
M  V30 494 1 45 446
M  V30 495 1 45 447
M  V30 496 1 46 448
M  V30 497 1 46 449
M  V30 498 1 46 450
M  V30 499 1 47 451
M  V30 500 1 47 452
M  V30 501 1 47 453
M  V30 502 1 48 454
M  V30 503 1 48 455
M  V30 504 1 48 456
M  V30 505 1 50 457
M  V30 506 1 50 458
M  V30 507 1 51 459
M  V30 508 1 51 460
M  V30 509 1 52 461 CFG=1
M  V30 510 1 53 462 CFG=1
M  V30 511 1 54 463 CFG=1
M  V30 512 1 55 464
M  V30 513 1 55 465
M  V30 514 1 56 466 CFG=3
M  V30 515 1 57 467
M  V30 516 1 58 468
M  V30 517 1 58 469
M  V30 518 1 60 470
M  V30 519 1 61 471
M  V30 520 1 62 472
M  V30 521 1 62 473
M  V30 522 1 63 474
M  V30 523 1 63 475
M  V30 524 1 64 476 CFG=3
M  V30 525 1 65 477
M  V30 526 1 65 478
M  V30 527 1 66 479
M  V30 528 1 66 480
M  V30 529 1 67 481 CFG=3
M  V30 530 1 69 482
M  V30 531 1 69 483
M  V30 532 1 70 484
M  V30 533 1 70 485
M  V30 534 1 71 486 CFG=1
M  V30 535 1 72 487 CFG=1
M  V30 536 1 73 488
M  V30 537 1 73 489
M  V30 538 1 74 490 CFG=1
M  V30 539 1 75 491
M  V30 540 1 76 492 CFG=1
M  V30 541 1 78 493
M  V30 542 1 79 494
M  V30 543 1 79 495
M  V30 544 1 80 496
M  V30 545 1 80 497
M  V30 546 1 81 498
M  V30 547 1 82 499
M  V30 548 1 82 500
M  V30 549 1 83 501
M  V30 550 1 83 502
M  V30 551 1 84 503
M  V30 552 1 84 504
M  V30 553 1 86 505
M  V30 554 1 86 506
M  V30 555 1 86 507
M  V30 556 1 89 508
M  V30 557 1 89 509
M  V30 558 1 89 510
M  V30 559 1 91 511
M  V30 560 1 91 512
M  V30 561 1 91 513
M  V30 562 1 92 514
M  V30 563 1 92 515
M  V30 564 1 92 516
M  V30 565 1 93 517
M  V30 566 1 93 518
M  V30 567 1 93 519
M  V30 568 1 94 520
M  V30 569 1 94 521
M  V30 570 1 94 522
M  V30 571 1 95 523
M  V30 572 1 95 524
M  V30 573 1 95 525
M  V30 574 1 96 526
M  V30 575 1 96 527
M  V30 576 1 96 528
M  V30 577 1 98 529
M  V30 578 1 98 530
M  V30 579 1 99 531
M  V30 580 1 99 532
M  V30 581 1 100 533
M  V30 582 1 101 534
M  V30 583 1 102 535 CFG=1
M  V30 584 1 103 536
M  V30 585 1 103 537
M  V30 586 1 104 538
M  V30 587 1 105 539
M  V30 588 1 106 540
M  V30 589 1 106 541
M  V30 590 1 108 542
M  V30 591 1 109 543
M  V30 592 1 110 544
M  V30 593 1 110 545
M  V30 594 1 111 546
M  V30 595 1 111 547
M  V30 596 1 112 548
M  V30 597 1 113 549
M  V30 598 1 113 550
M  V30 599 1 114 551
M  V30 600 1 114 552
M  V30 601 1 115 553 CFG=3
M  V30 602 1 117 554
M  V30 603 1 117 555
M  V30 604 1 118 556
M  V30 605 1 118 557
M  V30 606 1 119 558
M  V30 607 1 120 559 CFG=3
M  V30 608 1 121 560
M  V30 609 1 121 561
M  V30 610 1 122 562
M  V30 611 1 123 563
M  V30 612 1 124 564 CFG=1
M  V30 613 1 126 565
M  V30 614 1 127 566
M  V30 615 1 127 567
M  V30 616 1 128 568
M  V30 617 1 128 569
M  V30 618 1 129 570
M  V30 619 1 130 571
M  V30 620 1 130 572
M  V30 621 1 131 573
M  V30 622 1 131 574
M  V30 623 1 132 575
M  V30 624 1 132 576
M  V30 625 1 134 577
M  V30 626 1 134 578
M  V30 627 1 134 579
M  V30 628 1 137 580
M  V30 629 1 137 581
M  V30 630 1 137 582
M  V30 631 1 139 583
M  V30 632 1 139 584
M  V30 633 1 139 585
M  V30 634 1 140 586
M  V30 635 1 140 587
M  V30 636 1 140 588
M  V30 637 1 141 589
M  V30 638 1 141 590
M  V30 639 1 141 591
M  V30 640 1 142 592
M  V30 641 1 142 593
M  V30 642 1 142 594
M  V30 643 1 143 595
M  V30 644 1 143 596
M  V30 645 1 143 597
M  V30 646 1 144 598
M  V30 647 1 144 599
M  V30 648 1 144 600
M  V30 649 1 146 601
M  V30 650 1 146 602
M  V30 651 1 147 603
M  V30 652 1 147 604
M  V30 653 1 148 605
M  V30 654 1 149 606
M  V30 655 1 150 607 CFG=1
M  V30 656 1 151 608
M  V30 657 1 151 609
M  V30 658 1 152 610
M  V30 659 1 153 611
M  V30 660 1 154 612
M  V30 661 1 154 613
M  V30 662 1 156 614 CFG=3
M  V30 663 1 157 615 CFG=1
M  V30 664 1 158 616
M  V30 665 1 158 617
M  V30 666 1 159 618
M  V30 667 1 159 619
M  V30 668 1 160 620
M  V30 669 1 161 621
M  V30 670 1 161 622
M  V30 671 1 162 623
M  V30 672 1 162 624
M  V30 673 1 163 625 CFG=3
M  V30 674 1 165 626
M  V30 675 1 165 627
M  V30 676 1 166 628
M  V30 677 1 166 629
M  V30 678 1 167 630
M  V30 679 1 168 631
M  V30 680 1 169 632
M  V30 681 1 169 633
M  V30 682 1 170 634
M  V30 683 1 171 635
M  V30 684 1 172 636
M  V30 685 1 174 637
M  V30 686 1 175 638
M  V30 687 1 175 639
M  V30 688 1 176 640
M  V30 689 1 176 641
M  V30 690 1 177 642
M  V30 691 1 178 643
M  V30 692 1 178 644
M  V30 693 1 179 645
M  V30 694 1 179 646
M  V30 695 1 180 647
M  V30 696 1 180 648
M  V30 697 1 182 649
M  V30 698 1 182 650
M  V30 699 1 182 651
M  V30 700 1 185 652
M  V30 701 1 185 653
M  V30 702 1 185 654
M  V30 703 1 187 655
M  V30 704 1 187 656
M  V30 705 1 187 657
M  V30 706 1 188 658
M  V30 707 1 188 659
M  V30 708 1 188 660
M  V30 709 1 189 661
M  V30 710 1 189 662
M  V30 711 1 189 663
M  V30 712 1 190 664
M  V30 713 1 190 665
M  V30 714 1 190 666
M  V30 715 1 191 667
M  V30 716 1 191 668
M  V30 717 1 191 669
M  V30 718 1 192 670
M  V30 719 1 192 671
M  V30 720 1 192 672
M  V30 721 1 194 673
M  V30 722 1 194 674
M  V30 723 1 195 675
M  V30 724 1 195 676
M  V30 725 1 196 677 CFG=1
M  V30 726 1 197 678
M  V30 727 1 198 679 CFG=1
M  V30 728 1 199 680
M  V30 729 1 199 681
M  V30 730 1 200 682
M  V30 731 1 201 683
M  V30 732 1 202 684
M  V30 733 1 202 685
M  V30 734 1 204 686 CFG=3
M  V30 735 1 205 687
M  V30 736 1 206 688
M  V30 737 1 206 689
M  V30 738 1 207 690
M  V30 739 1 207 691
M  V30 740 1 208 692 CFG=3
M  V30 741 1 209 693
M  V30 742 1 209 694
M  V30 743 1 210 695
M  V30 744 1 210 696
M  V30 745 1 211 697 CFG=3
M  V30 746 1 213 698
M  V30 747 1 213 699
M  V30 748 1 214 700
M  V30 749 1 214 701
M  V30 750 1 215 702 CFG=1
M  V30 751 1 216 703
M  V30 752 1 217 704
M  V30 753 1 217 705
M  V30 754 1 218 706 CFG=1
M  V30 755 1 219 707
M  V30 756 1 220 708 CFG=1
M  V30 757 1 222 709
M  V30 758 1 223 710
M  V30 759 1 223 711
M  V30 760 1 224 712
M  V30 761 1 224 713
M  V30 762 1 225 714
M  V30 763 1 226 715
M  V30 764 1 226 716
M  V30 765 1 227 717
M  V30 766 1 227 718
M  V30 767 1 228 719
M  V30 768 1 228 720
M  V30 769 1 230 721
M  V30 770 1 230 722
M  V30 771 1 230 723
M  V30 772 1 233 724
M  V30 773 1 233 725
M  V30 774 1 233 726
M  V30 775 1 235 727
M  V30 776 1 235 728
M  V30 777 1 235 729
M  V30 778 1 236 730
M  V30 779 1 236 731
M  V30 780 1 236 732
M  V30 781 1 237 733
M  V30 782 1 237 734
M  V30 783 1 237 735
M  V30 784 1 238 736
M  V30 785 1 238 737
M  V30 786 1 238 738
M  V30 787 1 239 739
M  V30 788 1 239 740
M  V30 789 1 239 741
M  V30 790 1 240 742
M  V30 791 1 240 743
M  V30 792 1 240 744
M  V30 793 1 242 745
M  V30 794 1 242 746
M  V30 795 1 243 747
M  V30 796 1 243 748
M  V30 797 1 244 749 CFG=3
M  V30 798 1 245 750
M  V30 799 1 246 751 CFG=1
M  V30 800 1 247 752
M  V30 801 1 247 753
M  V30 802 1 248 754
M  V30 803 1 249 755
M  V30 804 1 250 756
M  V30 805 1 250 757
M  V30 806 1 252 758
M  V30 807 1 253 759 CFG=1
M  V30 808 1 254 760
M  V30 809 1 254 761
M  V30 810 1 255 762
M  V30 811 1 255 763
M  V30 812 1 256 764 CFG=1
M  V30 813 1 257 765
M  V30 814 1 257 766
M  V30 815 1 258 767
M  V30 816 1 258 768
M  V30 817 1 259 769 CFG=3
M  V30 818 1 261 770
M  V30 819 1 261 771
M  V30 820 1 262 772
M  V30 821 1 262 773
M  V30 822 1 263 774 CFG=1
M  V30 823 1 264 775
M  V30 824 1 265 776
M  V30 825 1 265 777
M  V30 826 1 266 778
M  V30 827 1 267 779
M  V30 828 1 268 780
M  V30 829 1 270 781
M  V30 830 1 271 782
M  V30 831 1 271 783
M  V30 832 1 272 784
M  V30 833 1 272 785
M  V30 834 1 273 786
M  V30 835 1 274 787
M  V30 836 1 274 788
M  V30 837 1 275 789
M  V30 838 1 275 790
M  V30 839 1 276 791
M  V30 840 1 276 792
M  V30 841 1 278 793
M  V30 842 1 278 794
M  V30 843 1 278 795
M  V30 844 1 281 796
M  V30 845 1 281 797
M  V30 846 1 281 798
M  V30 847 1 283 799
M  V30 848 1 283 800
M  V30 849 1 283 801
M  V30 850 1 284 802
M  V30 851 1 284 803
M  V30 852 1 284 804
M  V30 853 1 285 805
M  V30 854 1 285 806
M  V30 855 1 285 807
M  V30 856 1 286 808
M  V30 857 1 286 809
M  V30 858 1 286 810
M  V30 859 1 287 811
M  V30 860 1 287 812
M  V30 861 1 287 813
M  V30 862 1 288 814
M  V30 863 1 288 815
M  V30 864 1 288 816
M  V30 865 1 290 817
M  V30 866 1 290 818
M  V30 867 1 291 819
M  V30 868 1 291 820
M  V30 869 1 292 821
M  V30 870 1 293 822
M  V30 871 1 294 823 CFG=1
M  V30 872 1 295 824
M  V30 873 1 295 825
M  V30 874 1 296 826
M  V30 875 1 297 827
M  V30 876 1 298 828
M  V30 877 1 298 829
M  V30 878 1 300 830 CFG=3
M  V30 879 1 301 831
M  V30 880 1 302 832
M  V30 881 1 302 833
M  V30 882 1 303 834
M  V30 883 1 303 835
M  V30 884 1 304 836 CFG=3
M  V30 885 1 305 837
M  V30 886 1 305 838
M  V30 887 1 306 839
M  V30 888 1 306 840
M  V30 889 1 307 841 CFG=3
M  V30 890 1 309 842
M  V30 891 1 309 843
M  V30 892 1 310 844
M  V30 893 1 310 845
M  V30 894 1 311 846
M  V30 895 1 312 847
M  V30 896 1 313 848
M  V30 897 1 313 849
M  V30 898 1 314 850
M  V30 899 1 315 851 CFG=1
M  V30 900 1 316 852 CFG=1
M  V30 901 1 318 853
M  V30 902 1 319 854
M  V30 903 1 319 855
M  V30 904 1 320 856
M  V30 905 1 320 857
M  V30 906 1 321 858
M  V30 907 1 322 859
M  V30 908 1 322 860
M  V30 909 1 323 861
M  V30 910 1 323 862
M  V30 911 1 324 863
M  V30 912 1 324 864
M  V30 913 1 326 865
M  V30 914 1 326 866
M  V30 915 1 326 867
M  V30 916 1 329 868
M  V30 917 1 329 869
M  V30 918 1 329 870
M  V30 919 1 331 871
M  V30 920 1 331 872
M  V30 921 1 331 873
M  V30 922 1 332 874
M  V30 923 1 332 875
M  V30 924 1 332 876
M  V30 925 1 333 877
M  V30 926 1 333 878
M  V30 927 1 333 879
M  V30 928 1 334 880
M  V30 929 1 334 881
M  V30 930 1 334 882
M  V30 931 1 335 883
M  V30 932 1 335 884
M  V30 933 1 335 885
M  V30 934 1 336 886
M  V30 935 1 336 887
M  V30 936 1 336 888
M  V30 937 1 338 889
M  V30 938 1 338 890
M  V30 939 1 339 891
M  V30 940 1 339 892
M  V30 941 1 340 893
M  V30 942 1 341 894
M  V30 943 1 342 895 CFG=1
M  V30 944 1 343 896
M  V30 945 1 343 897
M  V30 946 1 344 898
M  V30 947 1 345 899
M  V30 948 1 346 900
M  V30 949 1 346 901
M  V30 950 1 348 902 CFG=3
M  V30 951 1 349 903 CFG=1
M  V30 952 1 350 904
M  V30 953 1 350 905
M  V30 954 1 351 906
M  V30 955 1 351 907
M  V30 956 1 352 908 CFG=3
M  V30 957 1 353 909
M  V30 958 1 353 910
M  V30 959 1 354 911
M  V30 960 1 354 912
M  V30 961 1 355 913 CFG=3
M  V30 962 1 357 914
M  V30 963 1 357 915
M  V30 964 1 358 916
M  V30 965 1 358 917
M  V30 966 1 359 918
M  V30 967 1 360 919
M  V30 968 1 361 920
M  V30 969 1 361 921
M  V30 970 1 362 922
M  V30 971 1 363 923
M  V30 972 1 364 924
M  V30 973 1 366 925
M  V30 974 1 367 926
M  V30 975 1 367 927
M  V30 976 1 368 928
M  V30 977 1 368 929
M  V30 978 1 369 930
M  V30 979 1 370 931
M  V30 980 1 370 932
M  V30 981 1 371 933
M  V30 982 1 371 934
M  V30 983 1 372 935
M  V30 984 1 372 936
M  V30 985 1 374 937
M  V30 986 1 374 938
M  V30 987 1 374 939
M  V30 988 1 377 940
M  V30 989 1 377 941
M  V30 990 1 377 942
M  V30 991 1 379 943
M  V30 992 1 379 944
M  V30 993 1 379 945
M  V30 994 1 380 946
M  V30 995 1 380 947
M  V30 996 1 380 948
M  V30 997 1 381 949
M  V30 998 1 381 950
M  V30 999 1 381 951
M  V30 1000 1 382 952
M  V30 1001 1 382 953
M  V30 1002 1 382 954
M  V30 1003 1 383 955
M  V30 1004 1 383 956
M  V30 1005 1 383 957
M  V30 1006 1 384 958
M  V30 1007 1 384 959
M  V30 1008 1 384 960
M  V30 END BOND
M  V30 END CTAB
M  END
>  <PDBID>  (1) 
3PEO

>  <PDB ID>  (1) 
3PEO

>  <Generic Name>  (1) 
Metocurine

>  <Brand Name>  (1) 
nan

>  <DrugBank ID>  (1) 
DB01336

>  <ATC Codes>  (1) 
M03AA04

>  <Ligand ID>  (1) 
CU9

>  <Target Name>  (1) 
Neuronal acetylcholine receptor subunit alpha-2

>  <UniProt ID>  (1) 
Q15822

>  <PDB ID.1>  (1) 
3PEO

>  <Seq. Identity>  (1) 
30%

$$$$
