PDB_DB00220_06
     RDKit          3D

101104  0  0  0  0  0  0  0  0999 V2000
    2.5288    1.1619    2.3980 C   0  0  2  0  0  0  0  0  0  0  0  0
    3.9148    1.2070    1.7928 C   0  0  1  0  0  0  0  0  0  0  0  0
    4.7249   -0.0171    2.0180 C   0  0  0  0  0  0  0  0  0  0  0  0
    4.8545   -0.2470    3.5194 C   0  0  0  0  0  0  0  0  0  0  0  0
    3.5082   -0.3132    4.1745 C   0  0  0  0  0  0  0  0  0  0  0  0
    2.6440    0.8783    3.8536 C   0  0  0  0  0  0  0  0  0  0  0  0
    1.7112    0.2919    0.2396 N   0  0  0  0  0  0  0  0  0  0  0  0
    2.6102    1.1177   -0.3904 C   0  0  1  0  0  0  0  0  0  0  0  0
    3.7605    1.6539    0.3814 C   0  0  0  0  0  0  0  0  0  0  0  0
    1.7896    0.1014    1.6607 C   0  0  0  0  0  0  0  0  0  0  0  0
    3.1408    0.5767   -1.7198 C   0  0  1  0  0  0  0  0  0  0  0  0
    3.6833   -0.7170   -1.6218 N   0  0  0  0  0  0  0  0  0  0  0  0
    4.9142   -1.0485   -2.1909 C   0  0  0  0  0  0  0  0  0  0  0  0
    6.1221   -0.3549   -1.6104 C   0  0  0  0  0  0  0  0  0  0  0  0
    4.9754   -0.8920   -3.6993 C   0  0  0  0  0  0  0  0  0  0  0  0
    5.1236   -2.5550   -1.9553 C   0  0  0  0  0  0  0  0  0  0  0  0
    2.0882    0.4575   -2.6642 O   0  0  0  0  0  0  0  0  0  0  0  0
    0.5082   -0.1555   -0.2467 C   0  0  0  0  0  0  0  0  0  0  0  0
   -0.6605    0.8213   -0.4190 C   0  0  2  0  0  0  0  0  0  0  0  0
   -1.7721    0.0365   -1.0607 C   0  0  1  0  0  0  0  0  0  0  0  0
   -0.2448    1.7802   -1.3735 O   0  0  0  0  0  0  0  0  0  0  0  0
   -2.5122   -0.8266   -0.2459 N   0  0  0  0  0  0  0  0  0  0  0  0
   -2.7133    0.8919   -1.9229 C   0  0  0  0  0  0  0  0  0  0  0  0
   -2.1740   -1.9249    0.4814 C   0  0  0  0  0  0  0  0  0  0  0  0
   -1.8214   -1.4822    1.8164 O   0  0  0  0  0  0  0  0  0  0  0  0
   -3.4155   -2.7969    0.8245 C   0  0  0  0  0  0  0  0  0  0  0  0
   -2.9337   -3.9577    1.6221 C   0  0  0  0  0  0  0  0  0  0  0  0
   -4.0839   -4.8103    2.1190 C   0  0  0  0  0  0  0  0  0  0  0  0
   -5.1368   -5.0412    1.0976 C   0  0  0  0  0  0  0  0  0  0  0  0
   -5.4586   -3.8997    0.1997 C   0  0  1  0  0  0  0  0  0  0  0  0
   -4.1709   -3.2596   -0.3582 C   0  0  2  0  0  0  0  0  0  0  0  0
   -6.1634   -4.3738   -0.9049 O   0  0  0  0  0  0  0  0  0  0  0  0
   -3.4986   -4.3293   -1.1618 C   0  0  0  0  0  0  0  0  0  0  0  0
   -3.6490    2.1150   -1.1033 S   0  0  0  0  0  0  0  0  0  0  0  0
   -2.8514    3.5683   -0.4574 C   0  0  0  0  0  0  0  0  0  0  0  0
   -2.3347    4.3799   -1.6285 C   0  0  0  0  0  0  0  0  0  0  0  0
   -3.2719    5.4886   -2.0182 C   0  0  0  0  0  0  0  0  0  0  0  0
   -3.2756    6.4921   -0.8839 C   0  0  0  0  0  0  0  0  0  0  0  0
   -3.6700    5.8216    0.3849 C   0  0  0  0  0  0  0  0  0  0  0  0
   -3.9029    4.3560    0.3158 C   0  0  0  0  0  0  0  0  0  0  0  0
    3.5642   -1.1093   -0.6803 H   0  0  0  0  0  0  0  0  0  0  0  0
   -0.1666    2.6788   -0.9891 H   0  0  0  0  0  0  0  0  0  0  0  0
   -3.5566   -0.6774   -0.2791 H   0  0  0  0  0  0  0  0  0  0  0  0
   -6.3183   -3.6430   -1.5576 H   0  0  0  0  0  0  0  0  0  0  0  0
    2.1109    2.1776    2.2552 H   0  0  0  0  0  0  0  0  0  0  0  0
    4.4509    2.0339    2.3553 H   0  0  0  0  0  0  0  0  0  0  0  0
    5.7622    0.2238    1.6482 H   0  0  0  0  0  0  0  0  0  0  0  0
    4.4163   -0.9217    1.4981 H   0  0  0  0  0  0  0  0  0  0  0  0
    5.3554   -1.2248    3.7217 H   0  0  0  0  0  0  0  0  0  0  0  0
    5.4707    0.5720    3.9125 H   0  0  0  0  0  0  0  0  0  0  0  0
    3.6579   -0.3100    5.2923 H   0  0  0  0  0  0  0  0  0  0  0  0
    3.0157   -1.2844    3.9716 H   0  0  0  0  0  0  0  0  0  0  0  0
    3.1470    1.7645    4.3246 H   0  0  0  0  0  0  0  0  0  0  0  0
    1.6744    0.7215    4.3221 H   0  0  0  0  0  0  0  0  0  0  0  0
    1.9990    2.0394   -0.7650 H   0  0  0  0  0  0  0  0  0  0  0  0
    3.5931    2.7882    0.4572 H   0  0  0  0  0  0  0  0  0  0  0  0
    4.7380    1.5803   -0.1252 H   0  0  0  0  0  0  0  0  0  0  0  0
    0.7871   -0.0035    2.1501 H   0  0  0  0  0  0  0  0  0  0  0  0
    2.2937   -0.8720    1.8410 H   0  0  0  0  0  0  0  0  0  0  0  0
    3.8081    1.3616   -2.1237 H   0  0  0  0  0  0  0  0  0  0  0  0
    6.1379    0.6923   -1.9334 H   0  0  0  0  0  0  0  0  0  0  0  0
    6.2080   -0.5180   -0.5322 H   0  0  0  0  0  0  0  0  0  0  0  0
    7.0386   -0.8224   -2.0901 H   0  0  0  0  0  0  0  0  0  0  0  0
    4.6240    0.0970   -4.0364 H   0  0  0  0  0  0  0  0  0  0  0  0
    6.0387   -0.9800   -3.9996 H   0  0  0  0  0  0  0  0  0  0  0  0
    4.4080   -1.6709   -4.2274 H   0  0  0  0  0  0  0  0  0  0  0  0
    6.1583   -2.8670   -2.1607 H   0  0  0  0  0  0  0  0  0  0  0  0
    4.7312   -2.8383   -0.9776 H   0  0  0  0  0  0  0  0  0  0  0  0
    4.4301   -3.0332   -2.7122 H   0  0  0  0  0  0  0  0  0  0  0  0
    2.3206   -0.1644   -3.3771 H   0  0  0  0  0  0  0  0  0  0  0  0
    0.5704   -0.6406   -1.2819 H   0  0  0  0  0  0  0  0  0  0  0  0
    0.1406   -0.9832    0.3758 H   0  0  0  0  0  0  0  0  0  0  0  0
   -0.9854    1.3131    0.4599 H   0  0  0  0  0  0  0  0  0  0  0  0
   -1.3033   -0.6536   -1.8708 H   0  0  0  0  0  0  0  0  0  0  0  0
   -2.0990    1.3002   -2.7960 H   0  0  0  0  0  0  0  0  0  0  0  0
   -3.4278    0.2011   -2.4717 H   0  0  0  0  0  0  0  0  0  0  0  0
   -1.4284   -2.6461    0.1540 H   0  0  0  0  0  0  0  0  0  0  0  0
   -2.5103   -0.7673    1.9899 H   0  0  0  0  0  0  0  0  0  0  0  0
   -4.0903   -2.1332    1.4179 H   0  0  0  0  0  0  0  0  0  0  0  0
   -2.1659   -4.5318    1.0815 H   0  0  0  0  0  0  0  0  0  0  0  0
   -2.4415   -3.5595    2.5472 H   0  0  0  0  0  0  0  0  0  0  0  0
   -4.5320   -4.3825    3.0365 H   0  0  0  0  0  0  0  0  0  0  0  0
   -3.6506   -5.7909    2.4042 H   0  0  0  0  0  0  0  0  0  0  0  0
   -6.0874   -5.2628    1.6741 H   0  0  0  0  0  0  0  0  0  0  0  0
   -4.9937   -5.9741    0.4921 H   0  0  0  0  0  0  0  0  0  0  0  0
   -6.0232   -3.0915    0.7151 H   0  0  0  0  0  0  0  0  0  0  0  0
   -4.5393   -2.4246   -0.9968 H   0  0  0  0  0  0  0  0  0  0  0  0
   -3.4118   -5.2433   -0.5489 H   0  0  0  0  0  0  0  0  0  0  0  0
   -4.1101   -4.5050   -2.0592 H   0  0  0  0  0  0  0  0  0  0  0  0
   -2.4542   -4.0293   -1.4009 H   0  0  0  0  0  0  0  0  0  0  0  0
   -2.0266    3.3905    0.2482 H   0  0  0  0  0  0  0  0  0  0  0  0
   -1.3777    4.8786   -1.2971 H   0  0  0  0  0  0  0  0  0  0  0  0
   -2.0894    3.7862   -2.5039 H   0  0  0  0  0  0  0  0  0  0  0  0
   -2.8496    5.9970   -2.9052 H   0  0  0  0  0  0  0  0  0  0  0  0
   -4.2778    5.1042   -2.2036 H   0  0  0  0  0  0  0  0  0  0  0  0
   -3.9690    7.3140   -1.1255 H   0  0  0  0  0  0  0  0  0  0  0  0
   -2.2523    6.9258   -0.7892 H   0  0  0  0  0  0  0  0  0  0  0  0
   -4.6585    6.2777    0.7132 H   0  0  0  0  0  0  0  0  0  0  0  0
   -2.9653    6.1161    1.2037 H   0  0  0  0  0  0  0  0  0  0  0  0
   -4.8950    4.0752   -0.0741 H   0  0  0  0  0  0  0  0  0  0  0  0
   -3.8813    3.9541    1.3659 H   0  0  0  0  0  0  0  0  0  0  0  0
  1  2  1  0
  2  3  1  0
  3  4  1  0
  4  5  1  0
  1  6  1  0
  5  6  1  0
  7  8  1  0
  2  9  1  0
  8  9  1  0
  1 10  1  0
  7 10  1  0
  8 11  1  0
 11 12  1  0
 13 12  1  0
 13 14  1  0
 13 15  1  0
 13 16  1  0
 11 17  1  0
  7 18  1  0
 18 19  1  0
 19 20  1  0
 19 21  1  0
 20 22  1  0
 20 23  1  0
 22 24  1  0
 24 25  1  0
 24 26  1  0
 26 27  1  0
 27 28  1  0
 28 29  1  0
 29 30  1  0
 26 31  1  0
 30 31  1  0
 30 32  1  0
 31 33  1  0
 23 34  1  0
 34 35  1  0
 35 36  1  0
 36 37  1  0
 37 38  1  0
 38 39  1  0
 35 40  1  0
 39 40  1  0
 12 41  1  0
 21 42  1  0
 22 43  1  0
 32 44  1  0
  1 45  1  1
  2 46  1  1
  3 47  1  0
  3 48  1  0
  4 49  1  0
  4 50  1  0
  5 51  1  0
  5 52  1  0
  6 53  1  0
  6 54  1  0
  8 55  1  6
  9 56  1  0
  9 57  1  0
 10 58  1  0
 10 59  1  0
 11 60  1  6
 14 61  1  0
 14 62  1  0
 14 63  1  0
 15 64  1  0
 15 65  1  0
 15 66  1  0
 16 67  1  0
 16 68  1  0
 16 69  1  0
 17 70  1  0
 18 71  1  0
 18 72  1  0
 19 73  1  1
 20 74  1  6
 23 75  1  0
 23 76  1  0
 24 77  1  0
 25 78  1  0
 26 79  1  0
 27 80  1  0
 27 81  1  0
 28 82  1  0
 28 83  1  0
 29 84  1  0
 29 85  1  0
 30 86  1  1
 31 87  1  6
 33 88  1  0
 33 89  1  0
 33 90  1  0
 35 91  1  0
 36 92  1  0
 36 93  1  0
 37 94  1  0
 37 95  1  0
 38 96  1  0
 38 97  1  0
 39 98  1  0
 39 99  1  0
 40100  1  0
 40101  1  0
M  END
>  <PDBID>  (1) 
1OHR

>  <PDB ID>  (1) 
1OHR

>  <Generic Name>  (1) 
Nelfinavir

>  <Brand Name>  (1) 
Viracept#Viracept -250mg#Viracept -50mg

>  <DrugBank ID>  (1) 
DB00220

>  <ATC Codes>  (1) 
J05AE04

>  <Ligand ID>  (1) 
1UN

>  <Target Name>  (1) 
HIV-1 protease

>  <UniProt ID>  (1) 
O90777

>  <PDB ID.1>  (1) 
1OHR

>  <Seq. Identity>  (1) 
93%

$$$$
