PDB_DB01092_03
     RDKit          3D

178188  0  0  0  0  0  0  0  0999 V2000
    0.9281    1.2593    1.0323 C   0  0  2  0  0  0  0  0  0  0  0  0
    2.3953    1.4184    1.0678 C   0  0  0  0  0  0  0  0  0  0  0  0
    3.1413    0.1246    0.8028 C   0  0  1  0  0  0  0  0  0  0  0  0
    2.1183   -0.8930    0.4786 C   0  0  0  0  0  0  0  0  0  0  0  0
    1.0999   -0.5385   -0.5602 C   0  0  1  0  0  0  0  0  0  0  0  0
    0.2320   -1.7729   -0.6266 C   0  0  0  0  0  0  0  0  0  0  0  0
   -0.8832   -1.6819    0.4175 C   0  0  0  0  0  0  0  0  0  0  0  0
   -1.7635   -0.6130   -0.1756 C   0  0  2  0  0  0  0  0  0  0  0  0
   -1.0872    0.7463   -0.1945 C   0  0  1  0  0  0  0  0  0  0  0  0
    0.3606    0.7561   -0.3155 C   0  0  1  0  0  0  0  0  0  0  0  0
   -1.9237    1.5129   -1.1946 C   0  0  1  0  0  0  0  0  0  0  0  0
   -3.3778    1.5475   -0.6965 C   0  0  0  0  0  0  0  0  0  0  0  0
   -4.0059    0.2291   -0.4737 C   0  0  1  0  0  0  0  0  0  0  0  0
   -3.1233   -0.6379    0.3981 C   0  0  2  0  0  0  0  0  0  0  0  0
   -3.2972   -0.2167    1.7951 C   0  0  0  0  0  0  0  0  0  0  0  0
   -4.5742    0.6034    1.7894 C   0  0  0  0  0  0  0  0  0  0  0  0
   -5.1808    0.4540    0.4317 C   0  0  2  0  0  0  0  0  0  0  0  0
   -4.3291   -0.3953   -1.7861 C   0  0  0  0  0  0  0  0  0  0  0  0
    0.9820    1.7147   -1.3154 C   0  0  0  0  0  0  0  0  0  0  0  0
   -6.2512   -0.5562    0.4111 C   0  0  1  0  0  0  0  0  0  0  0  0
   -7.3042   -0.1062    1.4384 C   0  0  0  0  0  0  0  0  0  0  0  0
   -7.1024   -0.5734   -0.8298 C   0  0  0  0  0  0  0  0  0  0  0  0
   -8.4268   -1.0749   -0.2295 C   0  0  0  0  0  0  0  0  0  0  0  0
    5.4159   -0.0557    0.3849 C   0  0  2  0  0  0  0  0  0  0  0  0
    6.0375   -1.1128   -0.4780 C   0  0  1  0  0  0  0  0  0  0  0  0
    7.2695   -1.6658    0.2315 C   0  0  1  0  0  0  0  0  0  0  0  0
    8.0270   -0.4875    0.7988 C   0  0  2  0  0  0  0  0  0  0  0  0
    7.5588    0.7893    0.1337 C   0  0  2  0  0  0  0  0  0  0  0  0
    8.4368    1.9062    0.6678 C   0  0  0  0  0  0  0  0  0  0  0  0
    0.3421    2.4866    1.3551 O   0  0  0  0  0  0  0  0  0  0  0  0
    4.1640    0.2759   -0.1271 O   0  0  0  0  0  0  0  0  0  0  0  0
    1.7660   -0.5244   -1.7889 O   0  0  0  0  0  0  0  0  0  0  0  0
   -1.6529    2.8833   -1.2444 O   0  0  0  0  0  0  0  0  0  0  0  0
   -3.6144   -1.9510    0.2552 O   0  0  0  0  0  0  0  0  0  0  0  0
    0.7300    3.0381   -1.1217 O   0  0  0  0  0  0  0  0  0  0  0  0
   -8.5370   -0.2884    0.8806 O   0  0  0  0  0  0  0  0  0  0  0  0
   -9.4758   -0.9014   -1.1161 O   0  0  0  0  0  0  0  0  0  0  0  0
    5.1717   -2.1544   -0.7946 O   0  0  0  0  0  0  0  0  0  0  0  0
    6.8288   -2.5116    1.2496 O   0  0  0  0  0  0  0  0  0  0  0  0
    9.3923   -0.6283    0.4939 O   0  0  0  0  0  0  0  0  0  0  0  0
    6.2356    1.0743    0.3622 O   0  0  0  0  0  0  0  0  0  0  0  0
    0.7309    0.8481    1.3573 C   0  0  2  0  0  0  0  0  0  0  0  0
    2.1648    1.0759    1.6071 C   0  0  0  0  0  0  0  0  0  0  0  0
    3.0350   -0.1200    1.2672 C   0  0  1  0  0  0  0  0  0  0  0  0
    2.1076   -1.1468    0.7293 C   0  0  0  0  0  0  0  0  0  0  0  0
    1.2259   -0.6948   -0.4137 C   0  0  1  0  0  0  0  0  0  0  0  0
    0.4940   -1.9435   -0.7986 C   0  0  0  0  0  0  0  0  0  0  0  0
   -0.7062   -2.0913    0.1508 C   0  0  0  0  0  0  0  0  0  0  0  0
   -1.6385   -1.0350   -0.3476 C   0  0  2  0  0  0  0  0  0  0  0  0
   -1.0685    0.3715   -0.2025 C   0  0  1  0  0  0  0  0  0  0  0  0
    0.3690    0.5073   -0.1062 C   0  0  1  0  0  0  0  0  0  0  0  0
   -1.8269    1.1230   -1.2728 C   0  0  1  0  0  0  0  0  0  0  0  0
   -3.3190    1.0466   -1.0659 C   0  0  0  0  0  0  0  0  0  0  0  0
   -3.9215   -0.2172   -0.6523 C   0  0  1  0  0  0  0  0  0  0  0  0
   -3.0321   -1.1648    0.1013 C   0  0  2  0  0  0  0  0  0  0  0  0
   -3.2920   -0.9502    1.5588 C   0  0  0  0  0  0  0  0  0  0  0  0
   -4.8328   -0.9015    1.5062 C   0  0  0  0  0  0  0  0  0  0  0  0
   -5.0299    0.0333    0.3374 C   0  0  2  0  0  0  0  0  0  0  0  0
   -4.4120   -0.9719   -1.8890 C   0  0  0  0  0  0  0  0  0  0  0  0
    1.0367    1.6435   -0.8654 C   0  0  0  0  0  0  0  0  0  0  0  0
   -6.4113    0.0293   -0.2012 C   0  0  0  0  0  0  0  0  0  0  0  0
   -6.6821    1.0967   -1.2163 C   0  0  0  0  0  0  0  0  0  0  0  0
   -7.3321    0.4665    0.9463 C   0  0  0  0  0  0  0  0  0  0  0  0
   -8.4199    1.1597    0.1971 C   0  0  0  0  0  0  0  0  0  0  0  0
    5.3547   -0.1446    1.0593 C   0  0  2  0  0  0  0  0  0  0  0  0
    6.0179   -1.1483    0.1509 C   0  0  1  0  0  0  0  0  0  0  0  0
    7.4914   -1.3149    0.3982 C   0  0  1  0  0  0  0  0  0  0  0  0
    8.1667    0.0155    0.4074 C   0  0  2  0  0  0  0  0  0  0  0  0
    7.0980    1.0998    0.2265 C   0  0  2  0  0  0  0  0  0  0  0  0
    7.7990    2.4236    0.3185 C   0  0  0  0  0  0  0  0  0  0  0  0
    0.0339    1.9957    1.7427 O   0  0  0  0  0  0  0  0  0  0  0  0
    4.1154    0.1857    0.4810 O   0  0  0  0  0  0  0  0  0  0  0  0
    2.1175   -0.4507   -1.4845 O   0  0  0  0  0  0  0  0  0  0  0  0
   -1.5796    2.4830   -1.3370 O   0  0  0  0  0  0  0  0  0  0  0  0
   -3.4656   -2.4677   -0.1582 O   0  0  0  0  0  0  0  0  0  0  0  0
    0.6255    2.9079   -0.4781 O   0  0  0  0  0  0  0  0  0  0  0  0
   -7.8776    1.7297   -0.9172 O   0  0  0  0  0  0  0  0  0  0  0  0
   -9.3857    0.2221   -0.2119 O   0  0  0  0  0  0  0  0  0  0  0  0
    5.4197   -2.3914    0.3516 O   0  0  0  0  0  0  0  0  0  0  0  0
    7.7666   -2.0896    1.5258 O   0  0  0  0  0  0  0  0  0  0  0  0
    9.0917    0.1709   -0.6144 O   0  0  0  0  0  0  0  0  0  0  0  0
    6.1358    0.9945    1.2469 O   0  0  0  0  0  0  0  0  0  0  0  0
    0.6188    0.5500    1.8163 H   0  0  0  0  0  0  0  0  0  0  0  0
    2.8482    2.1953    0.4610 H   0  0  0  0  0  0  0  0  0  0  0  0
    2.6345    1.6999    2.1345 H   0  0  0  0  0  0  0  0  0  0  0  0
    3.6538   -0.2462    1.7427 H   0  0  0  0  0  0  0  0  0  0  0  0
    2.6160   -1.8209    0.1300 H   0  0  0  0  0  0  0  0  0  0  0  0
    1.6233   -1.1923    1.4438 H   0  0  0  0  0  0  0  0  0  0  0  0
   -0.2716   -1.8596   -1.6108 H   0  0  0  0  0  0  0  0  0  0  0  0
    0.7751   -2.6866   -0.4168 H   0  0  0  0  0  0  0  0  0  0  0  0
   -1.4127   -2.6613    0.3491 H   0  0  0  0  0  0  0  0  0  0  0  0
   -0.5188   -1.4721    1.4187 H   0  0  0  0  0  0  0  0  0  0  0  0
   -1.9023   -0.8740   -1.2736 H   0  0  0  0  0  0  0  0  0  0  0  0
   -1.4504    1.1999    0.7920 H   0  0  0  0  0  0  0  0  0  0  0  0
   -1.8820    1.0625   -2.2057 H   0  0  0  0  0  0  0  0  0  0  0  0
   -3.3460    2.1112    0.2584 H   0  0  0  0  0  0  0  0  0  0  0  0
   -3.9729    2.1573   -1.4054 H   0  0  0  0  0  0  0  0  0  0  0  0
   -3.5266   -1.1071    2.4544 H   0  0  0  0  0  0  0  0  0  0  0  0
   -2.4697    0.2892    2.2891 H   0  0  0  0  0  0  0  0  0  0  0  0
   -5.2651    0.3164    2.6114 H   0  0  0  0  0  0  0  0  0  0  0  0
   -4.3280    1.6865    1.9944 H   0  0  0  0  0  0  0  0  0  0  0  0
   -5.6452    1.4317    0.1054 H   0  0  0  0  0  0  0  0  0  0  0  0
   -4.4804   -1.4710   -1.7866 H   0  0  0  0  0  0  0  0  0  0  0  0
   -5.1363    0.1982   -2.2605 H   0  0  0  0  0  0  0  0  0  0  0  0
   -3.4354   -0.2232   -2.4567 H   0  0  0  0  0  0  0  0  0  0  0  0
    0.7270    1.3812   -2.3733 H   0  0  0  0  0  0  0  0  0  0  0  0
    2.1019    1.6025   -1.3198 H   0  0  0  0  0  0  0  0  0  0  0  0
   -5.9749   -1.5729    0.6737 H   0  0  0  0  0  0  0  0  0  0  0  0
   -7.1655   -0.6604    2.4003 H   0  0  0  0  0  0  0  0  0  0  0  0
   -7.1864    0.9745    1.6603 H   0  0  0  0  0  0  0  0  0  0  0  0
   -7.2953    0.4359   -1.2456 H   0  0  0  0  0  0  0  0  0  0  0  0
   -6.8442   -1.3329   -1.5690 H   0  0  0  0  0  0  0  0  0  0  0  0
   -8.2788   -2.1407    0.0663 H   0  0  0  0  0  0  0  0  0  0  0  0
    5.3767   -0.3911    1.4407 H   0  0  0  0  0  0  0  0  0  0  0  0
    6.3371   -0.6492   -1.4616 H   0  0  0  0  0  0  0  0  0  0  0  0
    7.8789   -2.2070   -0.5189 H   0  0  0  0  0  0  0  0  0  0  0  0
    7.9238   -0.4070    1.9009 H   0  0  0  0  0  0  0  0  0  0  0  0
    7.7871    0.7025   -0.9561 H   0  0  0  0  0  0  0  0  0  0  0  0
    9.3586    1.9651    0.0534 H   0  0  0  0  0  0  0  0  0  0  0  0
    8.7592    1.6439    1.7085 H   0  0  0  0  0  0  0  0  0  0  0  0
    7.9373    2.8942    0.6194 H   0  0  0  0  0  0  0  0  0  0  0  0
    0.0646    2.5300    2.2963 H   0  0  0  0  0  0  0  0  0  0  0  0
    1.9033   -1.4101   -2.1719 H   0  0  0  0  0  0  0  0  0  0  0  0
   -1.8052    3.1579   -2.1833 H   0  0  0  0  0  0  0  0  0  0  0  0
   -3.2093   -2.3820   -0.5168 H   0  0  0  0  0  0  0  0  0  0  0  0
    0.9285    3.5232   -1.9382 H   0  0  0  0  0  0  0  0  0  0  0  0
  -10.2157   -1.4971   -0.7843 H   0  0  0  0  0  0  0  0  0  0  0  0
    5.7604   -2.9578   -0.9494 H   0  0  0  0  0  0  0  0  0  0  0  0
    7.1392   -3.4330    1.0605 H   0  0  0  0  0  0  0  0  0  0  0  0
    9.5421   -0.5323   -0.4773 H   0  0  0  0  0  0  0  0  0  0  0  0
    0.3644    0.0399    2.0095 H   0  0  0  0  0  0  0  0  0  0  0  0
    2.6363    1.9630    1.2041 H   0  0  0  0  0  0  0  0  0  0  0  0
    2.2481    1.1989    2.7307 H   0  0  0  0  0  0  0  0  0  0  0  0
    3.4761   -0.5819    2.2038 H   0  0  0  0  0  0  0  0  0  0  0  0
    2.7064   -2.0054    0.3041 H   0  0  0  0  0  0  0  0  0  0  0  0
    1.5120   -1.5956    1.5466 H   0  0  0  0  0  0  0  0  0  0  0  0
    0.0897   -1.8675   -1.8211 H   0  0  0  0  0  0  0  0  0  0  0  0
    1.1412   -2.8098   -0.7304 H   0  0  0  0  0  0  0  0  0  0  0  0
   -1.1828   -3.0818   -0.0809 H   0  0  0  0  0  0  0  0  0  0  0  0
   -0.4409   -2.0044    1.2003 H   0  0  0  0  0  0  0  0  0  0  0  0
   -1.6878   -1.2066   -1.4743 H   0  0  0  0  0  0  0  0  0  0  0  0
   -1.5918    0.7364    0.7480 H   0  0  0  0  0  0  0  0  0  0  0  0
   -1.6372    0.6268   -2.2722 H   0  0  0  0  0  0  0  0  0  0  0  0
   -3.6419    1.8739   -0.3795 H   0  0  0  0  0  0  0  0  0  0  0  0
   -3.7590    1.3460   -2.0655 H   0  0  0  0  0  0  0  0  0  0  0  0
   -3.0149   -1.8311    2.1698 H   0  0  0  0  0  0  0  0  0  0  0  0
   -2.9947   -0.0023    1.9842 H   0  0  0  0  0  0  0  0  0  0  0  0
   -5.2535   -1.8947    1.2919 H   0  0  0  0  0  0  0  0  0  0  0  0
   -5.1994   -0.4427    2.4417 H   0  0  0  0  0  0  0  0  0  0  0  0
   -4.8790    1.0678    0.7829 H   0  0  0  0  0  0  0  0  0  0  0  0
   -5.1658   -1.7097   -1.5958 H   0  0  0  0  0  0  0  0  0  0  0  0
   -4.7067   -0.2834   -2.7035 H   0  0  0  0  0  0  0  0  0  0  0  0
   -3.5234   -1.5471   -2.2688 H   0  0  0  0  0  0  0  0  0  0  0  0
    0.9258    1.4956   -1.9707 H   0  0  0  0  0  0  0  0  0  0  0  0
    2.1356    1.6146   -0.7135 H   0  0  0  0  0  0  0  0  0  0  0  0
   -6.7521   -0.9703   -0.5542 H   0  0  0  0  0  0  0  0  0  0  0  0
   -6.7916    0.7111   -2.2529 H   0  0  0  0  0  0  0  0  0  0  0  0
   -5.9018    1.8955   -1.1771 H   0  0  0  0  0  0  0  0  0  0  0  0
   -6.8007    1.2001    1.5737 H   0  0  0  0  0  0  0  0  0  0  0  0
   -7.7069   -0.4074    1.5060 H   0  0  0  0  0  0  0  0  0  0  0  0
   -8.9608    1.8990    0.8183 H   0  0  0  0  0  0  0  0  0  0  0  0
    5.2383   -0.6023    2.0579 H   0  0  0  0  0  0  0  0  0  0  0  0
    5.8466   -0.8955   -0.9229 H   0  0  0  0  0  0  0  0  0  0  0  0
    7.8916   -1.8751   -0.4974 H   0  0  0  0  0  0  0  0  0  0  0  0
    8.7277    0.2034    1.3630 H   0  0  0  0  0  0  0  0  0  0  0  0
    6.6551    0.9702   -0.7627 H   0  0  0  0  0  0  0  0  0  0  0  0
    8.5263    2.4776   -0.5433 H   0  0  0  0  0  0  0  0  0  0  0  0
    8.4236    2.4242    1.2352 H   0  0  0  0  0  0  0  0  0  0  0  0
    7.1193    3.2834    0.3104 H   0  0  0  0  0  0  0  0  0  0  0  0
    0.4667    2.3216    2.5694 H   0  0  0  0  0  0  0  0  0  0  0  0
    2.3108   -1.2557   -1.9994 H   0  0  0  0  0  0  0  0  0  0  0  0
   -2.2654    2.8895   -1.8997 H   0  0  0  0  0  0  0  0  0  0  0  0
   -2.9962   -2.8997   -0.8998 H   0  0  0  0  0  0  0  0  0  0  0  0
    1.3595    3.5589   -0.5806 H   0  0  0  0  0  0  0  0  0  0  0  0
   -8.9493   -0.3982   -0.8515 H   0  0  0  0  0  0  0  0  0  0  0  0
    5.5852   -3.0105   -0.4250 H   0  0  0  0  0  0  0  0  0  0  0  0
    7.5536   -3.0303    1.2753 H   0  0  0  0  0  0  0  0  0  0  0  0
    8.6994    0.0266   -1.5120 H   0  0  0  0  0  0  0  0  0  0  0  0
  1  2  1  0
  2  3  1  0
  3  4  1  0
  4  5  1  0
  5  6  1  0
  6  7  1  0
  7  8  1  0
  8  9  1  0
  1 10  1  0
  5 10  1  0
  9 10  1  0
  9 11  1  0
 11 12  1  0
 12 13  1  0
  8 14  1  0
 13 14  1  0
 14 15  1  0
 15 16  1  0
 13 17  1  0
 16 17  1  0
 13 18  1  6
 10 19  1  6
 17 20  1  0
 20 21  1  0
 20 22  1  0
 22 23  1  0
 24 25  1  0
 25 26  1  0
 26 27  1  0
 27 28  1  0
 28 29  1  0
  1 30  1  0
  3 31  1  0
 24 31  1  0
  5 32  1  6
 11 33  1  0
 14 34  1  1
 19 35  1  0
 21 36  1  0
 23 36  1  0
 23 37  1  0
 25 38  1  0
 26 39  1  0
 27 40  1  0
 24 41  1  0
 28 41  1  0
 42 43  1  0
 43 44  1  0
 44 45  1  0
 45 46  1  0
 46 47  1  0
 47 48  1  0
 48 49  1  0
 49 50  1  0
 42 51  1  0
 46 51  1  0
 50 51  1  0
 50 52  1  0
 52 53  1  0
 53 54  1  0
 49 55  1  0
 54 55  1  0
 55 56  1  0
 56 57  1  0
 54 58  1  0
 57 58  1  0
 54 59  1  6
 51 60  1  6
 58 61  1  0
 61 62  1  0
 61 63  1  0
 63 64  1  0
 65 66  1  0
 66 67  1  0
 67 68  1  0
 68 69  1  0
 69 70  1  0
 42 71  1  0
 44 72  1  0
 65 72  1  0
 46 73  1  6
 52 74  1  0
 55 75  1  6
 60 76  1  0
 62 77  1  0
 64 77  1  0
 64 78  1  0
 66 79  1  0
 67 80  1  0
 68 81  1  0
 65 82  1  0
 69 82  1  0
  1 83  1  1
  2 84  1  0
  2 85  1  0
  3 86  1  1
  4 87  1  0
  4 88  1  0
  6 89  1  0
  6 90  1  0
  7 91  1  0
  7 92  1  0
  8 93  1  6
  9 94  1  1
 11 95  1  6
 12 96  1  0
 12 97  1  0
 15 98  1  0
 15 99  1  0
 16100  1  0
 16101  1  0
 17102  1  6
 18103  1  0
 18104  1  0
 18105  1  0
 19106  1  0
 19107  1  0
 20108  1  1
 21109  1  0
 21110  1  0
 22111  1  0
 22112  1  0
 23113  1  0
 24114  1  1
 25115  1  6
 26116  1  6
 27117  1  1
 28118  1  6
 29119  1  0
 29120  1  0
 29121  1  0
 30122  1  0
 32123  1  0
 33124  1  0
 34125  1  0
 35126  1  0
 37127  1  0
 38128  1  0
 39129  1  0
 40130  1  0
 42131  1  1
 43132  1  0
 43133  1  0
 44134  1  1
 45135  1  0
 45136  1  0
 47137  1  0
 47138  1  0
 48139  1  0
 48140  1  0
 49141  1  6
 50142  1  1
 52143  1  6
 53144  1  0
 53145  1  0
 56146  1  0
 56147  1  0
 57148  1  0
 57149  1  0
 58150  1  1
 59151  1  0
 59152  1  0
 59153  1  0
 60154  1  0
 60155  1  0
 61156  1  0
 62157  1  0
 62158  1  0
 63159  1  0
 63160  1  0
 64161  1  0
 65162  1  1
 66163  1  6
 67164  1  6
 68165  1  1
 69166  1  6
 70167  1  0
 70168  1  0
 70169  1  0
 71170  1  0
 73171  1  0
 74172  1  0
 75173  1  0
 76174  1  0
 78175  1  0
 79176  1  0
 80177  1  0
 81178  1  0
M  END
>  <PDBID>  (1) 
3N23

>  <PDB ID>  (1) 
3N23

>  <Generic Name>  (1) 
Ouabain

>  <Brand Name>  (1) 
Strodival

>  <DrugBank ID>  (1) 
DB01092

>  <ATC Codes>  (1) 
C01AC01

>  <Ligand ID>  (1) 
OBN

>  <Target Name>  (1) 
Sodium/potassium-transporting ATPase subunit alpha-1

>  <UniProt ID>  (1) 
P05023

>  <PDB ID.1>  (1) 
3N23

>  <Seq. Identity>  (1) 
95%

$$$$
