PDB_DB08910_04
     RDKit          3D

180188  0  0  0  0  0  0  0  0999 V2000
   -3.4699    1.4054   -0.3953 C   0  0  0  0  0  0  0  0  0  0  0  0
   -3.6679    1.0182    1.0444 C   0  0  0  0  0  0  0  0  0  0  0  0
   -2.4184    0.4206    1.6264 C   0  0  0  0  0  0  0  0  0  0  0  0
   -1.9083   -0.7344    0.8134 C   0  0  0  0  0  0  0  0  0  0  0  0
   -1.7880   -0.4517   -0.6495 C   0  0  0  0  0  0  0  0  0  0  0  0
   -2.9220    0.3013   -1.2469 C   0  0  0  0  0  0  0  0  0  0  0  0
   -0.4755   -0.9758    1.2008 C   0  0  0  0  0  0  0  0  0  0  0  0
    0.2704   -0.0238    0.3988 N   0  0  0  0  0  0  0  0  0  0  0  0
   -0.4474    0.2293   -0.7935 C   0  0  0  0  0  0  0  0  0  0  0  0
   -4.0116   -0.6345   -1.4957 N   0  0  0  0  0  0  0  0  0  0  0  0
   -0.7229    1.6015   -0.9134 O   0  0  0  0  0  0  0  0  0  0  0  0
    1.6044   -0.4758    0.2992 C   0  0  1  0  0  0  0  0  0  0  0  0
   -0.2190   -0.7564    2.5398 O   0  0  0  0  0  0  0  0  0  0  0  0
    2.2719   -0.3544   -1.0297 C   0  0  0  0  0  0  0  0  0  0  0  0
    2.4408    0.3217    1.2952 C   0  0  0  0  0  0  0  0  0  0  0  0
    3.6129    0.8973    0.6895 N   0  0  0  0  0  0  0  0  0  0  0  0
    4.4855   -0.1047    0.1297 C   0  0  0  0  0  0  0  0  0  0  0  0
    3.6784   -0.9239   -0.8421 C   0  0  0  0  0  0  0  0  0  0  0  0
    1.6954    1.3868    1.8263 O   0  0  0  0  0  0  0  0  0  0  0  0
    4.9766   -0.8638    1.1888 O   0  0  0  0  0  0  0  0  0  0  0  0
   -3.4699    1.4054   -0.3953 C   0  0  0  0  0  0  0  0  0  0  0  0
   -3.6679    1.0182    1.0444 C   0  0  0  0  0  0  0  0  0  0  0  0
   -2.4184    0.4206    1.6264 C   0  0  0  0  0  0  0  0  0  0  0  0
   -1.9083   -0.7344    0.8134 C   0  0  0  0  0  0  0  0  0  0  0  0
   -1.7880   -0.4517   -0.6495 C   0  0  0  0  0  0  0  0  0  0  0  0
   -2.9220    0.3013   -1.2469 C   0  0  0  0  0  0  0  0  0  0  0  0
   -0.4755   -0.9758    1.2008 C   0  0  0  0  0  0  0  0  0  0  0  0
    0.2704   -0.0238    0.3988 N   0  0  0  0  0  0  0  0  0  0  0  0
   -0.4474    0.2293   -0.7935 C   0  0  0  0  0  0  0  0  0  0  0  0
   -4.0116   -0.6345   -1.4957 N   0  0  0  0  0  0  0  0  0  0  0  0
   -0.7229    1.6015   -0.9134 O   0  0  0  0  0  0  0  0  0  0  0  0
    1.6044   -0.4758    0.2992 C   0  0  1  0  0  0  0  0  0  0  0  0
   -0.2190   -0.7564    2.5398 O   0  0  0  0  0  0  0  0  0  0  0  0
    2.2719   -0.3544   -1.0297 C   0  0  0  0  0  0  0  0  0  0  0  0
    2.4408    0.3217    1.2952 C   0  0  0  0  0  0  0  0  0  0  0  0
    3.6129    0.8973    0.6895 N   0  0  0  0  0  0  0  0  0  0  0  0
    4.4855   -0.1047    0.1297 C   0  0  0  0  0  0  0  0  0  0  0  0
    3.6784   -0.9239   -0.8421 C   0  0  0  0  0  0  0  0  0  0  0  0
    1.6954    1.3868    1.8263 O   0  0  0  0  0  0  0  0  0  0  0  0
    4.9766   -0.8638    1.1888 O   0  0  0  0  0  0  0  0  0  0  0  0
   -3.4699    1.4054   -0.3953 C   0  0  0  0  0  0  0  0  0  0  0  0
   -3.6679    1.0182    1.0444 C   0  0  0  0  0  0  0  0  0  0  0  0
   -2.4184    0.4206    1.6264 C   0  0  0  0  0  0  0  0  0  0  0  0
   -1.9083   -0.7344    0.8134 C   0  0  0  0  0  0  0  0  0  0  0  0
   -1.7880   -0.4517   -0.6495 C   0  0  0  0  0  0  0  0  0  0  0  0
   -2.9220    0.3013   -1.2469 C   0  0  0  0  0  0  0  0  0  0  0  0
   -0.4755   -0.9758    1.2008 C   0  0  0  0  0  0  0  0  0  0  0  0
    0.2704   -0.0238    0.3988 N   0  0  0  0  0  0  0  0  0  0  0  0
   -0.4474    0.2293   -0.7935 C   0  0  0  0  0  0  0  0  0  0  0  0
   -4.0116   -0.6345   -1.4957 N   0  0  0  0  0  0  0  0  0  0  0  0
   -0.7229    1.6015   -0.9134 O   0  0  0  0  0  0  0  0  0  0  0  0
    1.6044   -0.4758    0.2992 C   0  0  1  0  0  0  0  0  0  0  0  0
   -0.2190   -0.7564    2.5398 O   0  0  0  0  0  0  0  0  0  0  0  0
    2.2719   -0.3544   -1.0297 C   0  0  0  0  0  0  0  0  0  0  0  0
    2.4408    0.3217    1.2952 C   0  0  0  0  0  0  0  0  0  0  0  0
    3.6129    0.8973    0.6895 N   0  0  0  0  0  0  0  0  0  0  0  0
    4.4855   -0.1047    0.1297 C   0  0  0  0  0  0  0  0  0  0  0  0
    3.6784   -0.9239   -0.8421 C   0  0  0  0  0  0  0  0  0  0  0  0
    1.6954    1.3868    1.8263 O   0  0  0  0  0  0  0  0  0  0  0  0
    4.9766   -0.8638    1.1888 O   0  0  0  0  0  0  0  0  0  0  0  0
   -3.4699    1.4054   -0.3953 C   0  0  0  0  0  0  0  0  0  0  0  0
   -3.6679    1.0182    1.0444 C   0  0  0  0  0  0  0  0  0  0  0  0
   -2.4184    0.4206    1.6264 C   0  0  0  0  0  0  0  0  0  0  0  0
   -1.9083   -0.7344    0.8134 C   0  0  0  0  0  0  0  0  0  0  0  0
   -1.7880   -0.4517   -0.6495 C   0  0  0  0  0  0  0  0  0  0  0  0
   -2.9220    0.3013   -1.2469 C   0  0  0  0  0  0  0  0  0  0  0  0
   -0.4755   -0.9758    1.2008 C   0  0  0  0  0  0  0  0  0  0  0  0
    0.2704   -0.0238    0.3988 N   0  0  0  0  0  0  0  0  0  0  0  0
   -0.4474    0.2293   -0.7935 C   0  0  0  0  0  0  0  0  0  0  0  0
   -4.0116   -0.6345   -1.4957 N   0  0  0  0  0  0  0  0  0  0  0  0
   -0.7229    1.6015   -0.9134 O   0  0  0  0  0  0  0  0  0  0  0  0
    1.6044   -0.4758    0.2992 C   0  0  1  0  0  0  0  0  0  0  0  0
   -0.2190   -0.7564    2.5398 O   0  0  0  0  0  0  0  0  0  0  0  0
    2.2719   -0.3544   -1.0297 C   0  0  0  0  0  0  0  0  0  0  0  0
    2.4408    0.3217    1.2952 C   0  0  0  0  0  0  0  0  0  0  0  0
    3.6129    0.8973    0.6895 N   0  0  0  0  0  0  0  0  0  0  0  0
    4.4855   -0.1047    0.1297 C   0  0  0  0  0  0  0  0  0  0  0  0
    3.6784   -0.9239   -0.8421 C   0  0  0  0  0  0  0  0  0  0  0  0
    1.6954    1.3868    1.8263 O   0  0  0  0  0  0  0  0  0  0  0  0
    4.9766   -0.8638    1.1888 O   0  0  0  0  0  0  0  0  0  0  0  0
   -2.8972    2.3490   -0.4560 H   0  0  0  0  0  0  0  0  0  0  0  0
   -4.4867    1.6476   -0.7974 H   0  0  0  0  0  0  0  0  0  0  0  0
   -4.4837    0.2851    1.1349 H   0  0  0  0  0  0  0  0  0  0  0  0
   -3.8767    1.9489    1.6153 H   0  0  0  0  0  0  0  0  0  0  0  0
   -2.7017    0.0060    2.6272 H   0  0  0  0  0  0  0  0  0  0  0  0
   -1.6577    1.1942    1.8040 H   0  0  0  0  0  0  0  0  0  0  0  0
   -2.4897   -1.6527    0.9871 H   0  0  0  0  0  0  0  0  0  0  0  0
   -1.7025   -1.4329   -1.1812 H   0  0  0  0  0  0  0  0  0  0  0  0
   -2.5786    0.7524   -2.2008 H   0  0  0  0  0  0  0  0  0  0  0  0
   -0.1753   -1.9859    0.8543 H   0  0  0  0  0  0  0  0  0  0  0  0
    0.0330   -0.0632   -1.7330 H   0  0  0  0  0  0  0  0  0  0  0  0
   -3.6121   -1.5380   -1.8214 H   0  0  0  0  0  0  0  0  0  0  0  0
   -4.5748   -0.7525   -0.6259 H   0  0  0  0  0  0  0  0  0  0  0  0
   -0.3784    2.1260   -0.1620 H   0  0  0  0  0  0  0  0  0  0  0  0
    1.6985   -1.5465    0.6142 H   0  0  0  0  0  0  0  0  0  0  0  0
    0.1554   -1.6089    2.9039 H   0  0  0  0  0  0  0  0  0  0  0  0
    2.3897    0.6732   -1.3992 H   0  0  0  0  0  0  0  0  0  0  0  0
    1.8276   -0.9952   -1.8243 H   0  0  0  0  0  0  0  0  0  0  0  0
    2.7529   -0.2895    2.1574 H   0  0  0  0  0  0  0  0  0  0  0  0
    3.4240    1.6927    0.0574 H   0  0  0  0  0  0  0  0  0  0  0  0
    5.3392    0.3797   -0.3630 H   0  0  0  0  0  0  0  0  0  0  0  0
    3.5144   -1.9170   -0.3513 H   0  0  0  0  0  0  0  0  0  0  0  0
    4.1849   -1.0966   -1.8027 H   0  0  0  0  0  0  0  0  0  0  0  0
    1.9178    2.2481    1.3718 H   0  0  0  0  0  0  0  0  0  0  0  0
    5.3921   -1.7067    0.9115 H   0  0  0  0  0  0  0  0  0  0  0  0
   -2.8972    2.3490   -0.4560 H   0  0  0  0  0  0  0  0  0  0  0  0
   -4.4867    1.6476   -0.7974 H   0  0  0  0  0  0  0  0  0  0  0  0
   -4.4837    0.2851    1.1349 H   0  0  0  0  0  0  0  0  0  0  0  0
   -3.8767    1.9489    1.6153 H   0  0  0  0  0  0  0  0  0  0  0  0
   -2.7017    0.0060    2.6272 H   0  0  0  0  0  0  0  0  0  0  0  0
   -1.6577    1.1942    1.8040 H   0  0  0  0  0  0  0  0  0  0  0  0
   -2.4897   -1.6527    0.9871 H   0  0  0  0  0  0  0  0  0  0  0  0
   -1.7025   -1.4329   -1.1812 H   0  0  0  0  0  0  0  0  0  0  0  0
   -2.5786    0.7524   -2.2008 H   0  0  0  0  0  0  0  0  0  0  0  0
   -0.1753   -1.9859    0.8543 H   0  0  0  0  0  0  0  0  0  0  0  0
    0.0330   -0.0632   -1.7330 H   0  0  0  0  0  0  0  0  0  0  0  0
   -3.6121   -1.5380   -1.8214 H   0  0  0  0  0  0  0  0  0  0  0  0
   -4.5748   -0.7525   -0.6259 H   0  0  0  0  0  0  0  0  0  0  0  0
   -0.3784    2.1260   -0.1620 H   0  0  0  0  0  0  0  0  0  0  0  0
    1.6985   -1.5465    0.6142 H   0  0  0  0  0  0  0  0  0  0  0  0
    0.1554   -1.6089    2.9039 H   0  0  0  0  0  0  0  0  0  0  0  0
    2.3897    0.6732   -1.3992 H   0  0  0  0  0  0  0  0  0  0  0  0
    1.8276   -0.9952   -1.8243 H   0  0  0  0  0  0  0  0  0  0  0  0
    2.7529   -0.2895    2.1574 H   0  0  0  0  0  0  0  0  0  0  0  0
    3.4240    1.6927    0.0574 H   0  0  0  0  0  0  0  0  0  0  0  0
    5.3392    0.3797   -0.3630 H   0  0  0  0  0  0  0  0  0  0  0  0
    3.5144   -1.9170   -0.3513 H   0  0  0  0  0  0  0  0  0  0  0  0
    4.1849   -1.0966   -1.8027 H   0  0  0  0  0  0  0  0  0  0  0  0
    1.9178    2.2481    1.3718 H   0  0  0  0  0  0  0  0  0  0  0  0
    5.3921   -1.7067    0.9115 H   0  0  0  0  0  0  0  0  0  0  0  0
   -2.8972    2.3490   -0.4560 H   0  0  0  0  0  0  0  0  0  0  0  0
   -4.4867    1.6476   -0.7974 H   0  0  0  0  0  0  0  0  0  0  0  0
   -4.4837    0.2851    1.1349 H   0  0  0  0  0  0  0  0  0  0  0  0
   -3.8767    1.9489    1.6153 H   0  0  0  0  0  0  0  0  0  0  0  0
   -2.7017    0.0060    2.6272 H   0  0  0  0  0  0  0  0  0  0  0  0
   -1.6577    1.1942    1.8040 H   0  0  0  0  0  0  0  0  0  0  0  0
   -2.4897   -1.6527    0.9871 H   0  0  0  0  0  0  0  0  0  0  0  0
   -1.7025   -1.4329   -1.1812 H   0  0  0  0  0  0  0  0  0  0  0  0
   -2.5786    0.7524   -2.2008 H   0  0  0  0  0  0  0  0  0  0  0  0
   -0.1753   -1.9859    0.8543 H   0  0  0  0  0  0  0  0  0  0  0  0
    0.0330   -0.0632   -1.7330 H   0  0  0  0  0  0  0  0  0  0  0  0
   -3.6121   -1.5380   -1.8214 H   0  0  0  0  0  0  0  0  0  0  0  0
   -4.5748   -0.7525   -0.6259 H   0  0  0  0  0  0  0  0  0  0  0  0
   -0.3784    2.1260   -0.1620 H   0  0  0  0  0  0  0  0  0  0  0  0
    1.6985   -1.5465    0.6142 H   0  0  0  0  0  0  0  0  0  0  0  0
    0.1554   -1.6089    2.9039 H   0  0  0  0  0  0  0  0  0  0  0  0
    2.3897    0.6732   -1.3992 H   0  0  0  0  0  0  0  0  0  0  0  0
    1.8276   -0.9952   -1.8243 H   0  0  0  0  0  0  0  0  0  0  0  0
    2.7529   -0.2895    2.1574 H   0  0  0  0  0  0  0  0  0  0  0  0
    3.4240    1.6927    0.0574 H   0  0  0  0  0  0  0  0  0  0  0  0
    5.3392    0.3797   -0.3630 H   0  0  0  0  0  0  0  0  0  0  0  0
    3.5144   -1.9170   -0.3513 H   0  0  0  0  0  0  0  0  0  0  0  0
    4.1849   -1.0966   -1.8027 H   0  0  0  0  0  0  0  0  0  0  0  0
    1.9178    2.2481    1.3718 H   0  0  0  0  0  0  0  0  0  0  0  0
    5.3921   -1.7067    0.9115 H   0  0  0  0  0  0  0  0  0  0  0  0
   -2.8972    2.3490   -0.4560 H   0  0  0  0  0  0  0  0  0  0  0  0
   -4.4867    1.6476   -0.7974 H   0  0  0  0  0  0  0  0  0  0  0  0
   -4.4837    0.2851    1.1349 H   0  0  0  0  0  0  0  0  0  0  0  0
   -3.8767    1.9489    1.6153 H   0  0  0  0  0  0  0  0  0  0  0  0
   -2.7017    0.0060    2.6272 H   0  0  0  0  0  0  0  0  0  0  0  0
   -1.6577    1.1942    1.8040 H   0  0  0  0  0  0  0  0  0  0  0  0
   -2.4897   -1.6527    0.9871 H   0  0  0  0  0  0  0  0  0  0  0  0
   -1.7025   -1.4329   -1.1812 H   0  0  0  0  0  0  0  0  0  0  0  0
   -2.5786    0.7524   -2.2008 H   0  0  0  0  0  0  0  0  0  0  0  0
   -0.1753   -1.9859    0.8543 H   0  0  0  0  0  0  0  0  0  0  0  0
    0.0330   -0.0632   -1.7330 H   0  0  0  0  0  0  0  0  0  0  0  0
   -3.6121   -1.5380   -1.8214 H   0  0  0  0  0  0  0  0  0  0  0  0
   -4.5748   -0.7525   -0.6259 H   0  0  0  0  0  0  0  0  0  0  0  0
   -0.3784    2.1260   -0.1620 H   0  0  0  0  0  0  0  0  0  0  0  0
    1.6985   -1.5465    0.6142 H   0  0  0  0  0  0  0  0  0  0  0  0
    0.1554   -1.6089    2.9039 H   0  0  0  0  0  0  0  0  0  0  0  0
    2.3897    0.6732   -1.3992 H   0  0  0  0  0  0  0  0  0  0  0  0
    1.8276   -0.9952   -1.8243 H   0  0  0  0  0  0  0  0  0  0  0  0
    2.7529   -0.2895    2.1574 H   0  0  0  0  0  0  0  0  0  0  0  0
    3.4240    1.6927    0.0574 H   0  0  0  0  0  0  0  0  0  0  0  0
    5.3392    0.3797   -0.3630 H   0  0  0  0  0  0  0  0  0  0  0  0
    3.5144   -1.9170   -0.3513 H   0  0  0  0  0  0  0  0  0  0  0  0
    4.1849   -1.0966   -1.8027 H   0  0  0  0  0  0  0  0  0  0  0  0
    1.9178    2.2481    1.3718 H   0  0  0  0  0  0  0  0  0  0  0  0
    5.3921   -1.7067    0.9115 H   0  0  0  0  0  0  0  0  0  0  0  0
  1  2  1  0
  2  3  1  0
  3  4  1  0
  4  5  1  0
  1  6  1  0
  5  6  1  0
  4  7  1  0
  7  8  1  0
  5  9  1  0
  8  9  1  0
  6 10  1  0
  9 11  1  0
  8 12  1  0
  7 13  1  0
 12 14  1  0
 12 15  1  0
 15 16  1  0
 16 17  1  0
 14 18  1  0
 17 18  1  0
 15 19  1  0
 17 20  1  0
 21 22  1  0
 22 23  1  0
 23 24  1  0
 24 25  1  0
 21 26  1  0
 25 26  1  0
 24 27  1  0
 27 28  1  0
 25 29  1  0
 28 29  1  0
 26 30  1  0
 29 31  1  0
 28 32  1  0
 27 33  1  0
 32 34  1  0
 32 35  1  0
 35 36  1  0
 36 37  1  0
 34 38  1  0
 37 38  1  0
 35 39  1  0
 37 40  1  0
 41 42  1  0
 42 43  1  0
 43 44  1  0
 44 45  1  0
 41 46  1  0
 45 46  1  0
 44 47  1  0
 47 48  1  0
 45 49  1  0
 48 49  1  0
 46 50  1  0
 49 51  1  0
 48 52  1  0
 47 53  1  0
 52 54  1  0
 52 55  1  0
 55 56  1  0
 56 57  1  0
 54 58  1  0
 57 58  1  0
 55 59  1  0
 57 60  1  0
 61 62  1  0
 62 63  1  0
 63 64  1  0
 64 65  1  0
 61 66  1  0
 65 66  1  0
 64 67  1  0
 67 68  1  0
 65 69  1  0
 68 69  1  0
 66 70  1  0
 69 71  1  0
 68 72  1  0
 67 73  1  0
 72 74  1  0
 72 75  1  0
 75 76  1  0
 76 77  1  0
 74 78  1  0
 77 78  1  0
 75 79  1  0
 77 80  1  0
  1 81  1  0
  1 82  1  0
  2 83  1  0
  2 84  1  0
  3 85  1  0
  3 86  1  0
  4 87  1  0
  5 88  1  0
  6 89  1  0
  7 90  1  0
  9 91  1  0
 10 92  1  0
 10 93  1  0
 11 94  1  0
 12 95  1  1
 13 96  1  0
 14 97  1  0
 14 98  1  0
 15 99  1  0
 16100  1  0
 17101  1  0
 18102  1  0
 18103  1  0
 19104  1  0
 20105  1  0
 21106  1  0
 21107  1  0
 22108  1  0
 22109  1  0
 23110  1  0
 23111  1  0
 24112  1  0
 25113  1  0
 26114  1  0
 27115  1  0
 29116  1  0
 30117  1  0
 30118  1  0
 31119  1  0
 32120  1  1
 33121  1  0
 34122  1  0
 34123  1  0
 35124  1  0
 36125  1  0
 37126  1  0
 38127  1  0
 38128  1  0
 39129  1  0
 40130  1  0
 41131  1  0
 41132  1  0
 42133  1  0
 42134  1  0
 43135  1  0
 43136  1  0
 44137  1  0
 45138  1  0
 46139  1  0
 47140  1  0
 49141  1  0
 50142  1  0
 50143  1  0
 51144  1  0
 52145  1  1
 53146  1  0
 54147  1  0
 54148  1  0
 55149  1  0
 56150  1  0
 57151  1  0
 58152  1  0
 58153  1  0
 59154  1  0
 60155  1  0
 61156  1  0
 61157  1  0
 62158  1  0
 62159  1  0
 63160  1  0
 63161  1  0
 64162  1  0
 65163  1  0
 66164  1  0
 67165  1  0
 69166  1  0
 70167  1  0
 70168  1  0
 71169  1  0
 72170  1  1
 73171  1  0
 74172  1  0
 74173  1  0
 75174  1  0
 76175  1  0
 77176  1  0
 78177  1  0
 78178  1  0
 79179  1  0
 80180  1  0
M  END
>  <PDBID>  (1) 
4TZU

>  <PDB ID>  (1) 
4TZU

>  <Generic Name>  (1) 
Pomalidomide

>  <Brand Name>  (1) 
Pomalyst#Imnovid

>  <DrugBank ID>  (1) 
DB08910

>  <ATC Codes>  (1) 
L04AX06

>  <Ligand ID>  (1) 
Y70

>  <Target Name>  (1) 
Protein cereblon

>  <UniProt ID>  (1) 
Q96SW2

>  <PDB ID.1>  (1) 
4TZU

>  <Seq. Identity>  (1) 
97%

$$$$
