PDB_DB09079_00
     RDKit          3D

 99103  0  0  0  0  0  0  0  0999 V2000
   -2.8910    0.4524    0.9642 C   0  0  0  0  0  0  0  0  0  0  0  0
   -4.1804    0.7182    0.3653 C   0  0  0  0  0  0  0  0  0  0  0  0
   -1.9284   -0.5556    0.5328 C   0  0  0  0  0  0  0  0  0  0  0  0
   -2.3214    1.8679    1.0554 C   0  0  0  0  0  0  0  0  0  0  0  0
   -4.6232    1.8678    1.3204 C   0  0  0  0  0  0  0  0  0  0  0  0
   -4.2516    1.3479   -0.9776 C   0  0  0  0  0  0  0  0  0  0  0  0
   -2.4539   -1.9696    0.5734 C   0  0  0  0  0  0  0  0  0  0  0  0
   -5.9311    2.4344    1.0361 C   0  0  0  0  0  0  0  0  0  0  0  0
   -5.7658    1.4550   -1.2726 C   0  0  0  0  0  0  0  0  0  0  0  0
    0.1937   -0.4507   -0.7068 C   0  0  0  0  0  0  0  0  0  0  0  0
   -6.4102    2.4583   -0.3871 C   0  0  1  0  0  0  0  0  0  0  0  0
   -3.1415   -3.7597    2.1256 C   0  0  0  0  0  0  0  0  0  0  0  0
   -4.7379   -3.0351    0.3368 C   0  0  0  0  0  0  0  0  0  0  0  0
    1.0953    0.3438    0.1540 C   0  0  0  0  0  0  0  0  0  0  0  0
   -7.9087    2.2589   -0.3558 C   0  0  2  0  0  0  0  0  0  0  0  0
    2.3879   -0.2590    0.5744 C   0  0  0  0  0  0  0  0  0  0  0  0
    2.0721   -1.8339   -1.3310 C   0  0  0  0  0  0  0  0  0  0  0  0
   -8.5097    2.2585   -1.5822 O   0  0  0  0  0  0  0  0  0  0  0  0
   -8.4113    3.2753    0.4801 O   0  0  0  0  0  0  0  0  0  0  0  0
    2.9896   -1.3233   -0.2331 C   0  0  0  0  0  0  0  0  0  0  0  0
    5.3180   -1.1417    0.4223 C   0  0  1  0  0  0  0  0  0  0  0  0
    4.6165   -0.4583   -1.7929 C   0  0  0  0  0  0  0  0  0  0  0  0
    6.0132    0.1892    0.4655 C   0  0  0  0  0  0  0  0  0  0  0  0
    8.0969   -0.5338   -0.4880 C   0  0  0  0  0  0  0  0  0  0  0  0
    7.4116    1.6957   -0.7207 C   0  0  0  0  0  0  0  0  0  0  0  0
    9.0490   -0.1054    0.6085 C   0  0  0  0  0  0  0  0  0  0  0  0
    8.2953    2.1324    0.4053 C   0  0  0  0  0  0  0  0  0  0  0  0
   10.4774    1.5729   -0.3781 C   0  0  0  0  0  0  0  0  0  0  0  0
    4.5050   -1.1175    1.6245 O   0  0  0  0  0  0  0  0  0  0  0  0
    6.9697    0.3409   -0.6323 N   0  0  0  0  0  0  0  0  0  0  0  0
    9.4184    1.2697    0.5552 N   0  0  0  0  0  0  0  0  0  0  0  0
    4.3375   -1.2008   -0.6229 N   0  0  0  0  0  0  0  0  0  0  0  0
    0.6783   -1.8956   -0.6746 C   0  0  0  0  0  0  0  0  0  0  0  0
   -1.1888   -0.2837   -0.6456 N   0  0  0  0  0  0  0  0  0  0  0  0
   -3.5913   -2.2973   -0.3238 C   0  0  0  0  0  0  0  0  0  0  0  0
   -4.2689   -4.1545    1.2345 C   0  0  0  0  0  0  0  0  0  0  0  0
   -2.7636   -2.3048    2.0321 C   0  0  0  0  0  0  0  0  0  0  0  0
   -9.2598    1.0971   -1.7313 C   0  0  0  0  0  0  0  0  0  0  0  0
   -3.4958    2.7211    1.2064 N   0  0  0  0  0  0  0  0  0  0  0  0
   -1.4830    1.9919    2.1622 O   0  0  0  0  0  0  0  0  0  0  0  0
   -3.1018    0.2220    2.0732 H   0  0  0  0  0  0  0  0  0  0  0  0
   -5.0006   -0.0074    0.4798 H   0  0  0  0  0  0  0  0  0  0  0  0
   -1.1270   -0.5519    1.3525 H   0  0  0  0  0  0  0  0  0  0  0  0
   -1.7564    2.0568    0.1337 H   0  0  0  0  0  0  0  0  0  0  0  0
   -4.5986    1.4201    2.3493 H   0  0  0  0  0  0  0  0  0  0  0  0
   -3.8403    0.7217   -1.7965 H   0  0  0  0  0  0  0  0  0  0  0  0
   -3.7588    2.3282   -1.0593 H   0  0  0  0  0  0  0  0  0  0  0  0
   -1.6107   -2.6428    0.3254 H   0  0  0  0  0  0  0  0  0  0  0  0
   -5.9332    3.5091    1.3917 H   0  0  0  0  0  0  0  0  0  0  0  0
   -6.6974    1.9463    1.7136 H   0  0  0  0  0  0  0  0  0  0  0  0
   -6.1721    0.4405   -1.0662 H   0  0  0  0  0  0  0  0  0  0  0  0
   -5.9146    1.6775   -2.3252 H   0  0  0  0  0  0  0  0  0  0  0  0
    0.4735   -0.1358   -1.7800 H   0  0  0  0  0  0  0  0  0  0  0  0
   -6.2627    3.4715   -0.8636 H   0  0  0  0  0  0  0  0  0  0  0  0
   -2.2741   -4.4371    1.8879 H   0  0  0  0  0  0  0  0  0  0  0  0
   -3.4048   -3.9740    3.2008 H   0  0  0  0  0  0  0  0  0  0  0  0
   -5.3804   -2.3165    0.8365 H   0  0  0  0  0  0  0  0  0  0  0  0
   -5.3495   -3.4923   -0.4786 H   0  0  0  0  0  0  0  0  0  0  0  0
    1.3251    1.3522   -0.3216 H   0  0  0  0  0  0  0  0  0  0  0  0
    0.5970    0.6805    1.1204 H   0  0  0  0  0  0  0  0  0  0  0  0
   -8.1673    1.3128    0.1784 H   0  0  0  0  0  0  0  0  0  0  0  0
    2.2638   -0.5629    1.6699 H   0  0  0  0  0  0  0  0  0  0  0  0
    3.1199    0.5987    0.6703 H   0  0  0  0  0  0  0  0  0  0  0  0
    2.3747   -2.8448   -1.6851 H   0  0  0  0  0  0  0  0  0  0  0  0
    1.9569   -1.1838   -2.1884 H   0  0  0  0  0  0  0  0  0  0  0  0
   -7.8135    4.0878    0.4295 H   0  0  0  0  0  0  0  0  0  0  0  0
    3.0022   -2.2465    0.4782 H   0  0  0  0  0  0  0  0  0  0  0  0
    5.9489   -2.0090    0.5545 H   0  0  0  0  0  0  0  0  0  0  0  0
    4.8639    0.5957   -1.5007 H   0  0  0  0  0  0  0  0  0  0  0  0
    3.7038   -0.3567   -2.4143 H   0  0  0  0  0  0  0  0  0  0  0  0
    5.4913   -0.8192   -2.3898 H   0  0  0  0  0  0  0  0  0  0  0  0
    5.3392    1.0501    0.4386 H   0  0  0  0  0  0  0  0  0  0  0  0
    6.6316    0.3077    1.3919 H   0  0  0  0  0  0  0  0  0  0  0  0
    7.7515   -1.5449   -0.2280 H   0  0  0  0  0  0  0  0  0  0  0  0
    8.6341   -0.5702   -1.4526 H   0  0  0  0  0  0  0  0  0  0  0  0
    6.5513    2.4000   -0.8517 H   0  0  0  0  0  0  0  0  0  0  0  0
    8.0038    1.7804   -1.6640 H   0  0  0  0  0  0  0  0  0  0  0  0
    9.9635   -0.7272    0.4866 H   0  0  0  0  0  0  0  0  0  0  0  0
    8.6193   -0.3333    1.5955 H   0  0  0  0  0  0  0  0  0  0  0  0
    8.6151    3.1796    0.2097 H   0  0  0  0  0  0  0  0  0  0  0  0
    7.7587    2.1567    1.3882 H   0  0  0  0  0  0  0  0  0  0  0  0
   10.3310    2.6128   -0.7305 H   0  0  0  0  0  0  0  0  0  0  0  0
   11.4512    1.4672    0.1520 H   0  0  0  0  0  0  0  0  0  0  0  0
   10.5114    0.9036   -1.2456 H   0  0  0  0  0  0  0  0  0  0  0  0
    4.4745   -1.9883    2.0424 H   0  0  0  0  0  0  0  0  0  0  0  0
    0.0852   -2.5660   -1.3248 H   0  0  0  0  0  0  0  0  0  0  0  0
    0.8563   -2.2741    0.3470 H   0  0  0  0  0  0  0  0  0  0  0  0
   -1.6441   -0.4967   -1.5443 H   0  0  0  0  0  0  0  0  0  0  0  0
   -3.2494   -3.0697   -1.1231 H   0  0  0  0  0  0  0  0  0  0  0  0
   -3.9974   -1.5110   -0.9461 H   0  0  0  0  0  0  0  0  0  0  0  0
   -5.1579   -4.4280    1.8775 H   0  0  0  0  0  0  0  0  0  0  0  0
   -4.0629   -5.0189    0.5949 H   0  0  0  0  0  0  0  0  0  0  0  0
   -3.6211   -1.7215    2.4188 H   0  0  0  0  0  0  0  0  0  0  0  0
   -1.8252   -2.1537    2.5988 H   0  0  0  0  0  0  0  0  0  0  0  0
  -10.0727    1.0007   -0.9561 H   0  0  0  0  0  0  0  0  0  0  0  0
   -9.6563    1.0502   -2.7490 H   0  0  0  0  0  0  0  0  0  0  0  0
   -8.6497    0.1608   -1.5819 H   0  0  0  0  0  0  0  0  0  0  0  0
   -3.5369    3.5093    0.5719 H   0  0  0  0  0  0  0  0  0  0  0  0
   -1.4693    2.9149    2.5105 H   0  0  0  0  0  0  0  0  0  0  0  0
  1  2  1  0
  1  3  1  0
  1  4  1  0
  2  5  1  0
  2  6  1  0
  3  7  1  0
  5  8  1  0
  6  9  1  0
  8 11  1  0
  9 11  1  0
 10 14  1  0
 11 15  1  0
 14 16  1  0
 15 18  1  0
 15 19  1  0
 16 20  1  0
 17 20  1  0
 21 23  1  0
 24 26  1  0
 25 27  1  0
 21 29  1  0
 23 30  1  0
 24 30  1  0
 25 30  1  0
 26 31  1  0
 27 31  1  0
 28 31  1  0
 20 32  1  0
 21 32  1  0
 22 32  1  0
 10 33  1  0
 17 33  1  0
  3 34  1  0
 10 34  1  0
  7 35  1  0
 13 35  1  0
 12 36  1  0
 13 36  1  0
  7 37  1  0
 12 37  1  0
 18 38  1  0
  4 39  1  0
  5 39  1  0
  4 40  1  0
  1 41  1  0
  2 42  1  0
  3 43  1  0
  4 44  1  0
  5 45  1  0
  6 46  1  0
  6 47  1  0
  7 48  1  0
  8 49  1  0
  8 50  1  0
  9 51  1  0
  9 52  1  0
 10 53  1  0
 11 54  1  6
 12 55  1  0
 12 56  1  0
 13 57  1  0
 13 58  1  0
 14 59  1  0
 14 60  1  0
 15 61  1  1
 16 62  1  0
 16 63  1  0
 17 64  1  0
 17 65  1  0
 19 66  1  0
 20 67  1  0
 21 68  1  1
 22 69  1  0
 22 70  1  0
 22 71  1  0
 23 72  1  0
 23 73  1  0
 24 74  1  0
 24 75  1  0
 25 76  1  0
 25 77  1  0
 26 78  1  0
 26 79  1  0
 27 80  1  0
 27 81  1  0
 28 82  1  0
 28 83  1  0
 28 84  1  0
 29 85  1  0
 33 86  1  0
 33 87  1  0
 34 88  1  0
 35 89  1  0
 35 90  1  0
 36 91  1  0
 36 92  1  0
 37 93  1  0
 37 94  1  0
 38 95  1  0
 38 96  1  0
 38 97  1  0
 39 98  1  0
 40 99  1  0
M  END
>  <PDBID>  (1) 
3C7Q

>  <PDB ID>  (1) 
3C7Q

>  <Generic Name>  (1) 
Nintedanib

>  <Brand Name>  (1) 
Ofev#Vargatef

>  <DrugBank ID>  (1) 
DB09079

>  <ATC Codes>  (1) 
L01XE31

>  <Ligand ID>  (1) 
XIN

>  <Target Name>  (1) 
Vascular endothelial growth factor receptor 3

>  <UniProt ID>  (1) 
P35916

>  <PDB ID.1>  (1) 
3C7Q

>  <Seq. Identity>  (1) 
67%

$$$$
