PDB_DB00360_05
     RDKit          3D

 38 39  0  0  0  0  0  0  0  0999 V2000
   -2.6350    0.8657    0.2988 N   0  0  0  0  0  0  0  0  0  0  0  0
   -3.6752   -0.0617   -0.1722 C   0  0  2  0  0  0  0  0  0  0  0  0
   -4.8910    0.3102    0.4761 N   0  0  0  0  0  0  0  0  0  0  0  0
   -3.3581   -1.4278    0.1203 N   0  0  0  0  0  0  0  0  0  0  0  0
   -2.0804   -1.8434   -0.4248 C   0  0  1  0  0  0  0  0  0  0  0  0
   -2.1641   -1.8076   -1.7986 O   0  0  0  0  0  0  0  0  0  0  0  0
   -1.0389   -0.8915    0.1140 C   0  0  2  0  0  0  0  0  0  0  0  0
   -1.4264    0.4963   -0.4151 C   0  0  2  0  0  0  0  0  0  0  0  0
    0.2789   -1.1623   -0.3617 N   0  0  0  0  0  0  0  0  0  0  0  0
   -0.3910    1.4521   -0.1814 N   0  0  0  0  0  0  0  0  0  0  0  0
    1.1983   -0.3272    0.4445 C   0  0  2  0  0  0  0  0  0  0  0  0
    0.4968    0.9476    0.8503 C   0  0  0  0  0  0  0  0  0  0  0  0
    2.4207    0.0177   -0.3423 C   0  0  1  0  0  0  0  0  0  0  0  0
    2.1618    0.7489   -1.5001 O   0  0  0  0  0  0  0  0  0  0  0  0
    3.4334    0.7585    0.4886 C   0  0  2  0  0  0  0  0  0  0  0  0
    4.7057    0.8504   -0.3751 C   0  0  0  0  0  0  0  0  0  0  0  0
    3.7149    0.0798    1.6724 O   0  0  0  0  0  0  0  0  0  0  0  0
   -2.4598    0.5821    1.3094 H   0  0  0  0  0  0  0  0  0  0  0  0
   -3.8069    0.0413   -1.2658 H   0  0  0  0  0  0  0  0  0  0  0  0
   -5.7569   -0.0487   -0.0231 H   0  0  0  0  0  0  0  0  0  0  0  0
   -4.9991    1.3633    0.4447 H   0  0  0  0  0  0  0  0  0  0  0  0
   -3.4585   -1.6857    1.1233 H   0  0  0  0  0  0  0  0  0  0  0  0
   -1.9167   -2.8897   -0.0866 H   0  0  0  0  0  0  0  0  0  0  0  0
   -1.6234   -2.5344   -2.2132 H   0  0  0  0  0  0  0  0  0  0  0  0
   -1.1064   -0.8931    1.2021 H   0  0  0  0  0  0  0  0  0  0  0  0
   -1.7117    0.4045   -1.4869 H   0  0  0  0  0  0  0  0  0  0  0  0
    0.3680   -0.8494   -1.3634 H   0  0  0  0  0  0  0  0  0  0  0  0
    0.0717    1.6872   -1.0628 H   0  0  0  0  0  0  0  0  0  0  0  0
    1.4567   -0.9468    1.3161 H   0  0  0  0  0  0  0  0  0  0  0  0
    1.1950    1.7589    1.0942 H   0  0  0  0  0  0  0  0  0  0  0  0
   -0.1268    0.8017    1.7615 H   0  0  0  0  0  0  0  0  0  0  0  0
    2.9329   -0.9221   -0.7098 H   0  0  0  0  0  0  0  0  0  0  0  0
    2.4542    1.6896   -1.4276 H   0  0  0  0  0  0  0  0  0  0  0  0
    3.1267    1.7774    0.7154 H   0  0  0  0  0  0  0  0  0  0  0  0
    4.5426    1.7028   -1.0555 H   0  0  0  0  0  0  0  0  0  0  0  0
    4.7893   -0.1258   -0.9013 H   0  0  0  0  0  0  0  0  0  0  0  0
    5.5560    0.9648    0.3071 H   0  0  0  0  0  0  0  0  0  0  0  0
    3.7227   -0.8834    1.4525 H   0  0  0  0  0  0  0  0  0  0  0  0
  1  2  1  0
  2  3  1  0
  2  4  1  0
  4  5  1  0
  5  6  1  0
  5  7  1  0
  1  8  1  0
  7  8  1  0
  7  9  1  0
  8 10  1  0
  9 11  1  0
 10 12  1  0
 11 12  1  0
 11 13  1  0
 13 14  1  0
 13 15  1  0
 15 16  1  0
 15 17  1  0
  1 18  1  0
  2 19  1  6
  3 20  1  0
  3 21  1  0
  4 22  1  0
  5 23  1  6
  6 24  1  0
  7 25  1  1
  8 26  1  6
  9 27  1  0
 10 28  1  0
 11 29  1  1
 12 30  1  0
 12 31  1  0
 13 32  1  6
 14 33  1  0
 15 34  1  1
 16 35  1  0
 16 36  1  0
 16 37  1  0
 17 38  1  0
M  END
>  <PDBID>  (1) 
1J8U

>  <PDB ID>  (1) 
1J8U

>  <Generic Name>  (1) 
Sapropterin

>  <Brand Name>  (1) 
Kuvan#BH4#Biopten

>  <DrugBank ID>  (1) 
DB00360

>  <ATC Codes>  (1) 
A16AX07

>  <Ligand ID>  (1) 
BH4,BHS,H4B,THB

>  <Target Name>  (1) 
Tryptophan 5-hydroxylase 1

>  <UniProt ID>  (1) 
P17752

>  <PDB ID.1>  (1) 
1J8U

>  <Seq. Identity>  (1) 
65%

$$$$
