PDB_DB11363_09
     RDKit          3D

 90 95  0  0  0  0  0  0  0  0999 V2000
    5.6529   -0.1154   -1.6428 C   0  0  0  0  0  0  0  0  0  0  0  0
    7.1840   -0.7172    0.2758 C   0  0  0  0  0  0  0  0  0  0  0  0
    6.7210   -1.0405   -1.1027 C   0  0  0  0  0  0  0  0  0  0  0  0
    3.4614    0.7827   -0.7050 C   0  0  0  0  0  0  0  0  0  0  0  0
    3.0360    0.8821    0.7460 C   0  0  0  0  0  0  0  0  0  0  0  0
   -1.4988    0.0158   -0.8079 C   0  0  0  0  0  0  0  0  0  0  0  0
    0.5455   -1.3944   -1.0943 C   0  0  0  0  0  0  0  0  0  0  0  0
    1.1516   -0.0270   -1.2988 C   0  0  0  0  0  0  0  0  0  0  0  0
    1.5812    1.0237    0.9697 C   0  0  0  0  0  0  0  0  0  0  0  0
    1.3734    2.4388    1.5534 C   0  0  0  0  0  0  0  0  0  0  0  0
    1.1502    0.0874    2.0664 C   0  0  0  0  0  0  0  0  0  0  0  0
   -1.8789   -2.0225   -2.9386 C   0  0  0  0  0  0  0  0  0  0  0  0
   -5.3906    0.7419    0.6680 C   0  0  0  0  0  0  0  0  0  0  0  0
   -4.6623   -0.4813    1.1152 C   0  0  0  0  0  0  0  0  0  0  0  0
    9.3707    0.1535   -0.4070 N   0  0  0  0  0  0  0  0  0  0  0  0
    8.1678    0.4308    0.3541 C   0  0  0  0  0  0  0  0  0  0  0  0
    6.0877   -0.5872    1.3035 C   0  0  0  0  0  0  0  0  0  0  0  0
    4.7663   -0.6807    0.5579 C   0  0  0  0  0  0  0  0  0  0  0  0
    4.8743    0.4056   -0.5209 C   0  0  0  0  0  0  0  0  0  0  0  0
    3.6342   -0.3059    1.3634 N   0  0  0  0  0  0  0  0  0  0  0  0
    0.7462    0.9780   -0.2661 C   0  0  0  0  0  0  0  0  0  0  0  0
    2.6216   -0.1160   -1.5329 C   0  0  0  0  0  0  0  0  0  0  0  0
    3.0019   -1.4755   -1.4203 O   0  0  0  0  0  0  0  0  0  0  0  0
   -0.6936    0.9022    0.1025 C   0  0  0  0  0  0  0  0  0  0  0  0
   -0.8975   -1.3714   -0.7229 C   0  0  0  0  0  0  0  0  0  0  0  0
   -1.7433   -2.3545   -1.4857 C   0  0  0  0  0  0  0  0  0  0  0  0
   -2.8839    0.0266   -0.4681 N   0  0  0  0  0  0  0  0  0  0  0  0
   -3.3954    1.3929   -0.6638 C   0  0  0  0  0  0  0  0  0  0  0  0
   -4.9124    1.2226   -0.6972 C   0  0  0  0  0  0  0  0  0  0  0  0
   -3.1663   -0.3240    0.9055 C   0  0  0  0  0  0  0  0  0  0  0  0
   -6.8083    0.6302    0.6424 N   0  0  0  0  0  0  0  0  0  0  0  0
   -7.3847    0.4110    1.9569 C   0  0  0  0  0  0  0  0  0  0  0  0
   -8.2104   -0.8244    2.0621 C   0  0  0  0  0  0  0  0  0  0  0  0
   -9.1675   -0.9498    1.0712 O   0  0  0  0  0  0  0  0  0  0  0  0
   -8.8474   -0.3265   -0.1077 C   0  0  0  0  0  0  0  0  0  0  0  0
   -7.3201   -0.3785   -0.2662 C   0  0  0  0  0  0  0  0  0  0  0  0
    6.2023    0.7378   -2.1398 H   0  0  0  0  0  0  0  0  0  0  0  0
    5.0774   -0.6020   -2.4546 H   0  0  0  0  0  0  0  0  0  0  0  0
    7.7849   -1.6216    0.6052 H   0  0  0  0  0  0  0  0  0  0  0  0
    7.6080   -0.9829   -1.7665 H   0  0  0  0  0  0  0  0  0  0  0  0
    6.3957   -2.1011   -1.1131 H   0  0  0  0  0  0  0  0  0  0  0  0
    3.4415    1.8100   -1.1741 H   0  0  0  0  0  0  0  0  0  0  0  0
    3.6498    1.7378    1.1626 H   0  0  0  0  0  0  0  0  0  0  0  0
   -1.3686    0.3947   -1.8539 H   0  0  0  0  0  0  0  0  0  0  0  0
    0.6500   -1.9349   -2.0661 H   0  0  0  0  0  0  0  0  0  0  0  0
    1.1652   -2.0077   -0.3753 H   0  0  0  0  0  0  0  0  0  0  0  0
    0.6846    0.3364   -2.2676 H   0  0  0  0  0  0  0  0  0  0  0  0
    1.3834    3.1508    0.6803 H   0  0  0  0  0  0  0  0  0  0  0  0
    0.4241    2.5194    2.0823 H   0  0  0  0  0  0  0  0  0  0  0  0
    2.2607    2.7319    2.1516 H   0  0  0  0  0  0  0  0  0  0  0  0
    0.8072   -0.8888    1.7495 H   0  0  0  0  0  0  0  0  0  0  0  0
    2.0306   -0.0976    2.7399 H   0  0  0  0  0  0  0  0  0  0  0  0
    0.3826    0.5258    2.7472 H   0  0  0  0  0  0  0  0  0  0  0  0
   -1.0089   -2.3795   -3.5503 H   0  0  0  0  0  0  0  0  0  0  0  0
   -2.1550   -0.9794   -3.1399 H   0  0  0  0  0  0  0  0  0  0  0  0
   -2.7463   -2.6363   -3.3243 H   0  0  0  0  0  0  0  0  0  0  0  0
   -5.1242    1.5689    1.3894 H   0  0  0  0  0  0  0  0  0  0  0  0
   -4.9598   -1.3831    0.5347 H   0  0  0  0  0  0  0  0  0  0  0  0
   -4.8068   -0.6039    2.2066 H   0  0  0  0  0  0  0  0  0  0  0  0
   10.1992    0.5280    0.1085 H   0  0  0  0  0  0  0  0  0  0  0  0
    9.4754   -0.8304   -0.6981 H   0  0  0  0  0  0  0  0  0  0  0  0
    7.7794    1.3847   -0.0185 H   0  0  0  0  0  0  0  0  0  0  0  0
    8.4814    0.4913    1.4292 H   0  0  0  0  0  0  0  0  0  0  0  0
    6.0723   -1.4287    2.0416 H   0  0  0  0  0  0  0  0  0  0  0  0
    6.1685    0.3422    1.9043 H   0  0  0  0  0  0  0  0  0  0  0  0
    4.7131   -1.6868    0.1465 H   0  0  0  0  0  0  0  0  0  0  0  0
    5.3938    1.2975   -0.0615 H   0  0  0  0  0  0  0  0  0  0  0  0
    4.0251   -0.0656    2.3214 H   0  0  0  0  0  0  0  0  0  0  0  0
    0.9029    1.9855   -0.7666 H   0  0  0  0  0  0  0  0  0  0  0  0
    2.8868    0.1228   -2.6091 H   0  0  0  0  0  0  0  0  0  0  0  0
    2.8310   -1.9461   -2.2692 H   0  0  0  0  0  0  0  0  0  0  0  0
   -0.8587    0.5636    1.1350 H   0  0  0  0  0  0  0  0  0  0  0  0
   -1.1788    1.9186    0.0480 H   0  0  0  0  0  0  0  0  0  0  0  0
   -0.9542   -1.6813    0.3420 H   0  0  0  0  0  0  0  0  0  0  0  0
   -1.3741   -3.3796   -1.3869 H   0  0  0  0  0  0  0  0  0  0  0  0
   -2.7576   -2.3258   -1.0319 H   0  0  0  0  0  0  0  0  0  0  0  0
   -3.1838    1.9893    0.2376 H   0  0  0  0  0  0  0  0  0  0  0  0
   -3.0916    1.8320   -1.6087 H   0  0  0  0  0  0  0  0  0  0  0  0
   -5.1157    0.4209   -1.4147 H   0  0  0  0  0  0  0  0  0  0  0  0
   -5.4477    2.1373   -0.9592 H   0  0  0  0  0  0  0  0  0  0  0  0
   -2.8617    0.5187    1.5922 H   0  0  0  0  0  0  0  0  0  0  0  0
   -2.7131   -1.2741    1.2041 H   0  0  0  0  0  0  0  0  0  0  0  0
   -7.9794    1.2988    2.3016 H   0  0  0  0  0  0  0  0  0  0  0  0
   -6.5424    0.3369    2.6726 H   0  0  0  0  0  0  0  0  0  0  0  0
   -7.6074   -1.7541    2.1459 H   0  0  0  0  0  0  0  0  0  0  0  0
   -8.7763   -0.7477    3.0368 H   0  0  0  0  0  0  0  0  0  0  0  0
   -9.1324    0.7353   -0.0448 H   0  0  0  0  0  0  0  0  0  0  0  0
   -9.3352   -0.8691   -0.9448 H   0  0  0  0  0  0  0  0  0  0  0  0
   -7.0415   -0.1416   -1.2968 H   0  0  0  0  0  0  0  0  0  0  0  0
   -7.0215   -1.4124    0.0545 H   0  0  0  0  0  0  0  0  0  0  0  0
  1  3  1  0
  2  3  1  0
  4  5  1  0
  7  8  1  0
  5  9  1  0
  9 10  1  0
  9 11  1  0
 13 14  1  0
  2 16  1  0
 15 16  1  0
  2 17  1  0
 17 18  1  0
  1 19  1  0
  4 19  1  0
 18 19  1  0
  5 20  1  0
 18 20  1  0
  8 21  1  0
  9 21  1  0
  4 22  1  0
  8 22  1  0
 22 23  1  0
  6 24  1  0
 21 24  1  0
  6 25  1  0
  7 25  1  0
 12 26  1  0
 25 26  1  0
  6 27  1  0
 27 28  1  0
 13 29  1  0
 28 29  1  0
 14 30  1  0
 27 30  1  0
 13 31  1  0
 31 32  1  0
 32 33  1  0
 33 34  1  0
 34 35  1  0
 31 36  1  0
 35 36  1  0
  1 37  1  0
  1 38  1  0
  2 39  1  0
  3 40  1  0
  3 41  1  0
  4 42  1  0
  5 43  1  0
  6 44  1  0
  7 45  1  0
  7 46  1  0
  8 47  1  0
 10 48  1  0
 10 49  1  0
 10 50  1  0
 11 51  1  0
 11 52  1  0
 11 53  1  0
 12 54  1  0
 12 55  1  0
 12 56  1  0
 13 57  1  0
 14 58  1  0
 14 59  1  0
 15 60  1  0
 15 61  1  0
 16 62  1  0
 16 63  1  0
 17 64  1  0
 17 65  1  0
 18 66  1  0
 19 67  1  0
 20 68  1  0
 21 69  1  0
 22 70  1  0
 23 71  1  0
 24 72  1  0
 24 73  1  0
 25 74  1  0
 26 75  1  0
 26 76  1  0
 28 77  1  0
 28 78  1  0
 29 79  1  0
 29 80  1  0
 30 81  1  0
 30 82  1  0
 32 83  1  0
 32 84  1  0
 33 85  1  0
 33 86  1  0
 35 87  1  0
 35 88  1  0
 36 89  1  0
 36 90  1  0
M  END
>  <PDBID>  (1) 
3AOX

>  <PDB ID>  (1) 
3AOX

>  <Generic Name>  (1) 
Alectinib

>  <Brand Name>  (1) 
Alecensa#Alecensaro

>  <DrugBank ID>  (1) 
DB11363

>  <ATC Codes>  (1) 
nan

>  <Ligand ID>  (1) 
EMH

>  <Target Name>  (1) 
ALK tyrosine kinase receptor

>  <UniProt ID>  (1) 
Q9UM73

>  <PDB ID.1>  (1) 
3AOX

>  <Seq. Identity>  (1) 
100%

$$$$
