PDB_DB01606_05
     RDKit          3D

 42 44  0  0  0  0  0  0  0  0999 V2000
   -0.8142    0.8424   -1.2276 S   0  0  0  0  0  0  0  0  0  0  0  0
   -0.1224   -0.3412   -0.0450 C   0  0  1  0  0  0  0  0  0  0  0  0
   -1.2986   -0.4866    0.8691 C   0  0  2  0  0  0  0  0  0  0  0  0
   -2.4769    0.2241   -1.0451 C   0  0  2  0  0  0  0  0  0  0  0  0
   -3.5019    1.2748   -0.7474 C   0  0  0  0  0  0  0  0  0  0  0  0
   -3.0966    1.0785    0.6781 C   0  0  2  0  0  0  0  0  0  0  0  0
   -1.3406   -1.8974    1.4824 C   0  0  0  0  0  0  0  0  0  0  0  0
   -2.5142   -0.2098    0.2770 N   0  0  0  0  0  0  0  0  0  0  0  0
    0.1504   -1.5695   -0.8543 C   0  0  0  0  0  0  0  0  0  0  0  0
    1.0345    0.2627    0.6516 C   0  0  0  0  0  0  0  0  0  0  0  0
    4.3714   -0.1070   -0.2250 C   0  0  0  0  0  0  0  0  0  0  0  0
    2.9397   -0.3670   -0.7119 C   0  0  0  0  0  0  0  0  0  0  0  0
    2.1390    0.6590   -0.1337 N   0  0  0  0  0  0  0  0  0  0  0  0
    2.9876    1.6037    0.4108 N   0  0  0  0  0  0  0  0  0  0  0  0
    4.1731    0.9373    0.7433 N   0  0  0  0  0  0  0  0  0  0  0  0
   -0.6054    2.5224   -0.6767 O   0  0  0  0  0  0  0  0  0  0  0  0
   -0.1660    0.7362   -2.8675 O   0  0  0  0  0  0  0  0  0  0  0  0
   -4.1078    0.9842    1.5979 O   0  0  0  0  0  0  0  0  0  0  0  0
   -0.1276   -2.1990    2.0669 O   0  0  0  0  0  0  0  0  0  0  0  0
   -1.7949   -2.8397    0.5976 O   0  0  0  0  0  0  0  0  0  0  0  0
   -1.1320    0.1858    1.7396 H   0  0  0  0  0  0  0  0  0  0  0  0
   -2.7653   -0.4561   -1.8632 H   0  0  0  0  0  0  0  0  0  0  0  0
   -4.5159    0.8531   -0.9501 H   0  0  0  0  0  0  0  0  0  0  0  0
   -3.3660    2.2738   -1.1690 H   0  0  0  0  0  0  0  0  0  0  0  0
   -2.3028    1.8251    0.9428 H   0  0  0  0  0  0  0  0  0  0  0  0
   -2.0955   -1.8284    2.3059 H   0  0  0  0  0  0  0  0  0  0  0  0
   -0.8337   -1.8335   -1.3417 H   0  0  0  0  0  0  0  0  0  0  0  0
    0.5701   -2.4065   -0.2979 H   0  0  0  0  0  0  0  0  0  0  0  0
    0.7952   -1.2832   -1.7128 H   0  0  0  0  0  0  0  0  0  0  0  0
    0.6457    1.1862    1.1828 H   0  0  0  0  0  0  0  0  0  0  0  0
    1.3036   -0.4200    1.4941 H   0  0  0  0  0  0  0  0  0  0  0  0
    4.8126   -1.0290    0.2405 H   0  0  0  0  0  0  0  0  0  0  0  0
    5.0475    0.1455   -1.0545 H   0  0  0  0  0  0  0  0  0  0  0  0
    2.7120   -1.3890   -0.3469 H   0  0  0  0  0  0  0  0  0  0  0  0
    2.9558   -0.2507   -1.8011 H   0  0  0  0  0  0  0  0  0  0  0  0
    3.2547    2.2848   -0.3653 H   0  0  0  0  0  0  0  0  0  0  0  0
    4.9855    1.6131    0.6104 H   0  0  0  0  0  0  0  0  0  0  0  0
   -1.0886    3.0780   -1.3116 H   0  0  0  0  0  0  0  0  0  0  0  0
    0.7707    1.0957   -2.7680 H   0  0  0  0  0  0  0  0  0  0  0  0
   -4.0350    1.7858    2.1970 H   0  0  0  0  0  0  0  0  0  0  0  0
   -0.3029   -2.8849    2.7567 H   0  0  0  0  0  0  0  0  0  0  0  0
   -1.2445   -3.6539    0.6716 H   0  0  0  0  0  0  0  0  0  0  0  0
  1  2  1  0
  2  3  1  0
  1  4  1  0
  4  5  1  0
  5  6  1  0
  3  7  1  0
  3  8  1  0
  4  8  1  0
  6  8  1  0
  2  9  1  6
  2 10  1  0
 11 12  1  0
 10 13  1  0
 12 13  1  0
 13 14  1  0
 11 15  1  0
 14 15  1  0
  1 16  1  0
  1 17  1  0
  6 18  1  0
  7 19  1  0
  7 20  1  0
  3 21  1  1
  4 22  1  6
  5 23  1  0
  5 24  1  0
  6 25  1  1
  7 26  1  0
  9 27  1  0
  9 28  1  0
  9 29  1  0
 10 30  1  0
 10 31  1  0
 11 32  1  0
 11 33  1  0
 12 34  1  0
 12 35  1  0
 14 36  1  0
 15 37  1  0
 16 38  1  0
 17 39  1  0
 18 40  1  0
 19 41  1  0
 20 42  1  0
M  END
>  <PDBID>  (1) 
1VM1

>  <PDB ID>  (1) 
1VM1

>  <Generic Name>  (1) 
Tazobactam

>  <Brand Name>  (1) 
Jamp-pip/taz#Mylan-piperacillin and Tazobactam for Injection#Piperacillin / Tazobactam Powder for Injection#Piperacillin Sodium/tazobactam Sodium Powder for Injection#Piperacillin and Tazobactam#Piperacillin and Tazobactam for Injection#Piperacillin, Tazobactam#Piperacillin/tazobactam for Injection#Tazocin#Tazocin Pws IV 2g Piperacillin-.25g Tazobac.#Tazocin Pws IV 3g Piperacillin-.375g Tazobac#Tazocin Pws IV 4g Piperacillin-.5g Tazobac.#Vpi-piperacillin and Tazobactam for Injection#Zerbaxa#Zosyn#Zosyn In Galaxy Containers#Zosyn Pharmacy Bulk Package

>  <DrugBank ID>  (1) 
DB01606

>  <ATC Codes>  (1) 
J01CG02

>  <Ligand ID>  (1) 
TAZ

>  <Target Name>  (1) 
Beta-lactamase TEM

>  <UniProt ID>  (1) 
P62594

>  <PDB ID.1>  (1) 
1VM1

>  <Seq. Identity>  (1) 
66%

$$$$
