PDB_DB06700_05
     RDKit          3D

 50 51  0  0  0  0  0  0  0  0999 V2000
   -1.1208   -1.7653   -0.1974 O   0  0  0  0  0  0  0  0  0  0  0  0
   -1.2256   -0.4028   -0.3285 C   0  0  0  0  0  0  0  0  0  0  0  0
   -1.8778    0.1150    0.9254 C   0  0  0  0  0  0  0  0  0  0  0  0
   -2.2730   -0.2037   -1.4495 C   0  0  0  0  0  0  0  0  0  0  0  0
   -3.3114   -1.2793   -1.2208 C   0  0  0  0  0  0  0  0  0  0  0  0
   -4.0112   -0.9351    0.0765 C   0  0  0  0  0  0  0  0  0  0  0  0
   -3.0662   -0.8037    1.2233 C   0  0  0  0  0  0  0  0  0  0  0  0
    0.0586    0.2570   -0.6856 C   0  0  1  0  0  0  0  0  0  0  0  0
   -0.0584    1.7429   -0.8130 C   0  0  0  0  0  0  0  0  0  0  0  0
   -0.4756    2.4931    0.2976 N   0  0  0  0  0  0  0  0  0  0  0  0
    0.3725    2.6214    1.4237 C   0  0  0  0  0  0  0  0  0  0  0  0
   -0.8647    3.8329   -0.1073 C   0  0  0  0  0  0  0  0  0  0  0  0
    1.2483   -0.3360   -0.1041 C   0  0  0  0  0  0  0  0  0  0  0  0
    1.5365   -1.7551   -0.5183 C   0  0  0  0  0  0  0  0  0  0  0  0
    2.2493   -2.4977    0.5986 C   0  0  0  0  0  0  0  0  0  0  0  0
    3.4969   -1.7010    0.8869 C   0  0  0  0  0  0  0  0  0  0  0  0
    4.5783   -2.5932    0.6986 O   0  0  0  0  0  0  0  0  0  0  0  0
    3.7432   -0.5663   -0.0447 C   0  0  0  0  0  0  0  0  0  0  0  0
    2.5524    0.3896   -0.1819 C   0  0  0  0  0  0  0  0  0  0  0  0
   -0.9116   -2.0749    0.7160 H   0  0  0  0  0  0  0  0  0  0  0  0
   -2.3362    1.1196    0.8203 H   0  0  0  0  0  0  0  0  0  0  0  0
   -1.1922    0.0062    1.7728 H   0  0  0  0  0  0  0  0  0  0  0  0
   -1.7183   -0.3588   -2.3811 H   0  0  0  0  0  0  0  0  0  0  0  0
   -2.7164    0.7885   -1.3454 H   0  0  0  0  0  0  0  0  0  0  0  0
   -4.0575   -1.3451   -2.0153 H   0  0  0  0  0  0  0  0  0  0  0  0
   -2.7646   -2.2444   -1.0635 H   0  0  0  0  0  0  0  0  0  0  0  0
   -4.7157   -1.7453    0.2969 H   0  0  0  0  0  0  0  0  0  0  0  0
   -4.5653   -0.0010   -0.1037 H   0  0  0  0  0  0  0  0  0  0  0  0
   -2.7449   -1.7763    1.6310 H   0  0  0  0  0  0  0  0  0  0  0  0
   -3.6227   -0.3083    2.0615 H   0  0  0  0  0  0  0  0  0  0  0  0
    0.1403   -0.0412   -1.8177 H   0  0  0  0  0  0  0  0  0  0  0  0
    0.8480    2.1246   -1.3305 H   0  0  0  0  0  0  0  0  0  0  0  0
   -0.8721    1.9030   -1.5949 H   0  0  0  0  0  0  0  0  0  0  0  0
    0.4519    1.7043    2.0337 H   0  0  0  0  0  0  0  0  0  0  0  0
    1.3565    3.0182    1.0865 H   0  0  0  0  0  0  0  0  0  0  0  0
   -0.0104    3.4155    2.1335 H   0  0  0  0  0  0  0  0  0  0  0  0
   -0.0401    4.2058   -0.7693 H   0  0  0  0  0  0  0  0  0  0  0  0
   -0.9155    4.5208    0.7475 H   0  0  0  0  0  0  0  0  0  0  0  0
   -1.7912    3.8258   -0.7162 H   0  0  0  0  0  0  0  0  0  0  0  0
    1.0495   -0.4281    1.0231 H   0  0  0  0  0  0  0  0  0  0  0  0
    0.7628   -2.3102   -1.0165 H   0  0  0  0  0  0  0  0  0  0  0  0
    2.3507   -1.6761   -1.3292 H   0  0  0  0  0  0  0  0  0  0  0  0
    2.4497   -3.5183    0.2236 H   0  0  0  0  0  0  0  0  0  0  0  0
    1.6321   -2.5818    1.5037 H   0  0  0  0  0  0  0  0  0  0  0  0
    3.5309   -1.3730    1.9411 H   0  0  0  0  0  0  0  0  0  0  0  0
    4.6844   -2.6357   -0.3038 H   0  0  0  0  0  0  0  0  0  0  0  0
    4.5985    0.0199    0.4154 H   0  0  0  0  0  0  0  0  0  0  0  0
    4.1606   -0.8589   -1.0342 H   0  0  0  0  0  0  0  0  0  0  0  0
    2.7357    0.9246   -1.1084 H   0  0  0  0  0  0  0  0  0  0  0  0
    2.6718    1.0880    0.6709 H   0  0  0  0  0  0  0  0  0  0  0  0
  2  1  1  0
  2  3  1  0
  2  4  1  0
  4  5  1  0
  5  6  1  0
  3  7  1  0
  6  7  1  0
  2  8  1  0
  8  9  1  0
  9 10  1  0
 10 11  1  0
 10 12  1  0
  8 13  1  0
 13 14  1  0
 14 15  1  0
 15 16  1  0
 16 17  1  0
 16 18  1  0
 13 19  1  0
 18 19  1  0
  1 20  1  0
  3 21  1  0
  3 22  1  0
  4 23  1  0
  4 24  1  0
  5 25  1  0
  5 26  1  0
  6 27  1  0
  6 28  1  0
  7 29  1  0
  7 30  1  0
  8 31  1  6
  9 32  1  0
  9 33  1  0
 11 34  1  0
 11 35  1  0
 11 36  1  0
 12 37  1  0
 12 38  1  0
 12 39  1  0
 13 40  1  0
 14 41  1  0
 14 42  1  0
 15 43  1  0
 15 44  1  0
 16 45  1  0
 17 46  1  0
 18 47  1  0
 18 48  1  0
 19 49  1  0
 19 50  1  0
M  END
>  <PDBID>  (1) 
4MM7

>  <PDB ID>  (1) 
4MM7

>  <Generic Name>  (1) 
Desvenlafaxine

>  <Brand Name>  (1) 
Desvenlafaxine#Desvenlafaxine Extended-release#Desvenlafaxine Succinate#Gd-desvenlafaxine#Khedezla Extended-release#Pristiq#Pristiq Extended Release#Pristiq Extended-release#Pristiq Extended-release Extended-release#Zyven-OD

>  <DrugBank ID>  (1) 
DB06700

>  <ATC Codes>  (1) 
N06AX23

>  <Ligand ID>  (1) 
29J

>  <Target Name>  (1) 
Sodium-dependent noradrenaline transporter

>  <UniProt ID>  (1) 
P23975

>  <PDB ID.1>  (1) 
4MM7

>  <Seq. Identity>  (1) 
30%

$$$$
