PDB_DB01268_06
     RDKit          3D

 72 74  0  0  0  0  0  0  0  0999 V2000
   -0.3733    1.9291   -1.7638 C   0  0  0  0  0  0  0  0  0  0  0  0
    7.7138   -0.4505    0.7651 C   0  0  0  0  0  0  0  0  0  0  0  0
    6.6701   -0.3899    1.8337 C   0  0  0  0  0  0  0  0  0  0  0  0
    5.9256   -1.0036   -0.9140 C   0  0  0  0  0  0  0  0  0  0  0  0
   -0.1344   -0.7089   -0.0454 C   0  0  0  0  0  0  0  0  0  0  0  0
    7.1610   -0.2269   -0.6134 C   0  0  0  0  0  0  0  0  0  0  0  0
    4.8613   -0.8833    0.1426 C   0  0  0  0  0  0  0  0  0  0  0  0
    3.6840   -0.1002   -0.4163 C   0  0  0  0  0  0  0  0  0  0  0  0
    3.9675    1.2901    0.0082 C   0  0  0  0  0  0  0  0  0  0  0  0
   -2.3841    0.1880   -0.6804 C   0  0  0  0  0  0  0  0  0  0  0  0
    0.0790   -1.4130    1.2641 C   0  0  0  0  0  0  0  0  0  0  0  0
    2.3764   -0.6915    0.0049 C   0  0  0  0  0  0  0  0  0  0  0  0
   -0.3776    1.6307   -0.3026 C   0  0  0  0  0  0  0  0  0  0  0  0
    5.2887   -0.0725    1.3162 C   0  0  0  0  0  0  0  0  0  0  0  0
    1.1587   -0.0043   -0.4959 C   0  0  0  0  0  0  0  0  0  0  0  0
   -1.1206    0.3862    0.0956 C   0  0  0  0  0  0  0  0  0  0  0  0
    0.9831    1.3261    0.1025 N   0  0  0  0  0  0  0  0  0  0  0  0
    5.2063    1.2769    0.7868 N   0  0  0  0  0  0  0  0  0  0  0  0
   -3.1511   -0.9682   -0.3294 N   0  0  0  0  0  0  0  0  0  0  0  0
    4.2696    2.0458   -1.1510 O   0  0  0  0  0  0  0  0  0  0  0  0
   -2.2551    0.2133   -2.0433 O   0  0  0  0  0  0  0  0  0  0  0  0
    8.1544   -0.6103   -1.5170 F   0  0  0  0  0  0  0  0  0  0  0  0
   -3.7127   -0.9637    0.9899 C   0  0  0  0  0  0  0  0  0  0  0  0
   -4.8258    0.0578    1.1309 C   0  0  0  0  0  0  0  0  0  0  0  0
   -5.9347   -0.0797    0.3376 N   0  0  0  0  0  0  0  0  0  0  0  0
   -6.8762   -1.1024    0.5165 C   0  0  0  0  0  0  0  0  0  0  0  0
   -6.3627    0.9729   -0.4887 C   0  0  0  0  0  0  0  0  0  0  0  0
   -6.8904    2.1753    0.2795 C   0  0  0  0  0  0  0  0  0  0  0  0
   -6.4568   -2.4981    0.2238 C   0  0  0  0  0  0  0  0  0  0  0  0
    0.4811    2.6467   -1.9703 H   0  0  0  0  0  0  0  0  0  0  0  0
   -1.2823    2.5156   -2.0846 H   0  0  0  0  0  0  0  0  0  0  0  0
   -0.1971    1.0884   -2.4397 H   0  0  0  0  0  0  0  0  0  0  0  0
    8.3037   -1.4086    0.7820 H   0  0  0  0  0  0  0  0  0  0  0  0
    8.4805    0.3607    0.9282 H   0  0  0  0  0  0  0  0  0  0  0  0
    6.9236    0.3721    2.5867 H   0  0  0  0  0  0  0  0  0  0  0  0
    6.6025   -1.3592    2.3706 H   0  0  0  0  0  0  0  0  0  0  0  0
    5.5583   -0.6295   -1.9118 H   0  0  0  0  0  0  0  0  0  0  0  0
    6.1844   -2.0749   -1.0284 H   0  0  0  0  0  0  0  0  0  0  0  0
   -0.4099   -1.4693   -0.8064 H   0  0  0  0  0  0  0  0  0  0  0  0
    7.0416    0.8665   -0.7543 H   0  0  0  0  0  0  0  0  0  0  0  0
    4.5288   -1.8778    0.5197 H   0  0  0  0  0  0  0  0  0  0  0  0
    3.7955   -0.2119   -1.5512 H   0  0  0  0  0  0  0  0  0  0  0  0
    3.1830    1.8453    0.5088 H   0  0  0  0  0  0  0  0  0  0  0  0
   -3.0352    1.0790   -0.4224 H   0  0  0  0  0  0  0  0  0  0  0  0
    0.4232   -0.7258    2.0828 H   0  0  0  0  0  0  0  0  0  0  0  0
   -0.8754   -1.8612    1.5913 H   0  0  0  0  0  0  0  0  0  0  0  0
    0.7803   -2.2827    1.1590 H   0  0  0  0  0  0  0  0  0  0  0  0
    2.3991   -1.7599   -0.3256 H   0  0  0  0  0  0  0  0  0  0  0  0
    2.3717   -0.7307    1.1186 H   0  0  0  0  0  0  0  0  0  0  0  0
   -0.7625    2.5198    0.2731 H   0  0  0  0  0  0  0  0  0  0  0  0
    4.5926   -0.2523    2.1587 H   0  0  0  0  0  0  0  0  0  0  0  0
    1.2127    0.0230   -1.5925 H   0  0  0  0  0  0  0  0  0  0  0  0
   -1.4140    0.5126    1.1673 H   0  0  0  0  0  0  0  0  0  0  0  0
    1.0216    1.1398    1.1501 H   0  0  0  0  0  0  0  0  0  0  0  0
    5.0553    1.9096    1.6300 H   0  0  0  0  0  0  0  0  0  0  0  0
   -3.9211   -1.1162   -1.0264 H   0  0  0  0  0  0  0  0  0  0  0  0
    3.9922    1.5458   -1.9786 H   0  0  0  0  0  0  0  0  0  0  0  0
   -2.9160    0.7640   -2.5045 H   0  0  0  0  0  0  0  0  0  0  0  0
   -2.9222   -0.7262    1.7283 H   0  0  0  0  0  0  0  0  0  0  0  0
   -4.0817   -1.9606    1.2338 H   0  0  0  0  0  0  0  0  0  0  0  0
   -4.4239    1.0989    1.0661 H   0  0  0  0  0  0  0  0  0  0  0  0
   -5.1389   -0.0257    2.2227 H   0  0  0  0  0  0  0  0  0  0  0  0
   -7.3343   -1.1030    1.5568 H   0  0  0  0  0  0  0  0  0  0  0  0
   -7.7710   -0.9041   -0.1665 H   0  0  0  0  0  0  0  0  0  0  0  0
   -7.2308    0.6299   -1.1336 H   0  0  0  0  0  0  0  0  0  0  0  0
   -5.5865    1.3777   -1.1728 H   0  0  0  0  0  0  0  0  0  0  0  0
   -6.1163    2.9925    0.2950 H   0  0  0  0  0  0  0  0  0  0  0  0
   -7.1625    1.9431    1.3075 H   0  0  0  0  0  0  0  0  0  0  0  0
   -7.8082    2.6040   -0.2176 H   0  0  0  0  0  0  0  0  0  0  0  0
   -6.2476   -3.0463    1.1771 H   0  0  0  0  0  0  0  0  0  0  0  0
   -5.6233   -2.5774   -0.4767 H   0  0  0  0  0  0  0  0  0  0  0  0
   -7.3152   -3.0571   -0.2424 H   0  0  0  0  0  0  0  0  0  0  0  0
  2  3  1  0
  2  6  1  0
  4  6  1  0
  4  7  1  0
  7  8  1  0
  8  9  1  0
  5 11  1  0
  8 12  1  0
  1 13  1  0
  3 14  1  0
  7 14  1  0
  5 15  1  0
 12 15  1  0
  5 16  1  0
 10 16  1  0
 13 16  1  0
 13 17  1  0
 15 17  1  0
  9 18  1  0
 14 18  1  0
 10 19  1  0
  9 20  1  0
 10 21  1  0
  6 22  1  0
 19 23  1  0
 23 24  1  0
 24 25  1  0
 25 26  1  0
 25 27  1  0
 27 28  1  0
 26 29  1  0
  1 30  1  0
  1 31  1  0
  1 32  1  0
  2 33  1  0
  2 34  1  0
  3 35  1  0
  3 36  1  0
  4 37  1  0
  4 38  1  0
  5 39  1  0
  6 40  1  0
  7 41  1  0
  8 42  1  0
  9 43  1  0
 10 44  1  0
 11 45  1  0
 11 46  1  0
 11 47  1  0
 12 48  1  0
 12 49  1  0
 13 50  1  0
 14 51  1  0
 15 52  1  0
 16 53  1  0
 17 54  1  0
 18 55  1  0
 19 56  1  0
 20 57  1  0
 21 58  1  0
 23 59  1  0
 23 60  1  0
 24 61  1  0
 24 62  1  0
 26 63  1  0
 26 64  1  0
 27 65  1  0
 27 66  1  0
 28 67  1  0
 28 68  1  0
 28 69  1  0
 29 70  1  0
 29 71  1  0
 29 72  1  0
M  END
>  <PDBID>  (1) 
4AGD

>  <PDB ID>  (1) 
4AGD

>  <Generic Name>  (1) 
Sunitinib

>  <Brand Name>  (1) 
Sutent

>  <DrugBank ID>  (1) 
DB01268

>  <ATC Codes>  (1) 
L01XE04

>  <Ligand ID>  (1) 
B49

>  <Target Name>  (1) 
Vascular endothelial growth factor receptor 3

>  <UniProt ID>  (1) 
P35916

>  <PDB ID.1>  (1) 
4AGD

>  <Seq. Identity>  (1) 
66%

$$$$
