PDB_DB00410_09
     RDKit          3D

 85 86  0  0  0  0  0  0  0  0999 V2000
   -1.9728   -0.6252   -1.4525 C   0  0  0  0  0  0  0  0  0  0  0  0
   -0.7121    0.1193   -1.9053 C   0  0  0  0  0  0  0  0  0  0  0  0
    0.4820   -0.7560   -1.8865 C   0  0  0  0  0  0  0  0  0  0  0  0
    0.8791   -1.3419   -0.5808 C   0  0  0  0  0  0  0  0  0  0  0  0
    1.2175   -0.3272    0.4891 C   0  0  1  0  0  0  0  0  0  0  0  0
    1.5905   -1.1005    1.7366 C   0  0  1  0  0  0  0  0  0  0  0  0
    2.5740   -0.3104    2.5700 C   0  0  1  0  0  0  0  0  0  0  0  0
    3.8283   -0.0684    1.7575 C   0  0  1  0  0  0  0  0  0  0  0  0
    4.8767   -1.1264    2.0274 C   0  0  0  0  0  0  0  0  0  0  0  0
    6.0887   -0.7752    1.1566 C   0  0  1  0  0  0  0  0  0  0  0  0
    6.6517    0.5791    1.4780 C   0  0  2  0  0  0  0  0  0  0  0  0
    7.1758    1.4351    0.3985 C   0  0  2  0  0  0  0  0  0  0  0  0
    8.3250    0.9642   -0.4037 C   0  0  2  0  0  0  0  0  0  0  0  0
    8.1026   -0.2947   -1.1547 C   0  0  0  0  0  0  0  0  0  0  0  0
    0.3470   -1.9274   -2.8694 C   0  0  0  0  0  0  0  0  0  0  0  0
    3.5217   -0.0930    0.2750 C   0  0  0  0  0  0  0  0  0  0  0  0
   -7.9533    2.2379   -0.6155 C   0  0  0  0  0  0  0  0  0  0  0  0
   -7.4134    3.1267   -1.5376 O   0  0  0  0  0  0  0  0  0  0  0  0
   -8.7680    2.9781    0.2652 O   0  0  0  0  0  0  0  0  0  0  0  0
   -6.8390    1.6066    0.2226 C   0  0  0  0  0  0  0  0  0  0  0  0
   -7.4558    0.6489    1.2115 C   0  0  0  0  0  0  0  0  0  0  0  0
   -6.5225   -0.1000    2.0671 C   0  0  0  0  0  0  0  0  0  0  0  0
   -5.7455   -1.2329    1.6161 C   0  0  0  0  0  0  0  0  0  0  0  0
   -4.9407   -1.2303    0.3825 C   0  0  0  0  0  0  0  0  0  0  0  0
   -5.6766   -1.3773   -0.8975 C   0  0  0  0  0  0  0  0  0  0  0  0
   -4.8189   -1.3297   -2.1299 C   0  0  0  0  0  0  0  0  0  0  0  0
   -4.0400   -0.0945   -2.3679 C   0  0  0  0  0  0  0  0  0  0  0  0
   -3.0527    0.2556   -1.5042 O   0  0  0  0  0  0  0  0  0  0  0  0
   -1.7567   -0.9959   -0.1485 O   0  0  0  0  0  0  0  0  0  0  0  0
    2.2931    0.4821    0.0673 O   0  0  0  0  0  0  0  0  0  0  0  0
    1.9635    0.8968    2.9034 O   0  0  0  0  0  0  0  0  0  0  0  0
    0.4898   -1.3878    2.5337 O   0  0  0  0  0  0  0  0  0  0  0  0
    7.3027   -0.6269    1.7699 O   0  0  0  0  0  0  0  0  0  0  0  0
    7.4789    2.8116    1.0352 C   0  0  0  0  0  0  0  0  0  0  0  0
    9.5217    0.9400    0.3295 O   0  0  0  0  0  0  0  0  0  0  0  0
   -2.1754   -1.4778   -2.0996 H   0  0  0  0  0  0  0  0  0  0  0  0
   -0.8361    0.5058   -2.9373 H   0  0  0  0  0  0  0  0  0  0  0  0
   -0.6403    1.0041   -1.2503 H   0  0  0  0  0  0  0  0  0  0  0  0
    1.3901   -0.2005   -2.2709 H   0  0  0  0  0  0  0  0  0  0  0  0
    0.2192   -2.1504   -0.2252 H   0  0  0  0  0  0  0  0  0  0  0  0
    1.8668   -1.8739   -0.7753 H   0  0  0  0  0  0  0  0  0  0  0  0
    0.4112    0.3774    0.7264 H   0  0  0  0  0  0  0  0  0  0  0  0
    2.1127   -2.0569    1.4662 H   0  0  0  0  0  0  0  0  0  0  0  0
    2.7669   -0.8477    3.5068 H   0  0  0  0  0  0  0  0  0  0  0  0
    4.1875    0.9474    2.0029 H   0  0  0  0  0  0  0  0  0  0  0  0
    5.1427   -1.1262    3.1004 H   0  0  0  0  0  0  0  0  0  0  0  0
    4.4800   -2.1316    1.7821 H   0  0  0  0  0  0  0  0  0  0  0  0
    5.9714   -1.1515    0.1488 H   0  0  0  0  0  0  0  0  0  0  0  0
    6.3132    1.0803    2.4187 H   0  0  0  0  0  0  0  0  0  0  0  0
    6.3647    1.7073   -0.3602 H   0  0  0  0  0  0  0  0  0  0  0  0
    8.5130    1.7677   -1.1871 H   0  0  0  0  0  0  0  0  0  0  0  0
    8.8435   -0.3797   -2.0223 H   0  0  0  0  0  0  0  0  0  0  0  0
    8.1858   -1.1748   -0.5161 H   0  0  0  0  0  0  0  0  0  0  0  0
    7.1246   -0.2985   -1.6624 H   0  0  0  0  0  0  0  0  0  0  0  0
   -0.3161   -2.7029   -2.4543 H   0  0  0  0  0  0  0  0  0  0  0  0
    0.0085   -1.5312   -3.8470 H   0  0  0  0  0  0  0  0  0  0  0  0
    1.3734   -2.3213   -3.0317 H   0  0  0  0  0  0  0  0  0  0  0  0
    4.2642    0.5686   -0.2375 H   0  0  0  0  0  0  0  0  0  0  0  0
    3.6300   -1.1233   -0.0934 H   0  0  0  0  0  0  0  0  0  0  0  0
   -8.6041    1.4723   -1.0658 H   0  0  0  0  0  0  0  0  0  0  0  0
   -7.4375    4.0373   -1.1658 H   0  0  0  0  0  0  0  0  0  0  0  0
   -9.6456    3.1280   -0.1749 H   0  0  0  0  0  0  0  0  0  0  0  0
   -6.4618    2.5284    0.8359 H   0  0  0  0  0  0  0  0  0  0  0  0
   -5.9795    1.2967   -0.3309 H   0  0  0  0  0  0  0  0  0  0  0  0
   -8.1346   -0.0610    0.6311 H   0  0  0  0  0  0  0  0  0  0  0  0
   -8.1943    1.2328    1.8299 H   0  0  0  0  0  0  0  0  0  0  0  0
   -5.7516    0.6662    2.5281 H   0  0  0  0  0  0  0  0  0  0  0  0
   -7.0698   -0.4268    3.0403 H   0  0  0  0  0  0  0  0  0  0  0  0
   -6.4430   -2.1836    1.5975 H   0  0  0  0  0  0  0  0  0  0  0  0
   -5.0378   -1.5482    2.4904 H   0  0  0  0  0  0  0  0  0  0  0  0
   -4.3091   -0.2839    0.3244 H   0  0  0  0  0  0  0  0  0  0  0  0
   -4.1490   -2.0506    0.4324 H   0  0  0  0  0  0  0  0  0  0  0  0
   -6.5706   -0.7660   -1.0189 H   0  0  0  0  0  0  0  0  0  0  0  0
   -6.0837   -2.4764   -0.9040 H   0  0  0  0  0  0  0  0  0  0  0  0
   -4.0837   -2.1992   -2.0766 H   0  0  0  0  0  0  0  0  0  0  0  0
   -5.5332   -1.5510   -2.9853 H   0  0  0  0  0  0  0  0  0  0  0  0
   -4.7960    0.7594   -2.3221 H   0  0  0  0  0  0  0  0  0  0  0  0
   -3.7025   -0.0179   -3.4522 H   0  0  0  0  0  0  0  0  0  0  0  0
   -1.9026   -0.1840    0.4270 H   0  0  0  0  0  0  0  0  0  0  0  0
    1.5591    1.3345    2.1142 H   0  0  0  0  0  0  0  0  0  0  0  0
    0.1662   -0.5544    2.9631 H   0  0  0  0  0  0  0  0  0  0  0  0
    8.0695    3.4347    0.3527 H   0  0  0  0  0  0  0  0  0  0  0  0
    7.9945    2.5870    1.9911 H   0  0  0  0  0  0  0  0  0  0  0  0
    6.4893    3.2410    1.2937 H   0  0  0  0  0  0  0  0  0  0  0  0
    9.3677    1.2139    1.2848 H   0  0  0  0  0  0  0  0  0  0  0  0
  1  2  1  0
  2  3  1  0
  3  4  1  0
  4  5  1  0
  5  6  1  0
  6  7  1  0
  7  8  1  0
  8  9  1  0
  9 10  1  0
 10 11  1  0
 11 12  1  0
 12 13  1  0
 13 14  1  0
  3 15  1  0
  8 16  1  0
 17 18  1  0
 17 19  1  0
 17 20  1  0
 20 21  1  0
 21 22  1  0
 22 23  1  0
 23 24  1  0
 24 25  1  0
 25 26  1  0
 26 27  1  0
  1 28  1  0
 27 28  1  0
  1 29  1  0
  5 30  1  0
 16 30  1  0
  7 31  1  0
  6 32  1  0
 10 33  1  0
 11 33  1  0
 12 34  1  0
 13 35  1  0
  1 36  1  0
  2 37  1  0
  2 38  1  0
  3 39  1  0
  4 40  1  0
  4 41  1  0
  5 42  1  1
  6 43  1  6
  7 44  1  1
  8 45  1  1
  9 46  1  0
  9 47  1  0
 10 48  1  6
 11 49  1  1
 12 50  1  6
 13 51  1  6
 14 52  1  0
 14 53  1  0
 14 54  1  0
 15 55  1  0
 15 56  1  0
 15 57  1  0
 16 58  1  0
 16 59  1  0
 17 60  1  0
 18 61  1  0
 19 62  1  0
 20 63  1  0
 20 64  1  0
 21 65  1  0
 21 66  1  0
 22 67  1  0
 22 68  1  0
 23 69  1  0
 23 70  1  0
 24 71  1  0
 24 72  1  0
 25 73  1  0
 25 74  1  0
 26 75  1  0
 26 76  1  0
 27 77  1  0
 27 78  1  0
 29 79  1  0
 31 80  1  0
 32 81  1  0
 34 82  1  0
 34 83  1  0
 34 84  1  0
 35 85  1  0
M  END
>  <PDBID>  (1) 
1FFY

>  <PDB ID>  (1) 
1FFY

>  <Generic Name>  (1) 
Mupirocin

>  <Brand Name>  (1) 
Bactroban#Bactroban Cream#Bactroban Nasal Ointment#Centany#Centany At#Mupirocin#Mupirocin 2%#Mupirocin Calcium#Taro-mupirocin#Bactroban Nasal#Plasimine#Spectroderm#T-Bact#Turixin

>  <DrugBank ID>  (1) 
DB00410

>  <ATC Codes>  (1) 
R01AX06#D06AX09

>  <Ligand ID>  (1) 
MRC

>  <Target Name>  (1) 
Isoleucine--tRNA ligase

>  <UniProt ID>  (1) 
P41972

>  <PDB ID.1>  (1) 
1FFY

>  <Seq. Identity>  (1) 
95%

$$$$
