PDB_DB01030_01
     RDKit          3D

 72 76  0  0  0  0  0  0  0  0999 V2000
   -5.4013    1.4865   -1.1606 C   0  0  0  0  0  0  0  0  0  0  0  0
   -5.1412    2.6298   -0.1901 C   0  0  0  0  0  0  0  0  0  0  0  0
   -5.0872    0.2160   -0.4399 C   0  0  2  0  0  0  0  0  0  0  0  0
   -5.9512    0.1688    0.6817 O   0  0  0  0  0  0  0  0  0  0  0  0
   -3.6883    0.0923    0.0443 C   0  0  0  0  0  0  0  0  0  0  0  0
   -5.4154   -1.0276   -1.2415 C   0  0  0  0  0  0  0  0  0  0  0  0
   -3.3773   -1.4085    0.1343 C   0  0  0  0  0  0  0  0  0  0  0  0
   -2.6407    0.6880   -0.8395 C   0  0  0  0  0  0  0  0  0  0  0  0
   -6.6734   -0.8905   -1.8726 O   0  0  0  0  0  0  0  0  0  0  0  0
   -5.5547   -2.0865   -0.3473 O   0  0  0  0  0  0  0  0  0  0  0  0
   -2.1781   -1.4999    1.0575 C   0  0  0  0  0  0  0  0  0  0  0  0
   -4.5961   -2.0854    0.6570 C   0  0  0  0  0  0  0  0  0  0  0  0
   -1.4172   -0.2155   -0.8408 C   0  0  0  0  0  0  0  0  0  0  0  0
   -2.5468   -0.8094    2.2350 O   0  0  0  0  0  0  0  0  0  0  0  0
   -1.1173   -0.7440    0.4537 N   0  0  0  0  0  0  0  0  0  0  0  0
   -0.1403    0.5905   -1.1283 C   0  0  0  0  0  0  0  0  0  0  0  0
   -0.6475    0.3575    1.2242 C   0  0  0  0  0  0  0  0  0  0  0  0
    0.1734    1.1477    0.2016 C   0  0  0  0  0  0  0  0  0  0  0  0
    0.7866   -0.2535   -1.7396 N   0  0  0  0  0  0  0  0  0  0  0  0
    1.5844    1.2339    0.5917 C   0  0  0  0  0  0  0  0  0  0  0  0
    1.9945   -0.5549   -1.0999 C   0  0  0  0  0  0  0  0  0  0  0  0
    2.5869    0.6025   -0.3447 C   0  0  0  0  0  0  0  0  0  0  0  0
    1.9680   -1.7373   -0.1658 C   0  0  0  0  0  0  0  0  0  0  0  0
    3.8678    0.3311    0.3381 C   0  0  0  0  0  0  0  0  0  0  0  0
    3.4077   -2.1432    0.0169 C   0  0  0  0  0  0  0  0  0  0  0  0
    4.2895   -1.0591    0.5351 C   0  0  0  0  0  0  0  0  0  0  0  0
    5.0225    1.1025   -0.3305 C   0  0  0  0  0  0  0  0  0  0  0  0
    6.2190    0.7437    0.4456 N   0  0  0  0  0  0  0  0  0  0  0  0
    6.1210    1.3144    1.7864 C   0  0  0  0  0  0  0  0  0  0  0  0
    7.3179    1.4720   -0.2046 C   0  0  0  0  0  0  0  0  0  0  0  0
    5.5659   -1.3013   -0.0395 O   0  0  0  0  0  0  0  0  0  0  0  0
   -6.4615    1.4868   -1.4251 H   0  0  0  0  0  0  0  0  0  0  0  0
   -4.8047    1.6548   -2.0702 H   0  0  0  0  0  0  0  0  0  0  0  0
   -4.2016    3.1619   -0.3956 H   0  0  0  0  0  0  0  0  0  0  0  0
   -5.0723    2.2568    0.8651 H   0  0  0  0  0  0  0  0  0  0  0  0
   -6.0189    3.3354   -0.1735 H   0  0  0  0  0  0  0  0  0  0  0  0
   -6.8246   -0.2025    0.3817 H   0  0  0  0  0  0  0  0  0  0  0  0
   -3.6408    0.4678    1.0766 H   0  0  0  0  0  0  0  0  0  0  0  0
   -4.6990   -1.2196   -2.0486 H   0  0  0  0  0  0  0  0  0  0  0  0
   -3.1608   -1.8371   -0.8647 H   0  0  0  0  0  0  0  0  0  0  0  0
   -2.9630    0.7580   -1.9090 H   0  0  0  0  0  0  0  0  0  0  0  0
   -2.3201    1.6729   -0.4368 H   0  0  0  0  0  0  0  0  0  0  0  0
   -6.6956   -1.3993   -2.7171 H   0  0  0  0  0  0  0  0  0  0  0  0
   -1.8981   -2.5439    1.2807 H   0  0  0  0  0  0  0  0  0  0  0  0
   -4.9444   -1.7192    1.6206 H   0  0  0  0  0  0  0  0  0  0  0  0
   -4.3241   -3.1707    0.8120 H   0  0  0  0  0  0  0  0  0  0  0  0
   -1.4998   -0.9589   -1.6448 H   0  0  0  0  0  0  0  0  0  0  0  0
   -2.4477   -1.3589    3.0345 H   0  0  0  0  0  0  0  0  0  0  0  0
   -0.4633    1.3793   -1.8653 H   0  0  0  0  0  0  0  0  0  0  0  0
   -1.3930    0.9563    1.7338 H   0  0  0  0  0  0  0  0  0  0  0  0
    0.0724   -0.0307    1.9839 H   0  0  0  0  0  0  0  0  0  0  0  0
   -0.2588    2.1938    0.2353 H   0  0  0  0  0  0  0  0  0  0  0  0
    0.3653   -1.1171   -2.1476 H   0  0  0  0  0  0  0  0  0  0  0  0
    1.7205    0.7151    1.5819 H   0  0  0  0  0  0  0  0  0  0  0  0
    1.9545    2.2776    0.7776 H   0  0  0  0  0  0  0  0  0  0  0  0
    2.7542   -0.8170   -1.8976 H   0  0  0  0  0  0  0  0  0  0  0  0
    2.7728    1.3943   -1.1355 H   0  0  0  0  0  0  0  0  0  0  0  0
    1.5679   -1.5066    0.8311 H   0  0  0  0  0  0  0  0  0  0  0  0
    1.4144   -2.6029   -0.5571 H   0  0  0  0  0  0  0  0  0  0  0  0
    3.8220    0.8235    1.3595 H   0  0  0  0  0  0  0  0  0  0  0  0
    3.4026   -3.0531    0.6758 H   0  0  0  0  0  0  0  0  0  0  0  0
    3.7485   -2.5411   -0.9837 H   0  0  0  0  0  0  0  0  0  0  0  0
    4.4635   -1.3047    1.6283 H   0  0  0  0  0  0  0  0  0  0  0  0
    5.1524    0.7094   -1.3519 H   0  0  0  0  0  0  0  0  0  0  0  0
    4.8324    2.1743   -0.2699 H   0  0  0  0  0  0  0  0  0  0  0  0
    5.7111    0.6018    2.5166 H   0  0  0  0  0  0  0  0  0  0  0  0
    5.4781    2.2355    1.7405 H   0  0  0  0  0  0  0  0  0  0  0  0
    7.1056    1.6527    2.1682 H   0  0  0  0  0  0  0  0  0  0  0  0
    8.2334    1.3719    0.4062 H   0  0  0  0  0  0  0  0  0  0  0  0
    7.4289    1.1207   -1.2399 H   0  0  0  0  0  0  0  0  0  0  0  0
    6.9960    2.5376   -0.2081 H   0  0  0  0  0  0  0  0  0  0  0  0
    5.7648   -2.2456    0.2143 H   0  0  0  0  0  0  0  0  0  0  0  0
  1  2  1  0
  1  3  1  0
  3  4  1  1
  3  5  1  0
  3  6  1  0
  5  7  1  0
  5  8  1  0
  6  9  1  0
  6 10  1  0
  7 11  1  0
  7 12  1  0
 10 12  1  0
  8 13  1  0
 11 14  1  0
 11 15  1  0
 13 15  1  0
 13 16  1  0
 15 17  1  0
 16 18  1  0
 17 18  1  0
 16 19  1  0
 18 20  1  0
 19 21  1  0
 20 22  1  0
 21 22  1  0
 21 23  1  0
 22 24  1  0
 23 25  1  0
 24 26  1  0
 25 26  1  0
 24 27  1  0
 27 28  1  0
 28 29  1  0
 28 30  1  0
 26 31  1  0
  1 32  1  0
  1 33  1  0
  2 34  1  0
  2 35  1  0
  2 36  1  0
  4 37  1  0
  5 38  1  0
  6 39  1  0
  7 40  1  0
  8 41  1  0
  8 42  1  0
  9 43  1  0
 11 44  1  0
 12 45  1  0
 12 46  1  0
 13 47  1  0
 14 48  1  0
 16 49  1  0
 17 50  1  0
 17 51  1  0
 18 52  1  0
 19 53  1  0
 20 54  1  0
 20 55  1  0
 21 56  1  0
 22 57  1  0
 23 58  1  0
 23 59  1  0
 24 60  1  0
 25 61  1  0
 25 62  1  0
 26 63  1  0
 27 64  1  0
 27 65  1  0
 29 66  1  0
 29 67  1  0
 29 68  1  0
 30 69  1  0
 30 70  1  0
 30 71  1  0
 31 72  1  0
M  END
>  <PDBID>  (1) 
1K4T

>  <PDB ID>  (1) 
1K4T

>  <Generic Name>  (1) 
Topotecan

>  <Brand Name>  (1) 
Act Topotecan#Hycamtin#Mylan-topotecan Hydrochloride for Injection#PMS-topotecan#Topotecan#Topotecan Hydrochloride#Topotecan Hydrochloride for Injection#Topotecan Injection#Topotecan for Injection

>  <DrugBank ID>  (1) 
DB01030

>  <ATC Codes>  (1) 
L01XX17

>  <Ligand ID>  (1) 
TTC

>  <Target Name>  (1) 
DNA topoisomerase 1

>  <UniProt ID>  (1) 
P11387

>  <PDB ID.1>  (1) 
1K4T

>  <Seq. Identity>  (1) 
92%

$$$$
