PDB_DB06700_06
     RDKit          3D

 50 51  0  0  0  0  0  0  0  0999 V2000
   -0.1224   -1.5458    1.3750 O   0  0  0  0  0  0  0  0  0  0  0  0
   -0.8720   -1.3761    0.2101 C   0  0  0  0  0  0  0  0  0  0  0  0
   -2.3079   -1.3058    0.6317 C   0  0  0  0  0  0  0  0  0  0  0  0
   -0.5338   -2.4008   -0.7785 C   0  0  0  0  0  0  0  0  0  0  0  0
   -1.4465   -3.5960   -0.8672 C   0  0  0  0  0  0  0  0  0  0  0  0
   -2.2331   -3.7814    0.4234 C   0  0  0  0  0  0  0  0  0  0  0  0
   -3.1002   -2.5575    0.4499 C   0  0  0  0  0  0  0  0  0  0  0  0
   -0.4930    0.0572   -0.2791 C   0  0  1  0  0  0  0  0  0  0  0  0
   -0.8878    1.0055    0.8301 C   0  0  0  0  0  0  0  0  0  0  0  0
   -0.6801    2.3797    0.6388 N   0  0  0  0  0  0  0  0  0  0  0  0
   -1.4588    3.0838   -0.2984 C   0  0  0  0  0  0  0  0  0  0  0  0
   -0.7742    3.0467    1.9252 C   0  0  0  0  0  0  0  0  0  0  0  0
    0.8830    0.1512   -0.7620 C   0  0  0  0  0  0  0  0  0  0  0  0
    2.0037   -0.1634    0.1913 C   0  0  0  0  0  0  0  0  0  0  0  0
    3.3285    0.0645   -0.5715 C   0  0  0  0  0  0  0  0  0  0  0  0
    3.6248    1.5083   -0.7583 C   0  0  0  0  0  0  0  0  0  0  0  0
    4.4422    2.0348    0.2414 O   0  0  0  0  0  0  0  0  0  0  0  0
    2.2864    2.2411   -0.7320 C   0  0  0  0  0  0  0  0  0  0  0  0
    1.3167    1.3633   -1.5190 C   0  0  0  0  0  0  0  0  0  0  0  0
    0.2890   -2.4465    1.4383 H   0  0  0  0  0  0  0  0  0  0  0  0
   -2.4134   -1.0385    1.7221 H   0  0  0  0  0  0  0  0  0  0  0  0
   -2.8538   -0.5508   -0.0062 H   0  0  0  0  0  0  0  0  0  0  0  0
   -0.5826   -1.9335   -1.8051 H   0  0  0  0  0  0  0  0  0  0  0  0
    0.4668   -2.8475   -0.5898 H   0  0  0  0  0  0  0  0  0  0  0  0
   -0.9309   -4.5463   -1.0640 H   0  0  0  0  0  0  0  0  0  0  0  0
   -2.2122   -3.4829   -1.6701 H   0  0  0  0  0  0  0  0  0  0  0  0
   -2.8711   -4.6828    0.3325 H   0  0  0  0  0  0  0  0  0  0  0  0
   -1.5970   -3.9217    1.2930 H   0  0  0  0  0  0  0  0  0  0  0  0
   -3.8575   -2.6937    1.2465 H   0  0  0  0  0  0  0  0  0  0  0  0
   -3.6900   -2.5748   -0.5145 H   0  0  0  0  0  0  0  0  0  0  0  0
   -1.2295    0.2283   -1.0780 H   0  0  0  0  0  0  0  0  0  0  0  0
   -0.3272    0.7447    1.7855 H   0  0  0  0  0  0  0  0  0  0  0  0
   -1.9457    0.8665    1.1409 H   0  0  0  0  0  0  0  0  0  0  0  0
   -2.4200    3.4103    0.1958 H   0  0  0  0  0  0  0  0  0  0  0  0
   -0.9392    4.0241   -0.5754 H   0  0  0  0  0  0  0  0  0  0  0  0
   -1.6822    2.5502   -1.2459 H   0  0  0  0  0  0  0  0  0  0  0  0
   -0.9129    4.1383    1.8114 H   0  0  0  0  0  0  0  0  0  0  0  0
   -1.6301    2.5813    2.4635 H   0  0  0  0  0  0  0  0  0  0  0  0
    0.1275    2.8006    2.5315 H   0  0  0  0  0  0  0  0  0  0  0  0
    1.0077   -0.7041   -1.5210 H   0  0  0  0  0  0  0  0  0  0  0  0
    2.0999   -1.2629    0.3934 H   0  0  0  0  0  0  0  0  0  0  0  0
    2.0713    0.4629    1.0691 H   0  0  0  0  0  0  0  0  0  0  0  0
    3.2813   -0.5014   -1.5447 H   0  0  0  0  0  0  0  0  0  0  0  0
    4.1513   -0.3971    0.0122 H   0  0  0  0  0  0  0  0  0  0  0  0
    4.1371    1.6844   -1.7300 H   0  0  0  0  0  0  0  0  0  0  0  0
    4.5275    1.3122    0.9296 H   0  0  0  0  0  0  0  0  0  0  0  0
    2.4185    3.1760   -1.3009 H   0  0  0  0  0  0  0  0  0  0  0  0
    2.0537    2.3526    0.3194 H   0  0  0  0  0  0  0  0  0  0  0  0
    1.9458    1.0632   -2.4290 H   0  0  0  0  0  0  0  0  0  0  0  0
    0.5425    1.9797   -1.9611 H   0  0  0  0  0  0  0  0  0  0  0  0
  2  1  1  0
  2  3  1  0
  2  4  1  0
  4  5  1  0
  5  6  1  0
  3  7  1  0
  6  7  1  0
  2  8  1  0
  8  9  1  0
  9 10  1  0
 10 11  1  0
 10 12  1  0
  8 13  1  0
 13 14  1  0
 14 15  1  0
 15 16  1  0
 16 17  1  0
 16 18  1  0
 13 19  1  0
 18 19  1  0
  1 20  1  0
  3 21  1  0
  3 22  1  0
  4 23  1  0
  4 24  1  0
  5 25  1  0
  5 26  1  0
  6 27  1  0
  6 28  1  0
  7 29  1  0
  7 30  1  0
  8 31  1  6
  9 32  1  0
  9 33  1  0
 11 34  1  0
 11 35  1  0
 11 36  1  0
 12 37  1  0
 12 38  1  0
 12 39  1  0
 13 40  1  0
 14 41  1  0
 14 42  1  0
 15 43  1  0
 15 44  1  0
 16 45  1  0
 17 46  1  0
 18 47  1  0
 18 48  1  0
 19 49  1  0
 19 50  1  0
M  END
>  <PDBID>  (1) 
4MM7

>  <PDB ID>  (1) 
4MM7

>  <Generic Name>  (1) 
Desvenlafaxine

>  <Brand Name>  (1) 
Desvenlafaxine#Desvenlafaxine Extended-release#Desvenlafaxine Succinate#Gd-desvenlafaxine#Khedezla Extended-release#Pristiq#Pristiq Extended Release#Pristiq Extended-release#Pristiq Extended-release Extended-release#Zyven-OD

>  <DrugBank ID>  (1) 
DB06700

>  <ATC Codes>  (1) 
N06AX23

>  <Ligand ID>  (1) 
29J

>  <Target Name>  (1) 
Sodium-dependent noradrenaline transporter

>  <UniProt ID>  (1) 
P23975

>  <PDB ID.1>  (1) 
4MM7

>  <Seq. Identity>  (1) 
30%

$$$$
