PDB_DB01016_05
     RDKit          3D

316324  0  0  0  0  0  0  0  0999 V2000
    4.1122    2.5989   -1.8284 O   0  0  0  0  0  0  0  0  0  0  0  0
    3.6818   -0.2727    1.4384 O   0  0  0  0  0  0  0  0  0  0  0  0
    3.5161   -2.0757   -0.5029 O   0  0  0  0  0  0  0  0  0  0  0  0
   -4.6335   -0.5853    3.0119 O   0  0  0  0  0  0  0  0  0  0  0  0
   -5.7386   -3.4465    0.0371 Cl  0  0  0  0  0  0  0  0  0  0  0  0
    3.1624   -0.7177   -0.0651 S   0  0  0  0  0  0  0  0  0  0  0  0
   -6.3703    1.3494    0.0593 O   0  0  0  0  0  0  0  0  0  0  0  0
    5.6260    1.0355   -1.2382 N   0  0  0  0  0  0  0  0  0  0  0  0
    3.2953    0.5518   -1.1361 N   0  0  0  0  0  0  0  0  0  0  0  0
   -4.2278    1.0901    1.5618 N   0  0  0  0  0  0  0  0  0  0  0  0
    6.3133    0.1702   -0.3639 C   0  0  0  0  0  0  0  0  0  0  0  0
    6.6657    0.8064    0.9696 C   0  0  0  0  0  0  0  0  0  0  0  0
    7.6455   -0.1796   -1.0562 C   0  0  0  0  0  0  0  0  0  0  0  0
    8.0335    1.4393    0.8861 C   0  0  0  0  0  0  0  0  0  0  0  0
    8.6353   -0.7586   -0.0869 C   0  0  0  0  0  0  0  0  0  0  0  0
    9.0916    0.3495    0.8323 C   0  0  0  0  0  0  0  0  0  0  0  0
    4.3402    1.5217   -0.8752 C   0  0  0  0  0  0  0  0  0  0  0  0
    1.3438   -0.7248    0.2092 C   0  0  0  0  0  0  0  0  0  0  0  0
   -1.1253   -0.2346   -0.0968 C   0  0  0  0  0  0  0  0  0  0  0  0
   -2.6288   -0.0356   -0.0282 C   0  0  0  0  0  0  0  0  0  0  0  0
    1.0148    0.6880    0.5415 C   0  0  0  0  0  0  0  0  0  0  0  0
    0.8295   -1.1875   -1.1457 C   0  0  0  0  0  0  0  0  0  0  0  0
   -0.3155    1.0213   -0.1662 C   0  0  0  0  0  0  0  0  0  0  0  0
   -0.6986   -1.1249   -1.2228 C   0  0  0  0  0  0  0  0  0  0  0  0
   -2.9421    0.7176    1.2233 C   0  0  0  0  0  0  0  0  0  0  0  0
   -5.1974    0.1964    1.9297 C   0  0  0  0  0  0  0  0  0  0  0  0
   -5.7923   -0.7505    0.9372 C   0  0  0  0  0  0  0  0  0  0  0  0
   -6.4246   -0.0064   -0.2144 C   0  0  0  0  0  0  0  0  0  0  0  0
   -6.8551   -1.6313    1.6347 C   0  0  0  0  0  0  0  0  0  0  0  0
   -7.8559   -0.4725   -0.4033 C   0  0  0  0  0  0  0  0  0  0  0  0
   -7.2406   -2.6644    0.6227 C   0  0  0  0  0  0  0  0  0  0  0  0
   -7.8482   -1.9673   -0.5861 C   0  0  0  0  0  0  0  0  0  0  0  0
   -5.8051    2.1531   -0.8745 C   0  0  0  0  0  0  0  0  0  0  0  0
    4.1122    2.5989   -1.8284 O   0  0  0  0  0  0  0  0  0  0  0  0
    3.6818   -0.2727    1.4384 O   0  0  0  0  0  0  0  0  0  0  0  0
    3.5161   -2.0757   -0.5029 O   0  0  0  0  0  0  0  0  0  0  0  0
   -4.6335   -0.5853    3.0119 O   0  0  0  0  0  0  0  0  0  0  0  0
   -5.7386   -3.4465    0.0371 Cl  0  0  0  0  0  0  0  0  0  0  0  0
    3.1624   -0.7177   -0.0651 S   0  0  0  0  0  0  0  0  0  0  0  0
   -6.3703    1.3494    0.0593 O   0  0  0  0  0  0  0  0  0  0  0  0
    5.6260    1.0355   -1.2382 N   0  0  0  0  0  0  0  0  0  0  0  0
    3.2953    0.5518   -1.1361 N   0  0  0  0  0  0  0  0  0  0  0  0
   -4.2278    1.0901    1.5618 N   0  0  0  0  0  0  0  0  0  0  0  0
    6.3133    0.1702   -0.3639 C   0  0  0  0  0  0  0  0  0  0  0  0
    6.6657    0.8064    0.9696 C   0  0  0  0  0  0  0  0  0  0  0  0
    7.6455   -0.1796   -1.0562 C   0  0  0  0  0  0  0  0  0  0  0  0
    8.0335    1.4393    0.8861 C   0  0  0  0  0  0  0  0  0  0  0  0
    8.6353   -0.7586   -0.0869 C   0  0  0  0  0  0  0  0  0  0  0  0
    9.0916    0.3495    0.8323 C   0  0  0  0  0  0  0  0  0  0  0  0
    4.3402    1.5217   -0.8752 C   0  0  0  0  0  0  0  0  0  0  0  0
    1.3438   -0.7248    0.2092 C   0  0  0  0  0  0  0  0  0  0  0  0
   -1.1253   -0.2346   -0.0968 C   0  0  0  0  0  0  0  0  0  0  0  0
   -2.6288   -0.0356   -0.0282 C   0  0  0  0  0  0  0  0  0  0  0  0
    1.0148    0.6880    0.5415 C   0  0  0  0  0  0  0  0  0  0  0  0
    0.8295   -1.1875   -1.1457 C   0  0  0  0  0  0  0  0  0  0  0  0
   -0.3155    1.0213   -0.1662 C   0  0  0  0  0  0  0  0  0  0  0  0
   -0.6986   -1.1249   -1.2228 C   0  0  0  0  0  0  0  0  0  0  0  0
   -2.9421    0.7176    1.2233 C   0  0  0  0  0  0  0  0  0  0  0  0
   -5.1974    0.1964    1.9297 C   0  0  0  0  0  0  0  0  0  0  0  0
   -5.7923   -0.7505    0.9372 C   0  0  0  0  0  0  0  0  0  0  0  0
   -6.4246   -0.0064   -0.2144 C   0  0  0  0  0  0  0  0  0  0  0  0
   -6.8551   -1.6313    1.6347 C   0  0  0  0  0  0  0  0  0  0  0  0
   -7.8559   -0.4725   -0.4033 C   0  0  0  0  0  0  0  0  0  0  0  0
   -7.2406   -2.6644    0.6227 C   0  0  0  0  0  0  0  0  0  0  0  0
   -7.8482   -1.9673   -0.5861 C   0  0  0  0  0  0  0  0  0  0  0  0
   -5.8051    2.1531   -0.8745 C   0  0  0  0  0  0  0  0  0  0  0  0
    4.1122    2.5989   -1.8284 O   0  0  0  0  0  0  0  0  0  0  0  0
    3.6818   -0.2727    1.4384 O   0  0  0  0  0  0  0  0  0  0  0  0
    3.5161   -2.0757   -0.5029 O   0  0  0  0  0  0  0  0  0  0  0  0
   -4.6335   -0.5853    3.0119 O   0  0  0  0  0  0  0  0  0  0  0  0
   -5.7386   -3.4465    0.0371 Cl  0  0  0  0  0  0  0  0  0  0  0  0
    3.1624   -0.7177   -0.0651 S   0  0  0  0  0  0  0  0  0  0  0  0
   -6.3703    1.3494    0.0593 O   0  0  0  0  0  0  0  0  0  0  0  0
    5.6260    1.0355   -1.2382 N   0  0  0  0  0  0  0  0  0  0  0  0
    3.2953    0.5518   -1.1361 N   0  0  0  0  0  0  0  0  0  0  0  0
   -4.2278    1.0901    1.5618 N   0  0  0  0  0  0  0  0  0  0  0  0
    6.3133    0.1702   -0.3639 C   0  0  0  0  0  0  0  0  0  0  0  0
    6.6657    0.8064    0.9696 C   0  0  0  0  0  0  0  0  0  0  0  0
    7.6455   -0.1796   -1.0562 C   0  0  0  0  0  0  0  0  0  0  0  0
    8.0335    1.4393    0.8861 C   0  0  0  0  0  0  0  0  0  0  0  0
    8.6353   -0.7586   -0.0869 C   0  0  0  0  0  0  0  0  0  0  0  0
    9.0916    0.3495    0.8323 C   0  0  0  0  0  0  0  0  0  0  0  0
    4.3402    1.5217   -0.8752 C   0  0  0  0  0  0  0  0  0  0  0  0
    1.3438   -0.7248    0.2092 C   0  0  0  0  0  0  0  0  0  0  0  0
   -1.1253   -0.2346   -0.0968 C   0  0  0  0  0  0  0  0  0  0  0  0
   -2.6288   -0.0356   -0.0282 C   0  0  0  0  0  0  0  0  0  0  0  0
    1.0148    0.6880    0.5415 C   0  0  0  0  0  0  0  0  0  0  0  0
    0.8295   -1.1875   -1.1457 C   0  0  0  0  0  0  0  0  0  0  0  0
   -0.3155    1.0213   -0.1662 C   0  0  0  0  0  0  0  0  0  0  0  0
   -0.6986   -1.1249   -1.2228 C   0  0  0  0  0  0  0  0  0  0  0  0
   -2.9421    0.7176    1.2233 C   0  0  0  0  0  0  0  0  0  0  0  0
   -5.1974    0.1964    1.9297 C   0  0  0  0  0  0  0  0  0  0  0  0
   -5.7923   -0.7505    0.9372 C   0  0  0  0  0  0  0  0  0  0  0  0
   -6.4246   -0.0064   -0.2144 C   0  0  0  0  0  0  0  0  0  0  0  0
   -6.8551   -1.6313    1.6347 C   0  0  0  0  0  0  0  0  0  0  0  0
   -7.8559   -0.4725   -0.4033 C   0  0  0  0  0  0  0  0  0  0  0  0
   -7.2406   -2.6644    0.6227 C   0  0  0  0  0  0  0  0  0  0  0  0
   -7.8482   -1.9673   -0.5861 C   0  0  0  0  0  0  0  0  0  0  0  0
   -5.8051    2.1531   -0.8745 C   0  0  0  0  0  0  0  0  0  0  0  0
    4.1122    2.5989   -1.8284 O   0  0  0  0  0  0  0  0  0  0  0  0
    3.6818   -0.2727    1.4384 O   0  0  0  0  0  0  0  0  0  0  0  0
    3.5161   -2.0757   -0.5029 O   0  0  0  0  0  0  0  0  0  0  0  0
   -4.6335   -0.5853    3.0119 O   0  0  0  0  0  0  0  0  0  0  0  0
   -5.7386   -3.4465    0.0371 Cl  0  0  0  0  0  0  0  0  0  0  0  0
    3.1624   -0.7177   -0.0651 S   0  0  0  0  0  0  0  0  0  0  0  0
   -6.3703    1.3494    0.0593 O   0  0  0  0  0  0  0  0  0  0  0  0
    5.6260    1.0355   -1.2382 N   0  0  0  0  0  0  0  0  0  0  0  0
    3.2953    0.5518   -1.1361 N   0  0  0  0  0  0  0  0  0  0  0  0
   -4.2278    1.0901    1.5618 N   0  0  0  0  0  0  0  0  0  0  0  0
    6.3133    0.1702   -0.3639 C   0  0  0  0  0  0  0  0  0  0  0  0
    6.6657    0.8064    0.9696 C   0  0  0  0  0  0  0  0  0  0  0  0
    7.6455   -0.1796   -1.0562 C   0  0  0  0  0  0  0  0  0  0  0  0
    8.0335    1.4393    0.8861 C   0  0  0  0  0  0  0  0  0  0  0  0
    8.6353   -0.7586   -0.0869 C   0  0  0  0  0  0  0  0  0  0  0  0
    9.0916    0.3495    0.8323 C   0  0  0  0  0  0  0  0  0  0  0  0
    4.3402    1.5217   -0.8752 C   0  0  0  0  0  0  0  0  0  0  0  0
    1.3438   -0.7248    0.2092 C   0  0  0  0  0  0  0  0  0  0  0  0
   -1.1253   -0.2346   -0.0968 C   0  0  0  0  0  0  0  0  0  0  0  0
   -2.6288   -0.0356   -0.0282 C   0  0  0  0  0  0  0  0  0  0  0  0
    1.0148    0.6880    0.5415 C   0  0  0  0  0  0  0  0  0  0  0  0
    0.8295   -1.1875   -1.1457 C   0  0  0  0  0  0  0  0  0  0  0  0
   -0.3155    1.0213   -0.1662 C   0  0  0  0  0  0  0  0  0  0  0  0
   -0.6986   -1.1249   -1.2228 C   0  0  0  0  0  0  0  0  0  0  0  0
   -2.9421    0.7176    1.2233 C   0  0  0  0  0  0  0  0  0  0  0  0
   -5.1974    0.1964    1.9297 C   0  0  0  0  0  0  0  0  0  0  0  0
   -5.7923   -0.7505    0.9372 C   0  0  0  0  0  0  0  0  0  0  0  0
   -6.4246   -0.0064   -0.2144 C   0  0  0  0  0  0  0  0  0  0  0  0
   -6.8551   -1.6313    1.6347 C   0  0  0  0  0  0  0  0  0  0  0  0
   -7.8559   -0.4725   -0.4033 C   0  0  0  0  0  0  0  0  0  0  0  0
   -7.2406   -2.6644    0.6227 C   0  0  0  0  0  0  0  0  0  0  0  0
   -7.8482   -1.9673   -0.5861 C   0  0  0  0  0  0  0  0  0  0  0  0
   -5.8051    2.1531   -0.8745 C   0  0  0  0  0  0  0  0  0  0  0  0
    3.3528    3.1367   -1.4940 H   0  0  0  0  0  0  0  0  0  0  0  0
    3.0071    0.2484    1.9658 H   0  0  0  0  0  0  0  0  0  0  0  0
    3.0233   -2.8881   -0.2686 H   0  0  0  0  0  0  0  0  0  0  0  0
   -4.3060    0.1269    3.6431 H   0  0  0  0  0  0  0  0  0  0  0  0
    6.2523    1.7225   -1.7119 H   0  0  0  0  0  0  0  0  0  0  0  0
    3.3067    0.2044   -2.1023 H   0  0  0  0  0  0  0  0  0  0  0  0
   -4.3804    2.1036    1.7736 H   0  0  0  0  0  0  0  0  0  0  0  0
    5.8295   -0.7818   -0.1862 H   0  0  0  0  0  0  0  0  0  0  0  0
    6.7239    0.0087    1.7257 H   0  0  0  0  0  0  0  0  0  0  0  0
    5.9613    1.5864    1.2618 H   0  0  0  0  0  0  0  0  0  0  0  0
    7.3711   -0.8821   -1.8584 H   0  0  0  0  0  0  0  0  0  0  0  0
    7.9972    0.7661   -1.5149 H   0  0  0  0  0  0  0  0  0  0  0  0
    8.1241    2.1221    0.0116 H   0  0  0  0  0  0  0  0  0  0  0  0
    8.2256    2.0078    1.8194 H   0  0  0  0  0  0  0  0  0  0  0  0
    8.1200   -1.5845    0.4642 H   0  0  0  0  0  0  0  0  0  0  0  0
    9.4867   -1.1428   -0.6781 H   0  0  0  0  0  0  0  0  0  0  0  0
    9.2278   -0.0581    1.8556 H   0  0  0  0  0  0  0  0  0  0  0  0
   10.0211    0.7999    0.4414 H   0  0  0  0  0  0  0  0  0  0  0  0
    4.2990    1.9781    0.1118 H   0  0  0  0  0  0  0  0  0  0  0  0
    1.1412   -1.4544    0.9978 H   0  0  0  0  0  0  0  0  0  0  0  0
   -0.8855   -0.8196    0.8479 H   0  0  0  0  0  0  0  0  0  0  0  0
   -3.0248   -1.0724    0.0056 H   0  0  0  0  0  0  0  0  0  0  0  0
   -2.9991    0.4552   -0.9310 H   0  0  0  0  0  0  0  0  0  0  0  0
    1.7816    1.4176    0.2355 H   0  0  0  0  0  0  0  0  0  0  0  0
    0.7901    0.7516    1.6244 H   0  0  0  0  0  0  0  0  0  0  0  0
    1.3187   -0.5897   -1.9234 H   0  0  0  0  0  0  0  0  0  0  0  0
    1.1293   -2.2523   -1.2323 H   0  0  0  0  0  0  0  0  0  0  0  0
   -0.7512    1.9305    0.2130 H   0  0  0  0  0  0  0  0  0  0  0  0
    0.0044    1.1876   -1.2532 H   0  0  0  0  0  0  0  0  0  0  0  0
   -1.1365   -2.1424   -1.1740 H   0  0  0  0  0  0  0  0  0  0  0  0
   -0.9379   -0.6104   -2.1756 H   0  0  0  0  0  0  0  0  0  0  0  0
   -2.3153    1.6887    1.2615 H   0  0  0  0  0  0  0  0  0  0  0  0
   -2.4136    0.1637    2.1085 H   0  0  0  0  0  0  0  0  0  0  0  0
   -6.0421    0.7301    2.4996 H   0  0  0  0  0  0  0  0  0  0  0  0
   -5.0525   -1.4802    0.5958 H   0  0  0  0  0  0  0  0  0  0  0  0
   -5.9268   -0.1854   -1.1790 H   0  0  0  0  0  0  0  0  0  0  0  0
   -7.6563   -1.0587    2.0813 H   0  0  0  0  0  0  0  0  0  0  0  0
   -6.2927   -2.1577    2.4403 H   0  0  0  0  0  0  0  0  0  0  0  0
   -8.5101   -0.2442    0.4503 H   0  0  0  0  0  0  0  0  0  0  0  0
   -8.2348   -0.0388   -1.3599 H   0  0  0  0  0  0  0  0  0  0  0  0
   -7.9303   -3.3844    1.1027 H   0  0  0  0  0  0  0  0  0  0  0  0
   -8.9379   -2.2618   -0.6131 H   0  0  0  0  0  0  0  0  0  0  0  0
   -7.4117   -2.3225   -1.5174 H   0  0  0  0  0  0  0  0  0  0  0  0
   -5.8638    3.2080   -0.4622 H   0  0  0  0  0  0  0  0  0  0  0  0
   -4.7518    1.9991   -1.0958 H   0  0  0  0  0  0  0  0  0  0  0  0
   -6.3409    2.2153   -1.8432 H   0  0  0  0  0  0  0  0  0  0  0  0
    3.3528    3.1367   -1.4940 H   0  0  0  0  0  0  0  0  0  0  0  0
    3.0071    0.2484    1.9658 H   0  0  0  0  0  0  0  0  0  0  0  0
    3.0233   -2.8881   -0.2686 H   0  0  0  0  0  0  0  0  0  0  0  0
   -4.3060    0.1269    3.6431 H   0  0  0  0  0  0  0  0  0  0  0  0
    6.2523    1.7225   -1.7119 H   0  0  0  0  0  0  0  0  0  0  0  0
    3.3067    0.2044   -2.1023 H   0  0  0  0  0  0  0  0  0  0  0  0
   -4.3804    2.1036    1.7736 H   0  0  0  0  0  0  0  0  0  0  0  0
    5.8295   -0.7818   -0.1862 H   0  0  0  0  0  0  0  0  0  0  0  0
    6.7239    0.0087    1.7257 H   0  0  0  0  0  0  0  0  0  0  0  0
    5.9613    1.5864    1.2618 H   0  0  0  0  0  0  0  0  0  0  0  0
    7.3711   -0.8821   -1.8584 H   0  0  0  0  0  0  0  0  0  0  0  0
    7.9972    0.7661   -1.5149 H   0  0  0  0  0  0  0  0  0  0  0  0
    8.1241    2.1221    0.0116 H   0  0  0  0  0  0  0  0  0  0  0  0
    8.2256    2.0078    1.8194 H   0  0  0  0  0  0  0  0  0  0  0  0
    8.1200   -1.5845    0.4642 H   0  0  0  0  0  0  0  0  0  0  0  0
    9.4867   -1.1428   -0.6781 H   0  0  0  0  0  0  0  0  0  0  0  0
    9.2278   -0.0581    1.8556 H   0  0  0  0  0  0  0  0  0  0  0  0
   10.0211    0.7999    0.4414 H   0  0  0  0  0  0  0  0  0  0  0  0
    4.2990    1.9781    0.1118 H   0  0  0  0  0  0  0  0  0  0  0  0
    1.1412   -1.4544    0.9978 H   0  0  0  0  0  0  0  0  0  0  0  0
   -0.8855   -0.8196    0.8479 H   0  0  0  0  0  0  0  0  0  0  0  0
   -3.0248   -1.0724    0.0056 H   0  0  0  0  0  0  0  0  0  0  0  0
   -2.9991    0.4552   -0.9310 H   0  0  0  0  0  0  0  0  0  0  0  0
    1.7816    1.4176    0.2355 H   0  0  0  0  0  0  0  0  0  0  0  0
    0.7901    0.7516    1.6244 H   0  0  0  0  0  0  0  0  0  0  0  0
    1.3187   -0.5897   -1.9234 H   0  0  0  0  0  0  0  0  0  0  0  0
    1.1293   -2.2523   -1.2323 H   0  0  0  0  0  0  0  0  0  0  0  0
   -0.7512    1.9305    0.2130 H   0  0  0  0  0  0  0  0  0  0  0  0
    0.0044    1.1876   -1.2532 H   0  0  0  0  0  0  0  0  0  0  0  0
   -1.1365   -2.1424   -1.1740 H   0  0  0  0  0  0  0  0  0  0  0  0
   -0.9379   -0.6104   -2.1756 H   0  0  0  0  0  0  0  0  0  0  0  0
   -2.3153    1.6887    1.2615 H   0  0  0  0  0  0  0  0  0  0  0  0
   -2.4136    0.1637    2.1085 H   0  0  0  0  0  0  0  0  0  0  0  0
   -6.0421    0.7301    2.4996 H   0  0  0  0  0  0  0  0  0  0  0  0
   -5.0525   -1.4802    0.5958 H   0  0  0  0  0  0  0  0  0  0  0  0
   -5.9268   -0.1854   -1.1790 H   0  0  0  0  0  0  0  0  0  0  0  0
   -7.6563   -1.0587    2.0813 H   0  0  0  0  0  0  0  0  0  0  0  0
   -6.2927   -2.1577    2.4403 H   0  0  0  0  0  0  0  0  0  0  0  0
   -8.5101   -0.2442    0.4503 H   0  0  0  0  0  0  0  0  0  0  0  0
   -8.2348   -0.0388   -1.3599 H   0  0  0  0  0  0  0  0  0  0  0  0
   -7.9303   -3.3844    1.1027 H   0  0  0  0  0  0  0  0  0  0  0  0
   -8.9379   -2.2618   -0.6131 H   0  0  0  0  0  0  0  0  0  0  0  0
   -7.4117   -2.3225   -1.5174 H   0  0  0  0  0  0  0  0  0  0  0  0
   -5.8638    3.2080   -0.4622 H   0  0  0  0  0  0  0  0  0  0  0  0
   -4.7518    1.9991   -1.0958 H   0  0  0  0  0  0  0  0  0  0  0  0
   -6.3409    2.2153   -1.8432 H   0  0  0  0  0  0  0  0  0  0  0  0
    3.3528    3.1367   -1.4940 H   0  0  0  0  0  0  0  0  0  0  0  0
    3.0071    0.2484    1.9658 H   0  0  0  0  0  0  0  0  0  0  0  0
    3.0233   -2.8881   -0.2686 H   0  0  0  0  0  0  0  0  0  0  0  0
   -4.3060    0.1269    3.6431 H   0  0  0  0  0  0  0  0  0  0  0  0
    6.2523    1.7225   -1.7119 H   0  0  0  0  0  0  0  0  0  0  0  0
    3.3067    0.2044   -2.1023 H   0  0  0  0  0  0  0  0  0  0  0  0
   -4.3804    2.1036    1.7736 H   0  0  0  0  0  0  0  0  0  0  0  0
    5.8295   -0.7818   -0.1862 H   0  0  0  0  0  0  0  0  0  0  0  0
    6.7239    0.0087    1.7257 H   0  0  0  0  0  0  0  0  0  0  0  0
    5.9613    1.5864    1.2618 H   0  0  0  0  0  0  0  0  0  0  0  0
    7.3711   -0.8821   -1.8584 H   0  0  0  0  0  0  0  0  0  0  0  0
    7.9972    0.7661   -1.5149 H   0  0  0  0  0  0  0  0  0  0  0  0
    8.1241    2.1221    0.0116 H   0  0  0  0  0  0  0  0  0  0  0  0
    8.2256    2.0078    1.8194 H   0  0  0  0  0  0  0  0  0  0  0  0
    8.1200   -1.5845    0.4642 H   0  0  0  0  0  0  0  0  0  0  0  0
    9.4867   -1.1428   -0.6781 H   0  0  0  0  0  0  0  0  0  0  0  0
    9.2278   -0.0581    1.8556 H   0  0  0  0  0  0  0  0  0  0  0  0
   10.0211    0.7999    0.4414 H   0  0  0  0  0  0  0  0  0  0  0  0
    4.2990    1.9781    0.1118 H   0  0  0  0  0  0  0  0  0  0  0  0
    1.1412   -1.4544    0.9978 H   0  0  0  0  0  0  0  0  0  0  0  0
   -0.8855   -0.8196    0.8479 H   0  0  0  0  0  0  0  0  0  0  0  0
   -3.0248   -1.0724    0.0056 H   0  0  0  0  0  0  0  0  0  0  0  0
   -2.9991    0.4552   -0.9310 H   0  0  0  0  0  0  0  0  0  0  0  0
    1.7816    1.4176    0.2355 H   0  0  0  0  0  0  0  0  0  0  0  0
    0.7901    0.7516    1.6244 H   0  0  0  0  0  0  0  0  0  0  0  0
    1.3187   -0.5897   -1.9234 H   0  0  0  0  0  0  0  0  0  0  0  0
    1.1293   -2.2523   -1.2323 H   0  0  0  0  0  0  0  0  0  0  0  0
   -0.7512    1.9305    0.2130 H   0  0  0  0  0  0  0  0  0  0  0  0
    0.0044    1.1876   -1.2532 H   0  0  0  0  0  0  0  0  0  0  0  0
   -1.1365   -2.1424   -1.1740 H   0  0  0  0  0  0  0  0  0  0  0  0
   -0.9379   -0.6104   -2.1756 H   0  0  0  0  0  0  0  0  0  0  0  0
   -2.3153    1.6887    1.2615 H   0  0  0  0  0  0  0  0  0  0  0  0
   -2.4136    0.1637    2.1085 H   0  0  0  0  0  0  0  0  0  0  0  0
   -6.0421    0.7301    2.4996 H   0  0  0  0  0  0  0  0  0  0  0  0
   -5.0525   -1.4802    0.5958 H   0  0  0  0  0  0  0  0  0  0  0  0
   -5.9268   -0.1854   -1.1790 H   0  0  0  0  0  0  0  0  0  0  0  0
   -7.6563   -1.0587    2.0813 H   0  0  0  0  0  0  0  0  0  0  0  0
   -6.2927   -2.1577    2.4403 H   0  0  0  0  0  0  0  0  0  0  0  0
   -8.5101   -0.2442    0.4503 H   0  0  0  0  0  0  0  0  0  0  0  0
   -8.2348   -0.0388   -1.3599 H   0  0  0  0  0  0  0  0  0  0  0  0
   -7.9303   -3.3844    1.1027 H   0  0  0  0  0  0  0  0  0  0  0  0
   -8.9379   -2.2618   -0.6131 H   0  0  0  0  0  0  0  0  0  0  0  0
   -7.4117   -2.3225   -1.5174 H   0  0  0  0  0  0  0  0  0  0  0  0
   -5.8638    3.2080   -0.4622 H   0  0  0  0  0  0  0  0  0  0  0  0
   -4.7518    1.9991   -1.0958 H   0  0  0  0  0  0  0  0  0  0  0  0
   -6.3409    2.2153   -1.8432 H   0  0  0  0  0  0  0  0  0  0  0  0
    3.3528    3.1367   -1.4940 H   0  0  0  0  0  0  0  0  0  0  0  0
    3.0071    0.2484    1.9658 H   0  0  0  0  0  0  0  0  0  0  0  0
    3.0233   -2.8881   -0.2686 H   0  0  0  0  0  0  0  0  0  0  0  0
   -4.3060    0.1269    3.6431 H   0  0  0  0  0  0  0  0  0  0  0  0
    6.2523    1.7225   -1.7119 H   0  0  0  0  0  0  0  0  0  0  0  0
    3.3067    0.2044   -2.1023 H   0  0  0  0  0  0  0  0  0  0  0  0
   -4.3804    2.1036    1.7736 H   0  0  0  0  0  0  0  0  0  0  0  0
    5.8295   -0.7818   -0.1862 H   0  0  0  0  0  0  0  0  0  0  0  0
    6.7239    0.0087    1.7257 H   0  0  0  0  0  0  0  0  0  0  0  0
    5.9613    1.5864    1.2618 H   0  0  0  0  0  0  0  0  0  0  0  0
    7.3711   -0.8821   -1.8584 H   0  0  0  0  0  0  0  0  0  0  0  0
    7.9972    0.7661   -1.5149 H   0  0  0  0  0  0  0  0  0  0  0  0
    8.1241    2.1221    0.0116 H   0  0  0  0  0  0  0  0  0  0  0  0
    8.2256    2.0078    1.8194 H   0  0  0  0  0  0  0  0  0  0  0  0
    8.1200   -1.5845    0.4642 H   0  0  0  0  0  0  0  0  0  0  0  0
    9.4867   -1.1428   -0.6781 H   0  0  0  0  0  0  0  0  0  0  0  0
    9.2278   -0.0581    1.8556 H   0  0  0  0  0  0  0  0  0  0  0  0
   10.0211    0.7999    0.4414 H   0  0  0  0  0  0  0  0  0  0  0  0
    4.2990    1.9781    0.1118 H   0  0  0  0  0  0  0  0  0  0  0  0
    1.1412   -1.4544    0.9978 H   0  0  0  0  0  0  0  0  0  0  0  0
   -0.8855   -0.8196    0.8479 H   0  0  0  0  0  0  0  0  0  0  0  0
   -3.0248   -1.0724    0.0056 H   0  0  0  0  0  0  0  0  0  0  0  0
   -2.9991    0.4552   -0.9310 H   0  0  0  0  0  0  0  0  0  0  0  0
    1.7816    1.4176    0.2355 H   0  0  0  0  0  0  0  0  0  0  0  0
    0.7901    0.7516    1.6244 H   0  0  0  0  0  0  0  0  0  0  0  0
    1.3187   -0.5897   -1.9234 H   0  0  0  0  0  0  0  0  0  0  0  0
    1.1293   -2.2523   -1.2323 H   0  0  0  0  0  0  0  0  0  0  0  0
   -0.7512    1.9305    0.2130 H   0  0  0  0  0  0  0  0  0  0  0  0
    0.0044    1.1876   -1.2532 H   0  0  0  0  0  0  0  0  0  0  0  0
   -1.1365   -2.1424   -1.1740 H   0  0  0  0  0  0  0  0  0  0  0  0
   -0.9379   -0.6104   -2.1756 H   0  0  0  0  0  0  0  0  0  0  0  0
   -2.3153    1.6887    1.2615 H   0  0  0  0  0  0  0  0  0  0  0  0
   -2.4136    0.1637    2.1085 H   0  0  0  0  0  0  0  0  0  0  0  0
   -6.0421    0.7301    2.4996 H   0  0  0  0  0  0  0  0  0  0  0  0
   -5.0525   -1.4802    0.5958 H   0  0  0  0  0  0  0  0  0  0  0  0
   -5.9268   -0.1854   -1.1790 H   0  0  0  0  0  0  0  0  0  0  0  0
   -7.6563   -1.0587    2.0813 H   0  0  0  0  0  0  0  0  0  0  0  0
   -6.2927   -2.1577    2.4403 H   0  0  0  0  0  0  0  0  0  0  0  0
   -8.5101   -0.2442    0.4503 H   0  0  0  0  0  0  0  0  0  0  0  0
   -8.2348   -0.0388   -1.3599 H   0  0  0  0  0  0  0  0  0  0  0  0
   -7.9303   -3.3844    1.1027 H   0  0  0  0  0  0  0  0  0  0  0  0
   -8.9379   -2.2618   -0.6131 H   0  0  0  0  0  0  0  0  0  0  0  0
   -7.4117   -2.3225   -1.5174 H   0  0  0  0  0  0  0  0  0  0  0  0
   -5.8638    3.2080   -0.4622 H   0  0  0  0  0  0  0  0  0  0  0  0
   -4.7518    1.9991   -1.0958 H   0  0  0  0  0  0  0  0  0  0  0  0
   -6.3409    2.2153   -1.8432 H   0  0  0  0  0  0  0  0  0  0  0  0
  6  2  1  0
  3  6  1  0
  6  9  1  0
  8 11  1  0
 11 12  1  0
 11 13  1  0
 12 14  1  0
 13 15  1  0
 14 16  1  0
 15 16  1  0
  1 17  1  0
  8 17  1  0
  9 17  1  0
  6 18  1  0
 19 20  1  0
 18 21  1  0
 18 22  1  0
 19 23  1  0
 21 23  1  0
 19 24  1  0
 22 24  1  0
 10 25  1  0
 20 25  1  0
  4 26  1  0
 10 26  1  0
 26 27  1  0
  7 28  1  0
 27 28  1  0
 27 29  1  0
 28 30  1  0
  5 31  1  0
 29 31  1  0
 30 32  1  0
 31 32  1  0
  7 33  1  0
 39 35  1  0
 36 39  1  0
 39 42  1  0
 41 44  1  0
 44 45  1  0
 44 46  1  0
 45 47  1  0
 46 48  1  0
 47 49  1  0
 48 49  1  0
 34 50  1  0
 41 50  1  0
 42 50  1  0
 39 51  1  0
 52 53  1  0
 51 54  1  0
 51 55  1  0
 52 56  1  0
 54 56  1  0
 52 57  1  0
 55 57  1  0
 43 58  1  0
 53 58  1  0
 37 59  1  0
 43 59  1  0
 59 60  1  0
 40 61  1  0
 60 61  1  0
 60 62  1  0
 61 63  1  0
 38 64  1  0
 62 64  1  0
 63 65  1  0
 64 65  1  0
 40 66  1  0
 72 68  1  0
 69 72  1  0
 72 75  1  0
 74 77  1  0
 77 78  1  0
 77 79  1  0
 78 80  1  0
 79 81  1  0
 80 82  1  0
 81 82  1  0
 67 83  1  0
 74 83  1  0
 75 83  1  0
 72 84  1  0
 85 86  1  0
 84 87  1  0
 84 88  1  0
 85 89  1  0
 87 89  1  0
 85 90  1  0
 88 90  1  0
 76 91  1  0
 86 91  1  0
 70 92  1  0
 76 92  1  0
 92 93  1  0
 73 94  1  0
 93 94  1  0
 93 95  1  0
 94 96  1  0
 71 97  1  0
 95 97  1  0
 96 98  1  0
 97 98  1  0
 73 99  1  0
105101  1  0
102105  1  0
105108  1  0
107110  1  0
110111  1  0
110112  1  0
111113  1  0
112114  1  0
113115  1  0
114115  1  0
100116  1  0
107116  1  0
108116  1  0
105117  1  0
118119  1  0
117120  1  0
117121  1  0
118122  1  0
120122  1  0
118123  1  0
121123  1  0
109124  1  0
119124  1  0
103125  1  0
109125  1  0
125126  1  0
106127  1  0
126127  1  0
126128  1  0
127129  1  0
104130  1  0
128130  1  0
129131  1  0
130131  1  0
106132  1  0
  1133  1  0
  2134  1  0
  3135  1  0
  4136  1  0
  8137  1  0
  9138  1  0
 10139  1  0
 11140  1  0
 12141  1  0
 12142  1  0
 13143  1  0
 13144  1  0
 14145  1  0
 14146  1  0
 15147  1  0
 15148  1  0
 16149  1  0
 16150  1  0
 17151  1  0
 18152  1  0
 19153  1  0
 20154  1  0
 20155  1  0
 21156  1  0
 21157  1  0
 22158  1  0
 22159  1  0
 23160  1  0
 23161  1  0
 24162  1  0
 24163  1  0
 25164  1  0
 25165  1  0
 26166  1  0
 27167  1  0
 28168  1  0
 29169  1  0
 29170  1  0
 30171  1  0
 30172  1  0
 31173  1  0
 32174  1  0
 32175  1  0
 33176  1  0
 33177  1  0
 33178  1  0
 34179  1  0
 35180  1  0
 36181  1  0
 37182  1  0
 41183  1  0
 42184  1  0
 43185  1  0
 44186  1  0
 45187  1  0
 45188  1  0
 46189  1  0
 46190  1  0
 47191  1  0
 47192  1  0
 48193  1  0
 48194  1  0
 49195  1  0
 49196  1  0
 50197  1  0
 51198  1  0
 52199  1  0
 53200  1  0
 53201  1  0
 54202  1  0
 54203  1  0
 55204  1  0
 55205  1  0
 56206  1  0
 56207  1  0
 57208  1  0
 57209  1  0
 58210  1  0
 58211  1  0
 59212  1  0
 60213  1  0
 61214  1  0
 62215  1  0
 62216  1  0
 63217  1  0
 63218  1  0
 64219  1  0
 65220  1  0
 65221  1  0
 66222  1  0
 66223  1  0
 66224  1  0
 67225  1  0
 68226  1  0
 69227  1  0
 70228  1  0
 74229  1  0
 75230  1  0
 76231  1  0
 77232  1  0
 78233  1  0
 78234  1  0
 79235  1  0
 79236  1  0
 80237  1  0
 80238  1  0
 81239  1  0
 81240  1  0
 82241  1  0
 82242  1  0
 83243  1  0
 84244  1  0
 85245  1  0
 86246  1  0
 86247  1  0
 87248  1  0
 87249  1  0
 88250  1  0
 88251  1  0
 89252  1  0
 89253  1  0
 90254  1  0
 90255  1  0
 91256  1  0
 91257  1  0
 92258  1  0
 93259  1  0
 94260  1  0
 95261  1  0
 95262  1  0
 96263  1  0
 96264  1  0
 97265  1  0
 98266  1  0
 98267  1  0
 99268  1  0
 99269  1  0
 99270  1  0
100271  1  0
101272  1  0
102273  1  0
103274  1  0
107275  1  0
108276  1  0
109277  1  0
110278  1  0
111279  1  0
111280  1  0
112281  1  0
112282  1  0
113283  1  0
113284  1  0
114285  1  0
114286  1  0
115287  1  0
115288  1  0
116289  1  0
117290  1  0
118291  1  0
119292  1  0
119293  1  0
120294  1  0
120295  1  0
121296  1  0
121297  1  0
122298  1  0
122299  1  0
123300  1  0
123301  1  0
124302  1  0
124303  1  0
125304  1  0
126305  1  0
127306  1  0
128307  1  0
128308  1  0
129309  1  0
129310  1  0
130311  1  0
131312  1  0
131313  1  0
132314  1  0
132315  1  0
132316  1  0
M  END
>  <PDBID>  (1) 
6BAA

>  <PDB ID>  (1) 
6BAA

>  <Generic Name>  (1) 
Glyburide

>  <Brand Name>  (1) 
Apo Glyburide Tab 2.5mg#Apo Glyburide Tab 5mg#Ava-glyburide#Diabeta#Diabeta 5mg#Diabeta Tab 2.5mg#Diabeta Tab 5mg#Diabeta Tablets 2.5mg#Dom-glyburide#Euglucon#Glucovance#Glyburide#Glyburide (micronized) and Metformin Hydrochloride#Glyburide Tablets 2.5mg#Glyburide Tablets 5mg#Glyburide and Metformin#Glyburide and Metformin Hydrochloride#Glyburide-2.5 Tab 2.5mg#Glyburide-5 Tab 5mg#Glyburide-metformin Hydrochloride#Glynase#Med Glybe Tab 2.5mg#Med Glybe Tab 5mg#Mylan-glybe#Ntp-glyburide#Nu-glyburide Tab 2.5mg#Nu-glyburide Tab 5mg#PMS-glyburide#Penta-glyburide - 2.5mg#Penta-glyburide - 5mg#Pro-glyburide#Ratio-glyburide#Riva-glyburide#Sandoz Glyburide#Teva-glyburide#Daonil#Delmide#Micronase#Novo-Glyburide#Semi-Daonil

>  <DrugBank ID>  (1) 
DB01016

>  <ATC Codes>  (1) 
A10BB01

>  <Ligand ID>  (1) 
GBM

>  <Target Name>  (1) 
ATP-sensitive inward rectifier potassium channel 11

>  <UniProt ID>  (1) 
Q14654

>  <PDB ID.1>  (1) 
6BAA

>  <Seq. Identity>  (1) 
94%

$$$$
