PDB_DB01764_02
     RDKit          3D

354360  0  0  0  0  0  0  0  0999 V2000
   -0.0298    1.5669    0.5432 O   0  0  0  0  0  0  0  0  0  0  0  0
   -0.0479    1.5304   -0.8683 C   0  0  0  0  0  0  0  0  0  0  0  0
    0.9909    0.6670   -1.2657 N   0  0  0  0  0  0  0  0  0  0  0  0
    1.6593    0.8870   -2.4804 C   0  0  0  0  0  0  0  0  0  0  0  0
    2.9808    1.5141   -2.0906 C   0  0  0  0  0  0  0  0  0  0  0  0
    3.3136    0.7141   -0.8300 C   0  0  1  0  0  0  0  0  0  0  0  0
    4.0237    1.7934    0.3971 S   0  0  0  0  0  0  0  0  0  0  0  0
    3.1142    2.9111    0.6843 O   0  0  0  0  0  0  0  0  0  0  0  0
    4.2144    0.7357    1.6710 O   0  0  0  0  0  0  0  0  0  0  0  0
    5.5914    2.1879   -0.2558 C   0  0  0  0  0  0  0  0  0  0  0  0
    6.4610    1.0023   -0.4460 C   0  0  0  0  0  0  0  0  0  0  0  0
    6.8195    0.2816    0.7421 N   0  0  0  0  0  0  0  0  0  0  0  0
    7.5168   -0.9252    0.5219 C   0  0  0  0  0  0  0  0  0  0  0  0
    8.8882   -0.8565   -0.0387 C   0  0  0  0  0  0  0  0  0  0  0  0
    7.3262    1.1043    1.7961 C   0  0  0  0  0  0  0  0  0  0  0  0
    8.6689    1.7407    1.5171 C   0  0  0  0  0  0  0  0  0  0  0  0
    1.9585    0.2954   -0.2937 C   0  0  2  0  0  0  0  0  0  0  0  0
   -0.1144    2.8641   -1.4856 C   0  0  2  0  0  0  0  0  0  0  0  0
   -0.1167    4.0270   -0.5290 C   0  0  0  0  0  0  0  0  0  0  0  0
   -1.4356    4.1801   -0.1301 O   0  0  0  0  0  0  0  0  0  0  0  0
   -1.4232    3.0779   -2.1312 N   0  0  0  0  0  0  0  0  0  0  0  0
   -2.2252    3.4180   -0.9654 C   0  0  0  0  0  0  0  0  0  0  0  0
   -3.4899    4.1054   -1.3968 C   0  0  0  0  0  0  0  0  0  0  0  0
   -4.4489    4.3602   -0.2949 C   0  0  1  0  0  0  0  0  0  0  0  0
   -5.5642    5.0116   -0.8198 O   0  0  0  0  0  0  0  0  0  0  0  0
   -4.9212    3.1459    0.4312 C   0  0  0  0  0  0  0  0  0  0  0  0
   -6.4241    2.9593    0.3849 C   0  0  2  0  0  0  0  0  0  0  0  0
   -7.0942    3.9332    1.1210 O   0  0  0  0  0  0  0  0  0  0  0  0
   -6.7321    1.6218    1.0104 C   0  0  0  0  0  0  0  0  0  0  0  0
   -6.1606    0.4622    0.2499 C   0  0  2  0  0  0  0  0  0  0  0  0
   -6.4274    0.5335   -1.2233 C   0  0  0  0  0  0  0  0  0  0  0  0
   -6.8700   -0.7980    0.7613 C   0  0  0  0  0  0  0  0  0  0  0  0
   -6.3916   -1.2025    2.1178 C   0  0  0  0  0  0  0  0  0  0  0  0
   -5.5500   -2.4750    2.0777 C   0  0  0  0  0  0  0  0  0  0  0  0
   -4.4155   -2.2583    1.1800 N   0  0  0  0  0  0  0  0  0  0  0  0
   -3.6234   -3.4462    1.0764 C   0  0  2  0  0  0  0  0  0  0  0  0
   -4.1729   -4.4358    1.9123 O   0  0  0  0  0  0  0  0  0  0  0  0
   -2.1961   -3.1430    1.5317 C   0  0  0  0  0  0  0  0  0  0  0  0
   -1.2395   -4.1229    0.9405 C   0  0  0  0  0  0  0  0  0  0  0  0
   -0.5854   -3.6885   -0.3288 C   0  0  1  0  0  0  0  0  0  0  0  0
   -1.4240   -2.7576   -1.1683 C   0  0  0  0  0  0  0  0  0  0  0  0
    0.8188   -3.1207   -0.1004 C   0  0  1  0  0  0  0  0  0  0  0  0
    1.8747   -4.0854   -0.5955 C   0  0  0  0  0  0  0  0  0  0  0  0
    1.7555   -5.3868    0.1417 C   0  0  0  0  0  0  0  0  0  0  0  0
    1.8101   -4.2797   -2.0862 C   0  0  0  0  0  0  0  0  0  0  0  0
    0.9378   -1.8558   -0.6603 O   0  0  0  0  0  0  0  0  0  0  0  0
    2.0047   -1.2050   -0.0747 C   0  0  0  0  0  0  0  0  0  0  0  0
    1.9870   -1.4855    1.2890 O   0  0  0  0  0  0  0  0  0  0  0  0
   -0.0298    1.5669    0.5432 O   0  0  0  0  0  0  0  0  0  0  0  0
   -0.0479    1.5304   -0.8683 C   0  0  0  0  0  0  0  0  0  0  0  0
    0.9909    0.6670   -1.2657 N   0  0  0  0  0  0  0  0  0  0  0  0
    1.6593    0.8870   -2.4804 C   0  0  0  0  0  0  0  0  0  0  0  0
    2.9808    1.5141   -2.0906 C   0  0  0  0  0  0  0  0  0  0  0  0
    3.3136    0.7141   -0.8300 C   0  0  1  0  0  0  0  0  0  0  0  0
    4.0237    1.7934    0.3971 S   0  0  0  0  0  0  0  0  0  0  0  0
    3.1142    2.9111    0.6843 O   0  0  0  0  0  0  0  0  0  0  0  0
    4.2144    0.7357    1.6710 O   0  0  0  0  0  0  0  0  0  0  0  0
    5.5914    2.1879   -0.2558 C   0  0  0  0  0  0  0  0  0  0  0  0
    6.4610    1.0023   -0.4460 C   0  0  0  0  0  0  0  0  0  0  0  0
    6.8195    0.2816    0.7421 N   0  0  0  0  0  0  0  0  0  0  0  0
    7.5168   -0.9252    0.5219 C   0  0  0  0  0  0  0  0  0  0  0  0
    8.8882   -0.8565   -0.0387 C   0  0  0  0  0  0  0  0  0  0  0  0
    7.3262    1.1043    1.7961 C   0  0  0  0  0  0  0  0  0  0  0  0
    8.6689    1.7407    1.5171 C   0  0  0  0  0  0  0  0  0  0  0  0
    1.9585    0.2954   -0.2937 C   0  0  2  0  0  0  0  0  0  0  0  0
   -0.1144    2.8641   -1.4856 C   0  0  2  0  0  0  0  0  0  0  0  0
   -0.1167    4.0270   -0.5290 C   0  0  0  0  0  0  0  0  0  0  0  0
   -1.4356    4.1801   -0.1301 O   0  0  0  0  0  0  0  0  0  0  0  0
   -1.4232    3.0779   -2.1312 N   0  0  0  0  0  0  0  0  0  0  0  0
   -2.2252    3.4180   -0.9654 C   0  0  0  0  0  0  0  0  0  0  0  0
   -3.4899    4.1054   -1.3968 C   0  0  0  0  0  0  0  0  0  0  0  0
   -4.4489    4.3602   -0.2949 C   0  0  1  0  0  0  0  0  0  0  0  0
   -5.5642    5.0116   -0.8198 O   0  0  0  0  0  0  0  0  0  0  0  0
   -4.9212    3.1459    0.4312 C   0  0  0  0  0  0  0  0  0  0  0  0
   -6.4241    2.9593    0.3849 C   0  0  2  0  0  0  0  0  0  0  0  0
   -7.0942    3.9332    1.1210 O   0  0  0  0  0  0  0  0  0  0  0  0
   -6.7321    1.6218    1.0104 C   0  0  0  0  0  0  0  0  0  0  0  0
   -6.1606    0.4622    0.2499 C   0  0  2  0  0  0  0  0  0  0  0  0
   -6.4274    0.5335   -1.2233 C   0  0  0  0  0  0  0  0  0  0  0  0
   -6.8700   -0.7980    0.7613 C   0  0  0  0  0  0  0  0  0  0  0  0
   -6.3916   -1.2025    2.1178 C   0  0  0  0  0  0  0  0  0  0  0  0
   -5.5500   -2.4750    2.0777 C   0  0  0  0  0  0  0  0  0  0  0  0
   -4.4155   -2.2583    1.1800 N   0  0  0  0  0  0  0  0  0  0  0  0
   -3.6234   -3.4462    1.0764 C   0  0  2  0  0  0  0  0  0  0  0  0
   -4.1729   -4.4358    1.9123 O   0  0  0  0  0  0  0  0  0  0  0  0
   -2.1961   -3.1430    1.5317 C   0  0  0  0  0  0  0  0  0  0  0  0
   -1.2395   -4.1229    0.9405 C   0  0  0  0  0  0  0  0  0  0  0  0
   -0.5854   -3.6885   -0.3288 C   0  0  1  0  0  0  0  0  0  0  0  0
   -1.4240   -2.7576   -1.1683 C   0  0  0  0  0  0  0  0  0  0  0  0
    0.8188   -3.1207   -0.1004 C   0  0  1  0  0  0  0  0  0  0  0  0
    1.8747   -4.0854   -0.5955 C   0  0  0  0  0  0  0  0  0  0  0  0
    1.7555   -5.3868    0.1417 C   0  0  0  0  0  0  0  0  0  0  0  0
    1.8101   -4.2797   -2.0862 C   0  0  0  0  0  0  0  0  0  0  0  0
    0.9378   -1.8558   -0.6603 O   0  0  0  0  0  0  0  0  0  0  0  0
    2.0047   -1.2050   -0.0747 C   0  0  0  0  0  0  0  0  0  0  0  0
    1.9870   -1.4855    1.2890 O   0  0  0  0  0  0  0  0  0  0  0  0
   -0.7572    0.9989    0.3458 O   0  0  0  0  0  0  0  0  0  0  0  0
    0.1395    1.5798   -0.5748 C   0  0  1  0  0  0  0  0  0  0  0  0
    1.0053    0.5363   -1.0440 N   0  0  0  0  0  0  0  0  0  0  0  0
    2.0111    0.9668   -1.9533 C   0  0  0  0  0  0  0  0  0  0  0  0
    3.0088    1.6559   -1.0448 C   0  0  0  0  0  0  0  0  0  0  0  0
    3.1124    0.5937    0.0566 C   0  0  1  0  0  0  0  0  0  0  0  0
    3.6345    1.2005    1.5379 S   0  0  0  0  0  0  0  0  0  0  0  0
    2.7631    2.2096    2.2497 O   0  0  0  0  0  0  0  0  0  0  0  0
    3.8231   -0.1821    2.5241 O   0  0  0  0  0  0  0  0  0  0  0  0
    5.2532    1.8264    1.3134 C   0  0  0  0  0  0  0  0  0  0  0  0
    6.1898    0.7651    0.8542 C   0  0  0  0  0  0  0  0  0  0  0  0
    7.5241    1.1761    0.6379 N   0  0  0  0  0  0  0  0  0  0  0  0
    8.4070    0.1291    0.1911 C   0  0  0  0  0  0  0  0  0  0  0  0
    8.0858   -0.3523   -1.1968 C   0  0  0  0  0  0  0  0  0  0  0  0
    8.1065    2.0335    1.6204 C   0  0  0  0  0  0  0  0  0  0  0  0
    9.5485    2.3945    1.2777 C   0  0  0  0  0  0  0  0  0  0  0  0
    1.7427    0.0180    0.0785 C   0  0  2  0  0  0  0  0  0  0  0  0
   -0.6706    2.2337   -1.6404 C   0  0  2  0  0  0  0  0  0  0  0  0
   -0.0981    3.6047   -1.9299 C   0  0  0  0  0  0  0  0  0  0  0  0
   -1.1460    4.5066   -1.8170 O   0  0  0  0  0  0  0  0  0  0  0  0
   -2.0139    2.5749   -1.2108 N   0  0  0  0  0  0  0  0  0  0  0  0
   -2.2678    3.7460   -2.0339 C   0  0  1  0  0  0  0  0  0  0  0  0
   -3.5618    4.4265   -1.6826 C   0  0  0  0  0  0  0  0  0  0  0  0
   -3.8849    4.3738   -0.2156 C   0  0  1  0  0  0  0  0  0  0  0  0
   -4.7984    5.3990    0.0538 O   0  0  0  0  0  0  0  0  0  0  0  0
   -4.5192    3.0752    0.1994 C   0  0  0  0  0  0  0  0  0  0  0  0
   -6.0352    3.1541    0.2611 C   0  0  2  0  0  0  0  0  0  0  0  0
   -6.4525    4.1574    1.1377 O   0  0  0  0  0  0  0  0  0  0  0  0
   -6.5325    1.8313    0.8097 C   0  0  0  0  0  0  0  0  0  0  0  0
   -6.0013    0.6619    0.0329 C   0  0  2  0  0  0  0  0  0  0  0  0
   -6.4514    0.6834   -1.4104 C   0  0  0  0  0  0  0  0  0  0  0  0
   -6.6266   -0.5914    0.6576 C   0  0  0  0  0  0  0  0  0  0  0  0
   -6.0851   -0.8557    2.0266 C   0  0  0  0  0  0  0  0  0  0  0  0
   -5.3305   -2.1870    2.0922 C   0  0  0  0  0  0  0  0  0  0  0  0
   -4.5003   -2.2536    0.9057 N   0  0  0  0  0  0  0  0  0  0  0  0
   -3.7933   -3.5347    0.8618 C   0  0  2  0  0  0  0  0  0  0  0  0
   -4.5440   -4.4148    1.6755 O   0  0  0  0  0  0  0  0  0  0  0  0
   -2.3929   -3.4192    1.3728 C   0  0  0  0  0  0  0  0  0  0  0  0
   -1.5250   -4.4290    0.6783 C   0  0  0  0  0  0  0  0  0  0  0  0
   -0.8163   -3.9007   -0.5378 C   0  0  1  0  0  0  0  0  0  0  0  0
   -1.6395   -2.8715   -1.2849 C   0  0  0  0  0  0  0  0  0  0  0  0
    0.5703   -3.3788   -0.2255 C   0  0  1  0  0  0  0  0  0  0  0  0
    1.6563   -4.2424   -0.8682 C   0  0  0  0  0  0  0  0  0  0  0  0
    1.5781   -5.6618   -0.3604 C   0  0  0  0  0  0  0  0  0  0  0  0
    1.4953   -4.2777   -2.3691 C   0  0  0  0  0  0  0  0  0  0  0  0
    0.7146   -2.0472   -0.5966 O   0  0  0  0  0  0  0  0  0  0  0  0
    1.7401   -1.4917    0.1266 C   0  0  0  0  0  0  0  0  0  0  0  0
    1.6668   -1.9572    1.4377 O   0  0  0  0  0  0  0  0  0  0  0  0
   -0.4210    2.3604    0.9235 H   0  0  0  0  0  0  0  0  0  0  0  0
   -1.0185    0.9892   -1.0917 H   0  0  0  0  0  0  0  0  0  0  0  0
    1.1289    1.3957   -3.2751 H   0  0  0  0  0  0  0  0  0  0  0  0
    1.9361   -0.1253   -2.9055 H   0  0  0  0  0  0  0  0  0  0  0  0
    2.9197    2.5564   -1.7879 H   0  0  0  0  0  0  0  0  0  0  0  0
    3.7646    1.3858   -2.8399 H   0  0  0  0  0  0  0  0  0  0  0  0
    3.9692   -0.1297   -1.0576 H   0  0  0  0  0  0  0  0  0  0  0  0
    3.2812    3.8790    0.8178 H   0  0  0  0  0  0  0  0  0  0  0  0
    4.5737   -0.1357    1.4200 H   0  0  0  0  0  0  0  0  0  0  0  0
    6.0737    3.0257    0.2868 H   0  0  0  0  0  0  0  0  0  0  0  0
    5.3919    2.6040   -1.2883 H   0  0  0  0  0  0  0  0  0  0  0  0
    7.4179    1.2518   -0.9724 H   0  0  0  0  0  0  0  0  0  0  0  0
    5.9522    0.2892   -1.1258 H   0  0  0  0  0  0  0  0  0  0  0  0
    7.4768   -1.5380    1.4707 H   0  0  0  0  0  0  0  0  0  0  0  0
    6.9007   -1.5438   -0.1988 H   0  0  0  0  0  0  0  0  0  0  0  0
    9.0036   -0.2025   -0.9062 H   0  0  0  0  0  0  0  0  0  0  0  0
    9.6000   -0.5767    0.7610 H   0  0  0  0  0  0  0  0  0  0  0  0
    9.2191   -1.8800   -0.4029 H   0  0  0  0  0  0  0  0  0  0  0  0
    7.5046    0.4114    2.6735 H   0  0  0  0  0  0  0  0  0  0  0  0
    6.5953    1.8331    2.1479 H   0  0  0  0  0  0  0  0  0  0  0  0
    8.9894    1.7175    0.4791 H   0  0  0  0  0  0  0  0  0  0  0  0
    8.5921    2.8272    1.8367 H   0  0  0  0  0  0  0  0  0  0  0  0
    9.4899    1.3434    2.1498 H   0  0  0  0  0  0  0  0  0  0  0  0
    1.7151    0.7776    0.6716 H   0  0  0  0  0  0  0  0  0  0  0  0
    0.6336    3.0845   -2.2632 H   0  0  0  0  0  0  0  0  0  0  0  0
    0.6143    3.9840    0.2659 H   0  0  0  0  0  0  0  0  0  0  0  0
    0.1192    4.9540   -1.1308 H   0  0  0  0  0  0  0  0  0  0  0  0
   -1.3097    3.9154   -2.7455 H   0  0  0  0  0  0  0  0  0  0  0  0
   -2.4548    2.4745   -0.4519 H   0  0  0  0  0  0  0  0  0  0  0  0
   -3.2622    5.0545   -1.8991 H   0  0  0  0  0  0  0  0  0  0  0  0
   -3.9783    3.4472   -2.1530 H   0  0  0  0  0  0  0  0  0  0  0  0
   -3.9706    5.1112    0.3986 H   0  0  0  0  0  0  0  0  0  0  0  0
   -5.5779    4.9354   -1.8085 H   0  0  0  0  0  0  0  0  0  0  0  0
   -4.4767    2.2023    0.0787 H   0  0  0  0  0  0  0  0  0  0  0  0
   -4.6743    3.2887    1.5232 H   0  0  0  0  0  0  0  0  0  0  0  0
   -6.7433    2.9221   -0.6588 H   0  0  0  0  0  0  0  0  0  0  0  0
   -6.4858    4.3035    1.7816 H   0  0  0  0  0  0  0  0  0  0  0  0
   -7.8322    1.4832    1.0714 H   0  0  0  0  0  0  0  0  0  0  0  0
   -6.2712    1.5983    2.0379 H   0  0  0  0  0  0  0  0  0  0  0  0
   -5.0748    0.2885    0.4824 H   0  0  0  0  0  0  0  0  0  0  0  0
   -5.6859    1.1201   -1.7855 H   0  0  0  0  0  0  0  0  0  0  0  0
   -7.4101    1.0153   -1.3648 H   0  0  0  0  0  0  0  0  0  0  0  0
   -6.3858   -0.5006   -1.6275 H   0  0  0  0  0  0  0  0  0  0  0  0
   -7.9640   -0.6458    0.7025 H   0  0  0  0  0  0  0  0  0  0  0  0
   -6.6287   -1.5963    0.0309 H   0  0  0  0  0  0  0  0  0  0  0  0
   -5.8061   -0.4468    2.6442 H   0  0  0  0  0  0  0  0  0  0  0  0
   -7.3071   -1.4849    2.7131 H   0  0  0  0  0  0  0  0  0  0  0  0
   -5.2135   -2.6841    3.1126 H   0  0  0  0  0  0  0  0  0  0  0  0
   -6.1132   -3.3397    1.7080 H   0  0  0  0  0  0  0  0  0  0  0  0
   -3.8590   -1.4730    1.6206 H   0  0  0  0  0  0  0  0  0  0  0  0
   -3.6282   -3.8951    0.0502 H   0  0  0  0  0  0  0  0  0  0  0  0
   -3.8012   -5.3033    1.6086 H   0  0  0  0  0  0  0  0  0  0  0  0
   -1.9309   -2.0912    1.4101 H   0  0  0  0  0  0  0  0  0  0  0  0
   -2.2169   -3.3227    2.6468 H   0  0  0  0  0  0  0  0  0  0  0  0
   -0.4201   -4.2883    1.6927 H   0  0  0  0  0  0  0  0  0  0  0  0
   -1.7567   -5.1045    0.8588 H   0  0  0  0  0  0  0  0  0  0  0  0
   -0.4505   -4.6131   -0.9581 H   0  0  0  0  0  0  0  0  0  0  0  0
   -1.8829   -1.9368   -0.6207 H   0  0  0  0  0  0  0  0  0  0  0  0
   -2.1546   -3.3627   -1.7665 H   0  0  0  0  0  0  0  0  0  0  0  0
   -0.7217   -2.2878   -1.9153 H   0  0  0  0  0  0  0  0  0  0  0  0
    0.9345   -3.0638    1.0010 H   0  0  0  0  0  0  0  0  0  0  0  0
    2.8623   -3.6608   -0.3428 H   0  0  0  0  0  0  0  0  0  0  0  0
    2.1399   -5.2602    1.1910 H   0  0  0  0  0  0  0  0  0  0  0  0
    0.7415   -5.7777    0.2125 H   0  0  0  0  0  0  0  0  0  0  0  0
    2.4174   -6.1493   -0.3173 H   0  0  0  0  0  0  0  0  0  0  0  0
    1.5623   -3.3309   -2.5939 H   0  0  0  0  0  0  0  0  0  0  0  0
    2.8401   -4.5496   -2.4183 H   0  0  0  0  0  0  0  0  0  0  0  0
    1.1588   -5.1269   -2.3807 H   0  0  0  0  0  0  0  0  0  0  0  0
    2.9310   -1.6429   -0.5252 H   0  0  0  0  0  0  0  0  0  0  0  0
    2.8455   -1.8630    1.5584 H   0  0  0  0  0  0  0  0  0  0  0  0
   -0.4210    2.3604    0.9235 H   0  0  0  0  0  0  0  0  0  0  0  0
   -1.0185    0.9892   -1.0917 H   0  0  0  0  0  0  0  0  0  0  0  0
    1.1289    1.3957   -3.2751 H   0  0  0  0  0  0  0  0  0  0  0  0
    1.9361   -0.1253   -2.9055 H   0  0  0  0  0  0  0  0  0  0  0  0
    2.9197    2.5564   -1.7879 H   0  0  0  0  0  0  0  0  0  0  0  0
    3.7646    1.3858   -2.8399 H   0  0  0  0  0  0  0  0  0  0  0  0
    3.9692   -0.1297   -1.0576 H   0  0  0  0  0  0  0  0  0  0  0  0
    3.2812    3.8790    0.8178 H   0  0  0  0  0  0  0  0  0  0  0  0
    4.5737   -0.1357    1.4200 H   0  0  0  0  0  0  0  0  0  0  0  0
    6.0737    3.0257    0.2868 H   0  0  0  0  0  0  0  0  0  0  0  0
    5.3919    2.6040   -1.2883 H   0  0  0  0  0  0  0  0  0  0  0  0
    7.4179    1.2518   -0.9724 H   0  0  0  0  0  0  0  0  0  0  0  0
    5.9522    0.2892   -1.1258 H   0  0  0  0  0  0  0  0  0  0  0  0
    7.4768   -1.5380    1.4707 H   0  0  0  0  0  0  0  0  0  0  0  0
    6.9007   -1.5438   -0.1988 H   0  0  0  0  0  0  0  0  0  0  0  0
    9.0036   -0.2025   -0.9062 H   0  0  0  0  0  0  0  0  0  0  0  0
    9.6000   -0.5767    0.7610 H   0  0  0  0  0  0  0  0  0  0  0  0
    9.2191   -1.8800   -0.4029 H   0  0  0  0  0  0  0  0  0  0  0  0
    7.5046    0.4114    2.6735 H   0  0  0  0  0  0  0  0  0  0  0  0
    6.5953    1.8331    2.1479 H   0  0  0  0  0  0  0  0  0  0  0  0
    8.9894    1.7175    0.4791 H   0  0  0  0  0  0  0  0  0  0  0  0
    8.5921    2.8272    1.8367 H   0  0  0  0  0  0  0  0  0  0  0  0
    9.4899    1.3434    2.1498 H   0  0  0  0  0  0  0  0  0  0  0  0
    1.7151    0.7776    0.6716 H   0  0  0  0  0  0  0  0  0  0  0  0
    0.6336    3.0845   -2.2632 H   0  0  0  0  0  0  0  0  0  0  0  0
    0.6143    3.9840    0.2659 H   0  0  0  0  0  0  0  0  0  0  0  0
    0.1192    4.9540   -1.1308 H   0  0  0  0  0  0  0  0  0  0  0  0
   -1.3097    3.9154   -2.7455 H   0  0  0  0  0  0  0  0  0  0  0  0
   -2.4548    2.4745   -0.4519 H   0  0  0  0  0  0  0  0  0  0  0  0
   -3.2622    5.0545   -1.8991 H   0  0  0  0  0  0  0  0  0  0  0  0
   -3.9783    3.4472   -2.1530 H   0  0  0  0  0  0  0  0  0  0  0  0
   -3.9706    5.1112    0.3986 H   0  0  0  0  0  0  0  0  0  0  0  0
   -5.5779    4.9354   -1.8085 H   0  0  0  0  0  0  0  0  0  0  0  0
   -4.4767    2.2023    0.0787 H   0  0  0  0  0  0  0  0  0  0  0  0
   -4.6743    3.2887    1.5232 H   0  0  0  0  0  0  0  0  0  0  0  0
   -6.7433    2.9221   -0.6588 H   0  0  0  0  0  0  0  0  0  0  0  0
   -6.4858    4.3035    1.7816 H   0  0  0  0  0  0  0  0  0  0  0  0
   -7.8322    1.4832    1.0714 H   0  0  0  0  0  0  0  0  0  0  0  0
   -6.2712    1.5983    2.0379 H   0  0  0  0  0  0  0  0  0  0  0  0
   -5.0748    0.2885    0.4824 H   0  0  0  0  0  0  0  0  0  0  0  0
   -5.6859    1.1201   -1.7855 H   0  0  0  0  0  0  0  0  0  0  0  0
   -7.4101    1.0153   -1.3648 H   0  0  0  0  0  0  0  0  0  0  0  0
   -6.3858   -0.5006   -1.6275 H   0  0  0  0  0  0  0  0  0  0  0  0
   -7.9640   -0.6458    0.7025 H   0  0  0  0  0  0  0  0  0  0  0  0
   -6.6287   -1.5963    0.0309 H   0  0  0  0  0  0  0  0  0  0  0  0
   -5.8061   -0.4468    2.6442 H   0  0  0  0  0  0  0  0  0  0  0  0
   -7.3071   -1.4849    2.7131 H   0  0  0  0  0  0  0  0  0  0  0  0
   -5.2135   -2.6841    3.1126 H   0  0  0  0  0  0  0  0  0  0  0  0
   -6.1132   -3.3397    1.7080 H   0  0  0  0  0  0  0  0  0  0  0  0
   -3.8590   -1.4730    1.6206 H   0  0  0  0  0  0  0  0  0  0  0  0
   -3.6282   -3.8951    0.0502 H   0  0  0  0  0  0  0  0  0  0  0  0
   -3.8012   -5.3033    1.6086 H   0  0  0  0  0  0  0  0  0  0  0  0
   -1.9309   -2.0912    1.4101 H   0  0  0  0  0  0  0  0  0  0  0  0
   -2.2169   -3.3227    2.6468 H   0  0  0  0  0  0  0  0  0  0  0  0
   -0.4201   -4.2883    1.6927 H   0  0  0  0  0  0  0  0  0  0  0  0
   -1.7567   -5.1045    0.8588 H   0  0  0  0  0  0  0  0  0  0  0  0
   -0.4505   -4.6131   -0.9581 H   0  0  0  0  0  0  0  0  0  0  0  0
   -1.8829   -1.9368   -0.6207 H   0  0  0  0  0  0  0  0  0  0  0  0
   -2.1546   -3.3627   -1.7665 H   0  0  0  0  0  0  0  0  0  0  0  0
   -0.7217   -2.2878   -1.9153 H   0  0  0  0  0  0  0  0  0  0  0  0
    0.9345   -3.0638    1.0010 H   0  0  0  0  0  0  0  0  0  0  0  0
    2.8623   -3.6608   -0.3428 H   0  0  0  0  0  0  0  0  0  0  0  0
    2.1399   -5.2602    1.1910 H   0  0  0  0  0  0  0  0  0  0  0  0
    0.7415   -5.7777    0.2125 H   0  0  0  0  0  0  0  0  0  0  0  0
    2.4174   -6.1493   -0.3173 H   0  0  0  0  0  0  0  0  0  0  0  0
    1.5623   -3.3309   -2.5939 H   0  0  0  0  0  0  0  0  0  0  0  0
    2.8401   -4.5496   -2.4183 H   0  0  0  0  0  0  0  0  0  0  0  0
    1.1588   -5.1269   -2.3807 H   0  0  0  0  0  0  0  0  0  0  0  0
    2.9310   -1.6429   -0.5252 H   0  0  0  0  0  0  0  0  0  0  0  0
    2.8455   -1.8630    1.5584 H   0  0  0  0  0  0  0  0  0  0  0  0
   -1.0299    0.0888    0.0344 H   0  0  0  0  0  0  0  0  0  0  0  0
    0.7176    2.3396   -0.0375 H   0  0  0  0  0  0  0  0  0  0  0  0
    1.6800    1.5966   -2.7805 H   0  0  0  0  0  0  0  0  0  0  0  0
    2.5043    0.0761   -2.3766 H   0  0  0  0  0  0  0  0  0  0  0  0
    2.6646    2.6157   -0.6638 H   0  0  0  0  0  0  0  0  0  0  0  0
    3.9561    1.7517   -1.6097 H   0  0  0  0  0  0  0  0  0  0  0  0
    3.8217   -0.1528   -0.3525 H   0  0  0  0  0  0  0  0  0  0  0  0
    2.8233    3.1773    2.1105 H   0  0  0  0  0  0  0  0  0  0  0  0
    4.3412   -0.8682    2.0507 H   0  0  0  0  0  0  0  0  0  0  0  0
    5.6093    2.3595    2.2260 H   0  0  0  0  0  0  0  0  0  0  0  0
    5.1936    2.6044    0.5246 H   0  0  0  0  0  0  0  0  0  0  0  0
    5.8307    0.2218   -0.0449 H   0  0  0  0  0  0  0  0  0  0  0  0
    6.2045   -0.0307    1.6579 H   0  0  0  0  0  0  0  0  0  0  0  0
    9.4482    0.4712    0.2950 H   0  0  0  0  0  0  0  0  0  0  0  0
    8.2779   -0.7197    0.9056 H   0  0  0  0  0  0  0  0  0  0  0  0
    7.1653    0.0898   -1.6095 H   0  0  0  0  0  0  0  0  0  0  0  0
    8.9538   -0.1196   -1.8466 H   0  0  0  0  0  0  0  0  0  0  0  0
    8.0049   -1.4793   -1.1984 H   0  0  0  0  0  0  0  0  0  0  0  0
    8.1669    1.4634    2.5801 H   0  0  0  0  0  0  0  0  0  0  0  0
    7.5004    2.9227    1.8112 H   0  0  0  0  0  0  0  0  0  0  0  0
    9.7181    2.4940    0.2064 H   0  0  0  0  0  0  0  0  0  0  0  0
    9.7489    3.3783    1.7728 H   0  0  0  0  0  0  0  0  0  0  0  0
   10.2748    1.6921    1.6963 H   0  0  0  0  0  0  0  0  0  0  0  0
    1.2627    0.3516    1.0454 H   0  0  0  0  0  0  0  0  0  0  0  0
   -0.7124    1.6906   -2.5886 H   0  0  0  0  0  0  0  0  0  0  0  0
    0.6833    3.8930   -1.2078 H   0  0  0  0  0  0  0  0  0  0  0  0
    0.3038    3.6705   -2.9608 H   0  0  0  0  0  0  0  0  0  0  0  0
   -1.9361    2.9246   -0.2243 H   0  0  0  0  0  0  0  0  0  0  0  0
   -2.3070    3.4906   -3.1123 H   0  0  0  0  0  0  0  0  0  0  0  0
   -3.4554    5.5002   -1.9574 H   0  0  0  0  0  0  0  0  0  0  0  0
   -4.3572    4.0072   -2.2992 H   0  0  0  0  0  0  0  0  0  0  0  0
   -2.9769    4.6087    0.3759 H   0  0  0  0  0  0  0  0  0  0  0  0
   -5.4074    5.4775   -0.7383 H   0  0  0  0  0  0  0  0  0  0  0  0
   -4.2834    2.3243   -0.5677 H   0  0  0  0  0  0  0  0  0  0  0  0
   -4.1322    2.8312    1.2097 H   0  0  0  0  0  0  0  0  0  0  0  0
   -6.4400    3.3209   -0.7585 H   0  0  0  0  0  0  0  0  0  0  0  0
   -6.1094    3.9260    2.0333 H   0  0  0  0  0  0  0  0  0  0  0  0
   -7.6411    1.7656    0.7787 H   0  0  0  0  0  0  0  0  0  0  0  0
   -6.1518    1.7540    1.8441 H   0  0  0  0  0  0  0  0  0  0  0  0
   -4.9033    0.5169    0.1409 H   0  0  0  0  0  0  0  0  0  0  0  0
   -5.7618    1.1974   -2.0850 H   0  0  0  0  0  0  0  0  0  0  0  0
   -7.4628    1.1339   -1.4313 H   0  0  0  0  0  0  0  0  0  0  0  0
   -6.4825   -0.3874   -1.7485 H   0  0  0  0  0  0  0  0  0  0  0  0
   -7.7244   -0.4589    0.6175 H   0  0  0  0  0  0  0  0  0  0  0  0
   -6.3856   -1.4353   -0.0238 H   0  0  0  0  0  0  0  0  0  0  0  0
   -5.3944   -0.0875    2.3877 H   0  0  0  0  0  0  0  0  0  0  0  0
   -6.9647   -0.9837    2.7187 H   0  0  0  0  0  0  0  0  0  0  0  0
   -4.7002   -2.2195    3.0049 H   0  0  0  0  0  0  0  0  0  0  0  0
   -6.0583   -3.0396    2.0978 H   0  0  0  0  0  0  0  0  0  0  0  0
   -3.7401   -1.5261    1.0329 H   0  0  0  0  0  0  0  0  0  0  0  0
   -3.8274   -3.9877   -0.1531 H   0  0  0  0  0  0  0  0  0  0  0  0
   -4.1282   -5.3022    1.6926 H   0  0  0  0  0  0  0  0  0  0  0  0
   -1.9833   -2.3980    1.3689 H   0  0  0  0  0  0  0  0  0  0  0  0
   -2.4321   -3.7089    2.4643 H   0  0  0  0  0  0  0  0  0  0  0  0
   -0.7238   -4.7276    1.4124 H   0  0  0  0  0  0  0  0  0  0  0  0
   -2.1043   -5.3386    0.4763 H   0  0  0  0  0  0  0  0  0  0  0  0
   -0.6934   -4.7468   -1.2446 H   0  0  0  0  0  0  0  0  0  0  0  0
   -2.1451   -2.1494   -0.6474 H   0  0  0  0  0  0  0  0  0  0  0  0
   -2.3540   -3.3972   -1.9514 H   0  0  0  0  0  0  0  0  0  0  0  0
   -0.9618   -2.3070   -1.9568 H   0  0  0  0  0  0  0  0  0  0  0  0
    0.6962   -3.4947    0.8700 H   0  0  0  0  0  0  0  0  0  0  0  0
    2.6476   -3.8355   -0.6269 H   0  0  0  0  0  0  0  0  0  0  0  0
    2.0749   -5.7810    0.6282 H   0  0  0  0  0  0  0  0  0  0  0  0
    0.5272   -5.9707   -0.2026 H   0  0  0  0  0  0  0  0  0  0  0  0
    1.9884   -6.3650   -1.1193 H   0  0  0  0  0  0  0  0  0  0  0  0
    1.1269   -3.3265   -2.7822 H   0  0  0  0  0  0  0  0  0  0  0  0
    2.5261   -4.4297   -2.8010 H   0  0  0  0  0  0  0  0  0  0  0  0
    0.9157   -5.1651   -2.6998 H   0  0  0  0  0  0  0  0  0  0  0  0
    2.6956   -1.8195   -0.3338 H   0  0  0  0  0  0  0  0  0  0  0  0
    2.4846   -2.4322    1.6507 H   0  0  0  0  0  0  0  0  0  0  0  0
  1  2  1  0
  2  3  1  0
  3  4  1  0
  4  5  1  0
  5  6  1  0
  6  7  1  0
  7  8  1  0
  7  9  1  0
  7 10  1  0
 10 11  1  0
 11 12  1  0
 12 13  1  0
 13 14  1  0
 12 15  1  0
 15 16  1  0
  3 17  1  0
  6 17  1  0
  2 18  1  0
 18 19  1  0
 19 20  1  0
 18 21  1  0
 20 22  1  0
 21 22  1  0
 22 23  1  0
 23 24  1  0
 24 25  1  0
 24 26  1  0
 26 27  1  0
 27 28  1  0
 27 29  1  0
 29 30  1  0
 30 31  1  0
 30 32  1  0
 32 33  1  0
 33 34  1  0
 34 35  1  0
 35 36  1  0
 36 37  1  0
 36 38  1  0
 38 39  1  0
 39 40  1  0
 40 41  1  0
 40 42  1  0
 42 43  1  0
 43 44  1  0
 43 45  1  0
 42 46  1  0
 17 47  1  0
 46 47  1  0
 47 48  1  0
 49 50  1  0
 50 51  1  0
 51 52  1  0
 52 53  1  0
 53 54  1  0
 54 55  1  0
 55 56  1  0
 55 57  1  0
 55 58  1  0
 58 59  1  0
 59 60  1  0
 60 61  1  0
 61 62  1  0
 60 63  1  0
 63 64  1  0
 51 65  1  0
 54 65  1  0
 50 66  1  0
 66 67  1  0
 67 68  1  0
 66 69  1  0
 68 70  1  0
 69 70  1  0
 70 71  1  0
 71 72  1  0
 72 73  1  0
 72 74  1  0
 74 75  1  0
 75 76  1  0
 75 77  1  0
 77 78  1  0
 78 79  1  0
 78 80  1  0
 80 81  1  0
 81 82  1  0
 82 83  1  0
 83 84  1  0
 84 85  1  0
 84 86  1  0
 86 87  1  0
 87 88  1  0
 88 89  1  0
 88 90  1  0
 90 91  1  0
 91 92  1  0
 91 93  1  0
 90 94  1  0
 65 95  1  0
 94 95  1  0
 95 96  1  0
 97 98  1  0
 98 99  1  0
 99100  1  0
100101  1  0
101102  1  0
102103  1  0
103104  1  0
103105  1  0
103106  1  0
106107  1  0
107108  1  0
108109  1  0
109110  1  0
108111  1  0
111112  1  0
 99113  1  0
102113  1  0
 98114  1  0
114115  1  0
115116  1  0
114117  1  0
116118  1  0
117118  1  0
118119  1  0
119120  1  0
120121  1  0
120122  1  0
122123  1  0
123124  1  0
123125  1  0
125126  1  0
126127  1  0
126128  1  0
128129  1  0
129130  1  0
130131  1  0
131132  1  0
132133  1  0
132134  1  0
134135  1  0
135136  1  0
136137  1  0
136138  1  0
138139  1  0
139140  1  0
139141  1  0
138142  1  0
113143  1  0
142143  1  0
143144  1  0
  1145  1  0
  2146  1  0
  4147  1  0
  4148  1  0
  5149  1  0
  5150  1  0
  6151  1  6
  8152  1  0
  9153  1  0
 10154  1  0
 10155  1  0
 11156  1  0
 11157  1  0
 13158  1  0
 13159  1  0
 14160  1  0
 14161  1  0
 14162  1  0
 15163  1  0
 15164  1  0
 16165  1  0
 16166  1  0
 16167  1  0
 17168  1  1
 18169  1  6
 19170  1  0
 19171  1  0
 21172  1  0
 22173  1  0
 23174  1  0
 23175  1  0
 24176  1  1
 25177  1  0
 26178  1  0
 26179  1  0
 27180  1  6
 28181  1  0
 29182  1  0
 29183  1  0
 30184  1  6
 31185  1  0
 31186  1  0
 31187  1  0
 32188  1  0
 32189  1  0
 33190  1  0
 33191  1  0
 34192  1  0
 34193  1  0
 35194  1  0
 36195  1  6
 37196  1  0
 38197  1  0
 38198  1  0
 39199  1  0
 39200  1  0
 40201  1  6
 41202  1  0
 41203  1  0
 41204  1  0
 42205  1  1
 43206  1  0
 44207  1  0
 44208  1  0
 44209  1  0
 45210  1  0
 45211  1  0
 45212  1  0
 47213  1  0
 48214  1  0
 49215  1  0
 50216  1  0
 52217  1  0
 52218  1  0
 53219  1  0
 53220  1  0
 54221  1  6
 56222  1  0
 57223  1  0
 58224  1  0
 58225  1  0
 59226  1  0
 59227  1  0
 61228  1  0
 61229  1  0
 62230  1  0
 62231  1  0
 62232  1  0
 63233  1  0
 63234  1  0
 64235  1  0
 64236  1  0
 64237  1  0
 65238  1  1
 66239  1  6
 67240  1  0
 67241  1  0
 69242  1  0
 70243  1  0
 71244  1  0
 71245  1  0
 72246  1  1
 73247  1  0
 74248  1  0
 74249  1  0
 75250  1  6
 76251  1  0
 77252  1  0
 77253  1  0
 78254  1  6
 79255  1  0
 79256  1  0
 79257  1  0
 80258  1  0
 80259  1  0
 81260  1  0
 81261  1  0
 82262  1  0
 82263  1  0
 83264  1  0
 84265  1  6
 85266  1  0
 86267  1  0
 86268  1  0
 87269  1  0
 87270  1  0
 88271  1  6
 89272  1  0
 89273  1  0
 89274  1  0
 90275  1  1
 91276  1  0
 92277  1  0
 92278  1  0
 92279  1  0
 93280  1  0
 93281  1  0
 93282  1  0
 95283  1  0
 96284  1  0
 97285  1  0
 98286  1  1
100287  1  0
100288  1  0
101289  1  0
101290  1  0
102291  1  6
104292  1  0
105293  1  0
106294  1  0
106295  1  0
107296  1  0
107297  1  0
109298  1  0
109299  1  0
110300  1  0
110301  1  0
110302  1  0
111303  1  0
111304  1  0
112305  1  0
112306  1  0
112307  1  0
113308  1  1
114309  1  6
115310  1  0
115311  1  0
117312  1  0
118313  1  6
119314  1  0
119315  1  0
120316  1  1
121317  1  0
122318  1  0
122319  1  0
123320  1  6
124321  1  0
125322  1  0
125323  1  0
126324  1  6
127325  1  0
127326  1  0
127327  1  0
128328  1  0
128329  1  0
129330  1  0
129331  1  0
130332  1  0
130333  1  0
131334  1  0
132335  1  6
133336  1  0
134337  1  0
134338  1  0
135339  1  0
135340  1  0
136341  1  6
137342  1  0
137343  1  0
137344  1  0
138345  1  1
139346  1  0
140347  1  0
140348  1  0
140349  1  0
141350  1  0
141351  1  0
141352  1  0
143353  1  0
144354  1  0
M  END
>  <PDBID>  (1) 
1MRL

>  <PDB ID>  (1) 
1MRL

>  <Generic Name>  (1) 
Dalfopristin

>  <Brand Name>  (1) 
Synercid

>  <DrugBank ID>  (1) 
DB01764

>  <ATC Codes>  (1) 
nan

>  <Ligand ID>  (1) 
DOL

>  <Target Name>  (1) 
Streptogramin A acetyltransferase

>  <UniProt ID>  (1) 
P50870

>  <PDB ID.1>  (1) 
1MRL

>  <Seq. Identity>  (1) 
100%

$$$$
