PDB_DB01336_05
     RDKit          3D

  0  0  0  0  0  0  0  0  0  0999 V3000
M  V30 BEGIN CTAB
M  V30 COUNTS 960 1008 0 0 0
M  V30 BEGIN ATOM
M  V30 1 N -4.4308 -3.11333 -0.395986 0 CHG=1
M  V30 2 C -5.77877 -2.73683 -0.0126607 0
M  V30 3 C -5.91991 -1.31814 0.396661 0
M  V30 4 C -5.15516 -0.368486 -0.504896 0
M  V30 5 C -3.70527 -0.786014 -0.573418 0
M  V30 6 C -3.50941 -2.1186 0.0834596 0 CFG=2
M  V30 7 C -5.36925 1.01031 0.0658919 0
M  V30 8 C -4.55359 2.07668 -0.643128 0
M  V30 9 C -3.15994 1.56783 -0.767553 0
M  V30 10 C -2.92789 0.319024 0.108252 0
M  V30 11 O -2.14489 2.43775 -0.666303 0
M  V30 12 C -1.64679 2.85681 0.502971 0
M  V30 13 C -1.30402 4.34898 0.3074 0
M  V30 14 C 0.141944 4.51971 -0.136605 0
M  V30 15 C 0.600902 3.2982 -0.924609 0
M  V30 16 C 0.678448 2.08627 -0.0875429 0
M  V30 17 C -0.384541 2.24134 1.01575 0
M  V30 18 C 1.95634 1.80422 0.637209 0
M  V30 19 C 3.16304 1.50581 -0.157873 0 CFG=1
M  V30 20 N 4.18538 2.52747 -0.136624 0 CHG=1
M  V30 21 C 5.11726 2.38303 0.993023 0
M  V30 22 C 6.01581 1.26492 0.532233 0
M  V30 23 C 5.13586 0.0603673 0.547756 0 CFG=1
M  V30 24 C 3.79349 0.171712 -0.0854067 0
M  V30 25 C 5.94253 -1.04415 -0.140599 0
M  V30 26 C 5.03356 -2.23641 -0.223188 0
M  V30 27 C 3.89627 -2.16925 0.767167 0
M  V30 28 C 2.98578 -0.9637 0.546994 0
M  V30 29 O 1.80203 -1.2282 0.0487329 0
M  V30 30 C 1.2804 -2.36857 -0.396586 0
M  V30 31 C 0.529565 -3.17963 0.641199 0
M  V30 32 C -0.390393 -4.23558 0.0126335 0
M  V30 33 C -1.52091 -3.50422 -0.754148 0
M  V30 34 C -0.706538 -2.91869 -1.88599 0
M  V30 35 C 0.27105 -1.90493 -1.45211 0
M  V30 36 C -2.10882 -2.56178 0.206913 0
M  V30 37 O -4.62218 3.27657 -0.00214904 0
M  V30 38 C -5.27213 4.27316 -0.719158 0
M  V30 39 O -1.44229 4.9433 1.55566 0
M  V30 40 O 4.59777 -2.44505 -1.52536 0
M  V30 41 C 5.04664 -3.66175 -2.04194 0
M  V30 42 O 4.28749 -2.3224 2.06082 0
M  V30 43 C -4.17688 -4.40939 0.199336 0
M  V30 44 C 4.94769 2.38638 -1.39617 0
M  V30 45 C 3.81827 3.88638 -0.123507 0
M  V30 46 C 3.92853 -3.40089 2.7775 0
M  V30 47 C -4.43504 -3.2656 -1.8268 0
M  V30 48 C -2.43492 5.8986 1.58078 0
M  V30 49 N -4.37977 -2.54419 -0.982421 0 CHG=1
M  V30 50 C -5.80316 -2.22433 -0.919538 0
M  V30 51 C -5.96439 -0.752678 -0.935264 0
M  V30 52 C -5.52766 -0.3043 0.438808 0 CFG=1
M  V30 53 C -4.21236 -0.876544 0.883051 0 CFG=1
M  V30 54 C -3.70106 -2.06933 0.176822 0 CFG=2
M  V30 55 C -5.65644 1.1761 0.584638 0
M  V30 56 C -4.63567 2.00293 -0.148056 0 CFG=1
M  V30 57 C -3.35521 1.25679 -0.181155 0
M  V30 58 C -3.33359 0.328707 1.00793 0
M  V30 59 O -2.18967 1.90335 -0.283451 0
M  V30 60 C -1.75912 2.80873 0.608525 0
M  V30 61 C -1.22918 3.95723 -0.283602 0
M  V30 62 C -0.0710638 3.48139 -1.06192 0
M  V30 63 C 0.384962 2.0651 -0.833867 0
M  V30 64 C 0.445255 1.57384 0.540409 0 CFG=2
M  V30 65 C -0.505774 2.42739 1.39536 0
M  V30 66 C 1.70411 1.39545 1.26488 0
M  V30 67 C 3.00149 1.23493 0.548157 0 CFG=1
M  V30 68 N 3.79878 2.43795 0.532784 0 CHG=1
M  V30 69 C 5.03816 2.30209 1.29885 0
M  V30 70 C 5.94714 1.29262 0.682339 0
M  V30 71 C 5.22154 0.0116165 0.639878 0 CFG=1
M  V30 72 C 3.77802 0.0471512 1.07334 0 CFG=2
M  V30 73 C 5.38096 -0.593218 -0.730392 0
M  V30 74 C 5.24777 -2.07635 -0.537706 0 CFG=1
M  V30 75 C 4.1991 -2.35665 0.457698 0
M  V30 76 C 3.19395 -1.30366 0.800894 0 CFG=2
M  V30 77 O 2.18541 -1.24037 -0.090518 0
M  V30 78 C 1.57832 -2.36558 -0.547658 0
M  V30 79 C 1.07712 -3.36041 0.408904 0
M  V30 80 C -0.320824 -3.31868 0.862183 0
M  V30 81 C -1.37925 -3.0953 -0.223167 0
M  V30 82 C -0.571818 -2.98167 -1.49561 0
M  V30 83 C 0.449151 -1.90496 -1.48787 0
M  V30 84 C -2.21483 -1.9258 0.102628 0
M  V30 85 O -5.09517 2.36719 -1.42144 0
M  V30 86 C -5.29038 3.73068 -1.54057 0
M  V30 87 O -0.977281 5.02538 0.570041 0
M  V30 88 O 4.88709 -2.62545 -1.77214 0
M  V30 89 C 5.86575 -3.44322 -2.29101 0
M  V30 90 O 4.88425 -2.81274 1.59483 0
M  V30 91 C -4.40103 -4.02539 -1.05125 0
M  V30 92 C 4.06921 2.8781 -0.824389 0
M  V30 93 C 3.22161 3.58018 1.19927 0
M  V30 94 C 4.71538 -4.1313 1.88664 0
M  V30 95 C -3.91078 -2.09886 -2.24444 0
M  V30 96 C -1.89217 6.07303 0.316897 0
M  V30 97 N -4.61107 -3.07441 -0.671575 0 CHG=1
M  V30 98 C -6.01185 -2.6362 -0.618129 0
M  V30 99 C -6.22247 -1.29547 -0.0236176 0
M  V30 100 C -5.31916 -0.213393 -0.518408 0
M  V30 101 C -3.89374 -0.728156 -0.699984 0
M  V30 102 C -3.77415 -2.09738 -0.0446663 0 CFG=2
M  V30 103 C -5.40318 0.937045 0.461111 0
M  V30 104 C -4.6502 2.15446 -0.0427573 0
M  V30 105 C -3.37043 1.64606 -0.619365 0
M  V30 106 C -2.99986 0.271858 -0.0402973 0
M  V30 107 O -2.30079 2.44131 -0.620205 0
M  V30 108 C -1.6485 2.83369 0.471647 0
M  V30 109 C -1.08256 4.23187 0.123692 0
M  V30 110 C -0.123963 4.10636 -1.02941 0
M  V30 111 C 0.334355 2.70831 -1.32116 0
M  V30 112 C 0.578416 1.82163 -0.188406 0
M  V30 113 C -0.426364 2.06886 0.91026 0
M  V30 114 C 1.93935 1.80031 0.44699 0
M  V30 115 C 3.08663 1.39453 -0.360567 0 CFG=1
M  V30 116 N 4.13977 2.426 -0.447006 0 CHG=1
M  V30 117 C 4.72848 2.70021 0.849273 0
M  V30 118 C 5.42117 1.50332 1.37395 0
M  V30 119 C 4.76333 0.210805 1.11073 0
M  V30 120 C 3.81454 0.140507 -0.0479245 0 CFG=1
M  V30 121 C 5.8525 -0.818069 0.897174 0
M  V30 122 C 5.42463 -1.94464 0.0270657 0
M  V30 123 C 3.97721 -2.27375 0.321696 0
M  V30 124 C 3.01747 -1.11172 0.146926 0 CFG=2
M  V30 125 O 2.09347 -1.3229 -0.820342 0
M  V30 126 C 1.13304 -2.27553 -0.632472 0
M  V30 127 C 0.546651 -2.40906 0.706175 0
M  V30 128 C -0.377596 -3.60389 0.799991 0
M  V30 129 C -1.57638 -3.45975 -0.18636 0
M  V30 130 C -0.921581 -3.28874 -1.49074 0
M  V30 131 C 0.00943964 -2.10787 -1.6329 0
M  V30 132 C -2.44568 -2.4815 0.420761 0
M  V30 133 O -4.53105 3.10677 0.929229 0
M  V30 134 C -5.22236 4.2825 0.639974 0
M  V30 135 O -0.520977 4.8361 1.22736 0
M  V30 136 O 5.76089 -1.89421 -1.2897 0
M  V30 137 C 6.63713 -2.89344 -1.70765 0
M  V30 138 O 4.01043 -2.77048 1.62547 0
M  V30 139 C -4.54459 -4.30842 0.097007 0
M  V30 140 C 5.13931 2.01623 -1.41528 0
M  V30 141 C 3.6469 3.70013 -0.89881 0
M  V30 142 C 3.75605 -4.14994 1.5307 0
M  V30 143 C -4.34541 -3.33255 -2.06144 0
M  V30 144 C -1.20517 6.03004 1.55093 0
M  V30 145 N -4.36885 -3.21854 -0.658988 0 CHG=1
M  V30 146 C -5.62081 -3.13122 0.11151 0
M  V30 147 C -5.73605 -1.86411 0.884157 0
M  V30 148 C -5.19198 -0.675414 0.103533 0
M  V30 149 C -3.70508 -0.881852 -0.22669 0
M  V30 150 C -3.40591 -2.33325 -0.0400883 0 CFG=2
M  V30 151 C -5.40529 0.533416 0.959966 0
M  V30 152 C -4.55134 1.73171 0.51059 0
M  V30 153 C -3.12048 1.38867 0.368399 0
M  V30 154 C -2.96937 -0.0799398 0.794025 0
M  V30 155 O -2.23689 2.0919 1.13521 0
M  V30 156 C -1.22939 2.58656 0.325031 0 CFG=1
M  V30 157 C -1.24104 4.11315 0.318638 0 CFG=1
M  V30 158 C -0.354404 4.51405 -0.848536 0
M  V30 159 C 1.05468 4.0953 -0.405902 0
M  V30 160 C 1.14675 2.58772 -0.287396 0
M  V30 161 C 0.150763 2.17732 0.777828 0
M  V30 162 C 2.51345 2.19724 0.165353 0
M  V30 163 C 3.34811 1.44504 -0.814973 0 CFG=1
M  V30 164 N 4.53423 2.19789 -1.21595 0 CHG=1
M  V30 165 C 5.36619 2.57909 -0.102865 0
M  V30 166 C 5.77444 1.45096 0.761382 0
M  V30 167 C 4.79326 0.327714 0.896201 0
M  V30 168 C 3.89041 0.144874 -0.268563 0
M  V30 169 C 5.63911 -0.952651 1.00834 0
M  V30 170 C 4.75012 -2.16603 1.03957 0
M  V30 171 C 3.28566 -1.80618 1.14898 0
M  V30 172 C 2.83814 -0.888178 0.0183617 0
M  V30 173 O 2.62229 -1.61463 -1.12499 0
M  V30 174 C 1.4049 -2.06153 -1.4339 0
M  V30 175 C 0.867435 -3.25349 -0.739978 0
M  V30 176 C -0.28353 -3.80419 -1.60027 0
M  V30 177 C -1.44288 -2.78659 -1.60843 0
M  V30 178 C -0.836668 -1.53163 -2.16823 0
M  V30 179 C 0.304084 -0.993528 -1.35328 0
M  V30 180 C -1.98845 -2.73737 -0.254531 0
M  V30 181 O -4.86293 2.80733 1.29738 0
M  V30 182 C -5.58083 3.79671 0.639647 0
M  V30 183 O -2.49166 4.65986 0.251742 0
M  V30 184 O 4.98527 -3.00078 -0.0494478 0
M  V30 185 C 5.45163 -4.25281 0.339082 0
M  V30 186 O 2.91228 -1.36648 2.38281 0
M  V30 187 C -3.92395 -4.58236 -0.489068 0
M  V30 188 C 5.34746 1.38813 -2.11283 0
M  V30 189 C 4.21511 3.40755 -1.93462 0
M  V30 190 C 2.05003 -2.16175 3.08371 0
M  V30 191 C -4.65765 -2.95515 -2.01937 0
M  V30 192 C -2.67756 5.45318 1.40071 0
M  V30 193 N -4.45641 -3.06775 -0.901419 0 CHG=1
M  V30 194 C -5.81587 -2.75324 -0.408008 0
M  V30 195 C -6.10752 -1.30909 -0.744417 0
M  V30 196 C -5.16032 -0.508135 0.125808 0 CFG=1
M  V30 197 C -3.73103 -0.80794 -0.250544 0
M  V30 198 C -3.5407 -2.30555 -0.151987 0 CFG=2
M  V30 199 C -5.52742 0.943065 0.143337 0
M  V30 200 C -4.51829 1.80534 0.870817 0
M  V30 201 C -3.1069 1.38796 0.525705 0
M  V30 202 C -2.91007 -0.0907899 0.802212 0
M  V30 203 O -2.1431 2.09729 1.17674 0
M  V30 204 C -1.21961 2.61886 0.27085 0 CFG=1
M  V30 205 C -1.30943 4.11264 0.165149 0
M  V30 206 C 0.0698284 4.65513 -0.137244 0
M  V30 207 C 0.832432 3.81018 -1.13091 0
M  V30 208 C 1.08501 2.43496 -0.593283 0 CFG=2
M  V30 209 C 0.192281 2.23692 0.610385 0
M  V30 210 C 2.50045 2.18995 -0.169674 0
M  V30 211 C 3.33724 1.3343 -1.02965 0 CFG=1
M  V30 212 N 4.50759 2.07841 -1.50196 0 CHG=1
M  V30 213 C 5.32186 2.59782 -0.444162 0
M  V30 214 C 5.74191 1.59587 0.566335 0
M  V30 215 C 4.80348 0.471974 0.810954 0 CFG=1
M  V30 216 C 3.91919 0.118348 -0.321355 0
M  V30 217 C 5.66376 -0.743318 1.13534 0
M  V30 218 C 4.81869 -1.98432 1.27321 0 CFG=1
M  V30 219 C 3.34264 -1.68594 1.25589 0
M  V30 220 C 2.88984 -0.907561 0.0497255 0 CFG=2
M  V30 221 O 2.66893 -1.71138 -1.0325 0
M  V30 222 C 1.45101 -2.19365 -1.30613 0
M  V30 223 C 0.922763 -3.27985 -0.437687 0
M  V30 224 C -0.257794 -3.97037 -1.08808 0
M  V30 225 C -1.3924 -2.98936 -1.37569 0
M  V30 226 C -0.82099 -1.83272 -2.0908 0
M  V30 227 C 0.359396 -1.15774 -1.46158 0
M  V30 228 C -2.13603 -2.78921 -0.136023 0
M  V30 229 O -4.80183 1.6791 2.22647 0
M  V30 230 C -5.28296 2.80781 2.83096 0
M  V30 231 O -1.6895 4.61845 1.41446 0
M  V30 232 O 5.17622 -2.95949 0.345778 0
M  V30 233 C 5.69171 -4.10174 0.917173 0
M  V30 234 O 2.99651 -1.14426 2.45641 0
M  V30 235 C -4.28318 -4.47753 -0.486561 0
M  V30 236 C 5.37095 1.1963 -2.30375 0
M  V30 237 C 4.13975 3.16968 -2.36298 0
M  V30 238 C 2.18262 -1.90797 3.25598 0
M  V30 239 C -4.49193 -2.97429 -2.30371 0
M  V30 240 C -2.81124 5.43481 1.2805 0
M  V30 241 N -4.31347 -3.06447 0.0193286 0 CHG=1
M  V30 242 C -5.45779 -2.90268 0.933891 0
M  V30 243 C -5.51204 -1.55457 1.56115 0
M  V30 244 C -5.17234 -0.499074 0.558641 0 CFG=2
M  V30 245 C -3.75827 -0.675818 -0.0127521 0
M  V30 246 C -3.30978 -2.04768 0.328275 0 CFG=2
M  V30 247 C -5.22684 0.896167 1.17955 0
M  V30 248 C -4.64347 1.83802 0.173104 0
M  V30 249 C -3.1048 1.76639 0.180214 0
M  V30 250 C -2.81402 0.324533 0.623214 0
M  V30 251 O -2.60653 2.59226 1.07723 0
M  V30 252 C -1.41861 3.21289 1.04861 0
M  V30 253 C -1.20082 4.23998 -0.0402582 0 CFG=1
M  V30 254 C -0.558946 3.75527 -1.28176 0
M  V30 255 C 0.209615 2.43809 -1.06197 0
M  V30 256 C 0.889511 2.55239 0.227129 0 CFG=1
M  V30 257 C -0.186702 2.42603 1.32759 0
M  V30 258 C 1.99369 1.67161 0.599487 0
M  V30 259 C 3.03156 1.29785 -0.372686 0 CFG=1
M  V30 260 N 4.09011 2.28247 -0.527604 0 CHG=1
M  V30 261 C 4.89135 2.50923 0.624483 0
M  V30 262 C 5.10365 1.39659 1.56908 0
M  V30 263 C 4.55901 0.0759908 1.19614 0 CFG=1
M  V30 264 C 3.7763 0.021572 -0.0633333 0
M  V30 265 C 5.74306 -0.877839 1.00272 0
M  V30 266 C 5.27956 -2.16209 0.358886 0
M  V30 267 C 3.78082 -2.3575 0.501852 0
M  V30 268 C 2.95805 -1.24213 -0.0824332 0
M  V30 269 O 2.45605 -1.42586 -1.29751 0
M  V30 270 C 1.42507 -2.11533 -1.68981 0
M  V30 271 C 0.879853 -3.24592 -0.864326 0
M  V30 272 C -0.444047 -3.754 -1.39576 0
M  V30 273 C -1.54238 -2.70512 -1.40672 0
M  V30 274 C -0.991605 -1.61315 -2.24382 0
M  V30 275 C 0.272354 -1.07879 -1.71087 0
M  V30 276 C -1.92444 -2.44734 -0.0270852 0
M  V30 277 O -5.07689 3.14959 0.319055 0
M  V30 278 C -5.80354 3.59985 -0.777484 0
M  V30 279 O -2.35998 4.91584 -0.336865 0
M  V30 280 O 5.70728 -2.30954 -0.957575 0
M  V30 281 C 6.56429 -3.38254 -1.12931 0
M  V30 282 O 3.51171 -2.66421 1.80199 0
M  V30 283 C -3.77689 -4.37386 0.321888 0
M  V30 284 C 4.93332 1.82871 -1.62122 0
M  V30 285 C 3.59684 3.58322 -0.933493 0
M  V30 286 C 3.09576 -3.91546 2.10321 0
M  V30 287 C -4.83398 -2.99898 -1.30321 0
M  V30 288 C -2.29429 6.27807 -0.0114852 0
M  V30 289 N -4.4351 -2.92727 -0.722805 0 CHG=1
M  V30 290 C -5.67388 -2.75854 0.0559146 0
M  V30 291 C -5.76494 -1.39006 0.684799 0
M  V30 292 C -5.17585 -0.329206 -0.234556 0
M  V30 293 C -3.71365 -0.61501 -0.318517 0
M  V30 294 C -3.4449 -2.09292 -0.137877 0 CFG=2
M  V30 295 C -5.60362 1.02841 0.150553 0
M  V30 296 C -4.62192 1.85387 0.948319 0
M  V30 297 C -3.20378 1.5561 0.565775 0
M  V30 298 C -3.04368 0.0671063 0.847117 0
M  V30 299 O -2.22669 2.25178 1.1977 0
M  V30 300 C -1.11708 2.40084 0.376551 0 CFG=1
M  V30 301 C -1.16855 3.77418 -0.243045 0
M  V30 302 C -0.174903 4.64141 0.494205 0
M  V30 303 C 1.22175 4.1635 0.21553 0
M  V30 304 C 1.31817 2.65755 0.130627 0 CFG=2
M  V30 305 C 0.203199 2.14842 1.0661 0
M  V30 306 C 2.66231 2.14379 0.500997 0
M  V30 307 C 3.36665 1.40136 -0.604019 0 CFG=1
M  V30 308 N 4.5269 2.17072 -1.07935 0 CHG=1
M  V30 309 C 5.43501 2.5052 -0.0283493 0
M  V30 310 C 5.72703 1.42961 0.945889 0
M  V30 311 C 4.83539 0.260301 0.995531 0
M  V30 312 C 3.92227 0.0660854 -0.177372 0
M  V30 313 C 5.67563 -0.999876 1.13285 0
M  V30 314 C 4.85699 -2.24311 0.957634 0
M  V30 315 C 3.37238 -1.98758 1.07705 0 CFG=2
M  V30 316 C 2.8864 -0.994958 0.0391505 0 CFG=2
M  V30 317 O 2.66402 -1.61853 -1.16109 0
M  V30 318 C 1.41078 -1.97597 -1.49536 0
M  V30 319 C 0.835191 -3.1732 -0.821861 0
M  V30 320 C -0.3632 -3.67922 -1.63724 0
M  V30 321 C -1.46033 -2.58985 -1.66565 0
M  V30 322 C -0.790861 -1.38653 -2.24308 0
M  V30 323 C 0.364058 -0.876984 -1.39467 0
M  V30 324 C -2.03804 -2.50399 -0.328293 0
M  V30 325 O -4.87768 1.70112 2.29269 0
M  V30 326 C -5.29684 2.86198 2.91879 0
M  V30 327 O -2.46623 4.25787 -0.112688 0
M  V30 328 O 5.11695 -2.83411 -0.273683 0
M  V30 329 C 5.63206 -4.10637 -0.189813 0
M  V30 330 O 2.98891 -1.65237 2.35408 0
M  V30 331 C -4.05273 -4.32635 -0.466454 0
M  V30 332 C 5.2388 1.43749 -2.08756 0
M  V30 333 C 4.0883 3.42133 -1.69266 0
M  V30 334 C 2.17945 -2.54531 2.99096 0
M  V30 335 C -4.71712 -2.77446 -2.10052 0
M  V30 336 C -3.07363 4.54079 -1.3138 0
M  V30 337 N -4.49968 -3.03162 -0.457875 0 CHG=1
M  V30 338 C -5.71852 -2.76598 0.331092 0
M  V30 339 C -5.80089 -1.31087 0.746864 0
M  V30 340 C -5.1884 -0.418526 -0.326596 0
M  V30 341 C -3.71575 -0.675597 -0.461558 0
M  V30 342 C -3.47526 -2.12428 -0.072812 0 CFG=2
M  V30 343 C -5.62568 0.976943 -0.120984 0
M  V30 344 C -4.70295 1.8445 0.697587 0
M  V30 345 C -3.28416 1.6142 0.276871 0
M  V30 346 C -2.98218 0.152644 0.527993 0
M  V30 347 O -2.34675 2.32663 0.988229 0
M  V30 348 C -1.3059 2.62636 0.120215 0 CFG=1
M  V30 349 C -1.2831 4.15605 -0.032287 0 CFG=1
M  V30 350 C -0.454562 4.37622 -1.27604 0
M  V30 351 C 0.948523 3.90109 -0.946312 0
M  V30 352 C 1.02495 2.44375 -0.578866 0 CFG=2
M  V30 353 C 0.0434747 2.2274 0.587275 0
M  V30 354 C 2.39802 2.13816 -0.047967 0
M  V30 355 C 3.25258 1.25676 -0.896392 0 CFG=1
M  V30 356 N 4.48846 1.96543 -1.29239 0 CHG=1
M  V30 357 C 5.22598 2.46054 -0.171864 0
M  V30 358 C 5.08089 1.77649 1.12026 0
M  V30 359 C 4.41655 0.438327 1.14435 0
M  V30 360 C 3.78978 0.0518509 -0.169376 0
M  V30 361 C 5.48594 -0.585963 1.45744 0
M  V30 362 C 5.0562 -1.9553 0.994268 0
M  V30 363 C 3.54721 -2.08471 0.964011 0
M  V30 364 C 2.87665 -1.10025 0.0170669 0
M  V30 365 O 2.63585 -1.82138 -1.13809 0
M  V30 366 C 1.39782 -2.277 -1.38249 0
M  V30 367 C 0.800032 -3.29082 -0.495031 0
M  V30 368 C -0.366022 -3.93497 -1.24781 0
M  V30 369 C -1.48701 -2.8979 -1.48889 0
M  V30 370 C -0.824188 -1.79785 -2.25872 0
M  V30 371 C 0.349874 -1.1802 -1.54986 0
M  V30 372 C -2.07361 -2.58927 -0.195235 0
M  V30 373 O -4.92046 1.74298 2.04031 0
M  V30 374 C -5.36228 2.92339 2.62826 0
M  V30 375 O -2.53552 4.69674 -0.0994155 0
M  V30 376 O 5.65774 -2.33401 -0.194265 0
M  V30 377 C 6.47664 -3.44748 -0.0505442 0
M  V30 378 O 3.06621 -1.84127 2.2297 0
M  V30 379 C -4.08068 -4.36597 0.00269132 0
M  V30 380 C 5.33708 1.11133 -2.08182 0
M  V30 381 C 4.18243 3.11381 -2.12154 0
M  V30 382 C 2.52277 -2.92095 2.87101 0
M  V30 383 C -4.8528 -3.11353 -1.82352 0
M  V30 384 C -2.67578 5.57279 0.995734 0
M  V30 385 H -6.51539 -2.98044 -0.834572 0
M  V30 386 H -6.14998 -3.36477 0.850926 0
M  V30 387 H -5.71207 -1.13352 1.47397 0
M  V30 388 H -7.0066 -1.03601 0.267958 0
M  V30 389 H -5.65534 -0.397974 -1.49504 0
M  V30 390 H -3.41881 -0.764358 -1.63884 0
M  V30 391 H -3.86006 -1.92494 1.14751 0
M  V30 392 H -6.44604 1.25906 -0.142302 0
M  V30 393 H -5.26334 1.03184 1.1526 0
M  V30 394 H -5.06784 2.21672 -1.6411 0
M  V30 395 H -3.09726 1.1516 -1.82595 0
M  V30 396 H -1.83187 0.203269 0.0596615 0
M  V30 397 H -3.29371 0.511016 1.13721 0
M  V30 398 H -2.38179 2.78497 1.35797 0
M  V30 399 H -2.02819 4.77727 -0.392289 0
M  V30 400 H 0.173202 5.40253 -0.812269 0
M  V30 401 H 0.761897 4.6566 0.745177 0
M  V30 402 H -0.239646 3.16244 -1.68445 0
M  V30 403 H 1.43595 3.50257 -1.60867 0
M  V30 404 H 0.305936 1.25513 -0.697219 0
M  V30 405 H -0.492635 1.35048 1.63195 0
M  V30 406 H 0.0828401 3.0024 1.71448 0
M  V30 407 H 1.68414 1.02172 1.41092 0
M  V30 408 H 2.1238 2.68603 1.32707 0
M  V30 409 H 2.771 1.61326 -1.23263 0
M  V30 410 H 4.60927 2.05337 1.8989 0
M  V30 411 H 5.70921 3.29105 1.08538 0
M  V30 412 H 6.58073 1.44981 -0.373529 0
M  V30 413 H 6.78571 1.13855 1.34518 0
M  V30 414 H 5.05646 -0.245058 1.61254 0
M  V30 415 H 3.93679 -0.233995 -1.14246 0
M  V30 416 H 6.16217 -0.674079 -1.16023 0
M  V30 417 H 6.90359 -1.23176 0.352801 0
M  V30 418 H 5.63492 -3.12294 0.0495521 0
M  V30 419 H 3.2822 -3.05534 0.512545 0
M  V30 420 H 2.82002 -0.58337 1.60434 0
M  V30 421 H 1.93075 -3.06889 -0.961845 0
M  V30 422 H -0.00443337 -2.54111 1.37312 0
M  V30 423 H 1.19458 -3.81522 1.27171 0
M  V30 424 H 0.230191 -4.82035 -0.67339 0
M  V30 425 H -0.832364 -4.78242 0.84338 0
M  V30 426 H -2.14382 -4.27817 -1.18582 0
M  V30 427 H -0.146849 -3.78218 -2.3383 0
M  V30 428 H -1.30478 -2.50369 -2.69921 0
M  V30 429 H -0.184139 -0.944925 -1.17544 0
M  V30 430 H 0.905064 -1.65697 -2.35804 0
M  V30 431 H -1.98618 -3.00691 1.24463 0
M  V30 432 H -1.44227 -1.67265 0.259128 0
M  V30 433 H -6.33376 3.95041 -0.932455 0
M  V30 434 H -4.73726 4.61249 -1.60497 0
M  V30 435 H -5.38645 5.14311 -0.0363459 0
M  V30 436 H 6.16253 -3.61091 -2.01503 0
M  V30 437 H 4.70611 -4.48506 -1.4017 0
M  V30 438 H 4.71818 -3.78553 -3.0784 0
M  V30 439 H -4.22041 -5.23024 -0.54837 0
M  V30 440 H -5.05499 -4.63724 0.876484 0
M  V30 441 H -3.30917 -4.45135 0.865533 0
M  V30 442 H 5.06282 1.36276 -1.71993 0
M  V30 443 H 4.26046 2.86534 -2.16067 0
M  V30 444 H 5.84115 3.02581 -1.40578 0
M  V30 445 H 3.62046 4.28108 -1.16856 0
M  V30 446 H 4.77314 4.45839 0.122278 0
M  V30 447 H 3.11306 4.25741 0.602576 0
M  V30 448 H 2.84572 -3.57809 2.9367 0
M  V30 449 H 4.32108 -3.2245 3.82769 0
M  V30 450 H 4.45313 -4.35181 2.48257 0
M  V30 451 H -4.35462 -4.33442 -2.11331 0
M  V30 452 H -5.41048 -2.92873 -2.28734 0
M  V30 453 H -3.66046 -2.71672 -2.35192 0
M  V30 454 H -2.51195 6.34465 2.58236 0
M  V30 455 H -2.11398 6.70425 0.861446 0
M  V30 456 H -3.41508 5.54605 1.26332 0
M  V30 457 H -6.28694 -2.71615 -1.79556 0
M  V30 458 H -6.2173 -2.61198 0.0338426 0
M  V30 459 H -7.08006 -0.558197 -0.994314 0
M  V30 460 H -5.54391 -0.203898 -1.76309 0
M  V30 461 H -6.33986 -0.723261 1.10993 0
M  V30 462 H -4.36358 -1.18234 1.97398 0
M  V30 463 H -3.79631 -2.97687 0.873954 0
M  V30 464 H -6.65071 1.44229 0.118588 0
M  V30 465 H -5.7645 1.46355 1.64329 0
M  V30 466 H -4.5269 2.94044 0.431317 0
M  V30 467 H -3.42464 0.673192 -1.15583 0
M  V30 468 H -3.80996 0.956265 1.83686 0
M  V30 469 H -2.32684 0.221144 1.34985 0
M  V30 470 H -2.48071 3.20136 1.33342 0
M  V30 471 H -2.08719 4.2316 -0.93266 0
M  V30 472 H -0.34448 3.54925 -2.15004 0
M  V30 473 H 0.774804 4.21311 -0.913878 0
M  V30 474 H -0.268585 1.42542 -1.51081 0
M  V30 475 H 1.36669 2.02408 -1.4009 0
M  V30 476 H -0.130274 0.583078 0.539872 0
M  V30 477 H -0.752275 1.92903 2.34967 0
M  V30 478 H 0.0642747 3.33932 1.65493 0
M  V30 479 H 1.58184 0.526103 1.96032 0
M  V30 480 H 1.82455 2.25186 1.9984 0
M  V30 481 H 2.81997 0.950032 -0.532306 0
M  V30 482 H 4.75784 2.00232 2.31452 0
M  V30 483 H 5.55986 3.2646 1.32388 0
M  V30 484 H 6.31636 1.65402 -0.310182 0
M  V30 485 H 6.87551 1.26483 1.32433 0
M  V30 486 H 5.72623 -0.673097 1.35609 0
M  V30 487 H 3.81248 0.204421 2.17142 0
M  V30 488 H 4.57334 -0.290667 -1.42816 0
M  V30 489 H 6.38346 -0.309063 -1.11408 0
M  V30 490 H 6.26571 -2.43532 -0.253446 0
M  V30 491 H 3.64889 -3.25867 0.0948549 0
M  V30 492 H 2.73643 -1.67322 1.77644 0
M  V30 493 H 2.23068 -2.94232 -1.28222 0
M  V30 494 H 1.67266 -3.29695 1.36316 0
M  V30 495 H 1.28395 -4.42739 0.0794771 0
M  V30 496 H -0.51832 -4.22523 1.46623 0
M  V30 497 H -0.409323 -2.47125 1.60732 0
M  V30 498 H -1.90796 -4.06163 -0.281686 0
M  V30 499 H 0.00179233 -3.95767 -1.55783 0
M  V30 500 H -1.16647 -2.96374 -2.41766 0
M  V30 501 H 0.106911 -0.91792 -1.21756 0
M  V30 502 H 0.823666 -1.80744 -2.54863 0
M  V30 503 H -1.9661 -1.69361 1.19269 0
M  V30 504 H -1.96514 -1.11387 -0.568123 0
M  V30 505 H -6.06372 4.00092 -0.760875 0
M  V30 506 H -5.75316 4.01085 -2.503 0
M  V30 507 H -4.42377 4.35677 -1.33381 0
M  V30 508 H 6.83815 -2.93347 -2.46963 0
M  V30 509 H 6.03054 -4.25736 -1.52575 0
M  V30 510 H 5.57816 -3.91588 -3.22817 0
M  V30 511 H -3.67629 -4.3761 -1.84487 0
M  V30 512 H -5.37344 -4.41139 -1.43269 0
M  V30 513 H -4.24935 -4.48592 -0.0776557 0
M  V30 514 H 3.7677 2.06739 -1.55283 0
M  V30 515 H 5.12254 3.17967 -0.970514 0
M  V30 516 H 3.44705 3.75222 -1.11441 0
M  V30 517 H 2.24489 3.90022 0.88144 0
M  V30 518 H 3.37094 3.5641 2.30153 0
M  V30 519 H 3.90506 4.433 0.883637 0
M  V30 520 H 3.65711 -4.40259 2.07274 0
M  V30 521 H 5.21659 -4.29356 2.88802 0
M  V30 522 H 5.23421 -4.82748 1.19899 0
M  V30 523 H -3.53902 -2.96886 -2.86771 0
M  V30 524 H -4.71421 -1.65697 -2.90087 0
M  V30 525 H -3.07466 -1.393 -2.24748 0
M  V30 526 H -1.71604 6.92179 0.974276 0
M  V30 527 H -1.90132 6.35596 -0.75755 0
M  V30 528 H -2.90441 5.63321 0.510435 0
M  V30 529 H -6.49385 -2.64513 -1.62468 0
M  V30 530 H -6.64352 -3.35132 -0.0200573 0
M  V30 531 H -6.30275 -1.30721 1.10496 0
M  V30 532 H -7.27269 -0.988005 -0.319844 0
M  V30 533 H -5.7363 0.167584 -1.47917 0
M  V30 534 H -3.68911 -0.722008 -1.76383 0
M  V30 535 H -4.37008 -1.89215 0.925148 0
M  V30 536 H -6.48562 1.22393 0.479199 0
M  V30 537 H -5.14797 0.661567 1.48779 0
M  V30 538 H -5.30632 2.60176 -0.848296 0
M  V30 539 H -3.6003 1.41494 -1.70725 0
M  V30 540 H -1.93102 0.19186 -0.281272 0
M  V30 541 H -3.20757 0.234611 1.04679 0
M  V30 542 H -2.24439 3.00399 1.39274 0
M  V30 543 H -1.93464 4.85497 -0.215909 0
M  V30 544 H -0.57882 4.49572 -1.9834 0
M  V30 545 H 0.735338 4.74511 -0.817422 0
M  V30 546 H -0.448403 2.21181 -1.98569 0
M  V30 547 H 1.16792 2.80223 -2.06009 0
M  V30 548 H 0.379284 0.752425 -0.511591 0
M  V30 549 H -0.659435 1.16346 1.50189 0
M  V30 550 H 0.0862515 2.75875 1.64932 0
M  V30 551 H 1.84293 1.08384 1.31791 0
M  V30 552 H 2.05494 2.79377 0.955918 0
M  V30 553 H 2.72882 1.30807 -1.43276 0
M  V30 554 H 3.97951 3.10258 1.52595 0
M  V30 555 H 5.47127 3.50648 0.674809 0
M  V30 556 H 5.50893 1.6331 2.49422 0
M  V30 557 H 6.49923 1.53509 1.03618 0
M  V30 558 H 4.17444 -0.115024 2.02052 0
M  V30 559 H 4.45949 -0.0391645 -0.961639 0
M  V30 560 H 6.72715 -0.291578 0.460444 0
M  V30 561 H 6.15885 -1.16136 1.91294 0
M  V30 562 H 5.99445 -2.84571 0.425725 0
M  V30 563 H 3.72237 -3.05629 -0.429511 0
M  V30 564 H 2.44854 -1.0722 1.13004 0
M  V30 565 H 1.60968 -3.26718 -0.899065 0
M  V30 566 H 0.0326864 -1.48569 1.05941 0
M  V30 567 H 1.27841 -2.62331 1.52467 0
M  V30 568 H 0.159864 -4.5314 0.596759 0
M  V30 569 H -0.841999 -3.62332 1.80553 0
M  V30 570 H -1.97146 -4.51618 -0.166557 0
M  V30 571 H -0.203296 -4.17993 -1.57293 0
M  V30 572 H -1.54369 -3.4342 -2.39727 0
M  V30 573 H -0.491959 -1.15186 -1.51217 0
M  V30 574 H 0.422394 -2.20522 -2.6853 0
M  V30 575 H -2.56066 -2.83536 1.51658 0
M  V30 576 H -1.86902 -1.53839 0.596333 0
M  V30 577 H -6.30645 4.12336 0.512702 0
M  V30 578 H -4.73814 4.84192 -0.173616 0
M  V30 579 H -5.11829 4.92123 1.56426 0
M  V30 580 H 7.57464 -2.82154 -1.13891 0
M  V30 581 H 6.10705 -3.8658 -1.48349 0
M  V30 582 H 6.8641 -2.81728 -2.78817 0
M  V30 583 H -4.22508 -5.16734 -0.52599 0
M  V30 584 H -5.58894 -4.5961 0.420177 0
M  V30 585 H -3.99816 -4.18851 1.04241 0
M  V30 586 H 4.6326 1.6386 -2.32079 0
M  V30 587 H 5.66221 2.96242 -1.7448 0
M  V30 588 H 5.92123 1.37522 -1.02895 0
M  V30 589 H 3.35664 3.70319 -1.96929 0
M  V30 590 H 2.95525 4.18469 -0.21506 0
M  V30 591 H 4.56889 4.3662 -0.883356 0
M  V30 592 H 4.58317 -4.59298 0.89339 0
M  V30 593 H 2.85798 -4.25895 0.889146 0
M  V30 594 H 3.67203 -4.63802 2.50497 0
M  V30 595 H -3.82554 -4.33548 -2.11412 0
M  V30 596 H -3.7898 -2.56687 -2.59715 0
M  V30 597 H -5.29143 -3.50418 -2.65745 0
M  V30 598 H -0.761301 6.50866 2.42316 0
M  V30 599 H -1.2438 6.69941 0.652096 0
M  V30 600 H -2.25882 5.78227 1.79506 0
M  V30 601 H -6.49234 -3.17394 -0.606291 0
M  V30 602 H -5.76127 -3.97392 0.792441 0
M  V30 603 H -5.33845 -1.91549 1.9098 0
M  V30 604 H -6.83461 -1.63781 1.0052 0
M  V30 605 H -5.80433 -0.595468 -0.817974 0
M  V30 606 H -3.59776 -0.509497 -1.25624 0
M  V30 607 H -3.576 -2.50839 1.07384 0
M  V30 608 H -6.46742 0.868559 0.762942 0
M  V30 609 H -5.35231 0.363473 2.03629 0
M  V30 610 H -4.96619 1.95195 -0.518804 0
M  V30 611 H -2.79391 1.39078 -0.703124 0
M  V30 612 H -1.90963 -0.254086 0.90377 0
M  V30 613 H -3.43722 -0.267491 1.78024 0
M  V30 614 H -1.32686 2.27487 -0.73548 0
M  V30 615 H -0.684871 4.42462 1.24959 0
M  V30 616 H -0.323554 5.61859 -0.951929 0
M  V30 617 H -0.635132 4.00807 -1.78931 0
M  V30 618 H 1.721 4.54424 -1.13243 0
M  V30 619 H 1.15172 4.50039 0.627053 0
M  V30 620 H 0.883644 2.18795 -1.29053 0
M  V30 621 H 0.215288 1.13395 1.08092 0
M  V30 622 H 0.384205 2.79244 1.67386 0
M  V30 623 H 2.39849 1.51193 1.05753 0
M  V30 624 H 2.995 3.10102 0.59205 0
M  V30 625 H 2.77444 1.22254 -1.72191 0
M  V30 626 H 4.97894 3.42836 0.493372 0
M  V30 627 H 6.30304 2.9993 -0.580925 0
M  V30 628 H 5.95632 1.87198 1.79573 0
M  V30 629 H 6.80271 1.086 0.464793 0
M  V30 630 H 4.18263 0.49281 1.79588 0
M  V30 631 H 4.53306 -0.281588 -1.09635 0
M  V30 632 H 6.23453 -0.998139 0.0741023 0
M  V30 633 H 6.3572 -0.896712 1.84341 0
M  V30 634 H 5.00504 -2.74095 1.95101 0
M  V30 635 H 2.76734 -2.77614 0.983882 0
M  V30 636 H 1.91484 -0.399869 0.388614 0
M  V30 637 H 1.42055 -2.31882 -2.53935 0
M  V30 638 H 0.488582 -3.04986 0.281452 0
M  V30 639 H 1.57273 -4.10345 -0.659517 0
M  V30 640 H 0.098701 -3.8481 -2.62136 0
M  V30 641 H -0.626995 -4.78525 -1.21502 0
M  V30 642 H -2.12486 -3.17109 -2.4027 0
M  V30 643 H -0.378739 -1.83936 -3.15748 0
M  V30 644 H -1.51495 -0.723622 -2.39928 0
M  V30 645 H 0.0612005 -0.815507 -0.308295 0
M  V30 646 H 0.706862 -0.119406 -1.8985 0
M  V30 647 H -1.89749 -3.77538 0.194816 0
M  V30 648 H -1.32667 -2.12817 0.389524 0
M  V30 649 H -5.82488 4.65141 1.26461 0
M  V30 650 H -6.57119 3.31869 0.374945 0
M  V30 651 H -5.09552 4.00259 -0.316493 0
M  V30 652 H 6.41782 -4.10267 0.902877 0
M  V30 653 H 4.78016 -4.79178 1.01363 0
M  V30 654 H 5.7171 -4.88229 -0.522422 0
M  V30 655 H -3.22002 -4.94318 -1.23506 0
M  V30 656 H -4.85219 -5.21517 -0.622416 0
M  V30 657 H -3.6198 -4.7924 0.570182 0
M  V30 658 H 4.7294 0.80325 -2.80164 0
M  V30 659 H 6.14422 0.825375 -1.58974 0
M  V30 660 H 5.91576 2.11811 -2.76134 0
M  V30 661 H 3.37819 3.30262 -2.64122 0
M  V30 662 H 4.10295 4.28416 -1.24736 0
M  V30 663 H 5.11525 3.65627 -2.55282 0
M  V30 664 H 2.44092 -3.18472 3.28873 0
M  V30 665 H 1.14652 -2.31139 2.45503 0
M  V30 666 H 1.66779 -1.68086 4.01758 0
M  V30 667 H -4.40532 -3.86022 -2.64776 0
M  V30 668 H -4.2312 -2.03642 -2.44425 0
M  V30 669 H -5.77328 -2.84952 -2.17564 0
M  V30 670 H -2.57169 4.77012 2.26998 0
M  V30 671 H -1.85455 6.19629 1.50183 0
M  V30 672 H -3.63572 5.97966 1.39741 0
M  V30 673 H -6.54661 -3.38873 -0.946082 0
M  V30 674 H -5.86945 -2.86202 0.685621 0
M  V30 675 H -7.14561 -1.10428 -0.360749 0
M  V30 676 H -5.95719 -1.0357 -1.78577 0
M  V30 677 H -5.30007 -0.899235 1.16768 0
M  V30 678 H -3.55656 -0.397639 -1.24097 0
M  V30 679 H -3.8793 -2.48457 0.931452 0
M  V30 680 H -5.62705 1.28761 -0.903905 0
M  V30 681 H -6.50781 1.10631 0.63061 0
M  V30 682 H -4.73619 2.84497 0.591335 0
M  V30 683 H -2.9845 1.51135 -0.566301 0
M  V30 684 H -1.84538 -0.266182 0.77384 0
M  V30 685 H -3.26747 -0.364692 1.82112 0
M  V30 686 H -1.44065 2.20532 -0.739116 0
M  V30 687 H -2.01582 4.44529 -0.626607 0
M  V30 688 H -0.0252997 5.6681 -0.636165 0
M  V30 689 H 0.707514 4.77661 0.757955 0
M  V30 690 H 0.268244 3.75118 -2.10538 0
M  V30 691 H 1.73581 4.3946 -1.36864 0
M  V30 692 H 0.738814 1.70475 -1.3488 0
M  V30 693 H 0.269776 1.20364 1.0145 0
M  V30 694 H 0.565159 2.89492 1.41865 0
M  V30 695 H 2.47965 1.72931 0.839543 0
M  V30 696 H 2.92939 3.21858 0.0235897 0
M  V30 697 H 2.85232 0.925877 -1.93967 0
M  V30 698 H 4.91247 3.48798 0.0732499 0
M  V30 699 H 6.25425 2.97937 -0.939732 0
M  V30 700 H 6.78675 1.21933 0.339103 0
M  V30 701 H 5.89641 2.13038 1.55212 0
M  V30 702 H 4.15178 0.728031 1.68123 0
M  V30 703 H 4.57928 -0.37267 -1.09887 0
M  V30 704 H 6.35146 -0.916464 0.282579 0
M  V30 705 H 6.30497 -0.540191 2.017 0
M  V30 706 H 5.05086 -2.40531 2.27686 0
M  V30 707 H 2.85736 -2.68577 1.18923 0
M  V30 708 H 1.9478 -0.340972 0.254642 0
M  V30 709 H 1.52491 -2.65844 -2.34105 0
M  V30 710 H 0.568806 -2.93945 0.539947 0
M  V30 711 H 1.7084 -4.08008 -0.383868 0
M  V30 712 H 0.0608306 -4.53178 -1.98364 0
M  V30 713 H -0.659703 -4.69817 -0.356688 0
M  V30 714 H -2.0105 -3.54452 -2.13287 0
M  V30 715 H -0.44738 -2.22339 -3.08557 0
M  V30 716 H -1.5496 -1.04726 -2.36213 0
M  V30 717 H 0.119073 -0.618307 -0.538762 0
M  V30 718 H 0.751938 -0.454112 -2.26201 0
M  V30 719 H -2.20022 -3.82365 0.352691 0
M  V30 720 H -1.55947 -2.22285 0.619665 0
M  V30 721 H -5.50146 2.69725 3.89593 0
M  V30 722 H -6.2614 3.04007 2.30965 0
M  V30 723 H -4.64266 3.68096 2.59908 0
M  V30 724 H 6.61491 -3.83922 1.50862 0
M  V30 725 H 4.97873 -4.71477 1.47985 0
M  V30 726 H 6.0795 -4.72805 0.0792823 0
M  V30 727 H -3.53361 -4.99257 -1.07841 0
M  V30 728 H -5.27587 -4.96373 -0.701216 0
M  V30 729 H -4.12404 -4.45423 0.596422 0
M  V30 730 H 4.78992 0.509617 -2.9179 0
M  V30 731 H 5.91828 1.86839 -3.00984 0
M  V30 732 H 6.16784 0.735527 -1.68801 0
M  V30 733 H 3.22085 2.96807 -2.95316 0
M  V30 734 H 4.95597 3.31664 -3.09962 0
M  V30 735 H 4.07855 4.14362 -1.81194 0
M  V30 736 H 2.60928 -2.89308 3.53813 0
M  V30 737 H 1.25995 -2.13185 2.6787 0
M  V30 738 H 1.85276 -1.4184 4.17563 0
M  V30 739 H -4.26716 -3.98663 -2.75908 0
M  V30 740 H -3.88066 -2.19409 -2.77179 0
M  V30 741 H -5.53719 -2.79472 -2.70602 0
M  V30 742 H -3.07922 5.80609 2.29143 0
M  V30 743 H -2.48648 6.3424 0.702592 0
M  V30 744 H -3.65046 4.95364 0.781967 0
M  V30 745 H -6.42719 -3.09201 0.38451 0
M  V30 746 H -5.45365 -3.65497 1.74865 0
M  V30 747 H -4.95136 -1.46416 2.51355 0
M  V30 748 H -6.58699 -1.36855 1.84577 0
M  V30 749 H -5.94404 -0.512763 -0.236617 0
M  V30 750 H -3.82646 -0.429849 -1.06681 0
M  V30 751 H -3.30729 -2.06571 1.47036 0
M  V30 752 H -6.3234 1.15026 1.24546 0
M  V30 753 H -4.74246 0.88974 2.15377 0
M  V30 754 H -5.01716 1.49996 -0.824716 0
M  V30 755 H -2.82373 1.8712 -0.867793 0
M  V30 756 H -1.83016 0.0957422 0.196024 0
M  V30 757 H -2.87138 0.22205 1.70961 0
M  V30 758 H -1.51995 3.87954 1.98655 0
M  V30 759 H -0.496453 5.01165 0.399509 0
M  V30 760 H 0.186631 4.48479 -1.66281 0
M  V30 761 H -1.27612 3.62929 -2.14093 0
M  V30 762 H -0.494426 1.58816 -1.06583 0
M  V30 763 H 0.819023 2.32211 -1.9697 0
M  V30 764 H 1.21523 3.62954 0.346701 0
M  V30 765 H 0.383831 2.76991 2.24822 0
M  V30 766 H -0.32603 1.35374 1.52401 0
M  V30 767 H 1.55104 0.770391 1.11811 0
M  V30 768 H 2.53674 2.17771 1.46039 0
M  V30 769 H 2.60478 1.14602 -1.38358 0
M  V30 770 H 4.57933 3.44324 1.16846 0
M  V30 771 H 5.91752 2.79791 0.22949 0
M  V30 772 H 4.60644 1.68381 2.54865 0
M  V30 773 H 6.19118 1.31526 1.89367 0
M  V30 774 H 3.93492 -0.386783 2.00337 0
M  V30 775 H 4.52156 -0.105277 -0.906801 0
M  V30 776 H 6.43108 -0.383858 0.289324 0
M  V30 777 H 6.28379 -1.01078 1.94728 0
M  V30 778 H 5.76342 -2.97906 0.931544 0
M  V30 779 H 3.57765 -3.25579 -0.118871 0
M  V30 780 H 2.12834 -1.08703 0.641007 0
M  V30 781 H 1.51195 -2.46588 -2.73764 0
M  V30 782 H 0.799456 -2.92417 0.199201 0
M  V30 783 H 1.50354 -4.16228 -0.86447 0
M  V30 784 H -0.251383 -4.10248 -2.43256 0
M  V30 785 H -0.757875 -4.58603 -0.727635 0
M  V30 786 H -2.35709 -3.18029 -2.00764 0
M  V30 787 H -0.740779 -2.08128 -3.24453 0
M  V30 788 H -1.68418 -0.800434 -2.48177 0
M  V30 789 H 0.211782 -0.63557 -0.682693 0
M  V30 790 H 0.624848 -0.249172 -2.36313 0
M  V30 791 H -1.78379 -3.42919 0.538797 0
M  V30 792 H -1.1923 -1.79553 0.475116 0
M  V30 793 H -6.70408 3.02422 -0.986587 0
M  V30 794 H -5.07939 3.5926 -1.64301 0
M  V30 795 H -6.01481 4.67729 -0.596374 0
M  V30 796 H 7.46103 -3.26643 -0.513382 0
M  V30 797 H 5.97679 -4.30118 -0.859318 0
M  V30 798 H 6.76733 -3.46072 -2.21914 0
M  V30 799 H -3.12529 -4.80353 -0.430452 0
M  V30 800 H -4.67838 -5.05636 0.370216 0
M  V30 801 H -3.37759 -4.39016 1.36067 0
M  V30 802 H 4.35771 1.25092 -2.37568 0
M  V30 803 H 5.29777 2.72939 -2.21112 0
M  V30 804 H 5.86343 1.32748 -1.28592 0
M  V30 805 H 2.79519 3.5877 -1.65388 0
M  V30 806 H 4.46734 4.07667 -1.47093 0
M  V30 807 H 3.46625 4.25538 -0.0468586 0
M  V30 808 H 2.15675 -4.26172 1.62637 0
M  V30 809 H 2.84925 -3.91182 3.20972 0
M  V30 810 H 3.89752 -4.69757 2.02628 0
M  V30 811 H -4.61515 -3.95883 -1.85921 0
M  V30 812 H -4.51256 -2.14966 -1.91149 0
M  V30 813 H -5.96526 -2.9583 -1.33002 0
M  V30 814 H -2.10779 6.44216 1.06921 0
M  V30 815 H -1.35498 6.64647 -0.519732 0
M  V30 816 H -3.13586 6.8442 -0.406093 0
M  V30 817 H -6.54623 -2.88634 -0.616849 0
M  V30 818 H -5.76672 -3.49814 0.861308 0
M  V30 819 H -5.307 -1.33508 1.68465 0
M  V30 820 H -6.84086 -1.14866 0.79705 0
M  V30 821 H -5.68602 -0.559132 -1.23828 0
M  V30 822 H -3.38085 -0.224328 -1.29645 0
M  V30 823 H -3.61662 -2.24374 0.986564 0
M  V30 824 H -5.77478 1.6174 -0.806697 0
M  V30 825 H -6.62305 1.05413 0.622064 0
M  V30 826 H -4.82444 2.91591 0.70253 0
M  V30 827 H -3.05341 1.67851 -0.528567 0
M  V30 828 H -1.96943 -0.100084 0.934452 0
M  V30 829 H -3.55938 -0.229605 1.78017 0
M  V30 830 H -1.23061 1.67353 -0.470307 0
M  V30 831 H -0.94471 3.73513 -1.33599 0
M  V30 832 H -0.28501 5.71595 0.219178 0
M  V30 833 H -0.377157 4.53403 1.57715 0
M  V30 834 H 1.51847 4.63328 -0.768285 0
M  V30 835 H 1.96496 4.51268 0.941192 0
M  V30 836 H 0.97967 2.29404 -0.88356 0
M  V30 837 H 0.407857 1.06503 1.17919 0
M  V30 838 H 0.22511 2.67312 2.03895 0
M  V30 839 H 2.52098 1.39049 1.33139 0
M  V30 840 H 3.25537 2.95377 0.947441 0
M  V30 841 H 2.67195 1.3349 -1.44922 0
M  V30 842 H 5.16228 3.48343 0.472535 0
M  V30 843 H 6.40495 2.78053 -0.546609 0
M  V30 844 H 5.72122 1.91129 1.9725 0
M  V30 845 H 6.80595 1.09421 0.859079 0
M  V30 846 H 4.16854 0.300261 1.90452 0
M  V30 847 H 4.57473 -0.291572 -1.01576 0
M  V30 848 H 6.4365 -0.987947 0.326615 0
M  V30 849 H 6.2209 -0.945546 2.08684 0
M  V30 850 H 5.13663 -2.96761 1.74175 0
M  V30 851 H 2.89146 -2.95991 0.852806 0
M  V30 852 H 1.92944 -0.611938 0.413936 0
M  V30 853 H 1.45326 -2.24521 -2.59815 0
M  V30 854 H 0.403472 -2.93293 0.169401 0
M  V30 855 H 1.54083 -4.02859 -0.806168 0
M  V30 856 H -0.0810162 -3.99223 -2.64105 0
M  V30 857 H -0.787447 -4.51625 -1.04416 0
M  V30 858 H -2.17053 -2.96598 -2.42869 0
M  V30 859 H -0.292016 -1.75027 -3.19487 0
M  V30 860 H -1.39405 -0.553128 -2.54734 0
M  V30 861 H 0.0563098 -0.701009 -0.359046 0
M  V30 862 H 0.727239 0.0338761 -1.90664 0
M  V30 863 H -1.98326 -3.54999 0.130412 0
M  V30 864 H -1.36073 -1.93383 0.361215 0
M  V30 865 H -5.50106 2.74804 3.97941 0
M  V30 866 H -6.23561 3.17538 2.41689 0
M  V30 867 H -4.56514 3.69012 2.70676 0
M  V30 868 H 6.6028 -4.14469 0.365135 0
M  V30 869 H 4.86963 -4.78239 0.258237 0
M  V30 870 H 5.78861 -4.47797 -1.22709 0
M  V30 871 H -3.32079 -4.6952 -1.19156 0
M  V30 872 H -5.00022 -4.90742 -0.642625 0
M  V30 873 H -3.78818 -4.4613 0.585599 0
M  V30 874 H 4.59028 0.814059 -2.72882 0
M  V30 875 H 6.11323 0.871819 -1.67192 0
M  V30 876 H 5.7159 2.17953 -2.79614 0
M  V30 877 H 3.24563 3.25432 -2.39056 0
M  V30 878 H 3.92362 4.19913 -0.949462 0
M  V30 879 H 4.94308 3.75629 -2.32888 0
M  V30 880 H 2.64603 -3.56399 3.10562 0
M  V30 881 H 1.27804 -2.70616 2.36808 0
M  V30 882 H 1.79818 -2.17485 3.96777 0
M  V30 883 H -4.43687 -3.71366 -2.67243 0
M  V30 884 H -4.28559 -1.88893 -2.60474 0
M  V30 885 H -5.8159 -2.71729 -2.25337 0
M  V30 886 H -2.53494 5.30926 -1.9069 0
M  V30 887 H -3.31473 3.6355 -1.888 0
M  V30 888 H -4.0621 5.01494 -1.06047 0
M  V30 889 H -6.61359 -2.98517 -0.285749 0
M  V30 890 H -5.77509 -3.36959 1.23655 0
M  V30 891 H -5.37293 -1.12166 1.75137 0
M  V30 892 H -6.87299 -1.03695 0.80141 0
M  V30 893 H -5.7319 -0.768539 -1.27644 0
M  V30 894 H -3.46401 -0.459201 -1.51407 0
M  V30 895 H -3.62005 -2.08117 1.06796 0
M  V30 896 H -5.63961 1.46716 -1.14563 0
M  V30 897 H -6.68377 1.06936 0.213168 0
M  V30 898 H -4.95375 2.90979 0.417039 0
M  V30 899 H -3.16139 1.78981 -0.811285 0
M  V30 900 H -1.88103 0.0743051 0.468051 0
M  V30 901 H -3.26066 -0.161248 1.55184 0
M  V30 902 H -1.46343 2.20197 -0.896211 0
M  V30 903 H -0.689852 4.52356 0.841237 0
M  V30 904 H -0.381518 5.47293 -1.41864 0
M  V30 905 H -0.844179 3.84766 -2.15288 0
M  V30 906 H 1.54049 4.14922 -1.84858 0
M  V30 907 H 1.26005 4.48046 -0.0552793 0
M  V30 908 H 0.783129 1.77311 -1.40234 0
M  V30 909 H 0.140767 1.2362 1.01983 0
M  V30 910 H 0.39582 2.95452 1.37411 0
M  V30 911 H 2.34624 1.67622 0.975387 0
M  V30 912 H 2.91679 3.10902 0.108865 0
M  V30 913 H 2.76208 0.930007 -1.81686 0
M  V30 914 H 5.06669 3.58029 -0.0339058 0
M  V30 915 H 6.3194 2.43975 -0.481682 0
M  V30 916 H 4.47892 2.44677 1.80651 0
M  V30 917 H 6.08548 1.74764 1.64177 0
M  V30 918 H 3.63958 0.373384 1.92724 0
M  V30 919 H 4.6315 -0.325911 -0.800558 0
M  V30 920 H 6.42522 -0.296698 0.968472 0
M  V30 921 H 5.65638 -0.583678 2.56598 0
M  V30 922 H 5.40731 -2.67483 1.76358 0
M  V30 923 H 3.40451 -3.15043 0.647458 0
M  V30 924 H 1.90179 -0.739136 0.397246 0
M  V30 925 H 1.43577 -2.74829 -2.41667 0
M  V30 926 H 0.38673 -2.79594 0.399087 0
M  V30 927 H 1.4498 -4.1518 -0.246785 0
M  V30 928 H 0.0317666 -4.31096 -2.19404 0
M  V30 929 H -0.766465 -4.73037 -0.585627 0
M  V30 930 H -2.17106 -3.41482 -2.19293 0
M  V30 931 H -0.38639 -2.29345 -3.17929 0
M  V30 932 H -1.45473 -1.00408 -2.63361 0
M  V30 933 H 0.11348 -0.78753 -0.565211 0
M  V30 934 H 0.766039 -0.427849 -2.27195 0
M  V30 935 H -2.01165 -3.52254 0.452103 0
M  V30 936 H -1.4002 -1.87949 0.367296 0
M  V30 937 H -5.53409 2.83876 3.69849 0
M  V30 938 H -6.34719 3.15692 2.12583 0
M  V30 939 H -4.67874 3.72846 2.31548 0
M  V30 940 H 7.29777 -3.28348 0.666542 0
M  V30 941 H 5.83515 -4.283 0.302589 0
M  V30 942 H 6.85756 -3.73817 -1.05033 0
M  V30 943 H -3.32787 -4.82257 -0.636854 0
M  V30 944 H -4.99684 -4.99745 -0.0458379 0
M  V30 945 H -3.79886 -4.34053 1.08264 0
M  V30 946 H 4.81788 0.359355 -2.68511 0
M  V30 947 H 6.21072 0.699648 -1.49454 0
M  V30 948 H 5.86817 1.75588 -2.84956 0
M  V30 949 H 3.45348 2.80793 -2.88836 0
M  V30 950 H 3.91304 4.00183 -1.54261 0
M  V30 951 H 5.12867 3.36592 -2.66014 0
M  V30 952 H 1.67768 -3.34336 2.33188 0
M  V30 953 H 2.15842 -2.55314 3.87114 0
M  V30 954 H 3.2955 -3.6996 3.13788 0
M  V30 955 H -4.6293 -4.14932 -2.22362 0
M  V30 956 H -4.41518 -2.34114 -2.48898 0
M  V30 957 H -5.961 -3.03563 -1.97654 0
M  V30 958 H -2.54692 5.00488 1.95265 0
M  V30 959 H -1.87563 6.33912 0.997387 0
M  V30 960 H -3.64745 6.06821 1.02117 0
M  V30 END ATOM
M  V30 BEGIN BOND
M  V30 1 1 1 2
M  V30 2 1 2 3
M  V30 3 1 3 4
M  V30 4 1 4 5
M  V30 5 1 1 6
M  V30 6 1 5 6
M  V30 7 1 4 7
M  V30 8 1 7 8
M  V30 9 1 8 9
M  V30 10 1 5 10
M  V30 11 1 9 10
M  V30 12 1 9 11
M  V30 13 1 11 12
M  V30 14 1 12 13
M  V30 15 1 13 14
M  V30 16 1 14 15
M  V30 17 1 15 16
M  V30 18 1 12 17
M  V30 19 1 16 17
M  V30 20 1 16 18
M  V30 21 1 18 19
M  V30 22 1 19 20
M  V30 23 1 20 21
M  V30 24 1 21 22
M  V30 25 1 22 23
M  V30 26 1 19 24
M  V30 27 1 23 24
M  V30 28 1 23 25
M  V30 29 1 25 26
M  V30 30 1 26 27
M  V30 31 1 24 28
M  V30 32 1 27 28
M  V30 33 1 28 29
M  V30 34 1 29 30
M  V30 35 1 30 31
M  V30 36 1 31 32
M  V30 37 1 32 33
M  V30 38 1 33 34
M  V30 39 1 30 35
M  V30 40 1 34 35
M  V30 41 1 6 36
M  V30 42 1 33 36
M  V30 43 1 8 37
M  V30 44 1 37 38
M  V30 45 1 13 39
M  V30 46 1 26 40
M  V30 47 1 40 41
M  V30 48 1 27 42
M  V30 49 1 1 43
M  V30 50 1 20 44
M  V30 51 1 20 45
M  V30 52 1 42 46
M  V30 53 1 1 47
M  V30 54 1 39 48
M  V30 55 1 49 50
M  V30 56 1 50 51
M  V30 57 1 51 52
M  V30 58 1 52 53
M  V30 59 1 49 54
M  V30 60 1 53 54
M  V30 61 1 52 55
M  V30 62 1 55 56
M  V30 63 1 56 57
M  V30 64 1 53 58
M  V30 65 1 57 58
M  V30 66 1 57 59
M  V30 67 1 59 60
M  V30 68 1 60 61
M  V30 69 1 61 62
M  V30 70 1 62 63
M  V30 71 1 63 64
M  V30 72 1 60 65
M  V30 73 1 64 65
M  V30 74 1 64 66
M  V30 75 1 66 67
M  V30 76 1 67 68
M  V30 77 1 68 69
M  V30 78 1 69 70
M  V30 79 1 70 71
M  V30 80 1 67 72
M  V30 81 1 71 72
M  V30 82 1 71 73
M  V30 83 1 73 74
M  V30 84 1 74 75
M  V30 85 1 72 76
M  V30 86 1 75 76
M  V30 87 1 76 77
M  V30 88 1 77 78
M  V30 89 1 78 79
M  V30 90 1 79 80
M  V30 91 1 80 81
M  V30 92 1 81 82
M  V30 93 1 78 83
M  V30 94 1 82 83
M  V30 95 1 54 84
M  V30 96 1 81 84
M  V30 97 1 56 85
M  V30 98 1 85 86
M  V30 99 1 61 87
M  V30 100 1 74 88
M  V30 101 1 88 89
M  V30 102 1 75 90
M  V30 103 1 49 91
M  V30 104 1 68 92
M  V30 105 1 68 93
M  V30 106 1 90 94
M  V30 107 1 49 95
M  V30 108 1 87 96
M  V30 109 1 97 98
M  V30 110 1 98 99
M  V30 111 1 99 100
M  V30 112 1 100 101
M  V30 113 1 97 102
M  V30 114 1 101 102
M  V30 115 1 100 103
M  V30 116 1 103 104
M  V30 117 1 104 105
M  V30 118 1 101 106
M  V30 119 1 105 106
M  V30 120 1 105 107
M  V30 121 1 107 108
M  V30 122 1 108 109
M  V30 123 1 109 110
M  V30 124 1 110 111
M  V30 125 1 111 112
M  V30 126 1 108 113
M  V30 127 1 112 113
M  V30 128 1 112 114
M  V30 129 1 114 115
M  V30 130 1 115 116
M  V30 131 1 116 117
M  V30 132 1 117 118
M  V30 133 1 118 119
M  V30 134 1 115 120
M  V30 135 1 119 120
M  V30 136 1 119 121
M  V30 137 1 121 122
M  V30 138 1 122 123
M  V30 139 1 120 124
M  V30 140 1 123 124
M  V30 141 1 124 125
M  V30 142 1 125 126
M  V30 143 1 126 127
M  V30 144 1 127 128
M  V30 145 1 128 129
M  V30 146 1 129 130
M  V30 147 1 126 131
M  V30 148 1 130 131
M  V30 149 1 102 132
M  V30 150 1 129 132
M  V30 151 1 104 133
M  V30 152 1 133 134
M  V30 153 1 109 135
M  V30 154 1 122 136
M  V30 155 1 136 137
M  V30 156 1 123 138
M  V30 157 1 97 139
M  V30 158 1 116 140
M  V30 159 1 116 141
M  V30 160 1 138 142
M  V30 161 1 97 143
M  V30 162 1 135 144
M  V30 163 1 145 146
M  V30 164 1 146 147
M  V30 165 1 147 148
M  V30 166 1 148 149
M  V30 167 1 145 150
M  V30 168 1 149 150
M  V30 169 1 148 151
M  V30 170 1 151 152
M  V30 171 1 152 153
M  V30 172 1 149 154
M  V30 173 1 153 154
M  V30 174 1 153 155
M  V30 175 1 155 156
M  V30 176 1 156 157
M  V30 177 1 157 158
M  V30 178 1 158 159
M  V30 179 1 159 160
M  V30 180 1 156 161
M  V30 181 1 160 161
M  V30 182 1 160 162
M  V30 183 1 162 163
M  V30 184 1 163 164
M  V30 185 1 164 165
M  V30 186 1 165 166
M  V30 187 1 166 167
M  V30 188 1 163 168
M  V30 189 1 167 168
M  V30 190 1 167 169
M  V30 191 1 169 170
M  V30 192 1 170 171
M  V30 193 1 168 172
M  V30 194 1 171 172
M  V30 195 1 172 173
M  V30 196 1 173 174
M  V30 197 1 174 175
M  V30 198 1 175 176
M  V30 199 1 176 177
M  V30 200 1 177 178
M  V30 201 1 174 179
M  V30 202 1 178 179
M  V30 203 1 150 180
M  V30 204 1 177 180
M  V30 205 1 152 181
M  V30 206 1 181 182
M  V30 207 1 157 183
M  V30 208 1 170 184
M  V30 209 1 184 185
M  V30 210 1 171 186
M  V30 211 1 145 187
M  V30 212 1 164 188
M  V30 213 1 164 189
M  V30 214 1 186 190
M  V30 215 1 145 191
M  V30 216 1 183 192
M  V30 217 1 193 194
M  V30 218 1 194 195
M  V30 219 1 195 196
M  V30 220 1 196 197
M  V30 221 1 193 198
M  V30 222 1 197 198
M  V30 223 1 196 199
M  V30 224 1 199 200
M  V30 225 1 200 201
M  V30 226 1 197 202
M  V30 227 1 201 202
M  V30 228 1 201 203
M  V30 229 1 203 204
M  V30 230 1 204 205
M  V30 231 1 205 206
M  V30 232 1 206 207
M  V30 233 1 207 208
M  V30 234 1 204 209
M  V30 235 1 208 209
M  V30 236 1 208 210
M  V30 237 1 210 211
M  V30 238 1 211 212
M  V30 239 1 212 213
M  V30 240 1 213 214
M  V30 241 1 214 215
M  V30 242 1 211 216
M  V30 243 1 215 216
M  V30 244 1 215 217
M  V30 245 1 217 218
M  V30 246 1 218 219
M  V30 247 1 216 220
M  V30 248 1 219 220
M  V30 249 1 220 221
M  V30 250 1 221 222
M  V30 251 1 222 223
M  V30 252 1 223 224
M  V30 253 1 224 225
M  V30 254 1 225 226
M  V30 255 1 222 227
M  V30 256 1 226 227
M  V30 257 1 198 228
M  V30 258 1 225 228
M  V30 259 1 200 229
M  V30 260 1 229 230
M  V30 261 1 205 231
M  V30 262 1 218 232
M  V30 263 1 232 233
M  V30 264 1 219 234
M  V30 265 1 193 235
M  V30 266 1 212 236
M  V30 267 1 212 237
M  V30 268 1 234 238
M  V30 269 1 193 239
M  V30 270 1 231 240
M  V30 271 1 241 242
M  V30 272 1 242 243
M  V30 273 1 243 244
M  V30 274 1 244 245
M  V30 275 1 241 246
M  V30 276 1 245 246
M  V30 277 1 244 247
M  V30 278 1 247 248
M  V30 279 1 248 249
M  V30 280 1 245 250
M  V30 281 1 249 250
M  V30 282 1 249 251
M  V30 283 1 251 252
M  V30 284 1 252 253
M  V30 285 1 253 254
M  V30 286 1 254 255
M  V30 287 1 255 256
M  V30 288 1 252 257
M  V30 289 1 256 257
M  V30 290 1 256 258
M  V30 291 1 258 259
M  V30 292 1 259 260
M  V30 293 1 260 261
M  V30 294 1 261 262
M  V30 295 1 262 263
M  V30 296 1 259 264
M  V30 297 1 263 264
M  V30 298 1 263 265
M  V30 299 1 265 266
M  V30 300 1 266 267
M  V30 301 1 264 268
M  V30 302 1 267 268
M  V30 303 1 268 269
M  V30 304 1 269 270
M  V30 305 1 270 271
M  V30 306 1 271 272
M  V30 307 1 272 273
M  V30 308 1 273 274
M  V30 309 1 270 275
M  V30 310 1 274 275
M  V30 311 1 246 276
M  V30 312 1 273 276
M  V30 313 1 248 277
M  V30 314 1 277 278
M  V30 315 1 253 279
M  V30 316 1 266 280
M  V30 317 1 280 281
M  V30 318 1 267 282
M  V30 319 1 241 283
M  V30 320 1 260 284
M  V30 321 1 260 285
M  V30 322 1 282 286
M  V30 323 1 241 287
M  V30 324 1 279 288
M  V30 325 1 289 290
M  V30 326 1 290 291
M  V30 327 1 291 292
M  V30 328 1 292 293
M  V30 329 1 289 294
M  V30 330 1 293 294
M  V30 331 1 292 295
M  V30 332 1 295 296
M  V30 333 1 296 297
M  V30 334 1 293 298
M  V30 335 1 297 298
M  V30 336 1 297 299
M  V30 337 1 299 300
M  V30 338 1 300 301
M  V30 339 1 301 302
M  V30 340 1 302 303
M  V30 341 1 303 304
M  V30 342 1 300 305
M  V30 343 1 304 305
M  V30 344 1 304 306
M  V30 345 1 306 307
M  V30 346 1 307 308
M  V30 347 1 308 309
M  V30 348 1 309 310
M  V30 349 1 310 311
M  V30 350 1 307 312
M  V30 351 1 311 312
M  V30 352 1 311 313
M  V30 353 1 313 314
M  V30 354 1 314 315
M  V30 355 1 312 316
M  V30 356 1 315 316
M  V30 357 1 316 317
M  V30 358 1 317 318
M  V30 359 1 318 319
M  V30 360 1 319 320
M  V30 361 1 320 321
M  V30 362 1 321 322
M  V30 363 1 318 323
M  V30 364 1 322 323
M  V30 365 1 294 324
M  V30 366 1 321 324
M  V30 367 1 296 325
M  V30 368 1 325 326
M  V30 369 1 301 327
M  V30 370 1 314 328
M  V30 371 1 328 329
M  V30 372 1 315 330
M  V30 373 1 289 331
M  V30 374 1 308 332
M  V30 375 1 308 333
M  V30 376 1 330 334
M  V30 377 1 289 335
M  V30 378 1 327 336
M  V30 379 1 337 338
M  V30 380 1 338 339
M  V30 381 1 339 340
M  V30 382 1 340 341
M  V30 383 1 337 342
M  V30 384 1 341 342
M  V30 385 1 340 343
M  V30 386 1 343 344
M  V30 387 1 344 345
M  V30 388 1 341 346
M  V30 389 1 345 346
M  V30 390 1 345 347
M  V30 391 1 347 348
M  V30 392 1 348 349
M  V30 393 1 349 350
M  V30 394 1 350 351
M  V30 395 1 351 352
M  V30 396 1 348 353
M  V30 397 1 352 353
M  V30 398 1 352 354
M  V30 399 1 354 355
M  V30 400 1 355 356
M  V30 401 1 356 357
M  V30 402 1 357 358
M  V30 403 1 358 359
M  V30 404 1 355 360
M  V30 405 1 359 360
M  V30 406 1 359 361
M  V30 407 1 361 362
M  V30 408 1 362 363
M  V30 409 1 360 364
M  V30 410 1 363 364
M  V30 411 1 364 365
M  V30 412 1 365 366
M  V30 413 1 366 367
M  V30 414 1 367 368
M  V30 415 1 368 369
M  V30 416 1 369 370
M  V30 417 1 366 371
M  V30 418 1 370 371
M  V30 419 1 342 372
M  V30 420 1 369 372
M  V30 421 1 344 373
M  V30 422 1 373 374
M  V30 423 1 349 375
M  V30 424 1 362 376
M  V30 425 1 376 377
M  V30 426 1 363 378
M  V30 427 1 337 379
M  V30 428 1 356 380
M  V30 429 1 356 381
M  V30 430 1 378 382
M  V30 431 1 337 383
M  V30 432 1 375 384
M  V30 433 1 2 385
M  V30 434 1 2 386
M  V30 435 1 3 387
M  V30 436 1 3 388
M  V30 437 1 4 389
M  V30 438 1 5 390
M  V30 439 1 6 391 CFG=1
M  V30 440 1 7 392
M  V30 441 1 7 393
M  V30 442 1 8 394
M  V30 443 1 9 395
M  V30 444 1 10 396
M  V30 445 1 10 397
M  V30 446 1 12 398
M  V30 447 1 13 399
M  V30 448 1 14 400
M  V30 449 1 14 401
M  V30 450 1 15 402
M  V30 451 1 15 403
M  V30 452 1 16 404
M  V30 453 1 17 405
M  V30 454 1 17 406
M  V30 455 1 18 407
M  V30 456 1 18 408
M  V30 457 1 19 409 CFG=3
M  V30 458 1 21 410
M  V30 459 1 21 411
M  V30 460 1 22 412
M  V30 461 1 22 413
M  V30 462 1 23 414 CFG=1
M  V30 463 1 24 415
M  V30 464 1 25 416
M  V30 465 1 25 417
M  V30 466 1 26 418
M  V30 467 1 27 419
M  V30 468 1 28 420
M  V30 469 1 30 421
M  V30 470 1 31 422
M  V30 471 1 31 423
M  V30 472 1 32 424
M  V30 473 1 32 425
M  V30 474 1 33 426
M  V30 475 1 34 427
M  V30 476 1 34 428
M  V30 477 1 35 429
M  V30 478 1 35 430
M  V30 479 1 36 431
M  V30 480 1 36 432
M  V30 481 1 38 433
M  V30 482 1 38 434
M  V30 483 1 38 435
M  V30 484 1 41 436
M  V30 485 1 41 437
M  V30 486 1 41 438
M  V30 487 1 43 439
M  V30 488 1 43 440
M  V30 489 1 43 441
M  V30 490 1 44 442
M  V30 491 1 44 443
M  V30 492 1 44 444
M  V30 493 1 45 445
M  V30 494 1 45 446
M  V30 495 1 45 447
M  V30 496 1 46 448
M  V30 497 1 46 449
M  V30 498 1 46 450
M  V30 499 1 47 451
M  V30 500 1 47 452
M  V30 501 1 47 453
M  V30 502 1 48 454
M  V30 503 1 48 455
M  V30 504 1 48 456
M  V30 505 1 50 457
M  V30 506 1 50 458
M  V30 507 1 51 459
M  V30 508 1 51 460
M  V30 509 1 52 461 CFG=1
M  V30 510 1 53 462 CFG=1
M  V30 511 1 54 463 CFG=1
M  V30 512 1 55 464
M  V30 513 1 55 465
M  V30 514 1 56 466 CFG=1
M  V30 515 1 57 467
M  V30 516 1 58 468
M  V30 517 1 58 469
M  V30 518 1 60 470
M  V30 519 1 61 471
M  V30 520 1 62 472
M  V30 521 1 62 473
M  V30 522 1 63 474
M  V30 523 1 63 475
M  V30 524 1 64 476 CFG=3
M  V30 525 1 65 477
M  V30 526 1 65 478
M  V30 527 1 66 479
M  V30 528 1 66 480
M  V30 529 1 67 481 CFG=3
M  V30 530 1 69 482
M  V30 531 1 69 483
M  V30 532 1 70 484
M  V30 533 1 70 485
M  V30 534 1 71 486 CFG=1
M  V30 535 1 72 487 CFG=1
M  V30 536 1 73 488
M  V30 537 1 73 489
M  V30 538 1 74 490 CFG=1
M  V30 539 1 75 491
M  V30 540 1 76 492 CFG=1
M  V30 541 1 78 493
M  V30 542 1 79 494
M  V30 543 1 79 495
M  V30 544 1 80 496
M  V30 545 1 80 497
M  V30 546 1 81 498
M  V30 547 1 82 499
M  V30 548 1 82 500
M  V30 549 1 83 501
M  V30 550 1 83 502
M  V30 551 1 84 503
M  V30 552 1 84 504
M  V30 553 1 86 505
M  V30 554 1 86 506
M  V30 555 1 86 507
M  V30 556 1 89 508
M  V30 557 1 89 509
M  V30 558 1 89 510
M  V30 559 1 91 511
M  V30 560 1 91 512
M  V30 561 1 91 513
M  V30 562 1 92 514
M  V30 563 1 92 515
M  V30 564 1 92 516
M  V30 565 1 93 517
M  V30 566 1 93 518
M  V30 567 1 93 519
M  V30 568 1 94 520
M  V30 569 1 94 521
M  V30 570 1 94 522
M  V30 571 1 95 523
M  V30 572 1 95 524
M  V30 573 1 95 525
M  V30 574 1 96 526
M  V30 575 1 96 527
M  V30 576 1 96 528
M  V30 577 1 98 529
M  V30 578 1 98 530
M  V30 579 1 99 531
M  V30 580 1 99 532
M  V30 581 1 100 533
M  V30 582 1 101 534
M  V30 583 1 102 535 CFG=1
M  V30 584 1 103 536
M  V30 585 1 103 537
M  V30 586 1 104 538
M  V30 587 1 105 539
M  V30 588 1 106 540
M  V30 589 1 106 541
M  V30 590 1 108 542
M  V30 591 1 109 543
M  V30 592 1 110 544
M  V30 593 1 110 545
M  V30 594 1 111 546
M  V30 595 1 111 547
M  V30 596 1 112 548
M  V30 597 1 113 549
M  V30 598 1 113 550
M  V30 599 1 114 551
M  V30 600 1 114 552
M  V30 601 1 115 553 CFG=3
M  V30 602 1 117 554
M  V30 603 1 117 555
M  V30 604 1 118 556
M  V30 605 1 118 557
M  V30 606 1 119 558
M  V30 607 1 120 559 CFG=3
M  V30 608 1 121 560
M  V30 609 1 121 561
M  V30 610 1 122 562
M  V30 611 1 123 563
M  V30 612 1 124 564 CFG=1
M  V30 613 1 126 565
M  V30 614 1 127 566
M  V30 615 1 127 567
M  V30 616 1 128 568
M  V30 617 1 128 569
M  V30 618 1 129 570
M  V30 619 1 130 571
M  V30 620 1 130 572
M  V30 621 1 131 573
M  V30 622 1 131 574
M  V30 623 1 132 575
M  V30 624 1 132 576
M  V30 625 1 134 577
M  V30 626 1 134 578
M  V30 627 1 134 579
M  V30 628 1 137 580
M  V30 629 1 137 581
M  V30 630 1 137 582
M  V30 631 1 139 583
M  V30 632 1 139 584
M  V30 633 1 139 585
M  V30 634 1 140 586
M  V30 635 1 140 587
M  V30 636 1 140 588
M  V30 637 1 141 589
M  V30 638 1 141 590
M  V30 639 1 141 591
M  V30 640 1 142 592
M  V30 641 1 142 593
M  V30 642 1 142 594
M  V30 643 1 143 595
M  V30 644 1 143 596
M  V30 645 1 143 597
M  V30 646 1 144 598
M  V30 647 1 144 599
M  V30 648 1 144 600
M  V30 649 1 146 601
M  V30 650 1 146 602
M  V30 651 1 147 603
M  V30 652 1 147 604
M  V30 653 1 148 605
M  V30 654 1 149 606
M  V30 655 1 150 607 CFG=1
M  V30 656 1 151 608
M  V30 657 1 151 609
M  V30 658 1 152 610
M  V30 659 1 153 611
M  V30 660 1 154 612
M  V30 661 1 154 613
M  V30 662 1 156 614 CFG=3
M  V30 663 1 157 615 CFG=1
M  V30 664 1 158 616
M  V30 665 1 158 617
M  V30 666 1 159 618
M  V30 667 1 159 619
M  V30 668 1 160 620
M  V30 669 1 161 621
M  V30 670 1 161 622
M  V30 671 1 162 623
M  V30 672 1 162 624
M  V30 673 1 163 625 CFG=3
M  V30 674 1 165 626
M  V30 675 1 165 627
M  V30 676 1 166 628
M  V30 677 1 166 629
M  V30 678 1 167 630
M  V30 679 1 168 631
M  V30 680 1 169 632
M  V30 681 1 169 633
M  V30 682 1 170 634
M  V30 683 1 171 635
M  V30 684 1 172 636
M  V30 685 1 174 637
M  V30 686 1 175 638
M  V30 687 1 175 639
M  V30 688 1 176 640
M  V30 689 1 176 641
M  V30 690 1 177 642
M  V30 691 1 178 643
M  V30 692 1 178 644
M  V30 693 1 179 645
M  V30 694 1 179 646
M  V30 695 1 180 647
M  V30 696 1 180 648
M  V30 697 1 182 649
M  V30 698 1 182 650
M  V30 699 1 182 651
M  V30 700 1 185 652
M  V30 701 1 185 653
M  V30 702 1 185 654
M  V30 703 1 187 655
M  V30 704 1 187 656
M  V30 705 1 187 657
M  V30 706 1 188 658
M  V30 707 1 188 659
M  V30 708 1 188 660
M  V30 709 1 189 661
M  V30 710 1 189 662
M  V30 711 1 189 663
M  V30 712 1 190 664
M  V30 713 1 190 665
M  V30 714 1 190 666
M  V30 715 1 191 667
M  V30 716 1 191 668
M  V30 717 1 191 669
M  V30 718 1 192 670
M  V30 719 1 192 671
M  V30 720 1 192 672
M  V30 721 1 194 673
M  V30 722 1 194 674
M  V30 723 1 195 675
M  V30 724 1 195 676
M  V30 725 1 196 677 CFG=1
M  V30 726 1 197 678
M  V30 727 1 198 679 CFG=1
M  V30 728 1 199 680
M  V30 729 1 199 681
M  V30 730 1 200 682
M  V30 731 1 201 683
M  V30 732 1 202 684
M  V30 733 1 202 685
M  V30 734 1 204 686 CFG=3
M  V30 735 1 205 687
M  V30 736 1 206 688
M  V30 737 1 206 689
M  V30 738 1 207 690
M  V30 739 1 207 691
M  V30 740 1 208 692 CFG=3
M  V30 741 1 209 693
M  V30 742 1 209 694
M  V30 743 1 210 695
M  V30 744 1 210 696
M  V30 745 1 211 697 CFG=3
M  V30 746 1 213 698
M  V30 747 1 213 699
M  V30 748 1 214 700
M  V30 749 1 214 701
M  V30 750 1 215 702 CFG=1
M  V30 751 1 216 703
M  V30 752 1 217 704
M  V30 753 1 217 705
M  V30 754 1 218 706 CFG=1
M  V30 755 1 219 707
M  V30 756 1 220 708 CFG=1
M  V30 757 1 222 709
M  V30 758 1 223 710
M  V30 759 1 223 711
M  V30 760 1 224 712
M  V30 761 1 224 713
M  V30 762 1 225 714
M  V30 763 1 226 715
M  V30 764 1 226 716
M  V30 765 1 227 717
M  V30 766 1 227 718
M  V30 767 1 228 719
M  V30 768 1 228 720
M  V30 769 1 230 721
M  V30 770 1 230 722
M  V30 771 1 230 723
M  V30 772 1 233 724
M  V30 773 1 233 725
M  V30 774 1 233 726
M  V30 775 1 235 727
M  V30 776 1 235 728
M  V30 777 1 235 729
M  V30 778 1 236 730
M  V30 779 1 236 731
M  V30 780 1 236 732
M  V30 781 1 237 733
M  V30 782 1 237 734
M  V30 783 1 237 735
M  V30 784 1 238 736
M  V30 785 1 238 737
M  V30 786 1 238 738
M  V30 787 1 239 739
M  V30 788 1 239 740
M  V30 789 1 239 741
M  V30 790 1 240 742
M  V30 791 1 240 743
M  V30 792 1 240 744
M  V30 793 1 242 745
M  V30 794 1 242 746
M  V30 795 1 243 747
M  V30 796 1 243 748
M  V30 797 1 244 749 CFG=3
M  V30 798 1 245 750
M  V30 799 1 246 751 CFG=1
M  V30 800 1 247 752
M  V30 801 1 247 753
M  V30 802 1 248 754
M  V30 803 1 249 755
M  V30 804 1 250 756
M  V30 805 1 250 757
M  V30 806 1 252 758
M  V30 807 1 253 759 CFG=1
M  V30 808 1 254 760
M  V30 809 1 254 761
M  V30 810 1 255 762
M  V30 811 1 255 763
M  V30 812 1 256 764 CFG=3
M  V30 813 1 257 765
M  V30 814 1 257 766
M  V30 815 1 258 767
M  V30 816 1 258 768
M  V30 817 1 259 769 CFG=3
M  V30 818 1 261 770
M  V30 819 1 261 771
M  V30 820 1 262 772
M  V30 821 1 262 773
M  V30 822 1 263 774 CFG=1
M  V30 823 1 264 775
M  V30 824 1 265 776
M  V30 825 1 265 777
M  V30 826 1 266 778
M  V30 827 1 267 779
M  V30 828 1 268 780
M  V30 829 1 270 781
M  V30 830 1 271 782
M  V30 831 1 271 783
M  V30 832 1 272 784
M  V30 833 1 272 785
M  V30 834 1 273 786
M  V30 835 1 274 787
M  V30 836 1 274 788
M  V30 837 1 275 789
M  V30 838 1 275 790
M  V30 839 1 276 791
M  V30 840 1 276 792
M  V30 841 1 278 793
M  V30 842 1 278 794
M  V30 843 1 278 795
M  V30 844 1 281 796
M  V30 845 1 281 797
M  V30 846 1 281 798
M  V30 847 1 283 799
M  V30 848 1 283 800
M  V30 849 1 283 801
M  V30 850 1 284 802
M  V30 851 1 284 803
M  V30 852 1 284 804
M  V30 853 1 285 805
M  V30 854 1 285 806
M  V30 855 1 285 807
M  V30 856 1 286 808
M  V30 857 1 286 809
M  V30 858 1 286 810
M  V30 859 1 287 811
M  V30 860 1 287 812
M  V30 861 1 287 813
M  V30 862 1 288 814
M  V30 863 1 288 815
M  V30 864 1 288 816
M  V30 865 1 290 817
M  V30 866 1 290 818
M  V30 867 1 291 819
M  V30 868 1 291 820
M  V30 869 1 292 821
M  V30 870 1 293 822
M  V30 871 1 294 823 CFG=1
M  V30 872 1 295 824
M  V30 873 1 295 825
M  V30 874 1 296 826
M  V30 875 1 297 827
M  V30 876 1 298 828
M  V30 877 1 298 829
M  V30 878 1 300 830 CFG=3
M  V30 879 1 301 831
M  V30 880 1 302 832
M  V30 881 1 302 833
M  V30 882 1 303 834
M  V30 883 1 303 835
M  V30 884 1 304 836 CFG=3
M  V30 885 1 305 837
M  V30 886 1 305 838
M  V30 887 1 306 839
M  V30 888 1 306 840
M  V30 889 1 307 841 CFG=3
M  V30 890 1 309 842
M  V30 891 1 309 843
M  V30 892 1 310 844
M  V30 893 1 310 845
M  V30 894 1 311 846
M  V30 895 1 312 847
M  V30 896 1 313 848
M  V30 897 1 313 849
M  V30 898 1 314 850
M  V30 899 1 315 851 CFG=3
M  V30 900 1 316 852 CFG=1
M  V30 901 1 318 853
M  V30 902 1 319 854
M  V30 903 1 319 855
M  V30 904 1 320 856
M  V30 905 1 320 857
M  V30 906 1 321 858
M  V30 907 1 322 859
M  V30 908 1 322 860
M  V30 909 1 323 861
M  V30 910 1 323 862
M  V30 911 1 324 863
M  V30 912 1 324 864
M  V30 913 1 326 865
M  V30 914 1 326 866
M  V30 915 1 326 867
M  V30 916 1 329 868
M  V30 917 1 329 869
M  V30 918 1 329 870
M  V30 919 1 331 871
M  V30 920 1 331 872
M  V30 921 1 331 873
M  V30 922 1 332 874
M  V30 923 1 332 875
M  V30 924 1 332 876
M  V30 925 1 333 877
M  V30 926 1 333 878
M  V30 927 1 333 879
M  V30 928 1 334 880
M  V30 929 1 334 881
M  V30 930 1 334 882
M  V30 931 1 335 883
M  V30 932 1 335 884
M  V30 933 1 335 885
M  V30 934 1 336 886
M  V30 935 1 336 887
M  V30 936 1 336 888
M  V30 937 1 338 889
M  V30 938 1 338 890
M  V30 939 1 339 891
M  V30 940 1 339 892
M  V30 941 1 340 893
M  V30 942 1 341 894
M  V30 943 1 342 895 CFG=1
M  V30 944 1 343 896
M  V30 945 1 343 897
M  V30 946 1 344 898
M  V30 947 1 345 899
M  V30 948 1 346 900
M  V30 949 1 346 901
M  V30 950 1 348 902 CFG=3
M  V30 951 1 349 903 CFG=1
M  V30 952 1 350 904
M  V30 953 1 350 905
M  V30 954 1 351 906
M  V30 955 1 351 907
M  V30 956 1 352 908 CFG=3
M  V30 957 1 353 909
M  V30 958 1 353 910
M  V30 959 1 354 911
M  V30 960 1 354 912
M  V30 961 1 355 913 CFG=3
M  V30 962 1 357 914
M  V30 963 1 357 915
M  V30 964 1 358 916
M  V30 965 1 358 917
M  V30 966 1 359 918
M  V30 967 1 360 919
M  V30 968 1 361 920
M  V30 969 1 361 921
M  V30 970 1 362 922
M  V30 971 1 363 923
M  V30 972 1 364 924
M  V30 973 1 366 925
M  V30 974 1 367 926
M  V30 975 1 367 927
M  V30 976 1 368 928
M  V30 977 1 368 929
M  V30 978 1 369 930
M  V30 979 1 370 931
M  V30 980 1 370 932
M  V30 981 1 371 933
M  V30 982 1 371 934
M  V30 983 1 372 935
M  V30 984 1 372 936
M  V30 985 1 374 937
M  V30 986 1 374 938
M  V30 987 1 374 939
M  V30 988 1 377 940
M  V30 989 1 377 941
M  V30 990 1 377 942
M  V30 991 1 379 943
M  V30 992 1 379 944
M  V30 993 1 379 945
M  V30 994 1 380 946
M  V30 995 1 380 947
M  V30 996 1 380 948
M  V30 997 1 381 949
M  V30 998 1 381 950
M  V30 999 1 381 951
M  V30 1000 1 382 952
M  V30 1001 1 382 953
M  V30 1002 1 382 954
M  V30 1003 1 383 955
M  V30 1004 1 383 956
M  V30 1005 1 383 957
M  V30 1006 1 384 958
M  V30 1007 1 384 959
M  V30 1008 1 384 960
M  V30 END BOND
M  V30 END CTAB
M  END
>  <PDBID>  (1) 
3PEO

>  <PDB ID>  (1) 
3PEO

>  <Generic Name>  (1) 
Metocurine

>  <Brand Name>  (1) 
nan

>  <DrugBank ID>  (1) 
DB01336

>  <ATC Codes>  (1) 
M03AA04

>  <Ligand ID>  (1) 
CU9

>  <Target Name>  (1) 
Neuronal acetylcholine receptor subunit alpha-2

>  <UniProt ID>  (1) 
Q15822

>  <PDB ID.1>  (1) 
3PEO

>  <Seq. Identity>  (1) 
30%

$$$$
