PDB_DB01597_01
     RDKit          3D

 82 82  0  0  0  0  0  0  0  0999 V2000
   -2.6346    1.7360    0.1867 C   0  0  0  0  0  0  0  0  0  0  0  0
   -1.7933    0.4897    0.4119 C   0  0  1  0  0  0  0  0  0  0  0  0
   -3.2634    0.3588    0.2459 C   0  0  0  0  0  0  0  0  0  0  0  0
   -3.8723   -0.1961   -1.0078 C   0  0  0  0  0  0  0  0  0  0  0  0
   -4.1073    0.1190    1.4902 C   0  0  0  0  0  0  0  0  0  0  0  0
   -0.8435    0.1887   -0.7181 C   0  0  0  0  0  0  0  0  0  0  0  0
   -0.0496   -0.9610   -0.5393 N   0  0  0  0  0  0  0  0  0  0  0  0
    0.8630   -1.0050    0.5394 C   0  0  0  0  0  0  0  0  0  0  0  0
    1.9633   -0.0101    0.5292 C   0  0  0  0  0  0  0  0  0  0  0  0
   -0.0532    1.2733   -1.0560 O   0  0  0  0  0  0  0  0  0  0  0  0
    1.3603   -2.4479    0.6756 C   0  0  0  0  0  0  0  0  0  0  0  0
    1.9888   -2.8707   -0.4863 O   0  0  0  0  0  0  0  0  0  0  0  0
    0.2874   -3.3016    0.9281 O   0  0  0  0  0  0  0  0  0  0  0  0
    2.8885   -0.0587   -0.6380 C   0  0  0  0  0  0  0  0  0  0  0  0
    3.9577    1.0346   -0.4926 C   0  0  0  0  0  0  0  0  0  0  0  0
    3.2778    2.3824   -0.4385 C   0  0  0  0  0  0  0  0  0  0  0  0
   -2.6346    1.7360    0.1867 C   0  0  0  0  0  0  0  0  0  0  0  0
   -1.7933    0.4897    0.4119 C   0  0  1  0  0  0  0  0  0  0  0  0
   -3.2634    0.3588    0.2459 C   0  0  0  0  0  0  0  0  0  0  0  0
   -3.8723   -0.1961   -1.0078 C   0  0  0  0  0  0  0  0  0  0  0  0
   -4.1073    0.1190    1.4902 C   0  0  0  0  0  0  0  0  0  0  0  0
   -0.8435    0.1887   -0.7181 C   0  0  0  0  0  0  0  0  0  0  0  0
   -0.0496   -0.9610   -0.5393 N   0  0  0  0  0  0  0  0  0  0  0  0
    0.8630   -1.0050    0.5394 C   0  0  0  0  0  0  0  0  0  0  0  0
    1.9633   -0.0101    0.5292 C   0  0  0  0  0  0  0  0  0  0  0  0
   -0.0532    1.2733   -1.0560 O   0  0  0  0  0  0  0  0  0  0  0  0
    1.3603   -2.4479    0.6756 C   0  0  0  0  0  0  0  0  0  0  0  0
    1.9888   -2.8707   -0.4863 O   0  0  0  0  0  0  0  0  0  0  0  0
    0.2874   -3.3016    0.9281 O   0  0  0  0  0  0  0  0  0  0  0  0
    2.8885   -0.0587   -0.6380 C   0  0  0  0  0  0  0  0  0  0  0  0
    3.9577    1.0346   -0.4926 C   0  0  0  0  0  0  0  0  0  0  0  0
    3.2778    2.3824   -0.4385 C   0  0  0  0  0  0  0  0  0  0  0  0
   -2.8089    2.4343    1.0171 H   0  0  0  0  0  0  0  0  0  0  0  0
   -2.6508    2.1926   -0.8151 H   0  0  0  0  0  0  0  0  0  0  0  0
   -1.4251    0.4004    1.4597 H   0  0  0  0  0  0  0  0  0  0  0  0
   -3.6822   -1.3002   -1.0701 H   0  0  0  0  0  0  0  0  0  0  0  0
   -3.5527    0.3416   -1.9196 H   0  0  0  0  0  0  0  0  0  0  0  0
   -4.9857   -0.0244   -0.9394 H   0  0  0  0  0  0  0  0  0  0  0  0
   -3.4347    0.2388    2.3691 H   0  0  0  0  0  0  0  0  0  0  0  0
   -4.8687    0.9487    1.5185 H   0  0  0  0  0  0  0  0  0  0  0  0
   -4.6296   -0.8495    1.4652 H   0  0  0  0  0  0  0  0  0  0  0  0
   -1.4994   -0.0007   -1.6187 H   0  0  0  0  0  0  0  0  0  0  0  0
   -0.4145   -1.8642   -0.8495 H   0  0  0  0  0  0  0  0  0  0  0  0
    0.2944   -0.8317    1.5070 H   0  0  0  0  0  0  0  0  0  0  0  0
    1.5409    1.0083    0.6213 H   0  0  0  0  0  0  0  0  0  0  0  0
    2.5813   -0.1340    1.4668 H   0  0  0  0  0  0  0  0  0  0  0  0
   -0.0828    1.5116   -2.0079 H   0  0  0  0  0  0  0  0  0  0  0  0
    2.0487   -2.5392    1.5532 H   0  0  0  0  0  0  0  0  0  0  0  0
    2.8112   -3.3869   -0.3154 H   0  0  0  0  0  0  0  0  0  0  0  0
    0.5954   -4.0517    1.5143 H   0  0  0  0  0  0  0  0  0  0  0  0
    2.3765    0.1489   -1.5972 H   0  0  0  0  0  0  0  0  0  0  0  0
    3.3894   -1.0411   -0.7680 H   0  0  0  0  0  0  0  0  0  0  0  0
    4.6642    0.9741   -1.3243 H   0  0  0  0  0  0  0  0  0  0  0  0
    4.4943    0.8971    0.4481 H   0  0  0  0  0  0  0  0  0  0  0  0
    3.9658    3.2072   -0.7276 H   0  0  0  0  0  0  0  0  0  0  0  0
    2.8535    2.5802    0.5597 H   0  0  0  0  0  0  0  0  0  0  0  0
    2.4497    2.4085   -1.1778 H   0  0  0  0  0  0  0  0  0  0  0  0
   -2.8089    2.4343    1.0171 H   0  0  0  0  0  0  0  0  0  0  0  0
   -2.6508    2.1926   -0.8151 H   0  0  0  0  0  0  0  0  0  0  0  0
   -1.4251    0.4004    1.4597 H   0  0  0  0  0  0  0  0  0  0  0  0
   -3.6822   -1.3002   -1.0701 H   0  0  0  0  0  0  0  0  0  0  0  0
   -3.5527    0.3416   -1.9196 H   0  0  0  0  0  0  0  0  0  0  0  0
   -4.9857   -0.0244   -0.9394 H   0  0  0  0  0  0  0  0  0  0  0  0
   -3.4347    0.2388    2.3691 H   0  0  0  0  0  0  0  0  0  0  0  0
   -4.8687    0.9487    1.5185 H   0  0  0  0  0  0  0  0  0  0  0  0
   -4.6296   -0.8495    1.4652 H   0  0  0  0  0  0  0  0  0  0  0  0
   -1.4994   -0.0007   -1.6187 H   0  0  0  0  0  0  0  0  0  0  0  0
   -0.4145   -1.8642   -0.8495 H   0  0  0  0  0  0  0  0  0  0  0  0
    0.2944   -0.8317    1.5070 H   0  0  0  0  0  0  0  0  0  0  0  0
    1.5409    1.0083    0.6213 H   0  0  0  0  0  0  0  0  0  0  0  0
    2.5813   -0.1340    1.4668 H   0  0  0  0  0  0  0  0  0  0  0  0
   -0.0828    1.5116   -2.0079 H   0  0  0  0  0  0  0  0  0  0  0  0
    2.0487   -2.5392    1.5532 H   0  0  0  0  0  0  0  0  0  0  0  0
    2.8112   -3.3869   -0.3154 H   0  0  0  0  0  0  0  0  0  0  0  0
    0.5954   -4.0517    1.5143 H   0  0  0  0  0  0  0  0  0  0  0  0
    2.3765    0.1489   -1.5972 H   0  0  0  0  0  0  0  0  0  0  0  0
    3.3894   -1.0411   -0.7680 H   0  0  0  0  0  0  0  0  0  0  0  0
    4.6642    0.9741   -1.3243 H   0  0  0  0  0  0  0  0  0  0  0  0
    4.4943    0.8971    0.4481 H   0  0  0  0  0  0  0  0  0  0  0  0
    3.9658    3.2072   -0.7276 H   0  0  0  0  0  0  0  0  0  0  0  0
    2.8535    2.5802    0.5597 H   0  0  0  0  0  0  0  0  0  0  0  0
    2.4497    2.4085   -1.1778 H   0  0  0  0  0  0  0  0  0  0  0  0
  1  2  1  0
  1  3  1  0
  2  3  1  0
  3  4  1  0
  3  5  1  0
  2  6  1  0
  6  7  1  0
  7  8  1  0
  8  9  1  0
  6 10  1  0
  8 11  1  0
 11 12  1  0
 11 13  1  0
  9 14  1  0
 14 15  1  0
 15 16  1  0
 17 18  1  0
 17 19  1  0
 18 19  1  0
 19 20  1  0
 19 21  1  0
 18 22  1  0
 22 23  1  0
 23 24  1  0
 24 25  1  0
 22 26  1  0
 24 27  1  0
 27 28  1  0
 27 29  1  0
 25 30  1  0
 30 31  1  0
 31 32  1  0
  1 33  1  0
  1 34  1  0
  2 35  1  1
  4 36  1  0
  4 37  1  0
  4 38  1  0
  5 39  1  0
  5 40  1  0
  5 41  1  0
  6 42  1  0
  7 43  1  0
  8 44  1  0
  9 45  1  0
  9 46  1  0
 10 47  1  0
 11 48  1  0
 12 49  1  0
 13 50  1  0
 14 51  1  0
 14 52  1  0
 15 53  1  0
 15 54  1  0
 16 55  1  0
 16 56  1  0
 16 57  1  0
 17 58  1  0
 17 59  1  0
 18 60  1  1
 20 61  1  0
 20 62  1  0
 20 63  1  0
 21 64  1  0
 21 65  1  0
 21 66  1  0
 22 67  1  0
 23 68  1  0
 24 69  1  0
 25 70  1  0
 25 71  1  0
 26 72  1  0
 27 73  1  0
 28 74  1  0
 29 75  1  0
 30 76  1  0
 30 77  1  0
 31 78  1  0
 31 79  1  0
 32 80  1  0
 32 81  1  0
 32 82  1  0
M  END
>  <PDBID>  (1) 
1ITU

>  <PDB ID>  (1) 
1ITU

>  <Generic Name>  (1) 
Cilastatin

>  <Brand Name>  (1) 
Imipenem and Cilastatin#Imipenem and Cilastatin for Injection#Imipenem and Cilastatin for Injection USP#Imipenem and Cilastatin for Injection, USP#Primaxin 250#Primaxin 500#Primaxin IV#Primaxin IV 250/250 Add-vantage Vial#Primaxin IV 500#Ran-imipenem-cilastatin

>  <DrugBank ID>  (1) 
DB01597

>  <ATC Codes>  (1) 
nan

>  <Ligand ID>  (1) 
CIL

>  <Target Name>  (1) 
Dipeptidase 1

>  <UniProt ID>  (1) 
P16444

>  <PDB ID.1>  (1) 
1ITU

>  <Seq. Identity>  (1) 
100%

$$$$
