PDB_DB09026_04
     RDKit          3D

204204  0  0  0  0  0  0  0  0999 V2000
   10.6803    0.8127   -0.1251 C   0  0  0  0  0  0  0  0  0  0  0  0
    9.7429   -0.1253    0.3014 O   0  0  0  0  0  0  0  0  0  0  0  0
    9.2860    0.1971    1.5802 C   0  0  0  0  0  0  0  0  0  0  0  0
    8.2760   -0.8493    1.9890 C   0  0  0  0  0  0  0  0  0  0  0  0
    7.1494   -0.7838    0.9480 C   0  0  0  0  0  0  0  0  0  0  0  0
    6.6288    0.4671    0.9867 O   0  0  0  0  0  0  0  0  0  0  0  0
    5.6056    0.7674    0.1436 C   0  0  0  0  0  0  0  0  0  0  0  0
    4.2812    1.0181    0.8858 C   0  0  0  0  0  0  0  0  0  0  0  0
    3.2333    0.9876   -0.1625 C   0  0  0  0  0  0  0  0  0  0  0  0
    3.4110    2.2271   -1.0222 C   0  0  0  0  0  0  0  0  0  0  0  0
    4.7826    2.8178   -0.9311 C   0  0  0  0  0  0  0  0  0  0  0  0
    5.9028    1.8259   -0.8675 C   0  0  0  0  0  0  0  0  0  0  0  0
    6.0554    1.3061   -2.1659 O   0  0  0  0  0  0  0  0  0  0  0  0
    7.2773    1.6356   -2.7306 C   0  0  0  0  0  0  0  0  0  0  0  0
    1.8242    0.8526    0.2480 C   0  0  0  0  0  0  0  0  0  0  0  0
    1.4678   -0.3956    1.0133 C   0  0  2  0  0  0  0  0  0  0  0  0
    1.7177   -1.6479    0.2992 C   0  0  0  0  0  0  0  0  0  0  0  0
    1.3884   -2.9219    0.9844 C   0  0  0  0  0  0  0  0  0  0  0  0
    1.3018   -1.7305   -1.1442 C   0  0  0  0  0  0  0  0  0  0  0  0
    0.3120   -0.1558    1.8842 C   0  0  0  0  0  0  0  0  0  0  0  0
   -0.9840    0.3033    1.3786 C   0  0  2  0  0  0  0  0  0  0  0  0
   -1.9118    0.5213    2.5353 N   0  0  0  0  0  0  0  0  0  0  0  0
   -1.7273   -0.7668    0.5934 C   0  0  1  0  0  0  0  0  0  0  0  0
   -1.9086   -1.8317    1.4285 O   0  0  0  0  0  0  0  0  0  0  0  0
   -3.0987   -0.2398    0.1823 C   0  0  0  0  0  0  0  0  0  0  0  0
   -3.8390   -1.2482   -0.5964 C   0  0  1  0  0  0  0  0  0  0  0  0
   -4.1749   -2.5558   -0.0037 C   0  0  0  0  0  0  0  0  0  0  0  0
   -5.0039   -2.5828    1.2324 C   0  0  0  0  0  0  0  0  0  0  0  0
   -5.0042   -3.3140   -1.0705 C   0  0  0  0  0  0  0  0  0  0  0  0
   -4.8441   -0.7331   -1.5593 C   0  0  0  0  0  0  0  0  0  0  0  0
   -4.0568    0.0481   -2.5352 O   0  0  0  0  0  0  0  0  0  0  0  0
   -5.8080    0.1960   -1.1707 N   0  0  0  0  0  0  0  0  0  0  0  0
   -6.7803   -0.0836   -0.1940 C   0  0  0  0  0  0  0  0  0  0  0  0
   -7.7615    1.1025   -0.0999 C   0  0  0  0  0  0  0  0  0  0  0  0
   -8.7797    0.7457    0.9653 C   0  0  0  0  0  0  0  0  0  0  0  0
   -6.9460    2.2974    0.3129 C   0  0  0  0  0  0  0  0  0  0  0  0
   -8.4000    1.2353   -1.4536 C   0  0  1  0  0  0  0  0  0  0  0  0
   -9.0582    0.0423   -1.7235 O   0  0  0  0  0  0  0  0  0  0  0  0
   -9.3110    2.3561   -1.5261 N   0  0  0  0  0  0  0  0  0  0  0  0
   10.8226    0.9933   -0.2878 C   0  0  0  0  0  0  0  0  0  0  0  0
    9.8717   -0.0165   -0.0109 O   0  0  0  0  0  0  0  0  0  0  0  0
    9.3388    0.2745    1.2584 C   0  0  0  0  0  0  0  0  0  0  0  0
    8.3143   -0.7606    1.6576 C   0  0  0  0  0  0  0  0  0  0  0  0
    7.1914   -0.7501    0.6578 C   0  0  0  0  0  0  0  0  0  0  0  0
    6.6305    0.5064    0.6612 O   0  0  0  0  0  0  0  0  0  0  0  0
    5.5411    0.6819   -0.1539 C   0  0  0  0  0  0  0  0  0  0  0  0
    4.2622    0.9545    0.6506 C   0  0  0  0  0  0  0  0  0  0  0  0
    3.1402    0.7701   -0.3666 C   0  0  2  0  0  0  0  0  0  0  0  0
    3.1699    2.0841   -1.1752 C   0  0  0  0  0  0  0  0  0  0  0  0
    4.5262    2.7157   -1.2059 C   0  0  0  0  0  0  0  0  0  0  0  0
    5.6760    1.7443   -1.2047 C   0  0  0  0  0  0  0  0  0  0  0  0
    5.7198    1.1693   -2.4931 O   0  0  0  0  0  0  0  0  0  0  0  0
    6.8870    1.4674   -3.1738 C   0  0  0  0  0  0  0  0  0  0  0  0
    1.8191    0.5973    0.2162 C   0  0  0  0  0  0  0  0  0  0  0  0
    1.5209   -0.5525    1.1243 C   0  0  2  0  0  0  0  0  0  0  0  0
    1.6118   -1.9119    0.6368 C   0  0  0  0  0  0  0  0  0  0  0  0
    1.3435   -2.9986    1.6516 C   0  0  0  0  0  0  0  0  0  0  0  0
    2.9162   -2.2898   -0.0445 C   0  0  0  0  0  0  0  0  0  0  0  0
    0.3074   -0.1756    1.9031 C   0  0  0  0  0  0  0  0  0  0  0  0
   -0.9380    0.1792    1.2256 C   0  0  2  0  0  0  0  0  0  0  0  0
   -1.8838    0.5876    2.3247 N   0  0  0  0  0  0  0  0  0  0  0  0
   -1.7471   -0.9127    0.5317 C   0  0  1  0  0  0  0  0  0  0  0  0
   -2.0270   -1.8508    1.5020 O   0  0  0  0  0  0  0  0  0  0  0  0
   -3.0588   -0.2995    0.0636 C   0  0  0  0  0  0  0  0  0  0  0  0
   -3.9244   -1.2766   -0.6207 C   0  0  1  0  0  0  0  0  0  0  0  0
   -4.4053   -2.4598    0.1067 C   0  0  0  0  0  0  0  0  0  0  0  0
   -5.2156   -2.2300    1.3360 C   0  0  0  0  0  0  0  0  0  0  0  0
   -5.2085   -3.3102   -0.9044 C   0  0  0  0  0  0  0  0  0  0  0  0
   -4.9668   -0.6135   -1.4968 C   0  0  0  0  0  0  0  0  0  0  0  0
   -4.3121    0.1392   -2.5199 O   0  0  0  0  0  0  0  0  0  0  0  0
   -5.7859    0.3385   -0.8197 N   0  0  0  0  0  0  0  0  0  0  0  0
   -7.1728   -0.0063   -0.9208 C   0  0  0  0  0  0  0  0  0  0  0  0
   -7.9934    1.0700   -0.2057 C   0  0  0  0  0  0  0  0  0  0  0  0
   -9.4583    0.7821   -0.3114 C   0  0  0  0  0  0  0  0  0  0  0  0
   -7.5631    1.0297    1.2618 C   0  0  0  0  0  0  0  0  0  0  0  0
   -7.6351    2.3798   -0.8402 C   0  0  0  0  0  0  0  0  0  0  0  0
   -7.9454    2.3454   -2.1807 O   0  0  0  0  0  0  0  0  0  0  0  0
   -8.2108    3.4932   -0.1211 N   0  0  0  0  0  0  0  0  0  0  0  0
   11.5266    0.7770    0.6154 H   0  0  0  0  0  0  0  0  0  0  0  0
   10.2502    1.8431   -0.1585 H   0  0  0  0  0  0  0  0  0  0  0  0
   11.0826    0.5867   -1.1168 H   0  0  0  0  0  0  0  0  0  0  0  0
   10.1413    0.2432    2.2858 H   0  0  0  0  0  0  0  0  0  0  0  0
    8.7538    1.1659    1.5042 H   0  0  0  0  0  0  0  0  0  0  0  0
    7.8898   -0.7066    3.0076 H   0  0  0  0  0  0  0  0  0  0  0  0
    8.7728   -1.8270    1.9551 H   0  0  0  0  0  0  0  0  0  0  0  0
    7.6740   -0.9048   -0.0347 H   0  0  0  0  0  0  0  0  0  0  0  0
    6.4680   -1.6254    1.0417 H   0  0  0  0  0  0  0  0  0  0  0  0
    5.3895   -0.1715   -0.4529 H   0  0  0  0  0  0  0  0  0  0  0  0
    4.2893    2.0661    1.3060 H   0  0  0  0  0  0  0  0  0  0  0  0
    4.2460    0.2585    1.6608 H   0  0  0  0  0  0  0  0  0  0  0  0
    3.5093    0.1327   -0.8580 H   0  0  0  0  0  0  0  0  0  0  0  0
    3.1360    2.0256   -2.0799 H   0  0  0  0  0  0  0  0  0  0  0  0
    2.6891    3.0065   -0.6656 H   0  0  0  0  0  0  0  0  0  0  0  0
    4.8723    3.6303   -0.1671 H   0  0  0  0  0  0  0  0  0  0  0  0
    4.9354    3.3733   -1.9057 H   0  0  0  0  0  0  0  0  0  0  0  0
    6.8257    2.3932   -0.6057 H   0  0  0  0  0  0  0  0  0  0  0  0
    7.2807    1.1738   -3.7395 H   0  0  0  0  0  0  0  0  0  0  0  0
    7.3628    2.7278   -2.9026 H   0  0  0  0  0  0  0  0  0  0  0  0
    8.1341    1.2088   -2.1939 H   0  0  0  0  0  0  0  0  0  0  0  0
    1.5812    1.7213    0.9310 H   0  0  0  0  0  0  0  0  0  0  0  0
    1.1729    1.0081   -0.6346 H   0  0  0  0  0  0  0  0  0  0  0  0
    2.3518   -0.3965    1.8232 H   0  0  0  0  0  0  0  0  0  0  0  0
    2.8887   -1.7018    0.1916 H   0  0  0  0  0  0  0  0  0  0  0  0
    2.2623   -3.6068    1.0035 H   0  0  0  0  0  0  0  0  0  0  0  0
    0.6153   -3.5172    0.4109 H   0  0  0  0  0  0  0  0  0  0  0  0
    1.0968   -2.8083    2.0535 H   0  0  0  0  0  0  0  0  0  0  0  0
    0.5092   -2.5050   -1.2117 H   0  0  0  0  0  0  0  0  0  0  0  0
    2.1167   -2.1065   -1.8257 H   0  0  0  0  0  0  0  0  0  0  0  0
    0.8518   -0.7969   -1.5448 H   0  0  0  0  0  0  0  0  0  0  0  0
    0.2230   -1.0481    2.5727 H   0  0  0  0  0  0  0  0  0  0  0  0
    0.6507    0.6503    2.6403 H   0  0  0  0  0  0  0  0  0  0  0  0
   -0.9735    1.2725    0.8564 H   0  0  0  0  0  0  0  0  0  0  0  0
   -1.3106    0.7914    3.3172 H   0  0  0  0  0  0  0  0  0  0  0  0
   -2.5012    1.3270    2.2808 H   0  0  0  0  0  0  0  0  0  0  0  0
   -1.1893   -0.9459   -0.3406 H   0  0  0  0  0  0  0  0  0  0  0  0
   -1.3782   -2.6172    1.3266 H   0  0  0  0  0  0  0  0  0  0  0  0
   -3.5890    0.0614    1.1321 H   0  0  0  0  0  0  0  0  0  0  0  0
   -2.9119    0.6294   -0.4616 H   0  0  0  0  0  0  0  0  0  0  0  0
   -2.9488   -1.6021   -1.3602 H   0  0  0  0  0  0  0  0  0  0  0  0
   -3.2699   -3.2247    0.0911 H   0  0  0  0  0  0  0  0  0  0  0  0
   -4.8387   -1.7344    1.9243 H   0  0  0  0  0  0  0  0  0  0  0  0
   -6.1047   -2.6004    1.0221 H   0  0  0  0  0  0  0  0  0  0  0  0
   -4.8259   -3.4930    1.8542 H   0  0  0  0  0  0  0  0  0  0  0  0
   -6.0526   -2.9795   -1.0851 H   0  0  0  0  0  0  0  0  0  0  0  0
   -5.0548   -4.4007   -0.7712 H   0  0  0  0  0  0  0  0  0  0  0  0
   -4.4938   -3.3229   -2.0477 H   0  0  0  0  0  0  0  0  0  0  0  0
   -5.2891   -1.4905   -2.2254 H   0  0  0  0  0  0  0  0  0  0  0  0
   -3.3912   -0.5664   -2.9135 H   0  0  0  0  0  0  0  0  0  0  0  0
   -5.6763    1.1957   -1.4142 H   0  0  0  0  0  0  0  0  0  0  0  0
   -7.3203   -1.0150   -0.4361 H   0  0  0  0  0  0  0  0  0  0  0  0
   -6.3200   -0.2219    0.8163 H   0  0  0  0  0  0  0  0  0  0  0  0
   -9.6666    0.2995    0.4820 H   0  0  0  0  0  0  0  0  0  0  0  0
   -9.1015    1.6578    1.5169 H   0  0  0  0  0  0  0  0  0  0  0  0
   -8.3527   -0.0152    1.6255 H   0  0  0  0  0  0  0  0  0  0  0  0
   -7.4779    2.9343    1.0527 H   0  0  0  0  0  0  0  0  0  0  0  0
   -6.6656    2.8451   -0.5984 H   0  0  0  0  0  0  0  0  0  0  0  0
   -5.9877    2.0120    0.8262 H   0  0  0  0  0  0  0  0  0  0  0  0
   -7.5827    1.3732   -2.2035 H   0  0  0  0  0  0  0  0  0  0  0  0
   -9.6406    0.1256   -2.5285 H   0  0  0  0  0  0  0  0  0  0  0  0
   -8.7233    3.2215   -1.6846 H   0  0  0  0  0  0  0  0  0  0  0  0
   -9.8382    2.4163   -0.6456 H   0  0  0  0  0  0  0  0  0  0  0  0
   10.3743    1.9950   -0.2965 H   0  0  0  0  0  0  0  0  0  0  0  0
   11.2669    0.8247   -1.2771 H   0  0  0  0  0  0  0  0  0  0  0  0
   11.6184    1.0071    0.5096 H   0  0  0  0  0  0  0  0  0  0  0  0
   10.1301    0.4125    1.9987 H   0  0  0  0  0  0  0  0  0  0  0  0
    8.7534    1.2239    1.0886 H   0  0  0  0  0  0  0  0  0  0  0  0
    7.9747   -0.5786    2.6984 H   0  0  0  0  0  0  0  0  0  0  0  0
    8.8377   -1.7589    1.5826 H   0  0  0  0  0  0  0  0  0  0  0  0
    7.6564   -0.9070   -0.3496 H   0  0  0  0  0  0  0  0  0  0  0  0
    6.4739   -1.5830    0.7920 H   0  0  0  0  0  0  0  0  0  0  0  0
    5.3347   -0.2817   -0.6599 H   0  0  0  0  0  0  0  0  0  0  0  0
    4.1976    2.0046    0.9945 H   0  0  0  0  0  0  0  0  0  0  0  0
    4.2576    0.2267    1.4603 H   0  0  0  0  0  0  0  0  0  0  0  0
    3.4188   -0.0002   -1.1087 H   0  0  0  0  0  0  0  0  0  0  0  0
    2.4763    2.7846   -0.6590 H   0  0  0  0  0  0  0  0  0  0  0  0
    2.8080    1.8909   -2.2091 H   0  0  0  0  0  0  0  0  0  0  0  0
    4.6493    3.5231   -0.4551 H   0  0  0  0  0  0  0  0  0  0  0  0
    4.5991    3.2589   -2.1993 H   0  0  0  0  0  0  0  0  0  0  0  0
    6.6189    2.3213   -1.1027 H   0  0  0  0  0  0  0  0  0  0  0  0
    6.8158    0.9792   -4.1661 H   0  0  0  0  0  0  0  0  0  0  0  0
    6.9157    2.5585   -3.3462 H   0  0  0  0  0  0  0  0  0  0  0  0
    7.7909    1.1135   -2.6302 H   0  0  0  0  0  0  0  0  0  0  0  0
    1.5714    1.5319    0.8144 H   0  0  0  0  0  0  0  0  0  0  0  0
    1.0447    0.6103   -0.6049 H   0  0  0  0  0  0  0  0  0  0  0  0
    2.3670   -0.4559    1.9487 H   0  0  0  0  0  0  0  0  0  0  0  0
    0.8425   -2.0984   -0.1879 H   0  0  0  0  0  0  0  0  0  0  0  0
    0.5468   -3.6735    1.3007 H   0  0  0  0  0  0  0  0  0  0  0  0
    2.3051   -3.6083    1.7926 H   0  0  0  0  0  0  0  0  0  0  0  0
    1.1776   -2.5493    2.6449 H   0  0  0  0  0  0  0  0  0  0  0  0
    3.8075   -1.8313    0.3775 H   0  0  0  0  0  0  0  0  0  0  0  0
    3.0554   -3.3986    0.1609 H   0  0  0  0  0  0  0  0  0  0  0  0
    2.8404   -2.2654   -1.1591 H   0  0  0  0  0  0  0  0  0  0  0  0
    0.1095   -0.9910    2.6594 H   0  0  0  0  0  0  0  0  0  0  0  0
    0.6483    0.6937    2.5896 H   0  0  0  0  0  0  0  0  0  0  0  0
   -0.9247    1.0316    0.5389 H   0  0  0  0  0  0  0  0  0  0  0  0
   -1.4422    0.5153    3.2414 H   0  0  0  0  0  0  0  0  0  0  0  0
   -2.3512    1.4784    2.0874 H   0  0  0  0  0  0  0  0  0  0  0  0
   -1.2727   -1.3006   -0.3830 H   0  0  0  0  0  0  0  0  0  0  0  0
   -1.5014   -2.6624    1.3477 H   0  0  0  0  0  0  0  0  0  0  0  0
   -3.6031    0.1433    0.9514 H   0  0  0  0  0  0  0  0  0  0  0  0
   -2.8765    0.5608   -0.6201 H   0  0  0  0  0  0  0  0  0  0  0  0
   -3.2122   -1.7374   -1.4349 H   0  0  0  0  0  0  0  0  0  0  0  0
   -3.5745   -3.1562    0.4024 H   0  0  0  0  0  0  0  0  0  0  0  0
   -6.2732   -2.0409    1.1649 H   0  0  0  0  0  0  0  0  0  0  0  0
   -5.1899   -3.1910    1.9425 H   0  0  0  0  0  0  0  0  0  0  0  0
   -4.7063   -1.4743    1.9978 H   0  0  0  0  0  0  0  0  0  0  0  0
   -6.2544   -3.0138   -0.9642 H   0  0  0  0  0  0  0  0  0  0  0  0
   -5.2248   -4.3672   -0.5036 H   0  0  0  0  0  0  0  0  0  0  0  0
   -4.6595   -3.3652   -1.8468 H   0  0  0  0  0  0  0  0  0  0  0  0
   -5.5843   -1.3528   -2.0066 H   0  0  0  0  0  0  0  0  0  0  0  0
   -3.8947   -0.4805   -3.1618 H   0  0  0  0  0  0  0  0  0  0  0  0
   -5.5108    0.4484    0.1854 H   0  0  0  0  0  0  0  0  0  0  0  0
   -7.5111    0.0503   -1.9889 H   0  0  0  0  0  0  0  0  0  0  0  0
   -7.4497   -1.0092   -0.5715 H   0  0  0  0  0  0  0  0  0  0  0  0
   -9.9780    1.7423   -0.0109 H   0  0  0  0  0  0  0  0  0  0  0  0
   -9.7376    0.6159   -1.3667 H   0  0  0  0  0  0  0  0  0  0  0  0
   -9.7832   -0.0633    0.3234 H   0  0  0  0  0  0  0  0  0  0  0  0
   -8.3379    1.5117    1.9026 H   0  0  0  0  0  0  0  0  0  0  0  0
   -6.6533    1.6492    1.3410 H   0  0  0  0  0  0  0  0  0  0  0  0
   -7.3479    0.0022    1.5520 H   0  0  0  0  0  0  0  0  0  0  0  0
   -6.5245    2.5355   -0.7850 H   0  0  0  0  0  0  0  0  0  0  0  0
   -7.1861    1.9470   -2.7176 H   0  0  0  0  0  0  0  0  0  0  0  0
   -8.3606    4.2664   -0.7966 H   0  0  0  0  0  0  0  0  0  0  0  0
   -7.5164    3.8493    0.5902 H   0  0  0  0  0  0  0  0  0  0  0  0
  1  2  1  0
  2  3  1  0
  3  4  1  0
  4  5  1  0
  5  6  1  0
  6  7  1  0
  7  8  1  0
  8  9  1  0
  9 10  1  0
 10 11  1  0
  7 12  1  0
 11 12  1  0
 12 13  1  0
 13 14  1  0
  9 15  1  0
 15 16  1  0
 16 17  1  0
 17 18  1  0
 17 19  1  0
 16 20  1  0
 20 21  1  0
 21 22  1  0
 21 23  1  0
 23 24  1  0
 23 25  1  0
 25 26  1  0
 26 27  1  0
 27 28  1  0
 27 29  1  0
 26 30  1  0
 30 31  1  0
 30 32  1  0
 32 33  1  0
 34 33  1  0
 34 35  1  0
 34 36  1  0
 34 37  1  0
 37 38  1  0
 37 39  1  0
 40 41  1  0
 41 42  1  0
 42 43  1  0
 43 44  1  0
 44 45  1  0
 45 46  1  0
 46 47  1  0
 47 48  1  0
 48 49  1  0
 49 50  1  0
 46 51  1  0
 50 51  1  0
 51 52  1  0
 52 53  1  0
 48 54  1  0
 54 55  1  0
 55 56  1  0
 56 57  1  0
 56 58  1  0
 55 59  1  0
 59 60  1  0
 60 61  1  0
 60 62  1  0
 62 63  1  0
 62 64  1  0
 64 65  1  0
 65 66  1  0
 66 67  1  0
 66 68  1  0
 65 69  1  0
 69 70  1  0
 69 71  1  0
 71 72  1  0
 73 72  1  0
 73 74  1  0
 73 75  1  0
 73 76  1  0
 76 77  1  0
 76 78  1  0
  1 79  1  0
  1 80  1  0
  1 81  1  0
  3 82  1  0
  3 83  1  0
  4 84  1  0
  4 85  1  0
  5 86  1  0
  5 87  1  0
  7 88  1  0
  8 89  1  0
  8 90  1  0
  9 91  1  0
 10 92  1  0
 10 93  1  0
 11 94  1  0
 11 95  1  0
 12 96  1  0
 14 97  1  0
 14 98  1  0
 14 99  1  0
 15100  1  0
 15101  1  0
 16102  1  1
 17103  1  0
 18104  1  0
 18105  1  0
 18106  1  0
 19107  1  0
 19108  1  0
 19109  1  0
 20110  1  0
 20111  1  0
 21112  1  6
 22113  1  0
 22114  1  0
 23115  1  6
 24116  1  0
 25117  1  0
 25118  1  0
 26119  1  6
 27120  1  0
 28121  1  0
 28122  1  0
 28123  1  0
 29124  1  0
 29125  1  0
 29126  1  0
 30127  1  0
 31128  1  0
 32129  1  0
 33130  1  0
 33131  1  0
 35132  1  0
 35133  1  0
 35134  1  0
 36135  1  0
 36136  1  0
 36137  1  0
 37138  1  6
 38139  1  0
 39140  1  0
 39141  1  0
 40142  1  0
 40143  1  0
 40144  1  0
 42145  1  0
 42146  1  0
 43147  1  0
 43148  1  0
 44149  1  0
 44150  1  0
 46151  1  0
 47152  1  0
 47153  1  0
 48154  1  6
 49155  1  0
 49156  1  0
 50157  1  0
 50158  1  0
 51159  1  0
 53160  1  0
 53161  1  0
 53162  1  0
 54163  1  0
 54164  1  0
 55165  1  1
 56166  1  0
 57167  1  0
 57168  1  0
 57169  1  0
 58170  1  0
 58171  1  0
 58172  1  0
 59173  1  0
 59174  1  0
 60175  1  6
 61176  1  0
 61177  1  0
 62178  1  6
 63179  1  0
 64180  1  0
 64181  1  0
 65182  1  6
 66183  1  0
 67184  1  0
 67185  1  0
 67186  1  0
 68187  1  0
 68188  1  0
 68189  1  0
 69190  1  0
 70191  1  0
 71192  1  0
 72193  1  0
 72194  1  0
 74195  1  0
 74196  1  0
 74197  1  0
 75198  1  0
 75199  1  0
 75200  1  0
 76201  1  0
 77202  1  0
 78203  1  0
 78204  1  0
M  END
>  <PDBID>  (1) 
2V0Z

>  <PDB ID>  (1) 
2V0Z

>  <Generic Name>  (1) 
Aliskiren

>  <Brand Name>  (1) 
Amturnide#Rasilez#Rasilez Hct#Sandoz Aliskiren#Tekamlo#Tekturna#Tekturna Hct

>  <DrugBank ID>  (1) 
DB09026

>  <ATC Codes>  (1) 
C09DX02#C09XA02#C09XA52#C09XA53#C09XA54

>  <Ligand ID>  (1) 
C41

>  <Target Name>  (1) 
Renin

>  <UniProt ID>  (1) 
P00797

>  <PDB ID.1>  (1) 
2V0Z

>  <Seq. Identity>  (1) 
100%

$$$$
