PDB_DB04839_03
     RDKit          3D

 68 72  0  0  0  0  0  0  0  0999 V2000
    4.6761   -0.3728    1.0024 C   0  0  0  0  0  0  0  0  0  0  0  0
   -0.9396   -0.6811    0.4550 C   0  0  1  0  0  0  0  0  0  0  0  0
    3.1898   -0.3647    0.9733 C   0  0  2  0  0  0  0  0  0  0  0  0
    2.6014   -1.6908    1.3982 C   0  0  0  0  0  0  0  0  0  0  0  0
    0.6059    0.4768   -1.6070 C   0  0  0  0  0  0  0  0  0  0  0  0
    1.1137   -1.4243    1.6615 C   0  0  0  0  0  0  0  0  0  0  0  0
    0.5028   -1.0441    0.3330 C   0  0  2  0  0  0  0  0  0  0  0  0
    1.1673    0.1818   -0.2630 C   0  0  1  0  0  0  0  0  0  0  0  0
    2.6682    0.0227   -0.3797 C   0  0  2  0  0  0  0  0  0  0  0  0
   -0.8810    0.4124   -1.7120 C   0  0  0  0  0  0  0  0  0  0  0  0
   -1.5157   -0.7135   -0.9864 C   0  0  1  0  0  0  0  0  0  0  0  0
    5.2495    0.9380    0.6219 C   0  0  0  0  0  0  0  0  0  0  0  0
    3.0349   -0.9923   -1.4447 C   0  0  0  0  0  0  0  0  0  0  0  0
    3.2146    1.3494   -0.8097 C   0  0  1  0  0  0  0  0  0  0  0  0
    3.2409    2.4734    0.1291 C   0  0  0  0  0  0  0  0  0  0  0  0
    4.5053    1.7458   -0.3444 C   0  0  1  0  0  0  0  0  0  0  0  0
    5.4498    1.7089    1.7902 O   0  0  0  0  0  0  0  0  0  0  0  0
    3.3246   -2.1682    2.9545 Cl  0  0  0  0  0  0  0  0  0  0  0  0
   -1.2985   -2.0634   -1.4843 C   0  0  0  0  0  0  0  0  0  0  0  0
   -1.8039   -1.6333    1.1641 C   0  0  0  0  0  0  0  0  0  0  0  0
   -3.1438   -1.5444    0.4369 C   0  0  0  0  0  0  0  0  0  0  0  0
   -2.9668   -0.3677   -0.5351 C   0  0  2  0  0  0  0  0  0  0  0  0
   -3.8984   -0.3686   -1.6691 C   0  0  0  0  0  0  0  0  0  0  0  0
   -5.3259    0.0321   -1.3636 C   0  0  0  0  0  0  0  0  0  0  0  0
   -3.9642   -1.6210   -2.3416 O   0  0  0  0  0  0  0  0  0  0  0  0
   -2.7761    0.7360    0.1978 O   0  0  0  0  0  0  0  0  0  0  0  0
   -3.6543    1.4322    0.8887 C   0  0  0  0  0  0  0  0  0  0  0  0
   -3.7118    2.8472    0.2614 C   0  0  0  0  0  0  0  0  0  0  0  0
   -3.2102    1.7250    2.2187 O   0  0  0  0  0  0  0  0  0  0  0  0
    5.1385   -1.1753    0.4006 H   0  0  0  0  0  0  0  0  0  0  0  0
    4.9858   -0.5927    2.0668 H   0  0  0  0  0  0  0  0  0  0  0  0
   -1.0433    0.3386    0.8332 H   0  0  0  0  0  0  0  0  0  0  0  0
    2.8304    0.3904    1.6972 H   0  0  0  0  0  0  0  0  0  0  0  0
    2.7242   -2.4849    0.6619 H   0  0  0  0  0  0  0  0  0  0  0  0
    0.9025    1.5364   -1.8661 H   0  0  0  0  0  0  0  0  0  0  0  0
    1.0364   -0.1443   -2.4145 H   0  0  0  0  0  0  0  0  0  0  0  0
    0.9893   -0.6730    2.4409 H   0  0  0  0  0  0  0  0  0  0  0  0
    0.6840   -2.3914    1.9547 H   0  0  0  0  0  0  0  0  0  0  0  0
    0.7203   -1.8865   -0.3513 H   0  0  0  0  0  0  0  0  0  0  0  0
    0.9797    1.0301    0.4233 H   0  0  0  0  0  0  0  0  0  0  0  0
   -1.1471    0.3672   -2.7880 H   0  0  0  0  0  0  0  0  0  0  0  0
   -1.2942    1.3699   -1.3203 H   0  0  0  0  0  0  0  0  0  0  0  0
    6.2947    0.7529    0.2372 H   0  0  0  0  0  0  0  0  0  0  0  0
    2.2185   -1.6604   -1.7161 H   0  0  0  0  0  0  0  0  0  0  0  0
    3.8997   -1.6195   -1.1579 H   0  0  0  0  0  0  0  0  0  0  0  0
    3.3567   -0.4720   -2.3942 H   0  0  0  0  0  0  0  0  0  0  0  0
    2.9405    1.6042   -1.8757 H   0  0  0  0  0  0  0  0  0  0  0  0
    2.9797    2.3661    1.2123 H   0  0  0  0  0  0  0  0  0  0  0  0
    3.0420    3.4868   -0.2481 H   0  0  0  0  0  0  0  0  0  0  0  0
    5.1370    2.3942   -1.0203 H   0  0  0  0  0  0  0  0  0  0  0  0
    6.2777    2.2497    1.7247 H   0  0  0  0  0  0  0  0  0  0  0  0
   -0.3218   -2.0452   -2.0738 H   0  0  0  0  0  0  0  0  0  0  0  0
   -1.9965   -2.5577   -2.1341 H   0  0  0  0  0  0  0  0  0  0  0  0
   -1.0546   -2.8274   -0.6803 H   0  0  0  0  0  0  0  0  0  0  0  0
   -1.9994   -1.2291    2.2013 H   0  0  0  0  0  0  0  0  0  0  0  0
   -1.4498   -2.6480    1.3053 H   0  0  0  0  0  0  0  0  0  0  0  0
   -3.9717   -1.2585    1.1166 H   0  0  0  0  0  0  0  0  0  0  0  0
   -3.3179   -2.4860   -0.0845 H   0  0  0  0  0  0  0  0  0  0  0  0
   -3.5866    0.3253   -2.5064 H   0  0  0  0  0  0  0  0  0  0  0  0
   -5.6951   -0.4347   -0.4534 H   0  0  0  0  0  0  0  0  0  0  0  0
   -5.4123    1.1249   -1.2877 H   0  0  0  0  0  0  0  0  0  0  0  0
   -6.0027   -0.2555   -2.2178 H   0  0  0  0  0  0  0  0  0  0  0  0
   -4.5203   -1.4810   -3.1536 H   0  0  0  0  0  0  0  0  0  0  0  0
   -4.7149    1.1220    0.9310 H   0  0  0  0  0  0  0  0  0  0  0  0
   -4.6410    3.3336    0.5749 H   0  0  0  0  0  0  0  0  0  0  0  0
   -2.8674    3.4539    0.6378 H   0  0  0  0  0  0  0  0  0  0  0  0
   -3.7239    2.7652   -0.8435 H   0  0  0  0  0  0  0  0  0  0  0  0
   -3.8319    1.2803    2.8608 H   0  0  0  0  0  0  0  0  0  0  0  0
  1  3  1  0
  3  4  1  0
  4  6  1  0
  2  7  1  0
  6  7  1  0
  5  8  1  0
  7  8  1  0
  3  9  1  0
  8  9  1  0
  5 10  1  0
  2 11  1  0
 10 11  1  0
  1 12  1  0
  9 13  1  6
  9 14  1  0
 14 15  1  0
 12 16  1  0
 14 16  1  0
 15 16  1  0
 12 17  1  0
  4 18  1  0
 11 19  1  6
  2 20  1  0
 20 21  1  0
 11 22  1  0
 21 22  1  0
 22 23  1  0
 23 24  1  0
 23 25  1  0
 22 26  1  1
 26 27  1  0
 27 28  1  0
 27 29  1  0
  1 30  1  0
  1 31  1  0
  2 32  1  1
  3 33  1  1
  4 34  1  0
  5 35  1  0
  5 36  1  0
  6 37  1  0
  6 38  1  0
  7 39  1  6
  8 40  1  1
 10 41  1  0
 10 42  1  0
 12 43  1  0
 13 44  1  0
 13 45  1  0
 13 46  1  0
 14 47  1  6
 15 48  1  0
 15 49  1  0
 16 50  1  6
 17 51  1  0
 19 52  1  0
 19 53  1  0
 19 54  1  0
 20 55  1  0
 20 56  1  0
 21 57  1  0
 21 58  1  0
 23 59  1  0
 24 60  1  0
 24 61  1  0
 24 62  1  0
 25 63  1  0
 27 64  1  0
 28 65  1  0
 28 66  1  0
 28 67  1  0
 29 68  1  0
M  END
>  <PDBID>  (1) 
2OZ7

>  <PDB ID>  (1) 
2OZ7

>  <Generic Name>  (1) 
Cyproterone acetate

>  <Brand Name>  (1) 
Alti-cpa#Androcur#Androcur Depot#ClÃ©o -35#Cyestra-35#Cyproterone#Diane-35#Med-cyproterone#Mylan-cyproterone#Novo-cyproterone#Novo-cyproterone/ethinyl Estradiol#Ran-cyproterone/ethinyl Estradiol#Riva-cyproterone#Riva-cyproterone 50 mg#Cyprostat

>  <DrugBank ID>  (1) 
DB04839

>  <ATC Codes>  (1) 
G03HB01#G03HA01

>  <Ligand ID>  (1) 
CA4

>  <Target Name>  (1) 
Androgen receptor

>  <UniProt ID>  (1) 
P10275

>  <PDB ID.1>  (1) 
2OZ7

>  <Seq. Identity>  (1) 
100%

$$$$
