PDB_DB00275_03
     RDKit          3D

 81 84  0  0  0  0  0  0  0  0999 V2000
    1.6853   -1.9136   -0.9592 C   0  0  0  0  0  0  0  0  0  0  0  0
    0.8301   -0.9463   -1.7331 C   0  0  0  0  0  0  0  0  0  0  0  0
   -4.3344    1.8615    3.0776 O   0  0  0  0  0  0  0  0  0  0  0  0
   -0.1767   -0.2162   -0.8250 C   0  0  0  0  0  0  0  0  0  0  0  0
   -3.7562   -2.4399   -0.7600 O   0  0  0  0  0  0  0  0  0  0  0  0
   -1.5488   -0.4854   -1.2768 C   0  0  0  0  0  0  0  0  0  0  0  0
   -4.7704   -2.2728    1.1992 O   0  0  0  0  0  0  0  0  0  0  0  0
   -4.2380    0.3834   -3.2772 C   0  0  0  0  0  0  0  0  0  0  0  0
   -4.3006    1.7844   -2.7814 C   0  0  0  0  0  0  0  0  0  0  0  0
   -3.1518    2.1278   -1.9213 C   0  0  0  0  0  0  0  0  0  0  0  0
   -2.9375    1.4000   -0.6625 C   0  0  0  0  0  0  0  0  0  0  0  0
   -4.0817    1.5117    0.2663 N   0  0  0  0  0  0  0  0  0  0  0  0
   -3.5556    0.6211    1.3109 C   0  0  0  0  0  0  0  0  0  0  0  0
   -4.3274    0.5389    2.5380 C   0  0  0  0  0  0  0  0  0  0  0  0
   -5.7630    0.1449    2.4547 C   0  0  0  0  0  0  0  0  0  0  0  0
   -3.5928   -0.3004    3.5466 C   0  0  0  0  0  0  0  0  0  0  0  0
   -3.1926   -0.5779    0.5291 C   0  0  0  0  0  0  0  0  0  0  0  0
   -4.3187   -1.4811    0.1253 C   0  0  0  0  0  0  0  0  0  0  0  0
   -2.6610    0.0364   -0.6632 N   0  0  0  0  0  0  0  0  0  0  0  0
    0.1399   -0.6909    0.5642 C   0  0  0  0  0  0  0  0  0  0  0  0
    1.6099   -0.3952    0.9121 C   0  0  0  0  0  0  0  0  0  0  0  0
    2.5691   -1.2077    0.0427 C   0  0  0  0  0  0  0  0  0  0  0  0
    3.5412   -0.3089   -0.6756 C   0  0  0  0  0  0  0  0  0  0  0  0
    4.2632   -1.1898   -1.7228 C   0  0  0  0  0  0  0  0  0  0  0  0
    5.5625   -0.5324   -2.1409 C   0  0  0  0  0  0  0  0  0  0  0  0
    5.5374    0.9673   -2.0458 C   0  0  0  0  0  0  0  0  0  0  0  0
    5.1595    1.4803   -0.6710 C   0  0  0  0  0  0  0  0  0  0  0  0
    4.6350    0.2716    0.1255 C   0  0  0  0  0  0  0  0  0  0  0  0
    4.4029    0.6954    1.5111 C   0  0  0  0  0  0  0  0  0  0  0  0
    5.6884    1.2751    1.9817 N   0  0  0  0  0  0  0  0  0  0  0  0
    6.4942    0.1794    2.2262 N   0  0  0  0  0  0  0  0  0  0  0  0
    5.6840   -0.9574    2.2149 N   0  0  0  0  0  0  0  0  0  0  0  0
    4.3787   -0.4712    2.3836 N   0  0  0  0  0  0  0  0  0  0  0  0
    2.2751   -2.4709   -1.7193 H   0  0  0  0  0  0  0  0  0  0  0  0
    1.0628   -2.6975   -0.4695 H   0  0  0  0  0  0  0  0  0  0  0  0
    1.4902   -0.2430   -2.2729 H   0  0  0  0  0  0  0  0  0  0  0  0
    0.2667   -1.4852   -2.5434 H   0  0  0  0  0  0  0  0  0  0  0  0
   -5.1248    2.0202    3.6156 H   0  0  0  0  0  0  0  0  0  0  0  0
    0.1346    0.8480   -0.8652 H   0  0  0  0  0  0  0  0  0  0  0  0
   -4.4255   -3.1365   -0.9780 H   0  0  0  0  0  0  0  0  0  0  0  0
   -1.6563   -1.6170   -1.3084 H   0  0  0  0  0  0  0  0  0  0  0  0
   -1.5803   -0.2294   -2.3822 H   0  0  0  0  0  0  0  0  0  0  0  0
   -4.0266   -2.8158    1.5163 H   0  0  0  0  0  0  0  0  0  0  0  0
   -4.1357   -0.3856   -2.5019 H   0  0  0  0  0  0  0  0  0  0  0  0
   -3.3219    0.3048   -3.9203 H   0  0  0  0  0  0  0  0  0  0  0  0
   -5.1441    0.1470   -3.8918 H   0  0  0  0  0  0  0  0  0  0  0  0
   -5.2513    2.0166   -2.2438 H   0  0  0  0  0  0  0  0  0  0  0  0
   -4.2976    2.5225   -3.6424 H   0  0  0  0  0  0  0  0  0  0  0  0
   -2.1953    2.0167   -2.5349 H   0  0  0  0  0  0  0  0  0  0  0  0
   -3.1225    3.2426   -1.6791 H   0  0  0  0  0  0  0  0  0  0  0  0
   -2.1515    1.9959   -0.0454 H   0  0  0  0  0  0  0  0  0  0  0  0
   -4.8858    1.0985   -0.2257 H   0  0  0  0  0  0  0  0  0  0  0  0
   -2.5610    1.1191    1.5732 H   0  0  0  0  0  0  0  0  0  0  0  0
   -6.4249    0.9350    2.9274 H   0  0  0  0  0  0  0  0  0  0  0  0
   -6.0017   -0.7608    3.0891 H   0  0  0  0  0  0  0  0  0  0  0  0
   -6.1637    0.0665    1.4271 H   0  0  0  0  0  0  0  0  0  0  0  0
   -4.2690   -1.0583    4.0412 H   0  0  0  0  0  0  0  0  0  0  0  0
   -3.1559    0.2840    4.3823 H   0  0  0  0  0  0  0  0  0  0  0  0
   -2.7115   -0.8237    3.0724 H   0  0  0  0  0  0  0  0  0  0  0  0
   -2.4053   -1.2063    0.9945 H   0  0  0  0  0  0  0  0  0  0  0  0
   -5.1280   -1.0072   -0.4265 H   0  0  0  0  0  0  0  0  0  0  0  0
   -0.4164   -0.0128    1.2774 H   0  0  0  0  0  0  0  0  0  0  0  0
   -0.1313   -1.7098    0.8043 H   0  0  0  0  0  0  0  0  0  0  0  0
    1.6850   -0.6119    1.9773 H   0  0  0  0  0  0  0  0  0  0  0  0
    1.7328    0.6692    0.6240 H   0  0  0  0  0  0  0  0  0  0  0  0
    3.1159   -1.9711    0.6112 H   0  0  0  0  0  0  0  0  0  0  0  0
    3.0230    0.5042   -1.2155 H   0  0  0  0  0  0  0  0  0  0  0  0
    3.6660   -1.3187   -2.6212 H   0  0  0  0  0  0  0  0  0  0  0  0
    4.5396   -2.1148   -1.1805 H   0  0  0  0  0  0  0  0  0  0  0  0
    5.7586   -0.7675   -3.2146 H   0  0  0  0  0  0  0  0  0  0  0  0
    6.4334   -0.9185   -1.5829 H   0  0  0  0  0  0  0  0  0  0  0  0
    6.5924    1.3047   -2.2119 H   0  0  0  0  0  0  0  0  0  0  0  0
    4.9436    1.4180   -2.8551 H   0  0  0  0  0  0  0  0  0  0  0  0
    6.0204    1.8980   -0.1146 H   0  0  0  0  0  0  0  0  0  0  0  0
    4.3201    2.1881   -0.7901 H   0  0  0  0  0  0  0  0  0  0  0  0
    5.4852   -0.4776    0.1549 H   0  0  0  0  0  0  0  0  0  0  0  0
    3.6683    1.4542    1.7253 H   0  0  0  0  0  0  0  0  0  0  0  0
    5.4900    1.7549    2.9039 H   0  0  0  0  0  0  0  0  0  0  0  0
    7.2709    0.1492    1.5537 H   0  0  0  0  0  0  0  0  0  0  0  0
    5.9511   -1.6740    2.8990 H   0  0  0  0  0  0  0  0  0  0  0  0
    4.2884   -0.1715    3.3729 H   0  0  0  0  0  0  0  0  0  0  0  0
  1  2  1  0
  2  4  1  0
  4  6  1  0
  8  9  1  0
  9 10  1  0
 10 11  1  0
 11 12  1  0
 12 13  1  0
 14  3  1  0
 13 14  1  0
 14 15  1  0
 14 16  1  0
 13 17  1  0
  5 18  1  0
  7 18  1  0
 17 18  1  0
  6 19  1  0
 11 19  1  0
 17 19  1  0
  4 20  1  0
 20 21  1  0
  1 22  1  0
 21 22  1  0
 22 23  1  0
 23 24  1  0
 24 25  1  0
 25 26  1  0
 26 27  1  0
 23 28  1  0
 27 28  1  0
 28 29  1  0
 29 30  1  0
 30 31  1  0
 31 32  1  0
 29 33  1  0
 32 33  1  0
  1 34  1  0
  1 35  1  0
  2 36  1  0
  2 37  1  0
  3 38  1  0
  4 39  1  0
  5 40  1  0
  6 41  1  0
  6 42  1  0
  7 43  1  0
  8 44  1  0
  8 45  1  0
  8 46  1  0
  9 47  1  0
  9 48  1  0
 10 49  1  0
 10 50  1  0
 11 51  1  0
 12 52  1  0
 13 53  1  0
 15 54  1  0
 15 55  1  0
 15 56  1  0
 16 57  1  0
 16 58  1  0
 16 59  1  0
 17 60  1  0
 18 61  1  0
 20 62  1  0
 20 63  1  0
 21 64  1  0
 21 65  1  0
 22 66  1  0
 23 67  1  0
 24 68  1  0
 24 69  1  0
 25 70  1  0
 25 71  1  0
 26 72  1  0
 26 73  1  0
 27 74  1  0
 27 75  1  0
 28 76  1  0
 29 77  1  0
 30 78  1  0
 31 79  1  0
 32 80  1  0
 33 81  1  0
M  END
>  <PDBID>  (1) 
4ZUD

>  <PDB ID>  (1) 
4ZUD

>  <Generic Name>  (1) 
Olmesartan

>  <Brand Name>  (1) 
Amlodipine Besylate and Olmesartan Medoxomil#Amlodipine and Olmesartan Medoxomil#Azor#Benicar#Benicar Hct#Olmesartan Medoxmil and Hydrochlorothiazide#Olmesartan Medoxomil#Olmesartan Medoxomil / Amlodipine Besylate / Hydrochlorothiazide#Olmesartan Medoxomil and Hydrochlorothiazide#Olmesartan Medoxomil, Amlodipine and Hydrochlorothiazide#Olmesartan Medoxomil, Amlodipine and Hydrochlorothiazide 20/5/12.5 mg#Olmesartan Medoxomil, Amlodipine and Hydrochlorothiazide 40/10/12.5 mg#Olmesartan Medoxomil, Amlodipine and Hydrochlorothiazide 40/10/25 mg#Olmesartan Medoxomil, Amlodipine and Hydrochlorothiazide 40/5/12.5 mg#Olmesartan Medoxomil, Amlodipine and Hydrochlorothiazide 40/5/25 mg#Olmetec#Olmetec Plus#Tribenzor#Erastapex#Golme#Olmetec#WinBP

>  <DrugBank ID>  (1) 
DB00275

>  <ATC Codes>  (1) 
C09DA08#C09CA08#C09DX03#C09DB02

>  <Ligand ID>  (1) 
OLM

>  <Target Name>  (1) 
Type-1 angiotensin II receptor

>  <UniProt ID>  (1) 
P30556

>  <PDB ID.1>  (1) 
4ZUD

>  <Seq. Identity>  (1) 
87%

$$$$
