PDB_DB00862_05
     RDKit          3D

164170  0  0  0  0  0  0  0  0999 V2000
   -3.1705    3.7036   -1.9563 C   0  0  0  0  0  0  0  0  0  0  0  0
   -2.0245    2.7829   -1.8082 C   0  0  0  0  0  0  0  0  0  0  0  0
   -1.4127    2.7097   -0.6178 O   0  0  0  0  0  0  0  0  0  0  0  0
   -0.3728    1.9239   -0.3743 C   0  0  0  0  0  0  0  0  0  0  0  0
    0.9190    2.7459   -0.1792 C   0  0  0  0  0  0  0  0  0  0  0  0
    2.0769    1.8004   -0.5325 C   0  0  0  0  0  0  0  0  0  0  0  0
    2.1024    0.6677    0.4983 C   0  0  0  0  0  0  0  0  0  0  0  0
    0.7699   -0.0485    0.4372 C   0  0  0  0  0  0  0  0  0  0  0  0
   -0.3797    0.9176    0.6972 C   0  0  0  0  0  0  0  0  0  0  0  0
    3.3486   -0.4073    0.3856 S   0  0  0  0  0  0  0  0  0  0  0  0
    3.2334   -1.5067    1.5521 O   0  0  0  0  0  0  0  0  0  0  0  0
    4.7870    0.5323    1.0527 O   0  0  0  0  0  0  0  0  0  0  0  0
    8.4351   -0.6147    0.8741 C   0  0  0  0  0  0  0  0  0  0  0  0
    3.8260   -0.9726   -0.9583 N   0  0  0  0  0  0  0  0  0  0  0  0
    4.5987   -2.2101   -0.8411 C   0  0  0  0  0  0  0  0  0  0  0  0
    5.9284   -1.9290   -0.1450 C   0  0  0  0  0  0  0  0  0  0  0  0
    6.5002   -0.6837   -0.6273 N   0  0  0  0  0  0  0  0  0  0  0  0
    6.0188   -0.4684   -1.9561 C   0  0  0  0  0  0  0  0  0  0  0  0
    4.5439   -0.1279   -1.8904 C   0  0  0  0  0  0  0  0  0  0  0  0
    7.9357   -0.6504   -0.5420 C   0  0  0  0  0  0  0  0  0  0  0  0
   -1.6233    0.0866    0.8383 C   0  0  0  0  0  0  0  0  0  0  0  0
   -1.4442   -0.8827    1.9365 N   0  0  0  0  0  0  0  0  0  0  0  0
   -2.5899   -1.8075    1.8619 C   0  0  0  0  0  0  0  0  0  0  0  0
   -3.7864   -0.9695    2.2429 C   0  0  0  0  0  0  0  0  0  0  0  0
   -3.8882    0.2645    1.5563 N   0  0  0  0  0  0  0  0  0  0  0  0
   -2.7303    0.9254    1.2546 N   0  0  0  0  0  0  0  0  0  0  0  0
   -2.6726   -2.3565    0.6079 O   0  0  0  0  0  0  0  0  0  0  0  0
   -5.0921   -1.6452    2.0395 C   0  0  0  0  0  0  0  0  0  0  0  0
   -5.7620   -0.9093    1.0157 N   0  0  0  0  0  0  0  0  0  0  0  0
   -4.8244    0.0720    0.5099 C   0  0  0  0  0  0  0  0  0  0  0  0
   -4.9726   -3.1186    1.7332 C   0  0  0  0  0  0  0  0  0  0  0  0
   -5.5630    1.3427    0.1302 C   0  0  0  0  0  0  0  0  0  0  0  0
   -6.5349    1.0870   -0.9746 C   0  0  0  0  0  0  0  0  0  0  0  0
   -5.9047    0.5768   -2.2368 C   0  0  0  0  0  0  0  0  0  0  0  0
   -3.1705    3.7036   -1.9563 C   0  0  0  0  0  0  0  0  0  0  0  0
   -2.0245    2.7829   -1.8082 C   0  0  0  0  0  0  0  0  0  0  0  0
   -1.4127    2.7097   -0.6178 O   0  0  0  0  0  0  0  0  0  0  0  0
   -0.3728    1.9239   -0.3743 C   0  0  0  0  0  0  0  0  0  0  0  0
    0.9190    2.7459   -0.1792 C   0  0  0  0  0  0  0  0  0  0  0  0
    2.0769    1.8004   -0.5325 C   0  0  0  0  0  0  0  0  0  0  0  0
    2.1024    0.6677    0.4983 C   0  0  0  0  0  0  0  0  0  0  0  0
    0.7699   -0.0485    0.4372 C   0  0  0  0  0  0  0  0  0  0  0  0
   -0.3797    0.9176    0.6972 C   0  0  0  0  0  0  0  0  0  0  0  0
    3.3486   -0.4073    0.3856 S   0  0  0  0  0  0  0  0  0  0  0  0
    3.2334   -1.5067    1.5521 O   0  0  0  0  0  0  0  0  0  0  0  0
    4.7870    0.5323    1.0527 O   0  0  0  0  0  0  0  0  0  0  0  0
    8.4351   -0.6147    0.8741 C   0  0  0  0  0  0  0  0  0  0  0  0
    3.8260   -0.9726   -0.9583 N   0  0  0  0  0  0  0  0  0  0  0  0
    4.5987   -2.2101   -0.8411 C   0  0  0  0  0  0  0  0  0  0  0  0
    5.9284   -1.9290   -0.1450 C   0  0  0  0  0  0  0  0  0  0  0  0
    6.5002   -0.6837   -0.6273 N   0  0  0  0  0  0  0  0  0  0  0  0
    6.0188   -0.4684   -1.9561 C   0  0  0  0  0  0  0  0  0  0  0  0
    4.5439   -0.1279   -1.8904 C   0  0  0  0  0  0  0  0  0  0  0  0
    7.9357   -0.6504   -0.5420 C   0  0  0  0  0  0  0  0  0  0  0  0
   -1.6233    0.0866    0.8383 C   0  0  0  0  0  0  0  0  0  0  0  0
   -1.4442   -0.8827    1.9365 N   0  0  0  0  0  0  0  0  0  0  0  0
   -2.5899   -1.8075    1.8619 C   0  0  0  0  0  0  0  0  0  0  0  0
   -3.7864   -0.9695    2.2429 C   0  0  0  0  0  0  0  0  0  0  0  0
   -3.8882    0.2645    1.5563 N   0  0  0  0  0  0  0  0  0  0  0  0
   -2.7303    0.9254    1.2546 N   0  0  0  0  0  0  0  0  0  0  0  0
   -2.6726   -2.3565    0.6079 O   0  0  0  0  0  0  0  0  0  0  0  0
   -5.0921   -1.6452    2.0395 C   0  0  0  0  0  0  0  0  0  0  0  0
   -5.7620   -0.9093    1.0157 N   0  0  0  0  0  0  0  0  0  0  0  0
   -4.8244    0.0720    0.5099 C   0  0  0  0  0  0  0  0  0  0  0  0
   -4.9726   -3.1186    1.7332 C   0  0  0  0  0  0  0  0  0  0  0  0
   -5.5630    1.3427    0.1302 C   0  0  0  0  0  0  0  0  0  0  0  0
   -6.5349    1.0870   -0.9746 C   0  0  0  0  0  0  0  0  0  0  0  0
   -5.9047    0.5768   -2.2368 C   0  0  0  0  0  0  0  0  0  0  0  0
   -4.0054    3.1584   -2.4778 H   0  0  0  0  0  0  0  0  0  0  0  0
   -3.6277    4.0199   -0.9845 H   0  0  0  0  0  0  0  0  0  0  0  0
   -2.9371    4.5617   -2.6038 H   0  0  0  0  0  0  0  0  0  0  0  0
   -1.2400    3.1062   -2.5544 H   0  0  0  0  0  0  0  0  0  0  0  0
   -2.2712    1.7377   -2.1538 H   0  0  0  0  0  0  0  0  0  0  0  0
   -0.1584    1.3719   -1.3461 H   0  0  0  0  0  0  0  0  0  0  0  0
    1.0348    2.9695    0.8813 H   0  0  0  0  0  0  0  0  0  0  0  0
    0.9597    3.5929   -0.8590 H   0  0  0  0  0  0  0  0  0  0  0  0
    2.9943    2.4079   -0.3931 H   0  0  0  0  0  0  0  0  0  0  0  0
    1.9492    1.3927   -1.5403 H   0  0  0  0  0  0  0  0  0  0  0  0
    2.0991    1.2102    1.4913 H   0  0  0  0  0  0  0  0  0  0  0  0
    0.7675   -0.8889    1.1562 H   0  0  0  0  0  0  0  0  0  0  0  0
    0.5851   -0.4706   -0.5880 H   0  0  0  0  0  0  0  0  0  0  0  0
   -0.1080    1.3812    1.6938 H   0  0  0  0  0  0  0  0  0  0  0  0
    2.3995   -1.9961    1.6717 H   0  0  0  0  0  0  0  0  0  0  0  0
    4.2981    0.9531    1.7979 H   0  0  0  0  0  0  0  0  0  0  0  0
    7.6034   -0.5051    1.6065 H   0  0  0  0  0  0  0  0  0  0  0  0
    8.9967   -1.5265    1.1606 H   0  0  0  0  0  0  0  0  0  0  0  0
    9.1136    0.2552    1.0636 H   0  0  0  0  0  0  0  0  0  0  0  0
    4.7412   -2.7124   -1.8025 H   0  0  0  0  0  0  0  0  0  0  0  0
    4.0440   -2.9104   -0.1846 H   0  0  0  0  0  0  0  0  0  0  0  0
    6.6164   -2.7417   -0.3792 H   0  0  0  0  0  0  0  0  0  0  0  0
    5.7330   -1.7925    0.9329 H   0  0  0  0  0  0  0  0  0  0  0  0
    6.2194   -1.3113   -2.6490 H   0  0  0  0  0  0  0  0  0  0  0  0
    6.5478    0.4254   -2.3815 H   0  0  0  0  0  0  0  0  0  0  0  0
    4.1352   -0.2750   -2.9156 H   0  0  0  0  0  0  0  0  0  0  0  0
    4.4767    0.9226   -1.5512 H   0  0  0  0  0  0  0  0  0  0  0  0
    8.2805    0.2520   -1.0760 H   0  0  0  0  0  0  0  0  0  0  0  0
    8.4033   -1.5296   -1.0615 H   0  0  0  0  0  0  0  0  0  0  0  0
   -1.8053   -0.4890   -0.0628 H   0  0  0  0  0  0  0  0  0  0  0  0
   -1.5928   -0.3428    2.8192 H   0  0  0  0  0  0  0  0  0  0  0  0
   -2.4094   -2.5626    2.6486 H   0  0  0  0  0  0  0  0  0  0  0  0
   -3.6201   -0.7237    3.3371 H   0  0  0  0  0  0  0  0  0  0  0  0
   -2.4234    1.4877    2.0677 H   0  0  0  0  0  0  0  0  0  0  0  0
   -2.1456   -3.2095    0.5971 H   0  0  0  0  0  0  0  0  0  0  0  0
   -5.6830   -1.5644    2.9960 H   0  0  0  0  0  0  0  0  0  0  0  0
   -6.1534   -1.5241    0.2650 H   0  0  0  0  0  0  0  0  0  0  0  0
   -4.3939   -0.3345   -0.4253 H   0  0  0  0  0  0  0  0  0  0  0  0
   -4.8467   -3.3149    0.6463 H   0  0  0  0  0  0  0  0  0  0  0  0
   -5.9364   -3.5925    2.0203 H   0  0  0  0  0  0  0  0  0  0  0  0
   -4.1770   -3.5362    2.3500 H   0  0  0  0  0  0  0  0  0  0  0  0
   -4.8118    2.0682   -0.2237 H   0  0  0  0  0  0  0  0  0  0  0  0
   -6.1430    1.7189    1.0002 H   0  0  0  0  0  0  0  0  0  0  0  0
   -7.3822    0.4252   -0.6294 H   0  0  0  0  0  0  0  0  0  0  0  0
   -7.0447    2.0649   -1.1947 H   0  0  0  0  0  0  0  0  0  0  0  0
   -6.3820    1.0780   -3.1292 H   0  0  0  0  0  0  0  0  0  0  0  0
   -6.1681   -0.4986   -2.3459 H   0  0  0  0  0  0  0  0  0  0  0  0
   -4.8069    0.7212   -2.2747 H   0  0  0  0  0  0  0  0  0  0  0  0
   -4.0054    3.1584   -2.4778 H   0  0  0  0  0  0  0  0  0  0  0  0
   -3.6277    4.0199   -0.9845 H   0  0  0  0  0  0  0  0  0  0  0  0
   -2.9371    4.5617   -2.6038 H   0  0  0  0  0  0  0  0  0  0  0  0
   -1.2400    3.1062   -2.5544 H   0  0  0  0  0  0  0  0  0  0  0  0
   -2.2712    1.7377   -2.1538 H   0  0  0  0  0  0  0  0  0  0  0  0
   -0.1584    1.3719   -1.3461 H   0  0  0  0  0  0  0  0  0  0  0  0
    1.0348    2.9695    0.8813 H   0  0  0  0  0  0  0  0  0  0  0  0
    0.9597    3.5929   -0.8590 H   0  0  0  0  0  0  0  0  0  0  0  0
    2.9943    2.4079   -0.3931 H   0  0  0  0  0  0  0  0  0  0  0  0
    1.9492    1.3927   -1.5403 H   0  0  0  0  0  0  0  0  0  0  0  0
    2.0991    1.2102    1.4913 H   0  0  0  0  0  0  0  0  0  0  0  0
    0.7675   -0.8889    1.1562 H   0  0  0  0  0  0  0  0  0  0  0  0
    0.5851   -0.4706   -0.5880 H   0  0  0  0  0  0  0  0  0  0  0  0
   -0.1080    1.3812    1.6938 H   0  0  0  0  0  0  0  0  0  0  0  0
    2.3995   -1.9961    1.6717 H   0  0  0  0  0  0  0  0  0  0  0  0
    4.2981    0.9531    1.7979 H   0  0  0  0  0  0  0  0  0  0  0  0
    7.6034   -0.5051    1.6065 H   0  0  0  0  0  0  0  0  0  0  0  0
    8.9967   -1.5265    1.1606 H   0  0  0  0  0  0  0  0  0  0  0  0
    9.1136    0.2552    1.0636 H   0  0  0  0  0  0  0  0  0  0  0  0
    4.7412   -2.7124   -1.8025 H   0  0  0  0  0  0  0  0  0  0  0  0
    4.0440   -2.9104   -0.1846 H   0  0  0  0  0  0  0  0  0  0  0  0
    6.6164   -2.7417   -0.3792 H   0  0  0  0  0  0  0  0  0  0  0  0
    5.7330   -1.7925    0.9329 H   0  0  0  0  0  0  0  0  0  0  0  0
    6.2194   -1.3113   -2.6490 H   0  0  0  0  0  0  0  0  0  0  0  0
    6.5478    0.4254   -2.3815 H   0  0  0  0  0  0  0  0  0  0  0  0
    4.1352   -0.2750   -2.9156 H   0  0  0  0  0  0  0  0  0  0  0  0
    4.4767    0.9226   -1.5512 H   0  0  0  0  0  0  0  0  0  0  0  0
    8.2805    0.2520   -1.0760 H   0  0  0  0  0  0  0  0  0  0  0  0
    8.4033   -1.5296   -1.0615 H   0  0  0  0  0  0  0  0  0  0  0  0
   -1.8053   -0.4890   -0.0628 H   0  0  0  0  0  0  0  0  0  0  0  0
   -1.5928   -0.3428    2.8192 H   0  0  0  0  0  0  0  0  0  0  0  0
   -2.4094   -2.5626    2.6486 H   0  0  0  0  0  0  0  0  0  0  0  0
   -3.6201   -0.7237    3.3371 H   0  0  0  0  0  0  0  0  0  0  0  0
   -2.4234    1.4877    2.0677 H   0  0  0  0  0  0  0  0  0  0  0  0
   -2.1456   -3.2095    0.5971 H   0  0  0  0  0  0  0  0  0  0  0  0
   -5.6830   -1.5644    2.9960 H   0  0  0  0  0  0  0  0  0  0  0  0
   -6.1534   -1.5241    0.2650 H   0  0  0  0  0  0  0  0  0  0  0  0
   -4.3939   -0.3345   -0.4253 H   0  0  0  0  0  0  0  0  0  0  0  0
   -4.8467   -3.3149    0.6463 H   0  0  0  0  0  0  0  0  0  0  0  0
   -5.9364   -3.5925    2.0203 H   0  0  0  0  0  0  0  0  0  0  0  0
   -4.1770   -3.5362    2.3500 H   0  0  0  0  0  0  0  0  0  0  0  0
   -4.8118    2.0682   -0.2237 H   0  0  0  0  0  0  0  0  0  0  0  0
   -6.1430    1.7189    1.0002 H   0  0  0  0  0  0  0  0  0  0  0  0
   -7.3822    0.4252   -0.6294 H   0  0  0  0  0  0  0  0  0  0  0  0
   -7.0447    2.0649   -1.1947 H   0  0  0  0  0  0  0  0  0  0  0  0
   -6.3820    1.0780   -3.1292 H   0  0  0  0  0  0  0  0  0  0  0  0
   -6.1681   -0.4986   -2.3459 H   0  0  0  0  0  0  0  0  0  0  0  0
   -4.8069    0.7212   -2.2747 H   0  0  0  0  0  0  0  0  0  0  0  0
  1  2  1  0
  2  3  1  0
  3  4  1  0
  4  5  1  0
  5  6  1  0
  6  7  1  0
  7  8  1  0
  4  9  1  0
  8  9  1  0
  7 10  1  0
 10 11  1  0
 10 12  1  0
 10 14  1  0
 14 15  1  0
 15 16  1  0
 16 17  1  0
 17 18  1  0
 14 19  1  0
 18 19  1  0
 13 20  1  0
 17 20  1  0
  9 21  1  0
 21 22  1  0
 22 23  1  0
 23 24  1  0
 24 25  1  0
 21 26  1  0
 25 26  1  0
 23 27  1  0
 24 28  1  0
 28 29  1  0
 25 30  1  0
 29 30  1  0
 28 31  1  0
 30 32  1  0
 32 33  1  0
 33 34  1  0
 35 36  1  0
 36 37  1  0
 37 38  1  0
 38 39  1  0
 39 40  1  0
 40 41  1  0
 41 42  1  0
 38 43  1  0
 42 43  1  0
 41 44  1  0
 44 45  1  0
 44 46  1  0
 44 48  1  0
 48 49  1  0
 49 50  1  0
 50 51  1  0
 51 52  1  0
 48 53  1  0
 52 53  1  0
 47 54  1  0
 51 54  1  0
 43 55  1  0
 55 56  1  0
 56 57  1  0
 57 58  1  0
 58 59  1  0
 55 60  1  0
 59 60  1  0
 57 61  1  0
 58 62  1  0
 62 63  1  0
 59 64  1  0
 63 64  1  0
 62 65  1  0
 64 66  1  0
 66 67  1  0
 67 68  1  0
  1 69  1  0
  1 70  1  0
  1 71  1  0
  2 72  1  0
  2 73  1  0
  4 74  1  0
  5 75  1  0
  5 76  1  0
  6 77  1  0
  6 78  1  0
  7 79  1  0
  8 80  1  0
  8 81  1  0
  9 82  1  0
 11 83  1  0
 12 84  1  0
 13 85  1  0
 13 86  1  0
 13 87  1  0
 15 88  1  0
 15 89  1  0
 16 90  1  0
 16 91  1  0
 18 92  1  0
 18 93  1  0
 19 94  1  0
 19 95  1  0
 20 96  1  0
 20 97  1  0
 21 98  1  0
 22 99  1  0
 23100  1  0
 24101  1  0
 26102  1  0
 27103  1  0
 28104  1  0
 29105  1  0
 30106  1  0
 31107  1  0
 31108  1  0
 31109  1  0
 32110  1  0
 32111  1  0
 33112  1  0
 33113  1  0
 34114  1  0
 34115  1  0
 34116  1  0
 35117  1  0
 35118  1  0
 35119  1  0
 36120  1  0
 36121  1  0
 38122  1  0
 39123  1  0
 39124  1  0
 40125  1  0
 40126  1  0
 41127  1  0
 42128  1  0
 42129  1  0
 43130  1  0
 45131  1  0
 46132  1  0
 47133  1  0
 47134  1  0
 47135  1  0
 49136  1  0
 49137  1  0
 50138  1  0
 50139  1  0
 52140  1  0
 52141  1  0
 53142  1  0
 53143  1  0
 54144  1  0
 54145  1  0
 55146  1  0
 56147  1  0
 57148  1  0
 58149  1  0
 60150  1  0
 61151  1  0
 62152  1  0
 63153  1  0
 64154  1  0
 65155  1  0
 65156  1  0
 65157  1  0
 66158  1  0
 66159  1  0
 67160  1  0
 67161  1  0
 68162  1  0
 68163  1  0
 68164  1  0
M  END
>  <PDBID>  (1) 
3B2R

>  <PDB ID>  (1) 
3B2R

>  <Generic Name>  (1) 
Vardenafil

>  <Brand Name>  (1) 
Levitra#Staxyn#Vivanza

>  <DrugBank ID>  (1) 
DB00862

>  <ATC Codes>  (1) 
G04BE09

>  <Ligand ID>  (1) 
VDN

>  <Target Name>  (1) 
cGMP-specific 3',5'-cyclic phosphodiesterase

>  <UniProt ID>  (1) 
O76074

>  <PDB ID.1>  (1) 
3B2R

>  <Seq. Identity>  (1) 
94%

$$$$
