PDB_DB00421_02
     RDKit          3D

138146  0  0  0  0  0  0  0  0999 V2000
    3.1044    1.6895    1.1824 C   0  0  0  0  0  0  0  0  0  0  0  0
    1.8492   -1.3974   -0.4269 C   0  0  0  0  0  0  0  0  0  0  0  0
    2.1926    0.0312   -0.2779 C   0  0  1  0  0  0  0  0  0  0  0  0
   -1.7758   -1.4133   -0.4367 C   0  0  1  0  0  0  0  0  0  0  0  0
    1.1227    0.6692    0.6034 C   0  0  1  0  0  0  0  0  0  0  0  0
   -2.2278   -2.6899    0.2324 C   0  0  0  0  0  0  0  0  0  0  0  0
    0.6105   -1.8723    0.2451 C   0  0  0  0  0  0  0  0  0  0  0  0
    1.6633    2.0214    0.7952 C   0  0  0  0  0  0  0  0  0  0  0  0
    3.4176    0.3627    0.4986 C   0  0  2  0  0  0  0  0  0  0  0  0
    2.3071    0.7297   -1.6170 C   0  0  0  0  0  0  0  0  0  0  0  0
   -1.5727   -1.6830   -1.8958 C   0  0  0  0  0  0  0  0  0  0  0  0
   -3.6118   -3.1159   -0.1993 C   0  0  0  0  0  0  0  0  0  0  0  0
    3.8768   -0.6925    1.4501 C   0  0  0  0  0  0  0  0  0  0  0  0
    5.0467   -1.3699    0.7853 C   0  0  0  0  0  0  0  0  0  0  0  0
    5.1602   -0.6126   -0.5104 C   0  0  0  0  0  0  0  0  0  0  0  0
   -2.3766    3.3380    2.0428 C   0  0  0  0  0  0  0  0  0  0  0  0
   -1.5247    4.2695    1.1957 C   0  0  0  0  0  0  0  0  0  0  0  0
   -4.6338   -2.0379    0.0146 C   0  0  0  0  0  0  0  0  0  0  0  0
   -4.1971   -0.7640   -0.6463 C   0  0  0  0  0  0  0  0  0  0  0  0
   -2.8362   -0.3586   -0.1707 C   0  0  2  0  0  0  0  0  0  0  0  0
   -2.4260    0.9955   -0.6977 C   0  0  0  0  0  0  0  0  0  0  0  0
   -1.2239    1.4696    0.1147 C   0  0  2  0  0  0  0  0  0  0  0  0
   -0.1398    0.4766   -0.1277 C   0  0  2  0  0  0  0  0  0  0  0  0
   -0.5441   -0.9411    0.2766 C   0  0  1  0  0  0  0  0  0  0  0  0
    6.4948   -0.3309   -0.7903 O   0  0  0  0  0  0  0  0  0  0  0  0
    4.5129    0.6004   -0.3399 O   0  0  0  0  0  0  0  0  0  0  0  0
   -3.6452    3.2993    1.4652 O   0  0  0  0  0  0  0  0  0  0  0  0
   -4.9393   -1.8706    1.3505 O   0  0  0  0  0  0  0  0  0  0  0  0
   -1.6674    1.6687    1.8447 S   0  0  0  0  0  0  0  0  0  0  0  0
    3.1044    1.6895    1.1824 C   0  0  0  0  0  0  0  0  0  0  0  0
    1.8492   -1.3974   -0.4269 C   0  0  0  0  0  0  0  0  0  0  0  0
    2.1926    0.0312   -0.2779 C   0  0  1  0  0  0  0  0  0  0  0  0
   -1.7758   -1.4133   -0.4367 C   0  0  1  0  0  0  0  0  0  0  0  0
    1.1227    0.6692    0.6034 C   0  0  1  0  0  0  0  0  0  0  0  0
   -2.2278   -2.6899    0.2324 C   0  0  0  0  0  0  0  0  0  0  0  0
    0.6105   -1.8723    0.2451 C   0  0  0  0  0  0  0  0  0  0  0  0
    1.6633    2.0214    0.7952 C   0  0  0  0  0  0  0  0  0  0  0  0
    3.4176    0.3627    0.4986 C   0  0  2  0  0  0  0  0  0  0  0  0
    2.3071    0.7297   -1.6170 C   0  0  0  0  0  0  0  0  0  0  0  0
   -1.5727   -1.6830   -1.8958 C   0  0  0  0  0  0  0  0  0  0  0  0
   -3.6118   -3.1159   -0.1993 C   0  0  0  0  0  0  0  0  0  0  0  0
    3.8768   -0.6925    1.4501 C   0  0  0  0  0  0  0  0  0  0  0  0
    5.0467   -1.3699    0.7853 C   0  0  0  0  0  0  0  0  0  0  0  0
    5.1602   -0.6126   -0.5104 C   0  0  0  0  0  0  0  0  0  0  0  0
   -2.3766    3.3380    2.0428 C   0  0  0  0  0  0  0  0  0  0  0  0
   -1.5247    4.2695    1.1957 C   0  0  0  0  0  0  0  0  0  0  0  0
   -4.6338   -2.0379    0.0146 C   0  0  0  0  0  0  0  0  0  0  0  0
   -4.1971   -0.7640   -0.6463 C   0  0  0  0  0  0  0  0  0  0  0  0
   -2.8362   -0.3586   -0.1707 C   0  0  2  0  0  0  0  0  0  0  0  0
   -2.4260    0.9955   -0.6977 C   0  0  0  0  0  0  0  0  0  0  0  0
   -1.2239    1.4696    0.1147 C   0  0  2  0  0  0  0  0  0  0  0  0
   -0.1398    0.4766   -0.1277 C   0  0  2  0  0  0  0  0  0  0  0  0
   -0.5441   -0.9411    0.2766 C   0  0  1  0  0  0  0  0  0  0  0  0
    6.4948   -0.3309   -0.7903 O   0  0  0  0  0  0  0  0  0  0  0  0
    4.5129    0.6004   -0.3399 O   0  0  0  0  0  0  0  0  0  0  0  0
   -3.6452    3.2993    1.4652 O   0  0  0  0  0  0  0  0  0  0  0  0
   -4.9393   -1.8706    1.3505 O   0  0  0  0  0  0  0  0  0  0  0  0
   -1.6674    1.6687    1.8447 S   0  0  0  0  0  0  0  0  0  0  0  0
    3.8039    2.4874    0.8948 H   0  0  0  0  0  0  0  0  0  0  0  0
    3.0746    1.5142    2.2853 H   0  0  0  0  0  0  0  0  0  0  0  0
    2.6862   -2.0623   -0.0956 H   0  0  0  0  0  0  0  0  0  0  0  0
    1.7420   -1.6138   -1.5210 H   0  0  0  0  0  0  0  0  0  0  0  0
    1.1895    0.1280    1.5793 H   0  0  0  0  0  0  0  0  0  0  0  0
   -2.2503   -2.5103    1.3314 H   0  0  0  0  0  0  0  0  0  0  0  0
   -1.5690   -3.5485    0.0376 H   0  0  0  0  0  0  0  0  0  0  0  0
    0.2881   -2.8033   -0.2872 H   0  0  0  0  0  0  0  0  0  0  0  0
    0.9015   -2.2262    1.2673 H   0  0  0  0  0  0  0  0  0  0  0  0
    1.1368    2.5062    1.6548 H   0  0  0  0  0  0  0  0  0  0  0  0
    1.6033    2.7093   -0.0534 H   0  0  0  0  0  0  0  0  0  0  0  0
    2.1954   -0.0560   -2.4061 H   0  0  0  0  0  0  0  0  0  0  0  0
    3.3301    1.1531   -1.7839 H   0  0  0  0  0  0  0  0  0  0  0  0
    1.6098    1.5683   -1.7374 H   0  0  0  0  0  0  0  0  0  0  0  0
   -0.8027   -1.0607   -2.3728 H   0  0  0  0  0  0  0  0  0  0  0  0
   -1.2805   -2.7518   -2.0281 H   0  0  0  0  0  0  0  0  0  0  0  0
   -2.5131   -1.5138   -2.4738 H   0  0  0  0  0  0  0  0  0  0  0  0
   -3.6389   -3.4707   -1.2392 H   0  0  0  0  0  0  0  0  0  0  0  0
   -3.8866   -3.9824    0.4484 H   0  0  0  0  0  0  0  0  0  0  0  0
    3.0914   -1.3842    1.7839 H   0  0  0  0  0  0  0  0  0  0  0  0
    4.2813   -0.1810    2.3581 H   0  0  0  0  0  0  0  0  0  0  0  0
    4.9235   -2.4547    0.6601 H   0  0  0  0  0  0  0  0  0  0  0  0
    6.0032   -1.2330    1.3493 H   0  0  0  0  0  0  0  0  0  0  0  0
    4.7330   -1.1473   -1.3758 H   0  0  0  0  0  0  0  0  0  0  0  0
   -2.4047    3.6528    3.0993 H   0  0  0  0  0  0  0  0  0  0  0  0
   -0.4623    3.9205    1.2433 H   0  0  0  0  0  0  0  0  0  0  0  0
   -1.5231    5.3079    1.5899 H   0  0  0  0  0  0  0  0  0  0  0  0
   -1.8141    4.2048    0.1335 H   0  0  0  0  0  0  0  0  0  0  0  0
   -5.5660   -2.3786   -0.5032 H   0  0  0  0  0  0  0  0  0  0  0  0
   -4.9008    0.0326   -0.3080 H   0  0  0  0  0  0  0  0  0  0  0  0
   -4.2812   -0.8086   -1.7403 H   0  0  0  0  0  0  0  0  0  0  0  0
   -2.8813   -0.2502    0.9418 H   0  0  0  0  0  0  0  0  0  0  0  0
   -3.2774    1.6810   -0.6026 H   0  0  0  0  0  0  0  0  0  0  0  0
   -2.0962    0.8371   -1.7484 H   0  0  0  0  0  0  0  0  0  0  0  0
   -0.9185    2.4294   -0.3252 H   0  0  0  0  0  0  0  0  0  0  0  0
    0.0052    0.4237   -1.2365 H   0  0  0  0  0  0  0  0  0  0  0  0
   -0.8511   -0.8255    1.3496 H   0  0  0  0  0  0  0  0  0  0  0  0
    6.5878    0.3869   -1.4527 H   0  0  0  0  0  0  0  0  0  0  0  0
   -3.7329    3.9213    0.6930 H   0  0  0  0  0  0  0  0  0  0  0  0
   -4.5524   -1.0727    1.7662 H   0  0  0  0  0  0  0  0  0  0  0  0
    3.8039    2.4874    0.8948 H   0  0  0  0  0  0  0  0  0  0  0  0
    3.0746    1.5142    2.2853 H   0  0  0  0  0  0  0  0  0  0  0  0
    2.6862   -2.0623   -0.0956 H   0  0  0  0  0  0  0  0  0  0  0  0
    1.7420   -1.6138   -1.5210 H   0  0  0  0  0  0  0  0  0  0  0  0
    1.1895    0.1280    1.5793 H   0  0  0  0  0  0  0  0  0  0  0  0
   -2.2503   -2.5103    1.3314 H   0  0  0  0  0  0  0  0  0  0  0  0
   -1.5690   -3.5485    0.0376 H   0  0  0  0  0  0  0  0  0  0  0  0
    0.2881   -2.8033   -0.2872 H   0  0  0  0  0  0  0  0  0  0  0  0
    0.9015   -2.2262    1.2673 H   0  0  0  0  0  0  0  0  0  0  0  0
    1.1368    2.5062    1.6548 H   0  0  0  0  0  0  0  0  0  0  0  0
    1.6033    2.7093   -0.0534 H   0  0  0  0  0  0  0  0  0  0  0  0
    2.1954   -0.0560   -2.4061 H   0  0  0  0  0  0  0  0  0  0  0  0
    3.3301    1.1531   -1.7839 H   0  0  0  0  0  0  0  0  0  0  0  0
    1.6098    1.5683   -1.7374 H   0  0  0  0  0  0  0  0  0  0  0  0
   -0.8027   -1.0607   -2.3728 H   0  0  0  0  0  0  0  0  0  0  0  0
   -1.2805   -2.7518   -2.0281 H   0  0  0  0  0  0  0  0  0  0  0  0
   -2.5131   -1.5138   -2.4738 H   0  0  0  0  0  0  0  0  0  0  0  0
   -3.6389   -3.4707   -1.2392 H   0  0  0  0  0  0  0  0  0  0  0  0
   -3.8866   -3.9824    0.4484 H   0  0  0  0  0  0  0  0  0  0  0  0
    3.0914   -1.3842    1.7839 H   0  0  0  0  0  0  0  0  0  0  0  0
    4.2813   -0.1810    2.3581 H   0  0  0  0  0  0  0  0  0  0  0  0
    4.9235   -2.4547    0.6601 H   0  0  0  0  0  0  0  0  0  0  0  0
    6.0032   -1.2330    1.3493 H   0  0  0  0  0  0  0  0  0  0  0  0
    4.7330   -1.1473   -1.3758 H   0  0  0  0  0  0  0  0  0  0  0  0
   -2.4047    3.6528    3.0993 H   0  0  0  0  0  0  0  0  0  0  0  0
   -0.4623    3.9205    1.2433 H   0  0  0  0  0  0  0  0  0  0  0  0
   -1.5231    5.3079    1.5899 H   0  0  0  0  0  0  0  0  0  0  0  0
   -1.8141    4.2048    0.1335 H   0  0  0  0  0  0  0  0  0  0  0  0
   -5.5660   -2.3786   -0.5032 H   0  0  0  0  0  0  0  0  0  0  0  0
   -4.9008    0.0326   -0.3080 H   0  0  0  0  0  0  0  0  0  0  0  0
   -4.2812   -0.8086   -1.7403 H   0  0  0  0  0  0  0  0  0  0  0  0
   -2.8813   -0.2502    0.9418 H   0  0  0  0  0  0  0  0  0  0  0  0
   -3.2774    1.6810   -0.6026 H   0  0  0  0  0  0  0  0  0  0  0  0
   -2.0962    0.8371   -1.7484 H   0  0  0  0  0  0  0  0  0  0  0  0
   -0.9185    2.4294   -0.3252 H   0  0  0  0  0  0  0  0  0  0  0  0
    0.0052    0.4237   -1.2365 H   0  0  0  0  0  0  0  0  0  0  0  0
   -0.8511   -0.8255    1.3496 H   0  0  0  0  0  0  0  0  0  0  0  0
    6.5878    0.3869   -1.4527 H   0  0  0  0  0  0  0  0  0  0  0  0
   -3.7329    3.9213    0.6930 H   0  0  0  0  0  0  0  0  0  0  0  0
   -4.5524   -1.0727    1.7662 H   0  0  0  0  0  0  0  0  0  0  0  0
  2  3  1  0
  3  5  1  0
  4  6  1  0
  2  7  1  0
  1  8  1  0
  5  8  1  0
  1  9  1  0
  3  9  1  0
  3 10  1  6
  4 11  1  6
  6 12  1  0
  9 13  1  0
 13 14  1  0
 14 15  1  0
 16 17  1  0
 12 18  1  0
 18 19  1  0
  4 20  1  0
 19 20  1  0
 20 21  1  0
 21 22  1  0
  5 23  1  0
 22 23  1  0
  4 24  1  0
  7 24  1  0
 23 24  1  0
 15 25  1  0
  9 26  1  6
 15 26  1  0
 16 27  1  0
 18 28  1  0
 16 29  1  0
 22 29  1  0
 31 32  1  0
 32 34  1  0
 33 35  1  0
 31 36  1  0
 30 37  1  0
 34 37  1  0
 30 38  1  0
 32 38  1  0
 32 39  1  6
 33 40  1  6
 35 41  1  0
 38 42  1  0
 42 43  1  0
 43 44  1  0
 45 46  1  0
 41 47  1  0
 47 48  1  0
 33 49  1  0
 48 49  1  0
 49 50  1  0
 50 51  1  0
 34 52  1  0
 51 52  1  0
 33 53  1  0
 36 53  1  0
 52 53  1  0
 44 54  1  0
 38 55  1  6
 44 55  1  0
 45 56  1  0
 47 57  1  0
 45 58  1  0
 51 58  1  0
  1 59  1  0
  1 60  1  0
  2 61  1  0
  2 62  1  0
  5 63  1  1
  6 64  1  0
  6 65  1  0
  7 66  1  0
  7 67  1  0
  8 68  1  0
  8 69  1  0
 10 70  1  0
 10 71  1  0
 10 72  1  0
 11 73  1  0
 11 74  1  0
 11 75  1  0
 12 76  1  0
 12 77  1  0
 13 78  1  0
 13 79  1  0
 14 80  1  0
 14 81  1  0
 15 82  1  0
 16 83  1  0
 17 84  1  0
 17 85  1  0
 17 86  1  0
 18 87  1  0
 19 88  1  0
 19 89  1  0
 20 90  1  1
 21 91  1  0
 21 92  1  0
 22 93  1  6
 23 94  1  6
 24 95  1  1
 25 96  1  0
 27 97  1  0
 28 98  1  0
 30 99  1  0
 30100  1  0
 31101  1  0
 31102  1  0
 34103  1  1
 35104  1  0
 35105  1  0
 36106  1  0
 36107  1  0
 37108  1  0
 37109  1  0
 39110  1  0
 39111  1  0
 39112  1  0
 40113  1  0
 40114  1  0
 40115  1  0
 41116  1  0
 41117  1  0
 42118  1  0
 42119  1  0
 43120  1  0
 43121  1  0
 44122  1  0
 45123  1  0
 46124  1  0
 46125  1  0
 46126  1  0
 47127  1  0
 48128  1  0
 48129  1  0
 49130  1  1
 50131  1  0
 50132  1  0
 51133  1  6
 52134  1  6
 53135  1  1
 54136  1  0
 56137  1  0
 57138  1  0
M  END
>  <PDBID>  (1) 
2AB2

>  <PDB ID>  (1) 
2AB2

>  <Generic Name>  (1) 
Spironolactone

>  <Brand Name>  (1) 
Aldactazide#Aldactazide 25#Aldactazide 50#Aldactone#Aldactone 100 mg#Aldactone 25 mg#Apo-spirozide Tab#Ntp-spironolactone#Spironolactone#Spironolactone and Hydrochlorothiazide#Teva-spironolactone#Teva-spironolactone/hctz#Osyrol#Spiresis#Spiretic#Spiroctan#Uractone#Verospiron#Xenalon

>  <DrugBank ID>  (1) 
DB00421

>  <ATC Codes>  (1) 
C03DA01

>  <Ligand ID>  (1) 
SNL

>  <Target Name>  (1) 
Mineralocorticoid receptor

>  <UniProt ID>  (1) 
P08235

>  <PDB ID.1>  (1) 
2AB2

>  <Seq. Identity>  (1) 
99%

$$$$
