PDB_DB00951_03
     RDKit          3D

 25 25  0  0  0  0  0  0  0  0999 V2000
   -1.2197   -0.9785    0.4722 C   0  0  2  0  0  0  0  0  0  0  0  0
   -0.0893   -0.2291   -0.2150 C   0  0  0  0  0  0  0  0  0  0  0  0
    2.3512    1.0628   -0.6747 N   0  0  0  0  0  0  0  0  0  0  0  0
   -1.4579   -2.1872   -0.1327 O   0  0  0  0  0  0  0  0  0  0  0  0
    0.1663    1.1030    0.4592 C   0  0  0  0  0  0  0  0  0  0  0  0
   -2.4348   -0.1833    0.4920 N   0  0  0  0  0  0  0  0  0  0  0  0
    1.1923    1.7965   -0.4014 C   0  0  0  0  0  0  0  0  0  0  0  0
   -2.8870    0.1494   -0.7702 N   0  0  0  0  0  0  0  0  0  0  0  0
    2.4208   -0.2907   -0.3202 C   0  0  0  0  0  0  0  0  0  0  0  0
    1.1758   -1.0222   -0.0433 C   0  0  0  0  0  0  0  0  0  0  0  0
   -0.9155   -1.1250    1.5326 H   0  0  0  0  0  0  0  0  0  0  0  0
   -0.3242   -0.1120   -1.2967 H   0  0  0  0  0  0  0  0  0  0  0  0
    3.2326    1.5568   -0.4170 H   0  0  0  0  0  0  0  0  0  0  0  0
   -1.8780   -2.8254    0.5268 H   0  0  0  0  0  0  0  0  0  0  0  0
    0.6401    0.8775    1.4376 H   0  0  0  0  0  0  0  0  0  0  0  0
   -0.7310    1.7182    0.5536 H   0  0  0  0  0  0  0  0  0  0  0  0
   -3.1399   -0.6800    1.0599 H   0  0  0  0  0  0  0  0  0  0  0  0
    0.6785    2.0384   -1.3769 H   0  0  0  0  0  0  0  0  0  0  0  0
    1.4394    2.7628    0.0923 H   0  0  0  0  0  0  0  0  0  0  0  0
   -2.5992    1.1135   -1.0429 H   0  0  0  0  0  0  0  0  0  0  0  0
   -3.9229    0.0597   -0.8231 H   0  0  0  0  0  0  0  0  0  0  0  0
    2.9779   -0.8432   -1.1344 H   0  0  0  0  0  0  0  0  0  0  0  0
    3.1074   -0.3909    0.5732 H   0  0  0  0  0  0  0  0  0  0  0  0
    1.0661   -1.9509   -0.6753 H   0  0  0  0  0  0  0  0  0  0  0  0
    1.1509   -1.4201    1.0140 H   0  0  0  0  0  0  0  0  0  0  0  0
  1  2  1  0
  1  4  1  0
  2  5  1  0
  1  6  1  0
  3  7  1  0
  5  7  1  0
  6  8  1  0
  3  9  1  0
  2 10  1  0
  9 10  1  0
  1 11  1  1
  2 12  1  0
  3 13  1  0
  4 14  1  0
  5 15  1  0
  5 16  1  0
  6 17  1  0
  7 18  1  0
  7 19  1  0
  8 20  1  0
  8 21  1  0
  9 22  1  0
  9 23  1  0
 10 24  1  0
 10 25  1  0
M  END
>  <PDBID>  (1) 
5KSG

>  <PDB ID>  (1) 
5KSG

>  <Generic Name>  (1) 
Isoniazid

>  <Brand Name>  (1) 
Dom-isoniazid 300mg Tablets#Isonarif#Isoniazid#Isoniazid Syrup 50mg/5ml#Isoniazid Tab 100mg#Isoniazid Tab 300mg#Isoniazid Tab 50mg#Isoniazide 100mg Tablets#Isotamine B 300#Isotamine Powder#Isotamine Syr Pediatric 50mg/5ml#Isotamine-100#Isotamine-300#Pdp-isoniazid#Rifamate#Rifater#Nicozid#Nidrazid#Nydrazid#Rimicid#Rimifon#Servizid#Tibinide

>  <DrugBank ID>  (1) 
DB00951

>  <ATC Codes>  (1) 
J04AM04#J04AM02#J04AM06#J04AM03#J04AM05#J04AM01#J04AC51#J04AC01

>  <Ligand ID>  (1) 
NIZ

>  <Target Name>  (1) 
Catalase-peroxidase

>  <UniProt ID>  (1) 
Q08129

>  <PDB ID.1>  (1) 
5KSG

>  <Seq. Identity>  (1) 
66%

$$$$
