PDB_DB01232_03
     RDKit          3D

123127  0  0  0  0  0  0  0  0999 V2000
    4.6521   -0.0980   -0.7000 C   0  0  0  0  0  0  0  0  0  0  0  0
    4.0159   -1.2264   -1.2506 O   0  0  0  0  0  0  0  0  0  0  0  0
    6.1464   -1.7122    0.4282 N   0  0  0  0  0  0  0  0  0  0  0  0
    6.0853   -0.5951   -0.4644 C   0  0  2  0  0  0  0  0  0  0  0  0
    7.0180    0.4609    0.0147 C   0  0  0  0  0  0  0  0  0  0  0  0
    8.4326   -0.1000   -0.1959 C   0  0  0  0  0  0  0  0  0  0  0  0
    9.8451   -2.0983   -0.1331 C   0  0  0  0  0  0  0  0  0  0  0  0
   10.1450   -2.0331    1.3266 C   0  0  0  0  0  0  0  0  0  0  0  0
    8.9632   -2.1889    2.2250 C   0  0  0  0  0  0  0  0  0  0  0  0
    7.8224   -2.9259    1.5920 C   0  0  0  0  0  0  0  0  0  0  0  0
    8.4481   -1.5700   -0.4458 C   0  0  0  0  0  0  0  0  0  0  0  0
    7.4226   -2.3776    0.2569 C   0  0  0  0  0  0  0  0  0  0  0  0
    4.1269    0.3444    0.5268 N   0  0  0  0  0  0  0  0  0  0  0  0
    2.9373    1.1030    0.5621 C   0  0  2  0  0  0  0  0  0  0  0  0
    1.6911    0.4002    0.0572 C   0  0  0  0  0  0  0  0  0  0  0  0
    1.7627    0.0117   -1.2583 O   0  0  0  0  0  0  0  0  0  0  0  0
    3.0742    2.4846   -0.0423 C   0  0  0  0  0  0  0  0  0  0  0  0
    4.1360    3.2259    0.7478 C   0  0  1  0  0  0  0  0  0  0  0  0
    4.2851    4.5071    0.2141 O   0  0  0  0  0  0  0  0  0  0  0  0
    3.7624    3.3807    2.1344 N   0  0  0  0  0  0  0  0  0  0  0  0
   -1.0984   -0.7874    0.4884 C   0  0  1  0  0  0  0  0  0  0  0  0
   -0.1614   -1.7543    0.0524 O   0  0  0  0  0  0  0  0  0  0  0  0
   -0.7376    0.5946   -0.0081 C   0  0  1  0  0  0  0  0  0  0  0  0
    0.5131    1.0695    0.4246 N   0  0  0  0  0  0  0  0  0  0  0  0
   -1.0243    0.7630   -1.4673 C   0  0  0  0  0  0  0  0  0  0  0  0
   -0.6750    2.1242   -1.9954 C   0  0  0  0  0  0  0  0  0  0  0  0
   -0.9976    2.2055   -3.4974 C   0  0  0  0  0  0  0  0  0  0  0  0
   -1.4758    3.2424   -1.3621 C   0  0  0  0  0  0  0  0  0  0  0  0
   -1.3128    3.6270   -3.8979 C   0  0  0  0  0  0  0  0  0  0  0  0
   -0.7978    4.5732   -1.6416 C   0  0  0  0  0  0  0  0  0  0  0  0
   -0.5150    4.6459   -3.1167 C   0  0  0  0  0  0  0  0  0  0  0  0
   -3.5516   -0.4506    0.4009 N   0  0  0  0  0  0  0  0  0  0  0  0
   -2.4280   -1.2797    0.0631 C   0  0  0  0  0  0  0  0  0  0  0  0
   -4.8034   -1.0925   -0.0524 C   0  0  2  0  0  0  0  0  0  0  0  0
   -5.0752   -0.7229   -1.4896 C   0  0  0  0  0  0  0  0  0  0  0  0
   -5.2859    0.6605   -1.5265 O   0  0  0  0  0  0  0  0  0  0  0  0
   -5.9167   -0.5692    0.8392 C   0  0  0  0  0  0  0  0  0  0  0  0
   -5.8107   -1.1998    2.2162 C   0  0  2  0  0  0  0  0  0  0  0  0
   -6.6684   -0.3921    3.1475 C   0  0  0  0  0  0  0  0  0  0  0  0
   -6.4225   -0.6431    4.5918 C   0  0  0  0  0  0  0  0  0  0  0  0
   -5.2475   -1.5575    4.8660 C   0  0  0  0  0  0  0  0  0  0  0  0
   -4.0891   -1.0243    4.0330 C   0  0  0  0  0  0  0  0  0  0  0  0
   -4.3664   -1.2180    2.5738 C   0  0  2  0  0  0  0  0  0  0  0  0
   -3.6555   -0.1383    1.7887 C   0  0  0  0  0  0  0  0  0  0  0  0
   -5.8077   -1.5383   -2.3077 N   0  0  0  0  0  0  0  0  0  0  0  0
   -7.1314   -1.9222   -2.2135 C   0  0  0  0  0  0  0  0  0  0  0  0
   -7.4529   -2.6266   -3.5759 C   0  0  0  0  0  0  0  0  0  0  0  0
   -7.4429   -3.0325   -1.2025 C   0  0  0  0  0  0  0  0  0  0  0  0
   -8.1798   -0.8732   -2.0765 C   0  0  0  0  0  0  0  0  0  0  0  0
    4.7369    0.7188   -1.4486 H   0  0  0  0  0  0  0  0  0  0  0  0
    4.0725   -1.2214   -2.2404 H   0  0  0  0  0  0  0  0  0  0  0  0
    6.0306   -1.3696    1.4060 H   0  0  0  0  0  0  0  0  0  0  0  0
    6.4828   -0.9284   -1.4715 H   0  0  0  0  0  0  0  0  0  0  0  0
    6.8703    1.3978   -0.5193 H   0  0  0  0  0  0  0  0  0  0  0  0
    6.8698    0.6262    1.1063 H   0  0  0  0  0  0  0  0  0  0  0  0
    8.8257    0.4132   -1.0983 H   0  0  0  0  0  0  0  0  0  0  0  0
    9.0809    0.2204    0.6422 H   0  0  0  0  0  0  0  0  0  0  0  0
    9.9268   -3.1547   -0.4726 H   0  0  0  0  0  0  0  0  0  0  0  0
   10.6027   -1.5185   -0.7054 H   0  0  0  0  0  0  0  0  0  0  0  0
   10.6734   -1.0739    1.5830 H   0  0  0  0  0  0  0  0  0  0  0  0
   10.9166   -2.8341    1.5309 H   0  0  0  0  0  0  0  0  0  0  0  0
    8.6200   -1.2250    2.6931 H   0  0  0  0  0  0  0  0  0  0  0  0
    9.3011   -2.8038    3.1085 H   0  0  0  0  0  0  0  0  0  0  0  0
    6.9715   -2.9039    2.3253 H   0  0  0  0  0  0  0  0  0  0  0  0
    8.0974   -4.0198    1.5422 H   0  0  0  0  0  0  0  0  0  0  0  0
    8.3445   -1.7452   -1.5592 H   0  0  0  0  0  0  0  0  0  0  0  0
    7.1983   -3.2790   -0.3887 H   0  0  0  0  0  0  0  0  0  0  0  0
    4.8661    0.7412    1.1232 H   0  0  0  0  0  0  0  0  0  0  0  0
    2.7204    1.2953    1.6580 H   0  0  0  0  0  0  0  0  0  0  0  0
    1.7139   -0.5628    0.6673 H   0  0  0  0  0  0  0  0  0  0  0  0
    2.1630    0.7117   -1.8579 H   0  0  0  0  0  0  0  0  0  0  0  0
    3.3297    2.4654   -1.1039 H   0  0  0  0  0  0  0  0  0  0  0  0
    2.1128    3.0181    0.1361 H   0  0  0  0  0  0  0  0  0  0  0  0
    5.1202    2.7198    0.7210 H   0  0  0  0  0  0  0  0  0  0  0  0
    4.6797    4.3928   -0.6945 H   0  0  0  0  0  0  0  0  0  0  0  0
    4.5542    3.1427    2.7940 H   0  0  0  0  0  0  0  0  0  0  0  0
    3.5192    4.3772    2.3673 H   0  0  0  0  0  0  0  0  0  0  0  0
   -1.0324   -0.8562    1.5976 H   0  0  0  0  0  0  0  0  0  0  0  0
   -0.2615   -2.5469    0.6352 H   0  0  0  0  0  0  0  0  0  0  0  0
   -1.5053    1.2593    0.5028 H   0  0  0  0  0  0  0  0  0  0  0  0
    0.5578    1.9205    0.9740 H   0  0  0  0  0  0  0  0  0  0  0  0
   -0.5429    0.0190   -2.1133 H   0  0  0  0  0  0  0  0  0  0  0  0
   -2.1449    0.6885   -1.5793 H   0  0  0  0  0  0  0  0  0  0  0  0
    0.3906    2.3256   -1.8429 H   0  0  0  0  0  0  0  0  0  0  0  0
   -1.9341    1.5897   -3.6172 H   0  0  0  0  0  0  0  0  0  0  0  0
   -0.1761    1.7712   -4.0805 H   0  0  0  0  0  0  0  0  0  0  0  0
   -1.6727    3.0959   -0.2964 H   0  0  0  0  0  0  0  0  0  0  0  0
   -2.4985    3.3136   -1.8356 H   0  0  0  0  0  0  0  0  0  0  0  0
   -2.3865    3.8883   -3.7825 H   0  0  0  0  0  0  0  0  0  0  0  0
   -0.9933    3.7451   -4.9671 H   0  0  0  0  0  0  0  0  0  0  0  0
   -1.4705    5.4050   -1.3536 H   0  0  0  0  0  0  0  0  0  0  0  0
    0.1396    4.6046   -1.0498 H   0  0  0  0  0  0  0  0  0  0  0  0
    0.5707    4.5744   -3.2884 H   0  0  0  0  0  0  0  0  0  0  0  0
   -0.8285    5.6419   -3.5019 H   0  0  0  0  0  0  0  0  0  0  0  0
   -2.4514   -1.4872   -1.0189 H   0  0  0  0  0  0  0  0  0  0  0  0
   -2.6384   -2.2817    0.5433 H   0  0  0  0  0  0  0  0  0  0  0  0
   -4.6997   -2.1661    0.1341 H   0  0  0  0  0  0  0  0  0  0  0  0
   -3.9933   -0.7571   -1.9523 H   0  0  0  0  0  0  0  0  0  0  0  0
   -4.5985    1.0459   -0.9265 H   0  0  0  0  0  0  0  0  0  0  0  0
   -6.9022   -0.8195    0.4605 H   0  0  0  0  0  0  0  0  0  0  0  0
   -5.9177    0.5612    0.8912 H   0  0  0  0  0  0  0  0  0  0  0  0
   -6.2361   -2.2369    2.1330 H   0  0  0  0  0  0  0  0  0  0  0  0
   -7.7280   -0.6248    2.9191 H   0  0  0  0  0  0  0  0  0  0  0  0
   -6.5382    0.6926    2.8661 H   0  0  0  0  0  0  0  0  0  0  0  0
   -7.3193   -1.0038    5.1417 H   0  0  0  0  0  0  0  0  0  0  0  0
   -6.1636    0.3375    5.0760 H   0  0  0  0  0  0  0  0  0  0  0  0
   -4.9874   -1.4925    5.9218 H   0  0  0  0  0  0  0  0  0  0  0  0
   -5.4825   -2.5698    4.5068 H   0  0  0  0  0  0  0  0  0  0  0  0
   -3.1826   -1.5550    4.3827 H   0  0  0  0  0  0  0  0  0  0  0  0
   -3.9514    0.0493    4.2795 H   0  0  0  0  0  0  0  0  0  0  0  0
   -3.9728   -2.2418    2.3074 H   0  0  0  0  0  0  0  0  0  0  0  0
   -4.2523    0.7813    1.9001 H   0  0  0  0  0  0  0  0  0  0  0  0
   -2.6781    0.1266    2.2545 H   0  0  0  0  0  0  0  0  0  0  0  0
   -5.2826   -2.0146   -3.0942 H   0  0  0  0  0  0  0  0  0  0  0  0
   -7.2506   -1.9050   -4.3821 H   0  0  0  0  0  0  0  0  0  0  0  0
   -8.5283   -2.9088   -3.5953 H   0  0  0  0  0  0  0  0  0  0  0  0
   -6.8167   -3.5079   -3.6821 H   0  0  0  0  0  0  0  0  0  0  0  0
   -6.5586   -3.4037   -0.6864 H   0  0  0  0  0  0  0  0  0  0  0  0
   -8.1580   -2.6475   -0.4151 H   0  0  0  0  0  0  0  0  0  0  0  0
   -7.9542   -3.8928   -1.6415 H   0  0  0  0  0  0  0  0  0  0  0  0
   -8.6962   -0.8670   -1.0804 H   0  0  0  0  0  0  0  0  0  0  0  0
   -7.8290    0.1586   -2.3463 H   0  0  0  0  0  0  0  0  0  0  0  0
   -8.9997   -1.0859   -2.7919 H   0  0  0  0  0  0  0  0  0  0  0  0
  1  2  1  0
  1  4  1  0
  3  4  1  0
  4  5  1  0
  5  6  1  0
  7  8  1  0
  8  9  1  0
  9 10  1  0
  6 11  1  0
  7 11  1  0
  3 12  1  0
 10 12  1  0
 11 12  1  0
  1 13  1  0
 13 14  1  0
 14 15  1  0
 15 16  1  0
 14 17  1  0
 17 18  1  0
 18 19  1  0
 18 20  1  0
 21 22  1  0
 21 23  1  0
 15 24  1  0
 23 24  1  0
 23 25  1  0
 25 26  1  0
 26 27  1  0
 26 28  1  0
 27 29  1  0
 28 30  1  0
 29 31  1  0
 30 31  1  0
 21 33  1  0
 32 33  1  0
 32 34  1  0
 34 35  1  0
 35 36  1  0
 34 37  1  0
 37 38  1  0
 38 39  1  0
 39 40  1  0
 40 41  1  0
 41 42  1  0
 38 43  1  0
 42 43  1  0
 32 44  1  0
 43 44  1  0
 35 45  1  0
 46 45  1  0
 46 47  1  0
 46 48  1  0
 46 49  1  0
  1 50  1  0
  2 51  1  0
  3 52  1  0
  4 53  1  6
  5 54  1  0
  5 55  1  0
  6 56  1  0
  6 57  1  0
  7 58  1  0
  7 59  1  0
  8 60  1  0
  8 61  1  0
  9 62  1  0
  9 63  1  0
 10 64  1  0
 10 65  1  0
 11 66  1  0
 12 67  1  0
 13 68  1  0
 14 69  1  1
 15 70  1  0
 16 71  1  0
 17 72  1  0
 17 73  1  0
 18 74  1  1
 19 75  1  0
 20 76  1  0
 20 77  1  0
 21 78  1  1
 22 79  1  0
 23 80  1  1
 24 81  1  0
 25 82  1  0
 25 83  1  0
 26 84  1  0
 27 85  1  0
 27 86  1  0
 28 87  1  0
 28 88  1  0
 29 89  1  0
 29 90  1  0
 30 91  1  0
 30 92  1  0
 31 93  1  0
 31 94  1  0
 33 95  1  0
 33 96  1  0
 34 97  1  6
 35 98  1  0
 36 99  1  0
 37100  1  0
 37101  1  0
 38102  1  6
 39103  1  0
 39104  1  0
 40105  1  0
 40106  1  0
 41107  1  0
 41108  1  0
 42109  1  0
 42110  1  0
 43111  1  6
 44112  1  0
 44113  1  0
 45114  1  0
 47115  1  0
 47116  1  0
 47117  1  0
 48118  1  0
 48119  1  0
 48120  1  0
 49121  1  0
 49122  1  0
 49123  1  0
M  END
>  <PDBID>  (1) 
1HXB

>  <PDB ID>  (1) 
1HXB

>  <Generic Name>  (1) 
Saquinavir

>  <Brand Name>  (1) 
Fortovase Roche#Invirase#Invirase - Cap 200mg#Fortovase#ROC

>  <DrugBank ID>  (1) 
DB01232

>  <ATC Codes>  (1) 
J05AE01

>  <Ligand ID>  (1) 
ROC

>  <Target Name>  (1) 
Pol polyprotein

>  <UniProt ID>  (1) 
Q72874

>  <PDB ID.1>  (1) 
1HXB

>  <Seq. Identity>  (1) 
100%

$$$$
