PDB_DB00806_08
     RDKit          3D

 96 98  0  0  0  0  0  0  0  0999 V2000
    5.5530   -0.9038    0.7102 C   0  0  0  0  0  0  0  0  0  0  0  0
    5.1536    0.5475    0.5770 C   0  0  0  0  0  0  0  0  0  0  0  0
    6.2719    1.2733    0.1632 O   0  0  0  0  0  0  0  0  0  0  0  0
    4.0441    0.7145   -0.4373 C   0  0  0  0  0  0  0  0  0  0  0  0
    2.8124   -0.0598   -0.0592 C   0  0  0  0  0  0  0  0  0  0  0  0
    1.7778    0.1949   -1.1611 C   0  0  0  0  0  0  0  0  0  0  0  0
    0.5139   -0.5333   -0.9194 C   0  0  0  0  0  0  0  0  0  0  0  0
   -0.2157   -0.2231    0.2767 N   0  0  0  0  0  0  0  0  0  0  0  0
   -1.2995   -1.1799    0.3624 C   0  0  0  0  0  0  0  0  0  0  0  0
   -1.8192   -1.2632    1.6540 O   0  0  0  0  0  0  0  0  0  0  0  0
   -2.4381   -0.8148   -0.5555 C   0  0  0  0  0  0  0  0  0  0  0  0
   -3.5133   -1.7516   -0.3318 N   0  0  0  0  0  0  0  0  0  0  0  0
   -4.1609   -2.0023   -1.5831 C   0  0  0  0  0  0  0  0  0  0  0  0
   -4.3776   -1.1513    0.6668 C   0  0  0  0  0  0  0  0  0  0  0  0
   -3.6700    0.0148    1.1958 N   0  0  0  0  0  0  0  0  0  0  0  0
   -2.9791    0.4867    0.0037 C   0  0  0  0  0  0  0  0  0  0  0  0
   -1.9912    1.4639    0.2347 N   0  0  0  0  0  0  0  0  0  0  0  0
   -2.2388    2.5862   -0.6763 C   0  0  0  0  0  0  0  0  0  0  0  0
   -0.6457    1.1351    0.3796 C   0  0  0  0  0  0  0  0  0  0  0  0
   -0.2484    1.5762    1.6692 O   0  0  0  0  0  0  0  0  0  0  0  0
    5.5530   -0.9038    0.7102 C   0  0  0  0  0  0  0  0  0  0  0  0
    5.1536    0.5475    0.5770 C   0  0  0  0  0  0  0  0  0  0  0  0
    6.2719    1.2733    0.1632 O   0  0  0  0  0  0  0  0  0  0  0  0
    4.0441    0.7145   -0.4373 C   0  0  0  0  0  0  0  0  0  0  0  0
    2.8124   -0.0598   -0.0592 C   0  0  0  0  0  0  0  0  0  0  0  0
    1.7778    0.1949   -1.1611 C   0  0  0  0  0  0  0  0  0  0  0  0
    0.5139   -0.5333   -0.9194 C   0  0  0  0  0  0  0  0  0  0  0  0
   -0.2157   -0.2231    0.2767 N   0  0  0  0  0  0  0  0  0  0  0  0
   -1.2995   -1.1799    0.3624 C   0  0  0  0  0  0  0  0  0  0  0  0
   -1.8192   -1.2632    1.6540 O   0  0  0  0  0  0  0  0  0  0  0  0
   -2.4381   -0.8148   -0.5555 C   0  0  0  0  0  0  0  0  0  0  0  0
   -3.5133   -1.7516   -0.3318 N   0  0  0  0  0  0  0  0  0  0  0  0
   -4.1609   -2.0023   -1.5831 C   0  0  0  0  0  0  0  0  0  0  0  0
   -4.3776   -1.1513    0.6668 C   0  0  0  0  0  0  0  0  0  0  0  0
   -3.6700    0.0148    1.1958 N   0  0  0  0  0  0  0  0  0  0  0  0
   -2.9791    0.4867    0.0037 C   0  0  0  0  0  0  0  0  0  0  0  0
   -1.9912    1.4639    0.2347 N   0  0  0  0  0  0  0  0  0  0  0  0
   -2.2388    2.5862   -0.6763 C   0  0  0  0  0  0  0  0  0  0  0  0
   -0.6457    1.1351    0.3796 C   0  0  0  0  0  0  0  0  0  0  0  0
   -0.2484    1.5762    1.6692 O   0  0  0  0  0  0  0  0  0  0  0  0
    5.5895   -1.4322   -0.2809 H   0  0  0  0  0  0  0  0  0  0  0  0
    4.9757   -1.4511    1.4681 H   0  0  0  0  0  0  0  0  0  0  0  0
    6.6267   -0.9209    1.0605 H   0  0  0  0  0  0  0  0  0  0  0  0
    4.8182    0.8963    1.5666 H   0  0  0  0  0  0  0  0  0  0  0  0
    6.1836    1.5685   -0.7849 H   0  0  0  0  0  0  0  0  0  0  0  0
    4.4407    0.3214   -1.4182 H   0  0  0  0  0  0  0  0  0  0  0  0
    3.8047    1.7756   -0.6115 H   0  0  0  0  0  0  0  0  0  0  0  0
    2.3779    0.4324    0.8637 H   0  0  0  0  0  0  0  0  0  0  0  0
    2.9934   -1.1318    0.0641 H   0  0  0  0  0  0  0  0  0  0  0  0
    1.7082    1.2881   -1.2551 H   0  0  0  0  0  0  0  0  0  0  0  0
    2.2317   -0.2078   -2.0883 H   0  0  0  0  0  0  0  0  0  0  0  0
   -0.1856   -0.4495   -1.7849 H   0  0  0  0  0  0  0  0  0  0  0  0
    0.7597   -1.6274   -0.8602 H   0  0  0  0  0  0  0  0  0  0  0  0
   -0.9559   -2.1881    0.0811 H   0  0  0  0  0  0  0  0  0  0  0  0
   -1.0721   -1.5844    2.2403 H   0  0  0  0  0  0  0  0  0  0  0  0
   -2.1725   -0.7311   -1.6138 H   0  0  0  0  0  0  0  0  0  0  0  0
   -5.2165   -1.6657   -1.6169 H   0  0  0  0  0  0  0  0  0  0  0  0
   -4.0393   -3.0902   -1.8087 H   0  0  0  0  0  0  0  0  0  0  0  0
   -3.6377   -1.4884   -2.4377 H   0  0  0  0  0  0  0  0  0  0  0  0
   -5.3243   -0.7843    0.2025 H   0  0  0  0  0  0  0  0  0  0  0  0
   -4.5712   -1.8825    1.5047 H   0  0  0  0  0  0  0  0  0  0  0  0
   -4.3682    0.7352    1.4770 H   0  0  0  0  0  0  0  0  0  0  0  0
   -3.7767    0.8362   -0.6899 H   0  0  0  0  0  0  0  0  0  0  0  0
   -2.3099    2.1563   -1.7135 H   0  0  0  0  0  0  0  0  0  0  0  0
   -1.4049    3.3061   -0.7047 H   0  0  0  0  0  0  0  0  0  0  0  0
   -3.2237    3.0444   -0.4562 H   0  0  0  0  0  0  0  0  0  0  0  0
   -0.0463    1.7274   -0.3463 H   0  0  0  0  0  0  0  0  0  0  0  0
   -0.7345    2.4371    1.8816 H   0  0  0  0  0  0  0  0  0  0  0  0
    5.5895   -1.4322   -0.2809 H   0  0  0  0  0  0  0  0  0  0  0  0
    4.9757   -1.4511    1.4681 H   0  0  0  0  0  0  0  0  0  0  0  0
    6.6267   -0.9209    1.0605 H   0  0  0  0  0  0  0  0  0  0  0  0
    4.8182    0.8963    1.5666 H   0  0  0  0  0  0  0  0  0  0  0  0
    6.1836    1.5685   -0.7849 H   0  0  0  0  0  0  0  0  0  0  0  0
    4.4407    0.3214   -1.4182 H   0  0  0  0  0  0  0  0  0  0  0  0
    3.8047    1.7756   -0.6115 H   0  0  0  0  0  0  0  0  0  0  0  0
    2.3779    0.4324    0.8637 H   0  0  0  0  0  0  0  0  0  0  0  0
    2.9934   -1.1318    0.0641 H   0  0  0  0  0  0  0  0  0  0  0  0
    1.7082    1.2881   -1.2551 H   0  0  0  0  0  0  0  0  0  0  0  0
    2.2317   -0.2078   -2.0883 H   0  0  0  0  0  0  0  0  0  0  0  0
   -0.1856   -0.4495   -1.7849 H   0  0  0  0  0  0  0  0  0  0  0  0
    0.7597   -1.6274   -0.8602 H   0  0  0  0  0  0  0  0  0  0  0  0
   -0.9559   -2.1881    0.0811 H   0  0  0  0  0  0  0  0  0  0  0  0
   -1.0721   -1.5844    2.2403 H   0  0  0  0  0  0  0  0  0  0  0  0
   -2.1725   -0.7311   -1.6138 H   0  0  0  0  0  0  0  0  0  0  0  0
   -5.2165   -1.6657   -1.6169 H   0  0  0  0  0  0  0  0  0  0  0  0
   -4.0393   -3.0902   -1.8087 H   0  0  0  0  0  0  0  0  0  0  0  0
   -3.6377   -1.4884   -2.4377 H   0  0  0  0  0  0  0  0  0  0  0  0
   -5.3243   -0.7843    0.2025 H   0  0  0  0  0  0  0  0  0  0  0  0
   -4.5712   -1.8825    1.5047 H   0  0  0  0  0  0  0  0  0  0  0  0
   -4.3682    0.7352    1.4770 H   0  0  0  0  0  0  0  0  0  0  0  0
   -3.7767    0.8362   -0.6899 H   0  0  0  0  0  0  0  0  0  0  0  0
   -2.3099    2.1563   -1.7135 H   0  0  0  0  0  0  0  0  0  0  0  0
   -1.4049    3.3061   -0.7047 H   0  0  0  0  0  0  0  0  0  0  0  0
   -3.2237    3.0444   -0.4562 H   0  0  0  0  0  0  0  0  0  0  0  0
   -0.0463    1.7274   -0.3463 H   0  0  0  0  0  0  0  0  0  0  0  0
   -0.7345    2.4371    1.8816 H   0  0  0  0  0  0  0  0  0  0  0  0
  1  2  1  0
  2  3  1  0
  2  4  1  0
  4  5  1  0
  5  6  1  0
  6  7  1  0
  7  8  1  0
  8  9  1  0
  9 10  1  0
  9 11  1  0
 11 12  1  0
 12 13  1  0
 12 14  1  0
 14 15  1  0
 11 16  1  0
 15 16  1  0
 16 17  1  0
 17 18  1  0
  8 19  1  0
 17 19  1  0
 19 20  1  0
 21 22  1  0
 22 23  1  0
 22 24  1  0
 24 25  1  0
 25 26  1  0
 26 27  1  0
 27 28  1  0
 28 29  1  0
 29 30  1  0
 29 31  1  0
 31 32  1  0
 32 33  1  0
 32 34  1  0
 34 35  1  0
 31 36  1  0
 35 36  1  0
 36 37  1  0
 37 38  1  0
 28 39  1  0
 37 39  1  0
 39 40  1  0
  1 41  1  0
  1 42  1  0
  1 43  1  0
  2 44  1  0
  3 45  1  0
  4 46  1  0
  4 47  1  0
  5 48  1  0
  5 49  1  0
  6 50  1  0
  6 51  1  0
  7 52  1  0
  7 53  1  0
  9 54  1  0
 10 55  1  0
 11 56  1  0
 13 57  1  0
 13 58  1  0
 13 59  1  0
 14 60  1  0
 14 61  1  0
 15 62  1  0
 16 63  1  0
 18 64  1  0
 18 65  1  0
 18 66  1  0
 19 67  1  0
 20 68  1  0
 21 69  1  0
 21 70  1  0
 21 71  1  0
 22 72  1  0
 23 73  1  0
 24 74  1  0
 24 75  1  0
 25 76  1  0
 25 77  1  0
 26 78  1  0
 26 79  1  0
 27 80  1  0
 27 81  1  0
 29 82  1  0
 30 83  1  0
 31 84  1  0
 33 85  1  0
 33 86  1  0
 33 87  1  0
 34 88  1  0
 34 89  1  0
 35 90  1  0
 36 91  1  0
 38 92  1  0
 38 93  1  0
 38 94  1  0
 39 95  1  0
 40 96  1  0
M  END
>  <PDBID>  (1) 
3TVX

>  <PDB ID>  (1) 
3TVX

>  <Generic Name>  (1) 
Pentoxifylline

>  <Brand Name>  (1) 
Gapeam Budibac#Nu-pentoxifylline-SR 400 mg#Pentoxifylline#Pentoxifylline SR#Ratio-pentoxifylline#Trental#Trental Srt 400mg#Trental Tab 400mg#Agapurin#Agapurin SR#An Ruo Ning#Angiopent#Ao Le Ni#Ao Nuo Hong#Aotong#Azupentat#Behrifil#Bo Shu Te#Claudicat#Durapental#Elorgan#Endopentoksas#Pentilin#Pentilin Retard#Pentoflux#Pentofyllin#Pentoksifilin#Pentolab#Pentomer#Pentoxil#Rentylin#Torental#Trentilin Retard

>  <DrugBank ID>  (1) 
DB00806

>  <ATC Codes>  (1) 
C04AD03

>  <Ligand ID>  (1) 
PNX

>  <Target Name>  (1) 
cAMP-specific 3',5'-cyclic phosphodiesterase 4B

>  <UniProt ID>  (1) 
Q07343

>  <PDB ID.1>  (1) 
3TVX

>  <Seq. Identity>  (1) 
84%

$$$$
