PDB_DB00642_07
     RDKit          3D

288296  0  0  0  0  0  0  0  0999 V2000
   -0.6038   -0.4804   -0.1756 C   0  0  0  0  0  0  0  0  0  0  0  0
   -0.0143   -0.1605   -1.5050 C   0  0  0  0  0  0  0  0  0  0  0  0
    1.3741    0.4388   -1.4492 C   0  0  0  0  0  0  0  0  0  0  0  0
    2.3233   -0.2870   -0.5514 C   0  0  0  0  0  0  0  0  0  0  0  0
    1.6351   -0.9187    0.6380 C   0  0  0  0  0  0  0  0  0  0  0  0
    0.3634   -0.1217    0.9292 C   0  0  0  0  0  0  0  0  0  0  0  0
   -1.9707    0.1005    0.0206 C   0  0  0  0  0  0  0  0  0  0  0  0
   -2.8814   -0.4551   -1.0254 C   0  0  0  0  0  0  0  0  0  0  0  0
   -4.2974    0.0438   -0.9507 C   0  0  0  0  0  0  0  0  0  0  0  0
   -4.4259    1.5327   -1.1030 C   0  0  0  0  0  0  0  0  0  0  0  0
   -5.6653    1.8563   -0.3809 N   0  0  0  0  0  0  0  0  0  0  0  0
   -5.7093    0.9365    0.7363 C   0  0  0  0  0  0  0  0  0  0  0  0
   -4.9947   -0.3203    0.3329 C   0  0  0  0  0  0  0  0  0  0  0  0
   -6.0193   -1.4023    0.0157 C   0  0  0  0  0  0  0  0  0  0  0  0
   -6.5648   -1.9551    1.1506 O   0  0  0  0  0  0  0  0  0  0  0  0
   -7.0020   -0.8445   -0.8780 N   0  0  0  0  0  0  0  0  0  0  0  0
   -7.6800    0.3085   -0.3466 C   0  0  0  0  0  0  0  0  0  0  0  0
   -7.1292    0.6421    0.9628 N   0  0  0  0  0  0  0  0  0  0  0  0
   -9.1167    0.1242   -0.2343 N   0  0  0  0  0  0  0  0  0  0  0  0
    3.2675    0.7867    0.0208 C   0  0  0  0  0  0  0  0  0  0  0  0
    3.9667    1.4527   -0.9511 O   0  0  0  0  0  0  0  0  0  0  0  0
    4.0563    0.3254    1.0995 N   0  0  0  0  0  0  0  0  0  0  0  0
    4.9580   -0.7348    0.8630 C   0  0  1  0  0  0  0  0  0  0  0  0
    6.0242   -0.3536   -0.1192 C   0  0  0  0  0  0  0  0  0  0  0  0
    6.7925    0.8263    0.4404 C   0  0  0  0  0  0  0  0  0  0  0  0
    7.8601    1.2189   -0.5576 C   0  0  0  0  0  0  0  0  0  0  0  0
    7.1849    1.5588   -1.7435 O   0  0  0  0  0  0  0  0  0  0  0  0
    8.7102    0.1462   -0.7823 O   0  0  0  0  0  0  0  0  0  0  0  0
    5.5741   -1.1221    2.2158 C   0  0  0  0  0  0  0  0  0  0  0  0
    6.4820   -2.1568    2.0810 O   0  0  0  0  0  0  0  0  0  0  0  0
    4.5005   -1.6249    2.9867 O   0  0  0  0  0  0  0  0  0  0  0  0
   -0.6038   -0.4804   -0.1756 C   0  0  0  0  0  0  0  0  0  0  0  0
   -0.0143   -0.1605   -1.5050 C   0  0  0  0  0  0  0  0  0  0  0  0
    1.3741    0.4388   -1.4492 C   0  0  0  0  0  0  0  0  0  0  0  0
    2.3233   -0.2870   -0.5514 C   0  0  0  0  0  0  0  0  0  0  0  0
    1.6351   -0.9187    0.6380 C   0  0  0  0  0  0  0  0  0  0  0  0
    0.3634   -0.1217    0.9292 C   0  0  0  0  0  0  0  0  0  0  0  0
   -1.9707    0.1005    0.0206 C   0  0  0  0  0  0  0  0  0  0  0  0
   -2.8814   -0.4551   -1.0254 C   0  0  0  0  0  0  0  0  0  0  0  0
   -4.2974    0.0438   -0.9507 C   0  0  0  0  0  0  0  0  0  0  0  0
   -4.4259    1.5327   -1.1030 C   0  0  0  0  0  0  0  0  0  0  0  0
   -5.6653    1.8563   -0.3809 N   0  0  0  0  0  0  0  0  0  0  0  0
   -5.7093    0.9365    0.7363 C   0  0  0  0  0  0  0  0  0  0  0  0
   -4.9947   -0.3203    0.3329 C   0  0  0  0  0  0  0  0  0  0  0  0
   -6.0193   -1.4023    0.0157 C   0  0  0  0  0  0  0  0  0  0  0  0
   -6.5648   -1.9551    1.1506 O   0  0  0  0  0  0  0  0  0  0  0  0
   -7.0020   -0.8445   -0.8780 N   0  0  0  0  0  0  0  0  0  0  0  0
   -7.6800    0.3085   -0.3466 C   0  0  0  0  0  0  0  0  0  0  0  0
   -7.1292    0.6421    0.9628 N   0  0  0  0  0  0  0  0  0  0  0  0
   -9.1167    0.1242   -0.2343 N   0  0  0  0  0  0  0  0  0  0  0  0
    3.2675    0.7867    0.0208 C   0  0  0  0  0  0  0  0  0  0  0  0
    3.9667    1.4527   -0.9511 O   0  0  0  0  0  0  0  0  0  0  0  0
    4.0563    0.3254    1.0995 N   0  0  0  0  0  0  0  0  0  0  0  0
    4.9580   -0.7348    0.8630 C   0  0  1  0  0  0  0  0  0  0  0  0
    6.0242   -0.3536   -0.1192 C   0  0  0  0  0  0  0  0  0  0  0  0
    6.7925    0.8263    0.4404 C   0  0  0  0  0  0  0  0  0  0  0  0
    7.8601    1.2189   -0.5576 C   0  0  0  0  0  0  0  0  0  0  0  0
    7.1849    1.5588   -1.7435 O   0  0  0  0  0  0  0  0  0  0  0  0
    8.7102    0.1462   -0.7823 O   0  0  0  0  0  0  0  0  0  0  0  0
    5.5741   -1.1221    2.2158 C   0  0  0  0  0  0  0  0  0  0  0  0
    6.4820   -2.1568    2.0810 O   0  0  0  0  0  0  0  0  0  0  0  0
    4.5005   -1.6249    2.9867 O   0  0  0  0  0  0  0  0  0  0  0  0
   -0.6038   -0.4804   -0.1756 C   0  0  0  0  0  0  0  0  0  0  0  0
   -0.0143   -0.1605   -1.5050 C   0  0  0  0  0  0  0  0  0  0  0  0
    1.3741    0.4388   -1.4492 C   0  0  0  0  0  0  0  0  0  0  0  0
    2.3233   -0.2870   -0.5514 C   0  0  0  0  0  0  0  0  0  0  0  0
    1.6351   -0.9187    0.6380 C   0  0  0  0  0  0  0  0  0  0  0  0
    0.3634   -0.1217    0.9292 C   0  0  0  0  0  0  0  0  0  0  0  0
   -1.9707    0.1005    0.0206 C   0  0  0  0  0  0  0  0  0  0  0  0
   -2.8814   -0.4551   -1.0254 C   0  0  0  0  0  0  0  0  0  0  0  0
   -4.2974    0.0438   -0.9507 C   0  0  0  0  0  0  0  0  0  0  0  0
   -4.4259    1.5327   -1.1030 C   0  0  0  0  0  0  0  0  0  0  0  0
   -5.6653    1.8563   -0.3809 N   0  0  0  0  0  0  0  0  0  0  0  0
   -5.7093    0.9365    0.7363 C   0  0  0  0  0  0  0  0  0  0  0  0
   -4.9947   -0.3203    0.3329 C   0  0  0  0  0  0  0  0  0  0  0  0
   -6.0193   -1.4023    0.0157 C   0  0  0  0  0  0  0  0  0  0  0  0
   -6.5648   -1.9551    1.1506 O   0  0  0  0  0  0  0  0  0  0  0  0
   -7.0020   -0.8445   -0.8780 N   0  0  0  0  0  0  0  0  0  0  0  0
   -7.6800    0.3085   -0.3466 C   0  0  0  0  0  0  0  0  0  0  0  0
   -7.1292    0.6421    0.9628 N   0  0  0  0  0  0  0  0  0  0  0  0
   -9.1167    0.1242   -0.2343 N   0  0  0  0  0  0  0  0  0  0  0  0
    3.2675    0.7867    0.0208 C   0  0  0  0  0  0  0  0  0  0  0  0
    3.9667    1.4527   -0.9511 O   0  0  0  0  0  0  0  0  0  0  0  0
    4.0563    0.3254    1.0995 N   0  0  0  0  0  0  0  0  0  0  0  0
    4.9580   -0.7348    0.8630 C   0  0  1  0  0  0  0  0  0  0  0  0
    6.0242   -0.3536   -0.1192 C   0  0  0  0  0  0  0  0  0  0  0  0
    6.7925    0.8263    0.4404 C   0  0  0  0  0  0  0  0  0  0  0  0
    7.8601    1.2189   -0.5576 C   0  0  0  0  0  0  0  0  0  0  0  0
    7.1849    1.5588   -1.7435 O   0  0  0  0  0  0  0  0  0  0  0  0
    8.7102    0.1462   -0.7823 O   0  0  0  0  0  0  0  0  0  0  0  0
    5.5741   -1.1221    2.2158 C   0  0  0  0  0  0  0  0  0  0  0  0
    6.4820   -2.1568    2.0810 O   0  0  0  0  0  0  0  0  0  0  0  0
    4.5005   -1.6249    2.9867 O   0  0  0  0  0  0  0  0  0  0  0  0
   -0.6038   -0.4804   -0.1756 C   0  0  0  0  0  0  0  0  0  0  0  0
   -0.0143   -0.1605   -1.5050 C   0  0  0  0  0  0  0  0  0  0  0  0
    1.3741    0.4388   -1.4492 C   0  0  0  0  0  0  0  0  0  0  0  0
    2.3233   -0.2870   -0.5514 C   0  0  0  0  0  0  0  0  0  0  0  0
    1.6351   -0.9187    0.6380 C   0  0  0  0  0  0  0  0  0  0  0  0
    0.3634   -0.1217    0.9292 C   0  0  0  0  0  0  0  0  0  0  0  0
   -1.9707    0.1005    0.0206 C   0  0  0  0  0  0  0  0  0  0  0  0
   -2.8814   -0.4551   -1.0254 C   0  0  0  0  0  0  0  0  0  0  0  0
   -4.2974    0.0438   -0.9507 C   0  0  0  0  0  0  0  0  0  0  0  0
   -4.4259    1.5327   -1.1030 C   0  0  0  0  0  0  0  0  0  0  0  0
   -5.6653    1.8563   -0.3809 N   0  0  0  0  0  0  0  0  0  0  0  0
   -5.7093    0.9365    0.7363 C   0  0  0  0  0  0  0  0  0  0  0  0
   -4.9947   -0.3203    0.3329 C   0  0  0  0  0  0  0  0  0  0  0  0
   -6.0193   -1.4023    0.0157 C   0  0  0  0  0  0  0  0  0  0  0  0
   -6.5648   -1.9551    1.1506 O   0  0  0  0  0  0  0  0  0  0  0  0
   -7.0020   -0.8445   -0.8780 N   0  0  0  0  0  0  0  0  0  0  0  0
   -7.6800    0.3085   -0.3466 C   0  0  0  0  0  0  0  0  0  0  0  0
   -7.1292    0.6421    0.9628 N   0  0  0  0  0  0  0  0  0  0  0  0
   -9.1167    0.1242   -0.2343 N   0  0  0  0  0  0  0  0  0  0  0  0
    3.2675    0.7867    0.0208 C   0  0  0  0  0  0  0  0  0  0  0  0
    3.9667    1.4527   -0.9511 O   0  0  0  0  0  0  0  0  0  0  0  0
    4.0563    0.3254    1.0995 N   0  0  0  0  0  0  0  0  0  0  0  0
    4.9580   -0.7348    0.8630 C   0  0  1  0  0  0  0  0  0  0  0  0
    6.0242   -0.3536   -0.1192 C   0  0  0  0  0  0  0  0  0  0  0  0
    6.7925    0.8263    0.4404 C   0  0  0  0  0  0  0  0  0  0  0  0
    7.8601    1.2189   -0.5576 C   0  0  0  0  0  0  0  0  0  0  0  0
    7.1849    1.5588   -1.7435 O   0  0  0  0  0  0  0  0  0  0  0  0
    8.7102    0.1462   -0.7823 O   0  0  0  0  0  0  0  0  0  0  0  0
    5.5741   -1.1221    2.2158 C   0  0  0  0  0  0  0  0  0  0  0  0
    6.4820   -2.1568    2.0810 O   0  0  0  0  0  0  0  0  0  0  0  0
    4.5005   -1.6249    2.9867 O   0  0  0  0  0  0  0  0  0  0  0  0
   -0.7340   -1.5985   -0.0942 H   0  0  0  0  0  0  0  0  0  0  0  0
   -0.6511    0.6478   -1.9759 H   0  0  0  0  0  0  0  0  0  0  0  0
   -0.0238   -1.0465   -2.1540 H   0  0  0  0  0  0  0  0  0  0  0  0
    1.3338    1.5332   -1.2137 H   0  0  0  0  0  0  0  0  0  0  0  0
    1.7791    0.3872   -2.4962 H   0  0  0  0  0  0  0  0  0  0  0  0
    2.8773   -1.0330   -1.1409 H   0  0  0  0  0  0  0  0  0  0  0  0
    1.2774   -1.9221    0.2987 H   0  0  0  0  0  0  0  0  0  0  0  0
    2.2622   -1.0598    1.5123 H   0  0  0  0  0  0  0  0  0  0  0  0
    0.0063   -0.4750    1.9116 H   0  0  0  0  0  0  0  0  0  0  0  0
    0.6370    0.9501    0.9399 H   0  0  0  0  0  0  0  0  0  0  0  0
   -1.9700    1.2062    0.0588 H   0  0  0  0  0  0  0  0  0  0  0  0
   -2.3060   -0.2261    1.0482 H   0  0  0  0  0  0  0  0  0  0  0  0
   -2.4878   -0.1764   -2.0226 H   0  0  0  0  0  0  0  0  0  0  0  0
   -2.8884   -1.5613   -0.9367 H   0  0  0  0  0  0  0  0  0  0  0  0
   -4.8273   -0.4082   -1.8401 H   0  0  0  0  0  0  0  0  0  0  0  0
   -4.6185    1.8352   -2.1700 H   0  0  0  0  0  0  0  0  0  0  0  0
   -3.5840    2.1222   -0.7482 H   0  0  0  0  0  0  0  0  0  0  0  0
   -5.6181    2.8438   -0.0238 H   0  0  0  0  0  0  0  0  0  0  0  0
   -5.2635    1.4267    1.6302 H   0  0  0  0  0  0  0  0  0  0  0  0
   -4.3009   -0.6524    1.1263 H   0  0  0  0  0  0  0  0  0  0  0  0
   -5.4658   -2.1789   -0.5698 H   0  0  0  0  0  0  0  0  0  0  0  0
   -5.8203   -2.2465    1.7341 H   0  0  0  0  0  0  0  0  0  0  0  0
   -7.6329   -1.5558   -1.2928 H   0  0  0  0  0  0  0  0  0  0  0  0
   -7.4934    1.1503   -1.0355 H   0  0  0  0  0  0  0  0  0  0  0  0
   -7.6338    1.4895    1.2819 H   0  0  0  0  0  0  0  0  0  0  0  0
   -9.2446   -0.7613    0.3267 H   0  0  0  0  0  0  0  0  0  0  0  0
   -9.4999    0.0307   -1.1904 H   0  0  0  0  0  0  0  0  0  0  0  0
    2.5276    1.5343    0.4705 H   0  0  0  0  0  0  0  0  0  0  0  0
    3.4784    1.6019   -1.7795 H   0  0  0  0  0  0  0  0  0  0  0  0
    3.6063    0.3820    2.0195 H   0  0  0  0  0  0  0  0  0  0  0  0
    4.4678   -1.6544    0.4605 H   0  0  0  0  0  0  0  0  0  0  0  0
    5.5857   -0.1102   -1.0937 H   0  0  0  0  0  0  0  0  0  0  0  0
    6.7150   -1.2356   -0.2530 H   0  0  0  0  0  0  0  0  0  0  0  0
    6.1158    1.6457    0.7103 H   0  0  0  0  0  0  0  0  0  0  0  0
    7.2710    0.5008    1.4111 H   0  0  0  0  0  0  0  0  0  0  0  0
    8.3950    2.0873   -0.1444 H   0  0  0  0  0  0  0  0  0  0  0  0
    7.2576    2.5449   -1.8717 H   0  0  0  0  0  0  0  0  0  0  0  0
    9.1465   -0.0680    0.0872 H   0  0  0  0  0  0  0  0  0  0  0  0
    5.9412   -0.2434    2.7474 H   0  0  0  0  0  0  0  0  0  0  0  0
    6.2676   -2.6236    1.2146 H   0  0  0  0  0  0  0  0  0  0  0  0
    4.1182   -2.4433    2.5764 H   0  0  0  0  0  0  0  0  0  0  0  0
   -0.7340   -1.5985   -0.0942 H   0  0  0  0  0  0  0  0  0  0  0  0
   -0.6511    0.6478   -1.9759 H   0  0  0  0  0  0  0  0  0  0  0  0
   -0.0238   -1.0465   -2.1540 H   0  0  0  0  0  0  0  0  0  0  0  0
    1.3338    1.5332   -1.2137 H   0  0  0  0  0  0  0  0  0  0  0  0
    1.7791    0.3872   -2.4962 H   0  0  0  0  0  0  0  0  0  0  0  0
    2.8773   -1.0330   -1.1409 H   0  0  0  0  0  0  0  0  0  0  0  0
    1.2774   -1.9221    0.2987 H   0  0  0  0  0  0  0  0  0  0  0  0
    2.2622   -1.0598    1.5123 H   0  0  0  0  0  0  0  0  0  0  0  0
    0.0063   -0.4750    1.9116 H   0  0  0  0  0  0  0  0  0  0  0  0
    0.6370    0.9501    0.9399 H   0  0  0  0  0  0  0  0  0  0  0  0
   -1.9700    1.2062    0.0588 H   0  0  0  0  0  0  0  0  0  0  0  0
   -2.3060   -0.2261    1.0482 H   0  0  0  0  0  0  0  0  0  0  0  0
   -2.4878   -0.1764   -2.0226 H   0  0  0  0  0  0  0  0  0  0  0  0
   -2.8884   -1.5613   -0.9367 H   0  0  0  0  0  0  0  0  0  0  0  0
   -4.8273   -0.4082   -1.8401 H   0  0  0  0  0  0  0  0  0  0  0  0
   -4.6185    1.8352   -2.1700 H   0  0  0  0  0  0  0  0  0  0  0  0
   -3.5840    2.1222   -0.7482 H   0  0  0  0  0  0  0  0  0  0  0  0
   -5.6181    2.8438   -0.0238 H   0  0  0  0  0  0  0  0  0  0  0  0
   -5.2635    1.4267    1.6302 H   0  0  0  0  0  0  0  0  0  0  0  0
   -4.3009   -0.6524    1.1263 H   0  0  0  0  0  0  0  0  0  0  0  0
   -5.4658   -2.1789   -0.5698 H   0  0  0  0  0  0  0  0  0  0  0  0
   -5.8203   -2.2465    1.7341 H   0  0  0  0  0  0  0  0  0  0  0  0
   -7.6329   -1.5558   -1.2928 H   0  0  0  0  0  0  0  0  0  0  0  0
   -7.4934    1.1503   -1.0355 H   0  0  0  0  0  0  0  0  0  0  0  0
   -7.6338    1.4895    1.2819 H   0  0  0  0  0  0  0  0  0  0  0  0
   -9.2446   -0.7613    0.3267 H   0  0  0  0  0  0  0  0  0  0  0  0
   -9.4999    0.0307   -1.1904 H   0  0  0  0  0  0  0  0  0  0  0  0
    2.5276    1.5343    0.4705 H   0  0  0  0  0  0  0  0  0  0  0  0
    3.4784    1.6019   -1.7795 H   0  0  0  0  0  0  0  0  0  0  0  0
    3.6063    0.3820    2.0195 H   0  0  0  0  0  0  0  0  0  0  0  0
    4.4678   -1.6544    0.4605 H   0  0  0  0  0  0  0  0  0  0  0  0
    5.5857   -0.1102   -1.0937 H   0  0  0  0  0  0  0  0  0  0  0  0
    6.7150   -1.2356   -0.2530 H   0  0  0  0  0  0  0  0  0  0  0  0
    6.1158    1.6457    0.7103 H   0  0  0  0  0  0  0  0  0  0  0  0
    7.2710    0.5008    1.4111 H   0  0  0  0  0  0  0  0  0  0  0  0
    8.3950    2.0873   -0.1444 H   0  0  0  0  0  0  0  0  0  0  0  0
    7.2576    2.5449   -1.8717 H   0  0  0  0  0  0  0  0  0  0  0  0
    9.1465   -0.0680    0.0872 H   0  0  0  0  0  0  0  0  0  0  0  0
    5.9412   -0.2434    2.7474 H   0  0  0  0  0  0  0  0  0  0  0  0
    6.2676   -2.6236    1.2146 H   0  0  0  0  0  0  0  0  0  0  0  0
    4.1182   -2.4433    2.5764 H   0  0  0  0  0  0  0  0  0  0  0  0
   -0.7340   -1.5985   -0.0942 H   0  0  0  0  0  0  0  0  0  0  0  0
   -0.6511    0.6478   -1.9759 H   0  0  0  0  0  0  0  0  0  0  0  0
   -0.0238   -1.0465   -2.1540 H   0  0  0  0  0  0  0  0  0  0  0  0
    1.3338    1.5332   -1.2137 H   0  0  0  0  0  0  0  0  0  0  0  0
    1.7791    0.3872   -2.4962 H   0  0  0  0  0  0  0  0  0  0  0  0
    2.8773   -1.0330   -1.1409 H   0  0  0  0  0  0  0  0  0  0  0  0
    1.2774   -1.9221    0.2987 H   0  0  0  0  0  0  0  0  0  0  0  0
    2.2622   -1.0598    1.5123 H   0  0  0  0  0  0  0  0  0  0  0  0
    0.0063   -0.4750    1.9116 H   0  0  0  0  0  0  0  0  0  0  0  0
    0.6370    0.9501    0.9399 H   0  0  0  0  0  0  0  0  0  0  0  0
   -1.9700    1.2062    0.0588 H   0  0  0  0  0  0  0  0  0  0  0  0
   -2.3060   -0.2261    1.0482 H   0  0  0  0  0  0  0  0  0  0  0  0
   -2.4878   -0.1764   -2.0226 H   0  0  0  0  0  0  0  0  0  0  0  0
   -2.8884   -1.5613   -0.9367 H   0  0  0  0  0  0  0  0  0  0  0  0
   -4.8273   -0.4082   -1.8401 H   0  0  0  0  0  0  0  0  0  0  0  0
   -4.6185    1.8352   -2.1700 H   0  0  0  0  0  0  0  0  0  0  0  0
   -3.5840    2.1222   -0.7482 H   0  0  0  0  0  0  0  0  0  0  0  0
   -5.6181    2.8438   -0.0238 H   0  0  0  0  0  0  0  0  0  0  0  0
   -5.2635    1.4267    1.6302 H   0  0  0  0  0  0  0  0  0  0  0  0
   -4.3009   -0.6524    1.1263 H   0  0  0  0  0  0  0  0  0  0  0  0
   -5.4658   -2.1789   -0.5698 H   0  0  0  0  0  0  0  0  0  0  0  0
   -5.8203   -2.2465    1.7341 H   0  0  0  0  0  0  0  0  0  0  0  0
   -7.6329   -1.5558   -1.2928 H   0  0  0  0  0  0  0  0  0  0  0  0
   -7.4934    1.1503   -1.0355 H   0  0  0  0  0  0  0  0  0  0  0  0
   -7.6338    1.4895    1.2819 H   0  0  0  0  0  0  0  0  0  0  0  0
   -9.2446   -0.7613    0.3267 H   0  0  0  0  0  0  0  0  0  0  0  0
   -9.4999    0.0307   -1.1904 H   0  0  0  0  0  0  0  0  0  0  0  0
    2.5276    1.5343    0.4705 H   0  0  0  0  0  0  0  0  0  0  0  0
    3.4784    1.6019   -1.7795 H   0  0  0  0  0  0  0  0  0  0  0  0
    3.6063    0.3820    2.0195 H   0  0  0  0  0  0  0  0  0  0  0  0
    4.4678   -1.6544    0.4605 H   0  0  0  0  0  0  0  0  0  0  0  0
    5.5857   -0.1102   -1.0937 H   0  0  0  0  0  0  0  0  0  0  0  0
    6.7150   -1.2356   -0.2530 H   0  0  0  0  0  0  0  0  0  0  0  0
    6.1158    1.6457    0.7103 H   0  0  0  0  0  0  0  0  0  0  0  0
    7.2710    0.5008    1.4111 H   0  0  0  0  0  0  0  0  0  0  0  0
    8.3950    2.0873   -0.1444 H   0  0  0  0  0  0  0  0  0  0  0  0
    7.2576    2.5449   -1.8717 H   0  0  0  0  0  0  0  0  0  0  0  0
    9.1465   -0.0680    0.0872 H   0  0  0  0  0  0  0  0  0  0  0  0
    5.9412   -0.2434    2.7474 H   0  0  0  0  0  0  0  0  0  0  0  0
    6.2676   -2.6236    1.2146 H   0  0  0  0  0  0  0  0  0  0  0  0
    4.1182   -2.4433    2.5764 H   0  0  0  0  0  0  0  0  0  0  0  0
   -0.7340   -1.5985   -0.0942 H   0  0  0  0  0  0  0  0  0  0  0  0
   -0.6511    0.6478   -1.9759 H   0  0  0  0  0  0  0  0  0  0  0  0
   -0.0238   -1.0465   -2.1540 H   0  0  0  0  0  0  0  0  0  0  0  0
    1.3338    1.5332   -1.2137 H   0  0  0  0  0  0  0  0  0  0  0  0
    1.7791    0.3872   -2.4962 H   0  0  0  0  0  0  0  0  0  0  0  0
    2.8773   -1.0330   -1.1409 H   0  0  0  0  0  0  0  0  0  0  0  0
    1.2774   -1.9221    0.2987 H   0  0  0  0  0  0  0  0  0  0  0  0
    2.2622   -1.0598    1.5123 H   0  0  0  0  0  0  0  0  0  0  0  0
    0.0063   -0.4750    1.9116 H   0  0  0  0  0  0  0  0  0  0  0  0
    0.6370    0.9501    0.9399 H   0  0  0  0  0  0  0  0  0  0  0  0
   -1.9700    1.2062    0.0588 H   0  0  0  0  0  0  0  0  0  0  0  0
   -2.3060   -0.2261    1.0482 H   0  0  0  0  0  0  0  0  0  0  0  0
   -2.4878   -0.1764   -2.0226 H   0  0  0  0  0  0  0  0  0  0  0  0
   -2.8884   -1.5613   -0.9367 H   0  0  0  0  0  0  0  0  0  0  0  0
   -4.8273   -0.4082   -1.8401 H   0  0  0  0  0  0  0  0  0  0  0  0
   -4.6185    1.8352   -2.1700 H   0  0  0  0  0  0  0  0  0  0  0  0
   -3.5840    2.1222   -0.7482 H   0  0  0  0  0  0  0  0  0  0  0  0
   -5.6181    2.8438   -0.0238 H   0  0  0  0  0  0  0  0  0  0  0  0
   -5.2635    1.4267    1.6302 H   0  0  0  0  0  0  0  0  0  0  0  0
   -4.3009   -0.6524    1.1263 H   0  0  0  0  0  0  0  0  0  0  0  0
   -5.4658   -2.1789   -0.5698 H   0  0  0  0  0  0  0  0  0  0  0  0
   -5.8203   -2.2465    1.7341 H   0  0  0  0  0  0  0  0  0  0  0  0
   -7.6329   -1.5558   -1.2928 H   0  0  0  0  0  0  0  0  0  0  0  0
   -7.4934    1.1503   -1.0355 H   0  0  0  0  0  0  0  0  0  0  0  0
   -7.6338    1.4895    1.2819 H   0  0  0  0  0  0  0  0  0  0  0  0
   -9.2446   -0.7613    0.3267 H   0  0  0  0  0  0  0  0  0  0  0  0
   -9.4999    0.0307   -1.1904 H   0  0  0  0  0  0  0  0  0  0  0  0
    2.5276    1.5343    0.4705 H   0  0  0  0  0  0  0  0  0  0  0  0
    3.4784    1.6019   -1.7795 H   0  0  0  0  0  0  0  0  0  0  0  0
    3.6063    0.3820    2.0195 H   0  0  0  0  0  0  0  0  0  0  0  0
    4.4678   -1.6544    0.4605 H   0  0  0  0  0  0  0  0  0  0  0  0
    5.5857   -0.1102   -1.0937 H   0  0  0  0  0  0  0  0  0  0  0  0
    6.7150   -1.2356   -0.2530 H   0  0  0  0  0  0  0  0  0  0  0  0
    6.1158    1.6457    0.7103 H   0  0  0  0  0  0  0  0  0  0  0  0
    7.2710    0.5008    1.4111 H   0  0  0  0  0  0  0  0  0  0  0  0
    8.3950    2.0873   -0.1444 H   0  0  0  0  0  0  0  0  0  0  0  0
    7.2576    2.5449   -1.8717 H   0  0  0  0  0  0  0  0  0  0  0  0
    9.1465   -0.0680    0.0872 H   0  0  0  0  0  0  0  0  0  0  0  0
    5.9412   -0.2434    2.7474 H   0  0  0  0  0  0  0  0  0  0  0  0
    6.2676   -2.6236    1.2146 H   0  0  0  0  0  0  0  0  0  0  0  0
    4.1182   -2.4433    2.5764 H   0  0  0  0  0  0  0  0  0  0  0  0
  1  2  1  0
  2  3  1  0
  3  4  1  0
  4  5  1  0
  1  6  1  0
  5  6  1  0
  1  7  1  0
  7  8  1  0
  8  9  1  0
  9 10  1  0
 10 11  1  0
 11 12  1  0
  9 13  1  0
 12 13  1  0
 13 14  1  0
 14 15  1  0
 14 16  1  0
 16 17  1  0
 12 18  1  0
 17 18  1  0
 17 19  1  0
  4 20  1  0
 20 21  1  0
 20 22  1  0
 22 23  1  0
 23 24  1  0
 24 25  1  0
 25 26  1  0
 26 27  1  0
 26 28  1  0
 23 29  1  0
 29 30  1  0
 29 31  1  0
 32 33  1  0
 33 34  1  0
 34 35  1  0
 35 36  1  0
 32 37  1  0
 36 37  1  0
 32 38  1  0
 38 39  1  0
 39 40  1  0
 40 41  1  0
 41 42  1  0
 42 43  1  0
 40 44  1  0
 43 44  1  0
 44 45  1  0
 45 46  1  0
 45 47  1  0
 47 48  1  0
 43 49  1  0
 48 49  1  0
 48 50  1  0
 35 51  1  0
 51 52  1  0
 51 53  1  0
 53 54  1  0
 54 55  1  0
 55 56  1  0
 56 57  1  0
 57 58  1  0
 57 59  1  0
 54 60  1  0
 60 61  1  0
 60 62  1  0
 63 64  1  0
 64 65  1  0
 65 66  1  0
 66 67  1  0
 63 68  1  0
 67 68  1  0
 63 69  1  0
 69 70  1  0
 70 71  1  0
 71 72  1  0
 72 73  1  0
 73 74  1  0
 71 75  1  0
 74 75  1  0
 75 76  1  0
 76 77  1  0
 76 78  1  0
 78 79  1  0
 74 80  1  0
 79 80  1  0
 79 81  1  0
 66 82  1  0
 82 83  1  0
 82 84  1  0
 84 85  1  0
 85 86  1  0
 86 87  1  0
 87 88  1  0
 88 89  1  0
 88 90  1  0
 85 91  1  0
 91 92  1  0
 91 93  1  0
 94 95  1  0
 95 96  1  0
 96 97  1  0
 97 98  1  0
 94 99  1  0
 98 99  1  0
 94100  1  0
100101  1  0
101102  1  0
102103  1  0
103104  1  0
104105  1  0
102106  1  0
105106  1  0
106107  1  0
107108  1  0
107109  1  0
109110  1  0
105111  1  0
110111  1  0
110112  1  0
 97113  1  0
113114  1  0
113115  1  0
115116  1  0
116117  1  0
117118  1  0
118119  1  0
119120  1  0
119121  1  0
116122  1  0
122123  1  0
122124  1  0
  1125  1  0
  2126  1  0
  2127  1  0
  3128  1  0
  3129  1  0
  4130  1  0
  5131  1  0
  5132  1  0
  6133  1  0
  6134  1  0
  7135  1  0
  7136  1  0
  8137  1  0
  8138  1  0
  9139  1  0
 10140  1  0
 10141  1  0
 11142  1  0
 12143  1  0
 13144  1  0
 14145  1  0
 15146  1  0
 16147  1  0
 17148  1  0
 18149  1  0
 19150  1  0
 19151  1  0
 20152  1  0
 21153  1  0
 22154  1  0
 23155  1  6
 24156  1  0
 24157  1  0
 25158  1  0
 25159  1  0
 26160  1  0
 27161  1  0
 28162  1  0
 29163  1  0
 30164  1  0
 31165  1  0
 32166  1  0
 33167  1  0
 33168  1  0
 34169  1  0
 34170  1  0
 35171  1  0
 36172  1  0
 36173  1  0
 37174  1  0
 37175  1  0
 38176  1  0
 38177  1  0
 39178  1  0
 39179  1  0
 40180  1  0
 41181  1  0
 41182  1  0
 42183  1  0
 43184  1  0
 44185  1  0
 45186  1  0
 46187  1  0
 47188  1  0
 48189  1  0
 49190  1  0
 50191  1  0
 50192  1  0
 51193  1  0
 52194  1  0
 53195  1  0
 54196  1  6
 55197  1  0
 55198  1  0
 56199  1  0
 56200  1  0
 57201  1  0
 58202  1  0
 59203  1  0
 60204  1  0
 61205  1  0
 62206  1  0
 63207  1  0
 64208  1  0
 64209  1  0
 65210  1  0
 65211  1  0
 66212  1  0
 67213  1  0
 67214  1  0
 68215  1  0
 68216  1  0
 69217  1  0
 69218  1  0
 70219  1  0
 70220  1  0
 71221  1  0
 72222  1  0
 72223  1  0
 73224  1  0
 74225  1  0
 75226  1  0
 76227  1  0
 77228  1  0
 78229  1  0
 79230  1  0
 80231  1  0
 81232  1  0
 81233  1  0
 82234  1  0
 83235  1  0
 84236  1  0
 85237  1  6
 86238  1  0
 86239  1  0
 87240  1  0
 87241  1  0
 88242  1  0
 89243  1  0
 90244  1  0
 91245  1  0
 92246  1  0
 93247  1  0
 94248  1  0
 95249  1  0
 95250  1  0
 96251  1  0
 96252  1  0
 97253  1  0
 98254  1  0
 98255  1  0
 99256  1  0
 99257  1  0
100258  1  0
100259  1  0
101260  1  0
101261  1  0
102262  1  0
103263  1  0
103264  1  0
104265  1  0
105266  1  0
106267  1  0
107268  1  0
108269  1  0
109270  1  0
110271  1  0
111272  1  0
112273  1  0
112274  1  0
113275  1  0
114276  1  0
115277  1  0
116278  1  6
117279  1  0
117280  1  0
118281  1  0
118282  1  0
119283  1  0
120284  1  0
121285  1  0
122286  1  0
123287  1  0
124288  1  0
M  END
>  <PDBID>  (1) 
1JU6

>  <PDB ID>  (1) 
1JU6

>  <Generic Name>  (1) 
Pemetrexed

>  <Brand Name>  (1) 
Act Pemetrexed#Alimta#Pemetrexed#Pemetrexed Disodium for Injection#Taro-pemetrexed

>  <DrugBank ID>  (1) 
DB00642

>  <ATC Codes>  (1) 
L01BA04

>  <Ligand ID>  (1) 
LYA

>  <Target Name>  (1) 
Thymidylate synthase

>  <UniProt ID>  (1) 
P04818

>  <PDB ID.1>  (1) 
1JU6

>  <Seq. Identity>  (1) 
100%

$$$$
