PDB_DB00834_02
     RDKit          3D

 83 87  0  0  0  0  0  0  0  0999 V2000
   -2.4137    5.3120   -0.2753 O   0  0  0  0  0  0  0  0  0  0  0  0
   -1.2148    4.7247   -0.7392 C   0  0  0  0  0  0  0  0  0  0  0  0
   -1.4891    3.5755   -1.6295 C   0  0  0  0  0  0  0  0  0  0  0  0
   -0.2343    4.4784    0.3575 C   0  0  0  0  0  0  0  0  0  0  0  0
   -0.3201    3.1448    0.9966 C   0  0  0  0  0  0  0  0  0  0  0  0
   -1.5515    3.0008    1.8091 C   0  0  0  0  0  0  0  0  0  0  0  0
   -0.3775    2.0697   -0.1009 C   0  0  2  0  0  0  0  0  0  0  0  0
   -1.6216    2.2387   -0.8784 C   0  0  0  0  0  0  0  0  0  0  0  0
   -0.1394    0.7778    0.5935 C   0  0  0  0  0  0  0  0  0  0  0  0
    0.2466   -0.3801   -0.2529 C   0  0  1  0  0  0  0  0  0  0  0  0
    1.6871   -0.5893   -0.5173 C   0  0  0  0  0  0  0  0  0  0  0  0
    2.4171    0.4951   -1.2312 C   0  0  0  0  0  0  0  0  0  0  0  0
    3.8194   -0.0188   -1.6299 C   0  0  0  0  0  0  0  0  0  0  0  0
    4.6212   -0.4046   -0.4389 C   0  0  0  0  0  0  0  0  0  0  0  0
    5.9217    0.2132   -0.3909 N   0  0  0  0  0  0  0  0  0  0  0  0
    6.6624   -0.2527   -1.5599 C   0  0  0  0  0  0  0  0  0  0  0  0
    6.6877   -0.1359    0.7740 C   0  0  0  0  0  0  0  0  0  0  0  0
    3.8019   -0.1704    0.7989 C   0  0  0  0  0  0  0  0  0  0  0  0
    2.5248   -0.9722    0.6683 C   0  0  0  0  0  0  0  0  0  0  0  0
   -0.3212   -1.7195    0.1583 C   0  0  0  0  0  0  0  0  0  0  0  0
   -1.6383   -1.7702    0.7689 C   0  0  2  0  0  0  0  0  0  0  0  0
   -1.5647   -2.3916    2.1729 C   0  0  0  0  0  0  0  0  0  0  0  0
   -2.7426   -2.5045    0.0835 C   0  0  1  0  0  0  0  0  0  0  0  0
   -2.8709   -2.3239   -1.3724 C   0  0  0  0  0  0  0  0  0  0  0  0
   -4.0401   -3.1350   -1.9029 C   0  0  0  0  0  0  0  0  0  0  0  0
   -3.9035   -4.6047   -1.6528 C   0  0  0  0  0  0  0  0  0  0  0  0
   -2.5948   -3.8578    0.3703 O   0  0  0  0  0  0  0  0  0  0  0  0
   -3.9519   -1.9921    0.8653 C   0  0  0  0  0  0  0  0  0  0  0  0
   -3.5422   -0.6671    1.4866 C   0  0  0  0  0  0  0  0  0  0  0  0
   -2.2397   -0.3894    0.8253 C   0  0  1  0  0  0  0  0  0  0  0  0
   -1.2815    0.4880    1.5362 C   0  0  2  0  0  0  0  0  0  0  0  0
   -1.9504    1.6169    2.1634 C   0  0  0  0  0  0  0  0  0  0  0  0
   -3.0452    5.2690   -1.0268 H   0  0  0  0  0  0  0  0  0  0  0  0
   -0.7613    5.5365   -1.3868 H   0  0  0  0  0  0  0  0  0  0  0  0
   -0.6185    3.4425   -2.3121 H   0  0  0  0  0  0  0  0  0  0  0  0
   -2.4130    3.7743   -2.1981 H   0  0  0  0  0  0  0  0  0  0  0  0
    0.8244    4.6568    0.0539 H   0  0  0  0  0  0  0  0  0  0  0  0
   -0.4339    5.2605    1.1487 H   0  0  0  0  0  0  0  0  0  0  0  0
    0.5738    2.9947    1.6349 H   0  0  0  0  0  0  0  0  0  0  0  0
   -2.3716    3.5443    1.2476 H   0  0  0  0  0  0  0  0  0  0  0  0
   -1.4115    3.6643    2.7181 H   0  0  0  0  0  0  0  0  0  0  0  0
    0.4462    2.3736   -0.7848 H   0  0  0  0  0  0  0  0  0  0  0  0
   -1.5958    1.4947   -1.7294 H   0  0  0  0  0  0  0  0  0  0  0  0
   -2.5568    2.2767   -0.3364 H   0  0  0  0  0  0  0  0  0  0  0  0
    0.7578    0.9856    1.2622 H   0  0  0  0  0  0  0  0  0  0  0  0
   -0.2289   -0.1713   -1.2631 H   0  0  0  0  0  0  0  0  0  0  0  0
    1.7470   -1.4862   -1.2109 H   0  0  0  0  0  0  0  0  0  0  0  0
    2.6032    1.4166   -0.6950 H   0  0  0  0  0  0  0  0  0  0  0  0
    1.9609    0.6667   -2.2546 H   0  0  0  0  0  0  0  0  0  0  0  0
    3.7043   -0.8279   -2.3988 H   0  0  0  0  0  0  0  0  0  0  0  0
    4.3188    0.8253   -2.1452 H   0  0  0  0  0  0  0  0  0  0  0  0
    4.7961   -1.5206   -0.4930 H   0  0  0  0  0  0  0  0  0  0  0  0
    6.3823    0.2708   -2.4809 H   0  0  0  0  0  0  0  0  0  0  0  0
    7.7572   -0.1661   -1.4029 H   0  0  0  0  0  0  0  0  0  0  0  0
    6.4666   -1.3451   -1.7455 H   0  0  0  0  0  0  0  0  0  0  0  0
    6.9560   -1.2164    0.8262 H   0  0  0  0  0  0  0  0  0  0  0  0
    6.1940    0.2426    1.6821 H   0  0  0  0  0  0  0  0  0  0  0  0
    7.6806    0.3899    0.6427 H   0  0  0  0  0  0  0  0  0  0  0  0
    3.6397    0.9125    0.9435 H   0  0  0  0  0  0  0  0  0  0  0  0
    4.3470   -0.6127    1.6742 H   0  0  0  0  0  0  0  0  0  0  0  0
    1.9629   -1.0035    1.6244 H   0  0  0  0  0  0  0  0  0  0  0  0
    2.8817   -2.0449    0.5765 H   0  0  0  0  0  0  0  0  0  0  0  0
   -0.3365   -2.3597   -0.7532 H   0  0  0  0  0  0  0  0  0  0  0  0
    0.4377   -2.1177    0.9011 H   0  0  0  0  0  0  0  0  0  0  0  0
   -1.9225   -1.7451    2.9631 H   0  0  0  0  0  0  0  0  0  0  0  0
   -0.4831   -2.6138    2.4041 H   0  0  0  0  0  0  0  0  0  0  0  0
   -2.0820   -3.3573    2.2364 H   0  0  0  0  0  0  0  0  0  0  0  0
   -2.9906   -1.3150   -1.7530 H   0  0  0  0  0  0  0  0  0  0  0  0
   -1.9776   -2.7589   -1.8667 H   0  0  0  0  0  0  0  0  0  0  0  0
   -5.0169   -2.7518   -1.6026 H   0  0  0  0  0  0  0  0  0  0  0  0
   -3.9985   -3.0010   -3.0252 H   0  0  0  0  0  0  0  0  0  0  0  0
   -4.5093   -5.1207   -2.4551 H   0  0  0  0  0  0  0  0  0  0  0  0
   -2.8714   -4.9439   -1.7707 H   0  0  0  0  0  0  0  0  0  0  0  0
   -4.3796   -4.9169   -0.6955 H   0  0  0  0  0  0  0  0  0  0  0  0
   -1.6684   -4.1594    0.3000 H   0  0  0  0  0  0  0  0  0  0  0  0
   -4.1566   -2.6767    1.7406 H   0  0  0  0  0  0  0  0  0  0  0  0
   -4.8411   -1.9134    0.2433 H   0  0  0  0  0  0  0  0  0  0  0  0
   -4.2924    0.0921    1.1184 H   0  0  0  0  0  0  0  0  0  0  0  0
   -3.5787   -0.6426    2.5622 H   0  0  0  0  0  0  0  0  0  0  0  0
   -2.4846   -0.1021   -0.2097 H   0  0  0  0  0  0  0  0  0  0  0  0
   -0.8204   -0.1529    2.3543 H   0  0  0  0  0  0  0  0  0  0  0  0
   -1.9085    1.5534    3.2976 H   0  0  0  0  0  0  0  0  0  0  0  0
   -3.0690    1.5440    1.9837 H   0  0  0  0  0  0  0  0  0  0  0  0
  1  2  1  0
  2  3  1  0
  2  4  1  0
  4  5  1  0
  5  6  1  0
  5  7  1  0
  3  8  1  0
  7  8  1  0
  7  9  1  0
  9 10  1  0
 10 11  1  0
 11 12  1  0
 12 13  1  0
 13 14  1  0
 14 15  1  0
 15 16  1  0
 15 17  1  0
 14 18  1  0
 11 19  1  0
 18 19  1  0
 10 20  1  0
 20 21  1  0
 21 22  1  1
 21 23  1  0
 23 24  1  0
 24 25  1  0
 25 26  1  0
 23 27  1  6
 23 28  1  0
 28 29  1  0
 21 30  1  0
 29 30  1  0
  9 31  1  0
 30 31  1  0
  6 32  1  0
 31 32  1  0
  1 33  1  0
  2 34  1  0
  3 35  1  0
  3 36  1  0
  4 37  1  0
  4 38  1  0
  5 39  1  0
  6 40  1  0
  6 41  1  0
  7 42  1  6
  8 43  1  0
  8 44  1  0
  9 45  1  0
 10 46  1  6
 11 47  1  0
 12 48  1  0
 12 49  1  0
 13 50  1  0
 13 51  1  0
 14 52  1  0
 16 53  1  0
 16 54  1  0
 16 55  1  0
 17 56  1  0
 17 57  1  0
 17 58  1  0
 18 59  1  0
 18 60  1  0
 19 61  1  0
 19 62  1  0
 20 63  1  0
 20 64  1  0
 22 65  1  0
 22 66  1  0
 22 67  1  0
 24 68  1  0
 24 69  1  0
 25 70  1  0
 25 71  1  0
 26 72  1  0
 26 73  1  0
 26 74  1  0
 27 75  1  0
 28 76  1  0
 28 77  1  0
 29 78  1  0
 29 79  1  0
 30 80  1  6
 31 81  1  1
 32 82  1  0
 32 83  1  0
M  END
>  <PDBID>  (1) 
2W8Y

>  <PDB ID>  (1) 
2W8Y

>  <Generic Name>  (1) 
Mifepristone

>  <Brand Name>  (1) 
Korlym#Mifegymiso#Corlux#Mefipil#Mifegyne#Mifeprex

>  <DrugBank ID>  (1) 
DB00834

>  <ATC Codes>  (1) 
G03XB01#G03XB51

>  <Ligand ID>  (1) 
486

>  <Target Name>  (1) 
Progesterone receptor

>  <UniProt ID>  (1) 
P06401

>  <PDB ID.1>  (1) 
2W8Y

>  <Seq. Identity>  (1) 
96%

$$$$
