PDB_DB01024_03
     RDKit          3D

110112  0  0  0  0  0  0  0  0999 V2000
   -2.4166   -2.6096    0.7683 C   0  0  0  0  0  0  0  0  0  0  0  0
    1.6005    0.8394    0.9065 C   0  0  0  0  0  0  0  0  0  0  0  0
    2.9826    1.2534    0.3743 C   0  0  0  0  0  0  0  0  0  0  0  0
    3.2966    0.5522   -0.8912 C   0  0  0  0  0  0  0  0  0  0  0  0
    3.3312   -0.9235   -0.8914 C   0  0  0  0  0  0  0  0  0  0  0  0
    4.3502   -1.5661   -0.0044 C   0  0  0  0  0  0  0  0  0  0  0  0
   -4.1784    1.0646   -1.3632 C   0  0  0  0  0  0  0  0  0  0  0  0
   -1.9724    3.3706   -1.5638 C   0  0  0  0  0  0  0  0  0  0  0  0
    3.9534    1.1551    1.4881 C   0  0  0  0  0  0  0  0  0  0  0  0
   -4.2020   -1.6611   -0.1233 C   0  0  0  0  0  0  0  0  0  0  0  0
   -3.3574   -0.4640    0.3349 C   0  0  0  0  0  0  0  0  0  0  0  0
   -2.9577    0.3037   -0.8745 C   0  0  0  0  0  0  0  0  0  0  0  0
   -1.7957    1.2255   -0.6854 C   0  0  0  0  0  0  0  0  0  0  0  0
   -0.8273    0.8343    0.3935 C   0  0  1  0  0  0  0  0  0  0  0  0
   -0.8748   -0.6473    0.6180 C   0  0  0  0  0  0  0  0  0  0  0  0
   -2.2384   -1.1374    1.0464 C   0  0  0  0  0  0  0  0  0  0  0  0
    0.5577    1.1821   -0.0923 C   0  0  0  0  0  0  0  0  0  0  0  0
   -1.9142   -3.3004    1.8702 O   0  0  0  0  0  0  0  0  0  0  0  0
   -3.8047   -2.7180    0.6882 O   0  0  0  0  0  0  0  0  0  0  0  0
   -2.2876    2.5184   -0.5465 O   0  0  0  0  0  0  0  0  0  0  0  0
   -0.4025   -1.3822   -0.4560 O   0  0  0  0  0  0  0  0  0  0  0  0
    5.6573   -1.1837   -0.3538 O   0  0  0  0  0  0  0  0  0  0  0  0
    4.3257   -2.9793   -0.1693 O   0  0  0  0  0  0  0  0  0  0  0  0
   -2.5820   -1.8363    1.8078 C   0  0  2  0  0  0  0  0  0  0  0  0
    1.7885    0.7435    0.4900 C   0  0  0  0  0  0  0  0  0  0  0  0
    3.1150    0.8218   -0.2873 C   0  0  0  0  0  0  0  0  0  0  0  0
    3.0529   -0.0097   -1.5116 C   0  0  0  0  0  0  0  0  0  0  0  0
    2.7903   -1.4565   -1.3588 C   0  0  0  0  0  0  0  0  0  0  0  0
    3.7873   -2.2429   -0.5845 C   0  0  0  0  0  0  0  0  0  0  0  0
   -3.8623    1.2030   -1.5805 C   0  0  0  0  0  0  0  0  0  0  0  0
   -2.6835    3.7958   -0.1467 C   0  0  0  0  0  0  0  0  0  0  0  0
    4.2415    0.6118    0.6461 C   0  0  0  0  0  0  0  0  0  0  0  0
   -3.0777   -1.8130   -0.3477 C   0  0  0  0  0  0  0  0  0  0  0  0
   -3.1589   -0.3806    0.1048 C   0  0  0  0  0  0  0  0  0  0  0  0
   -2.6511    0.5790   -0.9242 C   0  0  2  0  0  0  0  0  0  0  0  0
   -1.7944    1.6617   -0.3088 C   0  0  2  0  0  0  0  0  0  0  0  0
   -0.6363    1.1770    0.4977 C   0  0  1  0  0  0  0  0  0  0  0  0
   -0.8372   -0.2364    0.9322 C   0  0  2  0  0  0  0  0  0  0  0  0
   -2.2602   -0.4298    1.3241 C   0  0  0  0  0  0  0  0  0  0  0  0
    0.6511    1.2287   -0.3366 C   0  0  0  0  0  0  0  0  0  0  0  0
   -1.8191   -2.2693    2.8506 O   0  0  0  0  0  0  0  0  0  0  0  0
   -2.4368   -2.5494    0.6422 O   0  0  0  0  0  0  0  0  0  0  0  0
   -2.6232    2.5341    0.3818 O   0  0  0  0  0  0  0  0  0  0  0  0
   -0.0773   -0.5369    2.0846 O   0  0  0  0  0  0  0  0  0  0  0  0
    5.0732   -2.1888   -1.1673 O   0  0  0  0  0  0  0  0  0  0  0  0
    3.4713   -3.6189   -0.5871 O   0  0  0  0  0  0  0  0  0  0  0  0
   -1.9073   -2.8929   -0.1540 H   0  0  0  0  0  0  0  0  0  0  0  0
    1.3988    1.3301    1.8726 H   0  0  0  0  0  0  0  0  0  0  0  0
    1.6129   -0.2629    1.0649 H   0  0  0  0  0  0  0  0  0  0  0  0
    2.8513    2.3610    0.1370 H   0  0  0  0  0  0  0  0  0  0  0  0
    2.5723    0.9457   -1.6654 H   0  0  0  0  0  0  0  0  0  0  0  0
    4.3183    0.8905   -1.2704 H   0  0  0  0  0  0  0  0  0  0  0  0
    3.5950   -1.2421   -1.9468 H   0  0  0  0  0  0  0  0  0  0  0  0
    2.3201   -1.3868   -0.7428 H   0  0  0  0  0  0  0  0  0  0  0  0
    4.2026   -1.3211    1.0532 H   0  0  0  0  0  0  0  0  0  0  0  0
   -4.3450    1.9909   -0.7462 H   0  0  0  0  0  0  0  0  0  0  0  0
   -4.0691    1.3508   -2.4309 H   0  0  0  0  0  0  0  0  0  0  0  0
   -5.0973    0.4709   -1.2879 H   0  0  0  0  0  0  0  0  0  0  0  0
   -2.4433    4.3630   -1.2968 H   0  0  0  0  0  0  0  0  0  0  0  0
   -0.8984    3.6010   -1.6925 H   0  0  0  0  0  0  0  0  0  0  0  0
   -2.4237    3.1035   -2.5410 H   0  0  0  0  0  0  0  0  0  0  0  0
    3.5528    0.5320    2.3311 H   0  0  0  0  0  0  0  0  0  0  0  0
    4.0249    2.1856    1.9749 H   0  0  0  0  0  0  0  0  0  0  0  0
    4.9808    0.9226    1.2054 H   0  0  0  0  0  0  0  0  0  0  0  0
   -3.8951   -1.9295   -1.1664 H   0  0  0  0  0  0  0  0  0  0  0  0
   -5.2712   -1.4662   -0.0547 H   0  0  0  0  0  0  0  0  0  0  0  0
   -3.9925    0.1311    1.0094 H   0  0  0  0  0  0  0  0  0  0  0  0
   -2.7432   -0.4523   -1.6871 H   0  0  0  0  0  0  0  0  0  0  0  0
   -1.2318    1.2184   -1.6420 H   0  0  0  0  0  0  0  0  0  0  0  0
   -1.0607    1.3082    1.3709 H   0  0  0  0  0  0  0  0  0  0  0  0
   -0.2038   -0.8770    1.4966 H   0  0  0  0  0  0  0  0  0  0  0  0
   -2.3787   -0.9867    2.1349 H   0  0  0  0  0  0  0  0  0  0  0  0
    0.6258    2.2176   -0.4794 H   0  0  0  0  0  0  0  0  0  0  0  0
    0.7073    0.5373   -1.0120 H   0  0  0  0  0  0  0  0  0  0  0  0
   -2.6681   -3.3793    2.5337 H   0  0  0  0  0  0  0  0  0  0  0  0
    0.0746   -2.2065   -0.1611 H   0  0  0  0  0  0  0  0  0  0  0  0
    6.2320   -1.4499    0.3902 H   0  0  0  0  0  0  0  0  0  0  0  0
    4.7347   -3.3334    0.6633 H   0  0  0  0  0  0  0  0  0  0  0  0
   -3.6824   -1.8008    2.0535 H   0  0  0  0  0  0  0  0  0  0  0  0
    1.8983    1.2163    1.4746 H   0  0  0  0  0  0  0  0  0  0  0  0
    1.6967   -0.3708    0.6808 H   0  0  0  0  0  0  0  0  0  0  0  0
    3.1722    1.9077   -0.6371 H   0  0  0  0  0  0  0  0  0  0  0  0
    2.2780    0.4650   -2.1884 H   0  0  0  0  0  0  0  0  0  0  0  0
    3.9976    0.0990   -2.1340 H   0  0  0  0  0  0  0  0  0  0  0  0
    2.7810   -1.9039   -2.4006 H   0  0  0  0  0  0  0  0  0  0  0  0
    1.7721   -1.6903   -0.9701 H   0  0  0  0  0  0  0  0  0  0  0  0
    3.8558   -1.8841    0.4397 H   0  0  0  0  0  0  0  0  0  0  0  0
   -4.5995    0.4279   -1.8781 H   0  0  0  0  0  0  0  0  0  0  0  0
   -4.4045    1.8856   -0.8931 H   0  0  0  0  0  0  0  0  0  0  0  0
   -3.5976    1.7594   -2.5021 H   0  0  0  0  0  0  0  0  0  0  0  0
   -3.0502    3.8527   -1.1761 H   0  0  0  0  0  0  0  0  0  0  0  0
   -1.7105    4.3501   -0.0864 H   0  0  0  0  0  0  0  0  0  0  0  0
   -3.3870    4.3856    0.4813 H   0  0  0  0  0  0  0  0  0  0  0  0
    3.8773    0.1525    1.6159 H   0  0  0  0  0  0  0  0  0  0  0  0
    4.6023    1.6316    1.0029 H   0  0  0  0  0  0  0  0  0  0  0  0
    5.1349    0.1224    0.2480 H   0  0  0  0  0  0  0  0  0  0  0  0
   -2.4028   -1.8597   -1.2521 H   0  0  0  0  0  0  0  0  0  0  0  0
   -4.0682   -2.2377   -0.6090 H   0  0  0  0  0  0  0  0  0  0  0  0
   -4.1810   -0.1662    0.4475 H   0  0  0  0  0  0  0  0  0  0  0  0
   -2.1258    0.0046   -1.7078 H   0  0  0  0  0  0  0  0  0  0  0  0
   -1.3747    2.2497   -1.1539 H   0  0  0  0  0  0  0  0  0  0  0  0
   -0.4928    1.7680    1.4407 H   0  0  0  0  0  0  0  0  0  0  0  0
   -0.5385   -0.9747    0.1495 H   0  0  0  0  0  0  0  0  0  0  0  0
   -2.5327    0.2769    2.1167 H   0  0  0  0  0  0  0  0  0  0  0  0
    0.5084    0.5105   -1.1982 H   0  0  0  0  0  0  0  0  0  0  0  0
    0.7967    2.2055   -0.7940 H   0  0  0  0  0  0  0  0  0  0  0  0
   -1.7387   -3.2452    2.8600 H   0  0  0  0  0  0  0  0  0  0  0  0
    0.2053   -1.4699    2.1329 H   0  0  0  0  0  0  0  0  0  0  0  0
    5.7068   -2.4061   -0.4629 H   0  0  0  0  0  0  0  0  0  0  0  0
    4.1324   -4.0496    0.0133 H   0  0  0  0  0  0  0  0  0  0  0  0
  2  3  1  0
  3  4  1  0
  4  5  1  0
  5  6  1  0
  3  9  1  0
 10 11  1  0
  7 12  1  0
 11 12  1  0
 12 13  1  0
 13 14  1  0
 14 15  1  0
  1 16  1  0
 11 16  1  0
 15 16  1  0
  2 17  1  0
 14 17  1  0
  1 18  1  0
  1 19  1  0
 10 19  1  0
  8 20  1  0
 13 20  1  0
 15 21  1  0
  6 22  1  0
  6 23  1  0
 25 26  1  0
 26 27  1  0
 27 28  1  0
 28 29  1  0
 26 32  1  0
 33 34  1  0
 30 35  1  0
 34 35  1  0
 35 36  1  0
 36 37  1  0
 37 38  1  0
 24 39  1  0
 34 39  1  0
 38 39  1  0
 25 40  1  0
 37 40  1  0
 24 41  1  0
 24 42  1  0
 33 42  1  0
 31 43  1  0
 36 43  1  0
 38 44  1  0
 29 45  1  0
 29 46  1  0
  1 47  1  0
  2 48  1  0
  2 49  1  0
  3 50  1  0
  4 51  1  0
  4 52  1  0
  5 53  1  0
  5 54  1  0
  6 55  1  0
  7 56  1  0
  7 57  1  0
  7 58  1  0
  8 59  1  0
  8 60  1  0
  8 61  1  0
  9 62  1  0
  9 63  1  0
  9 64  1  0
 10 65  1  0
 10 66  1  0
 11 67  1  0
 12 68  1  0
 13 69  1  0
 14 70  1  1
 15 71  1  0
 16 72  1  0
 17 73  1  0
 17 74  1  0
 18 75  1  0
 21 76  1  0
 22 77  1  0
 23 78  1  0
 24 79  1  1
 25 80  1  0
 25 81  1  0
 26 82  1  0
 27 83  1  0
 27 84  1  0
 28 85  1  0
 28 86  1  0
 29 87  1  0
 30 88  1  0
 30 89  1  0
 30 90  1  0
 31 91  1  0
 31 92  1  0
 31 93  1  0
 32 94  1  0
 32 95  1  0
 32 96  1  0
 33 97  1  0
 33 98  1  0
 34 99  1  0
 35100  1  6
 36101  1  6
 37102  1  1
 38103  1  6
 39104  1  0
 40105  1  0
 40106  1  0
 41107  1  0
 44108  1  0
 45109  1  0
 46110  1  0
M  END
>  <PDBID>  (1) 
1JR1

>  <PDB ID>  (1) 
1JR1

>  <Generic Name>  (1) 
Mycophenolic acid

>  <Brand Name>  (1) 
Apo-mycophenolic Acid#Mycophenolic Acid#Myfortic#Melbex

>  <DrugBank ID>  (1) 
DB01024

>  <ATC Codes>  (1) 
L04AA06

>  <Ligand ID>  (1) 
MOA

>  <Target Name>  (1) 
Inosine-5'-monophosphate dehydrogenase 2

>  <UniProt ID>  (1) 
P12268

>  <PDB ID.1>  (1) 
1JR1

>  <Seq. Identity>  (1) 
99%

$$$$
