PDB_DB01157_06
     RDKit          3D

264272  0  0  0  0  0  0  0  0999 V2000
    5.5252    0.5737    0.9326 N   0  0  0  0  0  0  0  0  0  0  0  0
    6.3121    0.4590   -0.2596 C   0  0  1  0  0  0  0  0  0  0  0  0
    5.7741   -0.4274   -1.2195 N   0  0  0  0  0  0  0  0  0  0  0  0
    4.9207   -1.4605   -0.7019 C   0  0  2  0  0  0  0  0  0  0  0  0
    4.1032    0.4355    0.7016 C   0  0  0  0  0  0  0  0  0  0  0  0
    3.8114   -0.9747    0.1670 C   0  0  0  0  0  0  0  0  0  0  0  0
    2.4375   -1.0736   -0.4304 C   0  0  0  0  0  0  0  0  0  0  0  0
    1.5701   -0.0267    0.2788 C   0  0  0  0  0  0  0  0  0  0  0  0
    1.9954    1.3631   -0.0661 C   0  0  0  0  0  0  0  0  0  0  0  0
    3.5169    1.4641   -0.1999 C   0  0  0  0  0  0  0  0  0  0  0  0
    0.0966   -0.2475    0.0243 C   0  0  0  0  0  0  0  0  0  0  0  0
   -0.6169    0.7899    0.7371 N   0  0  0  0  0  0  0  0  0  0  0  0
   -2.0517    0.6449    0.6465 C   0  0  0  0  0  0  0  0  0  0  0  0
   -2.6089    0.7417   -0.7326 C   0  0  0  0  0  0  0  0  0  0  0  0
   -4.1086    0.9798   -0.6318 C   0  0  0  0  0  0  0  0  0  0  0  0
   -4.6345    0.6108    0.7379 C   0  0  0  0  0  0  0  0  0  0  0  0
   -4.0411   -0.6902    1.1796 C   0  0  0  0  0  0  0  0  0  0  0  0
   -2.5342   -0.6209    1.3172 C   0  0  0  0  0  0  0  0  0  0  0  0
    2.3488   -0.9178   -1.8942 C   0  0  0  0  0  0  0  0  0  0  0  0
   -4.7229    0.0871   -1.5301 O   0  0  0  0  0  0  0  0  0  0  0  0
   -6.0101    0.4165    0.6041 O   0  0  0  0  0  0  0  0  0  0  0  0
   -4.4285   -1.6920    0.2987 O   0  0  0  0  0  0  0  0  0  0  0  0
   -5.4721    0.7681   -2.4872 C   0  0  0  0  0  0  0  0  0  0  0  0
   -6.7432    1.2949    1.4309 C   0  0  0  0  0  0  0  0  0  0  0  0
   -5.1696   -2.6979    0.8755 C   0  0  0  0  0  0  0  0  0  0  0  0
    6.5298    1.8138   -0.7895 N   0  0  0  0  0  0  0  0  0  0  0  0
    5.7968   -2.3604    0.0629 N   0  0  0  0  0  0  0  0  0  0  0  0
    5.3876    0.6392    0.9491 N   0  0  0  0  0  0  0  0  0  0  0  0
    6.1715    0.6463   -0.2577 C   0  0  1  0  0  0  0  0  0  0  0  0
    5.5549   -0.1204   -1.2997 N   0  0  0  0  0  0  0  0  0  0  0  0
    4.9927   -1.3685   -0.7827 C   0  0  0  0  0  0  0  0  0  0  0  0
    3.9948    0.3064    0.6952 C   0  0  0  0  0  0  0  0  0  0  0  0
    3.8390   -1.0691    0.1316 C   0  0  0  0  0  0  0  0  0  0  0  0
    2.4859   -1.2435   -0.5278 C   0  0  1  0  0  0  0  0  0  0  0  0
    1.5863   -0.2441    0.1366 C   0  0  0  0  0  0  0  0  0  0  0  0
    1.9180    1.1751   -0.2456 C   0  0  0  0  0  0  0  0  0  0  0  0
    3.4057    1.4037   -0.1319 C   0  0  0  0  0  0  0  0  0  0  0  0
    0.1118   -0.4500   -0.1362 C   0  0  0  0  0  0  0  0  0  0  0  0
   -0.5633    0.5902    0.5764 N   0  0  0  0  0  0  0  0  0  0  0  0
   -1.9834    0.5584    0.5410 C   0  0  0  0  0  0  0  0  0  0  0  0
   -2.6393    0.7048   -0.7739 C   0  0  0  0  0  0  0  0  0  0  0  0
   -4.1287    0.9687   -0.5815 C   0  0  0  0  0  0  0  0  0  0  0  0
   -4.5737    0.7244    0.8442 C   0  0  0  0  0  0  0  0  0  0  0  0
   -4.0444   -0.6349    1.2533 C   0  0  0  0  0  0  0  0  0  0  0  0
   -2.5450   -0.6792    1.2460 C   0  0  0  0  0  0  0  0  0  0  0  0
    2.5258   -1.1663   -2.0139 C   0  0  0  0  0  0  0  0  0  0  0  0
   -4.7957    0.0041   -1.3528 O   0  0  0  0  0  0  0  0  0  0  0  0
   -5.9664    0.6369    0.8417 O   0  0  0  0  0  0  0  0  0  0  0  0
   -4.6182   -1.5505    0.3849 O   0  0  0  0  0  0  0  0  0  0  0  0
   -5.5835    0.5848   -2.3294 C   0  0  0  0  0  0  0  0  0  0  0  0
   -6.5391    1.5956    1.6966 C   0  0  0  0  0  0  0  0  0  0  0  0
   -5.4416   -2.4762    0.9832 C   0  0  0  0  0  0  0  0  0  0  0  0
    6.3747    1.9944   -0.7622 N   0  0  0  0  0  0  0  0  0  0  0  0
    6.0449   -1.9665    0.0412 N   0  0  0  0  0  0  0  0  0  0  0  0
    4.6287    1.8147   -0.7795 N   0  0  0  0  0  0  0  0  0  0  0  0
    5.9890    1.4655   -0.5310 C   0  0  0  0  0  0  0  0  0  0  0  0
    6.2082    0.0765   -0.2276 N   0  0  0  0  0  0  0  0  0  0  0  0
    5.1897   -0.7704   -0.8254 C   0  0  2  0  0  0  0  0  0  0  0  0
    3.6612    1.0420   -0.0130 C   0  0  0  0  0  0  0  0  0  0  0  0
    3.8940   -0.4413   -0.1218 C   0  0  0  0  0  0  0  0  0  0  0  0
    2.7084   -1.1675   -0.6990 C   0  0  1  0  0  0  0  0  0  0  0  0
    1.5109   -0.8191    0.1977 C   0  0  0  0  0  0  0  0  0  0  0  0
    1.1696    0.6234    0.0759 C   0  0  0  0  0  0  0  0  0  0  0  0
    2.3107    1.4608   -0.4932 C   0  0  0  0  0  0  0  0  0  0  0  0
    0.3693   -1.7394   -0.0738 C   0  0  0  0  0  0  0  0  0  0  0  0
   -0.7453   -1.5644    0.6757 N   0  0  0  0  0  0  0  0  0  0  0  0
   -1.7057   -0.5867    0.7057 C   0  0  0  0  0  0  0  0  0  0  0  0
   -2.5042   -0.4061   -0.5743 C   0  0  0  0  0  0  0  0  0  0  0  0
   -3.5138    0.6870   -0.3915 C   0  0  0  0  0  0  0  0  0  0  0  0
   -4.2722    0.6541    0.8922 C   0  0  0  0  0  0  0  0  0  0  0  0
   -4.1112   -0.7284    1.4972 C   0  0  0  0  0  0  0  0  0  0  0  0
   -2.6881   -0.9323    1.8484 C   0  0  0  0  0  0  0  0  0  0  0  0
    2.4562   -0.9203   -2.1420 C   0  0  0  0  0  0  0  0  0  0  0  0
   -4.4149    0.6045   -1.4551 O   0  0  0  0  0  0  0  0  0  0  0  0
   -5.6316    0.7846    0.6168 O   0  0  0  0  0  0  0  0  0  0  0  0
   -4.6535   -1.6449    0.6344 O   0  0  0  0  0  0  0  0  0  0  0  0
   -4.4710    1.7421   -2.2293 C   0  0  0  0  0  0  0  0  0  0  0  0
   -6.2499    1.8191    1.2730 C   0  0  0  0  0  0  0  0  0  0  0  0
   -5.7568   -2.3243    1.1201 C   0  0  0  0  0  0  0  0  0  0  0  0
    6.6348    2.2783    0.4831 N   0  0  0  0  0  0  0  0  0  0  0  0
    5.5758   -2.1537   -0.5235 N   0  0  0  0  0  0  0  0  0  0  0  0
    4.6287    1.8147   -0.7795 N   0  0  0  0  0  0  0  0  0  0  0  0
    5.9890    1.4655   -0.5310 C   0  0  0  0  0  0  0  0  0  0  0  0
    6.2082    0.0765   -0.2276 N   0  0  0  0  0  0  0  0  0  0  0  0
    5.1897   -0.7704   -0.8254 C   0  0  2  0  0  0  0  0  0  0  0  0
    3.6612    1.0420   -0.0130 C   0  0  0  0  0  0  0  0  0  0  0  0
    3.8940   -0.4413   -0.1218 C   0  0  0  0  0  0  0  0  0  0  0  0
    2.7084   -1.1675   -0.6990 C   0  0  1  0  0  0  0  0  0  0  0  0
    1.5109   -0.8191    0.1977 C   0  0  0  0  0  0  0  0  0  0  0  0
    1.1696    0.6234    0.0759 C   0  0  0  0  0  0  0  0  0  0  0  0
    2.3107    1.4608   -0.4932 C   0  0  0  0  0  0  0  0  0  0  0  0
    0.3693   -1.7394   -0.0738 C   0  0  0  0  0  0  0  0  0  0  0  0
   -0.7453   -1.5644    0.6757 N   0  0  0  0  0  0  0  0  0  0  0  0
   -1.7057   -0.5867    0.7057 C   0  0  0  0  0  0  0  0  0  0  0  0
   -2.5042   -0.4061   -0.5743 C   0  0  0  0  0  0  0  0  0  0  0  0
   -3.5138    0.6870   -0.3915 C   0  0  0  0  0  0  0  0  0  0  0  0
   -4.2722    0.6541    0.8922 C   0  0  0  0  0  0  0  0  0  0  0  0
   -4.1112   -0.7284    1.4972 C   0  0  0  0  0  0  0  0  0  0  0  0
   -2.6881   -0.9323    1.8484 C   0  0  0  0  0  0  0  0  0  0  0  0
    2.4562   -0.9203   -2.1420 C   0  0  0  0  0  0  0  0  0  0  0  0
   -4.4149    0.6045   -1.4551 O   0  0  0  0  0  0  0  0  0  0  0  0
   -5.6316    0.7846    0.6168 O   0  0  0  0  0  0  0  0  0  0  0  0
   -4.6535   -1.6449    0.6344 O   0  0  0  0  0  0  0  0  0  0  0  0
   -4.4710    1.7421   -2.2293 C   0  0  0  0  0  0  0  0  0  0  0  0
   -6.2499    1.8191    1.2730 C   0  0  0  0  0  0  0  0  0  0  0  0
   -5.7568   -2.3243    1.1201 C   0  0  0  0  0  0  0  0  0  0  0  0
    6.6348    2.2783    0.4831 N   0  0  0  0  0  0  0  0  0  0  0  0
    5.5758   -2.1537   -0.5235 N   0  0  0  0  0  0  0  0  0  0  0  0
    5.7071    1.3918    1.5141 H   0  0  0  0  0  0  0  0  0  0  0  0
    7.3207    0.0767    0.0415 H   0  0  0  0  0  0  0  0  0  0  0  0
    5.5565   -0.0581   -2.1395 H   0  0  0  0  0  0  0  0  0  0  0  0
    4.5814   -2.0722   -1.5740 H   0  0  0  0  0  0  0  0  0  0  0  0
    3.6355    0.5492    1.7058 H   0  0  0  0  0  0  0  0  0  0  0  0
    3.7863   -1.6131    1.0952 H   0  0  0  0  0  0  0  0  0  0  0  0
    1.9719   -2.0601   -0.1573 H   0  0  0  0  0  0  0  0  0  0  0  0
    1.8040   -0.1888    1.3703 H   0  0  0  0  0  0  0  0  0  0  0  0
    1.6896    2.0468    0.7513 H   0  0  0  0  0  0  0  0  0  0  0  0
    1.4949    1.7435   -0.9811 H   0  0  0  0  0  0  0  0  0  0  0  0
    3.7999    2.4729    0.1156 H   0  0  0  0  0  0  0  0  0  0  0  0
    3.8271    1.3566   -1.2590 H   0  0  0  0  0  0  0  0  0  0  0  0
   -0.1368   -1.2614    0.3579 H   0  0  0  0  0  0  0  0  0  0  0  0
   -0.1645   -0.1567   -1.0386 H   0  0  0  0  0  0  0  0  0  0  0  0
   -0.3710    0.6994    1.7438 H   0  0  0  0  0  0  0  0  0  0  0  0
   -2.4833    1.5005    1.2353 H   0  0  0  0  0  0  0  0  0  0  0  0
   -2.1479    1.6315   -1.2490 H   0  0  0  0  0  0  0  0  0  0  0  0
   -2.3751   -0.1352   -1.3690 H   0  0  0  0  0  0  0  0  0  0  0  0
   -4.3877    1.9927   -0.9331 H   0  0  0  0  0  0  0  0  0  0  0  0
   -4.5040    1.4231    1.4748 H   0  0  0  0  0  0  0  0  0  0  0  0
   -4.4266   -0.9260    2.1930 H   0  0  0  0  0  0  0  0  0  0  0  0
   -2.1173   -1.4833    0.7791 H   0  0  0  0  0  0  0  0  0  0  0  0
   -2.2047   -0.5639    2.3907 H   0  0  0  0  0  0  0  0  0  0  0  0
    3.2741   -0.6888   -2.4341 H   0  0  0  0  0  0  0  0  0  0  0  0
    1.6344   -0.0931   -2.1660 H   0  0  0  0  0  0  0  0  0  0  0  0
    1.9036   -1.8236   -2.4038 H   0  0  0  0  0  0  0  0  0  0  0  0
   -4.8414    1.4579   -3.0855 H   0  0  0  0  0  0  0  0  0  0  0  0
   -5.9134   -0.0006   -3.1526 H   0  0  0  0  0  0  0  0  0  0  0  0
   -6.3170    1.3102   -2.0134 H   0  0  0  0  0  0  0  0  0  0  0  0
   -7.8036    1.0842    1.2713 H   0  0  0  0  0  0  0  0  0  0  0  0
   -6.4759    2.3630    1.1849 H   0  0  0  0  0  0  0  0  0  0  0  0
   -6.5098    1.1321    2.5074 H   0  0  0  0  0  0  0  0  0  0  0  0
   -6.1104   -2.3717    1.3332 H   0  0  0  0  0  0  0  0  0  0  0  0
   -5.4598   -3.3867    0.0346 H   0  0  0  0  0  0  0  0  0  0  0  0
   -4.5603   -3.3536    1.5541 H   0  0  0  0  0  0  0  0  0  0  0  0
    6.3001    2.5288   -0.0417 H   0  0  0  0  0  0  0  0  0  0  0  0
    7.5473    1.9740   -0.9885 H   0  0  0  0  0  0  0  0  0  0  0  0
    6.6119   -2.6733   -0.4718 H   0  0  0  0  0  0  0  0  0  0  0  0
    5.2676   -3.0782    0.5744 H   0  0  0  0  0  0  0  0  0  0  0  0
    5.3969    1.5737    1.3987 H   0  0  0  0  0  0  0  0  0  0  0  0
    7.1673    0.2108   -0.0155 H   0  0  0  0  0  0  0  0  0  0  0  0
    6.2156   -0.3007   -2.0687 H   0  0  0  0  0  0  0  0  0  0  0  0
    4.7560   -2.0738   -1.5915 H   0  0  0  0  0  0  0  0  0  0  0  0
    3.5051    0.3426    1.7045 H   0  0  0  0  0  0  0  0  0  0  0  0
    3.8745   -1.7720    1.0174 H   0  0  0  0  0  0  0  0  0  0  0  0
    2.0885   -2.2479   -0.2567 H   0  0  0  0  0  0  0  0  0  0  0  0
    1.7008   -0.4081    1.2399 H   0  0  0  0  0  0  0  0  0  0  0  0
    1.3245    1.8465    0.4210 H   0  0  0  0  0  0  0  0  0  0  0  0
    1.5622    1.3080   -1.3053 H   0  0  0  0  0  0  0  0  0  0  0  0
    3.5315    2.3465    0.4706 H   0  0  0  0  0  0  0  0  0  0  0  0
    3.8566    1.5317   -1.1132 H   0  0  0  0  0  0  0  0  0  0  0  0
   -0.2328   -1.4656    0.0998 H   0  0  0  0  0  0  0  0  0  0  0  0
   -0.0559   -0.2562   -1.2317 H   0  0  0  0  0  0  0  0  0  0  0  0
   -0.2402    0.7176    1.5456 H   0  0  0  0  0  0  0  0  0  0  0  0
   -2.3181    1.4320    1.1772 H   0  0  0  0  0  0  0  0  0  0  0  0
   -2.1751    1.5487   -1.3296 H   0  0  0  0  0  0  0  0  0  0  0  0
   -2.4476   -0.2002   -1.3782 H   0  0  0  0  0  0  0  0  0  0  0  0
   -4.3574    1.9910   -0.9104 H   0  0  0  0  0  0  0  0  0  0  0  0
   -4.3107    1.5370    1.5308 H   0  0  0  0  0  0  0  0  0  0  0  0
   -4.4079   -0.8643    2.2739 H   0  0  0  0  0  0  0  0  0  0  0  0
   -2.1248   -1.5894    0.8273 H   0  0  0  0  0  0  0  0  0  0  0  0
   -2.1649   -0.6050    2.3058 H   0  0  0  0  0  0  0  0  0  0  0  0
    3.4249   -0.7171   -2.4355 H   0  0  0  0  0  0  0  0  0  0  0  0
    1.6555   -0.5825   -2.3706 H   0  0  0  0  0  0  0  0  0  0  0  0
    2.4507   -2.1909   -2.4863 H   0  0  0  0  0  0  0  0  0  0  0  0
   -6.3599    1.2440   -1.8899 H   0  0  0  0  0  0  0  0  0  0  0  0
   -4.9146    1.2739   -2.9181 H   0  0  0  0  0  0  0  0  0  0  0  0
   -5.9656   -0.1451   -3.0652 H   0  0  0  0  0  0  0  0  0  0  0  0
   -7.6382    1.4754    1.6501 H   0  0  0  0  0  0  0  0  0  0  0  0
   -6.2187    2.6287    1.3700 H   0  0  0  0  0  0  0  0  0  0  0  0
   -6.2221    1.4500    2.7605 H   0  0  0  0  0  0  0  0  0  0  0  0
   -6.3009   -2.0759    1.5199 H   0  0  0  0  0  0  0  0  0  0  0  0
   -5.8703   -3.0931    0.1363 H   0  0  0  0  0  0  0  0  0  0  0  0
   -4.8538   -3.2327    1.5755 H   0  0  0  0  0  0  0  0  0  0  0  0
    5.8350    2.6928   -0.2036 H   0  0  0  0  0  0  0  0  0  0  0  0
    7.3856    2.2434   -0.8348 H   0  0  0  0  0  0  0  0  0  0  0  0
    6.8120   -2.3789   -0.5415 H   0  0  0  0  0  0  0  0  0  0  0  0
    5.6649   -2.7585    0.6179 H   0  0  0  0  0  0  0  0  0  0  0  0
    4.4466    2.8287   -0.5078 H   0  0  0  0  0  0  0  0  0  0  0  0
    6.5548    1.6711   -1.4884 H   0  0  0  0  0  0  0  0  0  0  0  0
    7.1768   -0.2202   -0.4733 H   0  0  0  0  0  0  0  0  0  0  0  0
    5.1465   -0.6065   -1.9053 H   0  0  0  0  0  0  0  0  0  0  0  0
    3.7797    1.3978    1.0427 H   0  0  0  0  0  0  0  0  0  0  0  0
    4.0079   -0.8317    0.9285 H   0  0  0  0  0  0  0  0  0  0  0  0
    2.8832   -2.2653   -0.4929 H   0  0  0  0  0  0  0  0  0  0  0  0
    1.8746   -1.0254    1.2385 H   0  0  0  0  0  0  0  0  0  0  0  0
    0.8853    1.0609    1.0626 H   0  0  0  0  0  0  0  0  0  0  0  0
    0.3290    0.7968   -0.6197 H   0  0  0  0  0  0  0  0  0  0  0  0
    2.1349    2.5060   -0.1003 H   0  0  0  0  0  0  0  0  0  0  0  0
    2.2321    1.5807   -1.5935 H   0  0  0  0  0  0  0  0  0  0  0  0
    0.7917   -2.7893    0.1473 H   0  0  0  0  0  0  0  0  0  0  0  0
    0.2250   -1.8144   -1.1935 H   0  0  0  0  0  0  0  0  0  0  0  0
   -0.9513   -2.3387    1.3899 H   0  0  0  0  0  0  0  0  0  0  0  0
   -1.3118    0.4166    0.9421 H   0  0  0  0  0  0  0  0  0  0  0  0
   -1.7821   -0.0088   -1.3379 H   0  0  0  0  0  0  0  0  0  0  0  0
   -2.9192   -1.3703   -0.8539 H   0  0  0  0  0  0  0  0  0  0  0  0
   -3.0577    1.7071   -0.4688 H   0  0  0  0  0  0  0  0  0  0  0  0
   -3.9357    1.4435    1.6130 H   0  0  0  0  0  0  0  0  0  0  0  0
   -4.7014   -0.7144    2.4637 H   0  0  0  0  0  0  0  0  0  0  0  0
   -2.4412   -1.9657    2.1596 H   0  0  0  0  0  0  0  0  0  0  0  0
   -2.4045   -0.2876    2.7009 H   0  0  0  0  0  0  0  0  0  0  0  0
    3.2598   -0.3237   -2.6108 H   0  0  0  0  0  0  0  0  0  0  0  0
    1.4420   -0.5339   -2.3780 H   0  0  0  0  0  0  0  0  0  0  0  0
    2.5059   -1.9137   -2.6838 H   0  0  0  0  0  0  0  0  0  0  0  0
   -3.5399    2.0423   -2.7107 H   0  0  0  0  0  0  0  0  0  0  0  0
   -5.2125    1.5178   -3.0466 H   0  0  0  0  0  0  0  0  0  0  0  0
   -4.9443    2.5985   -1.6669 H   0  0  0  0  0  0  0  0  0  0  0  0
   -7.3298    1.7914    0.9429 H   0  0  0  0  0  0  0  0  0  0  0  0
   -5.8931    2.8166    1.0274 H   0  0  0  0  0  0  0  0  0  0  0  0
   -6.3159    1.6248    2.3778 H   0  0  0  0  0  0  0  0  0  0  0  0
   -6.5961   -1.6785    1.3778 H   0  0  0  0  0  0  0  0  0  0  0  0
   -6.0980   -3.0150    0.3109 H   0  0  0  0  0  0  0  0  0  0  0  0
   -5.4646   -3.0210    1.9603 H   0  0  0  0  0  0  0  0  0  0  0  0
    6.2559    2.0944    1.4402 H   0  0  0  0  0  0  0  0  0  0  0  0
    6.6604    3.2792    0.2261 H   0  0  0  0  0  0  0  0  0  0  0  0
    5.8778   -2.6542   -1.3664 H   0  0  0  0  0  0  0  0  0  0  0  0
    4.8407   -2.6500    0.0283 H   0  0  0  0  0  0  0  0  0  0  0  0
    4.4466    2.8287   -0.5078 H   0  0  0  0  0  0  0  0  0  0  0  0
    6.5548    1.6711   -1.4884 H   0  0  0  0  0  0  0  0  0  0  0  0
    7.1768   -0.2202   -0.4733 H   0  0  0  0  0  0  0  0  0  0  0  0
    5.1465   -0.6065   -1.9053 H   0  0  0  0  0  0  0  0  0  0  0  0
    3.7797    1.3978    1.0427 H   0  0  0  0  0  0  0  0  0  0  0  0
    4.0079   -0.8317    0.9285 H   0  0  0  0  0  0  0  0  0  0  0  0
    2.8832   -2.2653   -0.4929 H   0  0  0  0  0  0  0  0  0  0  0  0
    1.8746   -1.0254    1.2385 H   0  0  0  0  0  0  0  0  0  0  0  0
    0.8853    1.0609    1.0626 H   0  0  0  0  0  0  0  0  0  0  0  0
    0.3290    0.7968   -0.6197 H   0  0  0  0  0  0  0  0  0  0  0  0
    2.1349    2.5060   -0.1003 H   0  0  0  0  0  0  0  0  0  0  0  0
    2.2321    1.5807   -1.5935 H   0  0  0  0  0  0  0  0  0  0  0  0
    0.7917   -2.7893    0.1473 H   0  0  0  0  0  0  0  0  0  0  0  0
    0.2250   -1.8144   -1.1935 H   0  0  0  0  0  0  0  0  0  0  0  0
   -0.9513   -2.3387    1.3899 H   0  0  0  0  0  0  0  0  0  0  0  0
   -1.3118    0.4166    0.9421 H   0  0  0  0  0  0  0  0  0  0  0  0
   -1.7821   -0.0088   -1.3379 H   0  0  0  0  0  0  0  0  0  0  0  0
   -2.9192   -1.3703   -0.8539 H   0  0  0  0  0  0  0  0  0  0  0  0
   -3.0577    1.7071   -0.4688 H   0  0  0  0  0  0  0  0  0  0  0  0
   -3.9357    1.4435    1.6130 H   0  0  0  0  0  0  0  0  0  0  0  0
   -4.7014   -0.7144    2.4637 H   0  0  0  0  0  0  0  0  0  0  0  0
   -2.4412   -1.9657    2.1596 H   0  0  0  0  0  0  0  0  0  0  0  0
   -2.4045   -0.2876    2.7009 H   0  0  0  0  0  0  0  0  0  0  0  0
    3.2598   -0.3237   -2.6108 H   0  0  0  0  0  0  0  0  0  0  0  0
    1.4420   -0.5339   -2.3780 H   0  0  0  0  0  0  0  0  0  0  0  0
    2.5059   -1.9137   -2.6838 H   0  0  0  0  0  0  0  0  0  0  0  0
   -3.5399    2.0423   -2.7107 H   0  0  0  0  0  0  0  0  0  0  0  0
   -5.2125    1.5178   -3.0466 H   0  0  0  0  0  0  0  0  0  0  0  0
   -4.9443    2.5985   -1.6669 H   0  0  0  0  0  0  0  0  0  0  0  0
   -7.3298    1.7914    0.9429 H   0  0  0  0  0  0  0  0  0  0  0  0
   -5.8931    2.8166    1.0274 H   0  0  0  0  0  0  0  0  0  0  0  0
   -6.3159    1.6248    2.3778 H   0  0  0  0  0  0  0  0  0  0  0  0
   -6.5961   -1.6785    1.3778 H   0  0  0  0  0  0  0  0  0  0  0  0
   -6.0980   -3.0150    0.3109 H   0  0  0  0  0  0  0  0  0  0  0  0
   -5.4646   -3.0210    1.9603 H   0  0  0  0  0  0  0  0  0  0  0  0
    6.2559    2.0944    1.4402 H   0  0  0  0  0  0  0  0  0  0  0  0
    6.6604    3.2792    0.2261 H   0  0  0  0  0  0  0  0  0  0  0  0
    5.8778   -2.6542   -1.3664 H   0  0  0  0  0  0  0  0  0  0  0  0
    4.8407   -2.6500    0.0283 H   0  0  0  0  0  0  0  0  0  0  0  0
  1  2  1  0
  2  3  1  0
  3  4  1  0
  1  5  1  0
  4  6  1  0
  5  6  1  0
  6  7  1  0
  7  8  1  0
  8  9  1  0
  5 10  1  0
  9 10  1  0
  8 11  1  0
 11 12  1  0
 12 13  1  0
 13 14  1  0
 14 15  1  0
 15 16  1  0
 16 17  1  0
 13 18  1  0
 17 18  1  0
  7 19  1  0
 15 20  1  0
 16 21  1  0
 17 22  1  0
 20 23  1  0
 21 24  1  0
 22 25  1  0
  2 26  1  0
  4 27  1  0
 28 29  1  0
 29 30  1  0
 30 31  1  0
 28 32  1  0
 31 33  1  0
 32 33  1  0
 33 34  1  0
 34 35  1  0
 35 36  1  0
 32 37  1  0
 36 37  1  0
 35 38  1  0
 38 39  1  0
 39 40  1  0
 40 41  1  0
 41 42  1  0
 42 43  1  0
 43 44  1  0
 40 45  1  0
 44 45  1  0
 34 46  1  0
 42 47  1  0
 43 48  1  0
 44 49  1  0
 47 50  1  0
 48 51  1  0
 49 52  1  0
 29 53  1  0
 31 54  1  0
 55 56  1  0
 56 57  1  0
 57 58  1  0
 55 59  1  0
 58 60  1  0
 59 60  1  0
 60 61  1  0
 61 62  1  0
 62 63  1  0
 59 64  1  0
 63 64  1  0
 62 65  1  0
 65 66  1  0
 66 67  1  0
 67 68  1  0
 68 69  1  0
 69 70  1  0
 70 71  1  0
 67 72  1  0
 71 72  1  0
 61 73  1  0
 69 74  1  0
 70 75  1  0
 71 76  1  0
 74 77  1  0
 75 78  1  0
 76 79  1  0
 56 80  1  0
 58 81  1  0
 82 83  1  0
 83 84  1  0
 84 85  1  0
 82 86  1  0
 85 87  1  0
 86 87  1  0
 87 88  1  0
 88 89  1  0
 89 90  1  0
 86 91  1  0
 90 91  1  0
 89 92  1  0
 92 93  1  0
 93 94  1  0
 94 95  1  0
 95 96  1  0
 96 97  1  0
 97 98  1  0
 94 99  1  0
 98 99  1  0
 88100  1  0
 96101  1  0
 97102  1  0
 98103  1  0
101104  1  0
102105  1  0
103106  1  0
 83107  1  0
 85108  1  0
  1109  1  0
  2110  1  1
  3111  1  0
  4112  1  6
  5113  1  0
  6114  1  0
  7115  1  0
  8116  1  0
  9117  1  0
  9118  1  0
 10119  1  0
 10120  1  0
 11121  1  0
 11122  1  0
 12123  1  0
 13124  1  0
 14125  1  0
 14126  1  0
 15127  1  0
 16128  1  0
 17129  1  0
 18130  1  0
 18131  1  0
 19132  1  0
 19133  1  0
 19134  1  0
 23135  1  0
 23136  1  0
 23137  1  0
 24138  1  0
 24139  1  0
 24140  1  0
 25141  1  0
 25142  1  0
 25143  1  0
 26144  1  0
 26145  1  0
 27146  1  0
 27147  1  0
 28148  1  0
 29149  1  1
 30150  1  0
 31151  1  0
 32152  1  0
 33153  1  0
 34154  1  6
 35155  1  0
 36156  1  0
 36157  1  0
 37158  1  0
 37159  1  0
 38160  1  0
 38161  1  0
 39162  1  0
 40163  1  0
 41164  1  0
 41165  1  0
 42166  1  0
 43167  1  0
 44168  1  0
 45169  1  0
 45170  1  0
 46171  1  0
 46172  1  0
 46173  1  0
 50174  1  0
 50175  1  0
 50176  1  0
 51177  1  0
 51178  1  0
 51179  1  0
 52180  1  0
 52181  1  0
 52182  1  0
 53183  1  0
 53184  1  0
 54185  1  0
 54186  1  0
 55187  1  0
 56188  1  0
 57189  1  0
 58190  1  6
 59191  1  0
 60192  1  0
 61193  1  6
 62194  1  0
 63195  1  0
 63196  1  0
 64197  1  0
 64198  1  0
 65199  1  0
 65200  1  0
 66201  1  0
 67202  1  0
 68203  1  0
 68204  1  0
 69205  1  0
 70206  1  0
 71207  1  0
 72208  1  0
 72209  1  0
 73210  1  0
 73211  1  0
 73212  1  0
 77213  1  0
 77214  1  0
 77215  1  0
 78216  1  0
 78217  1  0
 78218  1  0
 79219  1  0
 79220  1  0
 79221  1  0
 80222  1  0
 80223  1  0
 81224  1  0
 81225  1  0
 82226  1  0
 83227  1  0
 84228  1  0
 85229  1  6
 86230  1  0
 87231  1  0
 88232  1  6
 89233  1  0
 90234  1  0
 90235  1  0
 91236  1  0
 91237  1  0
 92238  1  0
 92239  1  0
 93240  1  0
 94241  1  0
 95242  1  0
 95243  1  0
 96244  1  0
 97245  1  0
 98246  1  0
 99247  1  0
 99248  1  0
100249  1  0
100250  1  0
100251  1  0
104252  1  0
104253  1  0
104254  1  0
105255  1  0
105256  1  0
105257  1  0
106258  1  0
106259  1  0
106260  1  0
107261  1  0
107262  1  0
108263  1  0
108264  1  0
M  END
>  <PDBID>  (1) 
4M2X

>  <PDB ID>  (1) 
4M2X

>  <Generic Name>  (1) 
Trimetrexate

>  <Brand Name>  (1) 
Neutrexin Pws IV 25mg/vial#Neutrexin

>  <DrugBank ID>  (1) 
DB01157

>  <ATC Codes>  (1) 
P01AX07

>  <Ligand ID>  (1) 
TMQ

>  <Target Name>  (1) 
Dihydrofolate reductase

>  <UniProt ID>  (1) 
P00374

>  <PDB ID.1>  (1) 
4M2X

>  <Seq. Identity>  (1) 
31%

$$$$
