PDB_DB00203_05
     RDKit          3D

 79 82  0  0  0  0  0  0  0  0999 V2000
   -6.9343   -0.7770    1.5504 C   0  0  0  0  0  0  0  0  0  0  0  0
   -5.7419   -1.0413    2.4409 C   0  0  0  0  0  0  0  0  0  0  0  0
   -4.5714   -1.6125    1.7120 C   0  0  0  0  0  0  0  0  0  0  0  0
   -4.1091   -0.6590    0.6272 C   0  0  0  0  0  0  0  0  0  0  0  0
   -5.1427   -0.4018   -0.3372 N   0  0  0  0  0  0  0  0  0  0  0  0
   -4.7267   -0.9238   -1.5608 N   0  0  0  0  0  0  0  0  0  0  0  0
   -4.9807   -2.3266   -1.7144 C   0  0  0  0  0  0  0  0  0  0  0  0
   -3.2704   -0.7265   -1.5509 C   0  0  0  0  0  0  0  0  0  0  0  0
   -3.0168    0.7446   -1.6841 C   0  0  0  0  0  0  0  0  0  0  0  0
   -2.3005    0.9308   -2.8799 O   0  0  0  0  0  0  0  0  0  0  0  0
   -2.2603    1.3139   -0.6291 N   0  0  0  0  0  0  0  0  0  0  0  0
   -1.2797    0.5320   -0.0204 C   0  0  0  0  0  0  0  0  0  0  0  0
   -1.6691   -0.8196    0.3049 N   0  0  0  0  0  0  0  0  0  0  0  0
   -2.9515   -1.2179   -0.1544 C   0  0  0  0  0  0  0  0  0  0  0  0
   -0.0161    0.5739   -0.8536 C   0  0  0  0  0  0  0  0  0  0  0  0
    1.0686   -0.2849   -0.2672 C   0  0  0  0  0  0  0  0  0  0  0  0
    1.8727    0.3329    0.8097 C   0  0  0  0  0  0  0  0  0  0  0  0
    1.9002    1.8609    0.7330 C   0  0  0  0  0  0  0  0  0  0  0  0
    1.8579    2.1666   -0.7489 C   0  0  0  0  0  0  0  0  0  0  0  0
    0.3538    1.9803   -1.0955 C   0  0  0  0  0  0  0  0  0  0  0  0
   -0.2900    2.8901   -0.2773 O   0  0  0  0  0  0  0  0  0  0  0  0
   -0.7754    3.9384   -1.0163 C   0  0  0  0  0  0  0  0  0  0  0  0
   -1.4961    4.9027   -0.0858 C   0  0  0  0  0  0  0  0  0  0  0  0
    3.5672   -0.1419    0.7478 S   0  0  0  0  0  0  0  0  0  0  0  0
    4.0792    1.0114    2.2304 O   0  0  0  0  0  0  0  0  0  0  0  0
    4.3541    0.7170   -0.3428 O   0  0  0  0  0  0  0  0  0  0  0  0
    3.9830   -1.4234    1.2772 N   0  0  0  0  0  0  0  0  0  0  0  0
    5.0007   -1.4745    2.3443 C   0  0  0  0  0  0  0  0  0  0  0  0
    6.3946   -1.5054    1.7580 C   0  0  0  0  0  0  0  0  0  0  0  0
    6.3665   -1.2389    0.3462 N   0  0  0  0  0  0  0  0  0  0  0  0
    7.6861   -1.2050   -0.2033 C   0  0  0  0  0  0  0  0  0  0  0  0
    5.6416   -2.3228   -0.2939 C   0  0  0  0  0  0  0  0  0  0  0  0
    4.3195   -2.5251    0.4003 C   0  0  0  0  0  0  0  0  0  0  0  0
   -6.9888   -1.4925    0.6909 H   0  0  0  0  0  0  0  0  0  0  0  0
   -7.0080    0.2625    1.2138 H   0  0  0  0  0  0  0  0  0  0  0  0
   -7.8705   -0.9641    2.1532 H   0  0  0  0  0  0  0  0  0  0  0  0
   -6.0287   -1.7712    3.2363 H   0  0  0  0  0  0  0  0  0  0  0  0
   -5.5004   -0.1034    2.9584 H   0  0  0  0  0  0  0  0  0  0  0  0
   -4.7972   -2.5961    1.2921 H   0  0  0  0  0  0  0  0  0  0  0  0
   -3.7214   -1.6531    2.4510 H   0  0  0  0  0  0  0  0  0  0  0  0
   -3.8729    0.2975    1.1400 H   0  0  0  0  0  0  0  0  0  0  0  0
   -5.3202    0.6241   -0.4507 H   0  0  0  0  0  0  0  0  0  0  0  0
   -4.0739   -2.9544   -1.7420 H   0  0  0  0  0  0  0  0  0  0  0  0
   -5.4927   -2.4990   -2.6990 H   0  0  0  0  0  0  0  0  0  0  0  0
   -5.6601   -2.7475   -0.9414 H   0  0  0  0  0  0  0  0  0  0  0  0
   -2.7940   -1.3404   -2.3266 H   0  0  0  0  0  0  0  0  0  0  0  0
   -3.9569    1.3235   -1.7977 H   0  0  0  0  0  0  0  0  0  0  0  0
   -2.7281    1.5881   -3.4764 H   0  0  0  0  0  0  0  0  0  0  0  0
   -2.7357    2.0321   -0.0629 H   0  0  0  0  0  0  0  0  0  0  0  0
   -1.0208    1.0037    0.9734 H   0  0  0  0  0  0  0  0  0  0  0  0
   -1.5664   -1.0706    1.2966 H   0  0  0  0  0  0  0  0  0  0  0  0
   -3.0027   -2.3264   -0.1245 H   0  0  0  0  0  0  0  0  0  0  0  0
   -0.3102    0.1249   -1.8374 H   0  0  0  0  0  0  0  0  0  0  0  0
    0.5802   -1.2250    0.0664 H   0  0  0  0  0  0  0  0  0  0  0  0
    1.7536   -0.5798   -1.0889 H   0  0  0  0  0  0  0  0  0  0  0  0
    1.4266    0.0900    1.7946 H   0  0  0  0  0  0  0  0  0  0  0  0
    1.0073    2.2176    1.2623 H   0  0  0  0  0  0  0  0  0  0  0  0
    2.8361    2.2382    1.1958 H   0  0  0  0  0  0  0  0  0  0  0  0
    2.3654    1.3948   -1.3624 H   0  0  0  0  0  0  0  0  0  0  0  0
    2.1739    3.1814   -0.9950 H   0  0  0  0  0  0  0  0  0  0  0  0
    0.2289    2.3269   -2.1556 H   0  0  0  0  0  0  0  0  0  0  0  0
   -1.3902    3.5859   -1.8537 H   0  0  0  0  0  0  0  0  0  0  0  0
    0.0390    4.5564   -1.4747 H   0  0  0  0  0  0  0  0  0  0  0  0
   -1.5524    5.8715   -0.5898 H   0  0  0  0  0  0  0  0  0  0  0  0
   -2.5412    4.5358    0.0951 H   0  0  0  0  0  0  0  0  0  0  0  0
   -1.0161    4.9263    0.9127 H   0  0  0  0  0  0  0  0  0  0  0  0
    3.3978    0.6923    2.8408 H   0  0  0  0  0  0  0  0  0  0  0  0
    4.6094    0.3184   -1.1891 H   0  0  0  0  0  0  0  0  0  0  0  0
    4.9461   -0.6181    3.0170 H   0  0  0  0  0  0  0  0  0  0  0  0
    4.8802   -2.3982    2.9468 H   0  0  0  0  0  0  0  0  0  0  0  0
    6.8983   -2.4865    1.9056 H   0  0  0  0  0  0  0  0  0  0  0  0
    7.0583   -0.7420    2.2221 H   0  0  0  0  0  0  0  0  0  0  0  0
    7.6994   -0.4825   -1.0634 H   0  0  0  0  0  0  0  0  0  0  0  0
    8.0236   -2.1771   -0.6091 H   0  0  0  0  0  0  0  0  0  0  0  0
    8.4121   -0.8095    0.5428 H   0  0  0  0  0  0  0  0  0  0  0  0
    5.5000   -2.0140   -1.3606 H   0  0  0  0  0  0  0  0  0  0  0  0
    6.2338   -3.2403   -0.2915 H   0  0  0  0  0  0  0  0  0  0  0  0
    3.5679   -2.7343   -0.3592 H   0  0  0  0  0  0  0  0  0  0  0  0
    4.3983   -3.4336    1.0451 H   0  0  0  0  0  0  0  0  0  0  0  0
  1  2  1  0
  2  3  1  0
  3  4  1  0
  4  5  1  0
  5  6  1  0
  6  7  1  0
  6  8  1  0
  8  9  1  0
  9 10  1  0
  9 11  1  0
 11 12  1  0
 12 13  1  0
  4 14  1  0
  8 14  1  0
 13 14  1  0
 12 15  1  0
 15 16  1  0
 16 17  1  0
 17 18  1  0
 18 19  1  0
 15 20  1  0
 19 20  1  0
 20 21  1  0
 21 22  1  0
 22 23  1  0
 17 24  1  0
 24 25  1  0
 24 26  1  0
 24 27  1  0
 27 28  1  0
 28 29  1  0
 29 30  1  0
 30 31  1  0
 30 32  1  0
 27 33  1  0
 32 33  1  0
  1 34  1  0
  1 35  1  0
  1 36  1  0
  2 37  1  0
  2 38  1  0
  3 39  1  0
  3 40  1  0
  4 41  1  0
  5 42  1  0
  7 43  1  0
  7 44  1  0
  7 45  1  0
  8 46  1  0
  9 47  1  0
 10 48  1  0
 11 49  1  0
 12 50  1  0
 13 51  1  0
 14 52  1  0
 15 53  1  0
 16 54  1  0
 16 55  1  0
 17 56  1  0
 18 57  1  0
 18 58  1  0
 19 59  1  0
 19 60  1  0
 20 61  1  0
 22 62  1  0
 22 63  1  0
 23 64  1  0
 23 65  1  0
 23 66  1  0
 25 67  1  0
 26 68  1  0
 28 69  1  0
 28 70  1  0
 29 71  1  0
 29 72  1  0
 31 73  1  0
 31 74  1  0
 31 75  1  0
 32 76  1  0
 32 77  1  0
 33 78  1  0
 33 79  1  0
M  END
>  <PDBID>  (1) 
1UDT

>  <PDB ID>  (1) 
1UDT

>  <Generic Name>  (1) 
Sildenafil

>  <Brand Name>  (1) 
Act Sildenafil#Apo-sildenafil#Apo-sildenafil R#Auro-sildenafil#Dom-sildenafil#Gd-sildenafil#Ipg-sildenafil#Jamp-sildenafil#M-sildenafil#Mar-sildenafil#Mint-sildenafil#Myl-sildenafil#Mylan-sildenafil#PMS-sildenafil#PMS-sildenafil R#Pb-sildenafil#Priva-sildenafil#Ran-sildenafil#Ratio-sildenafil#Ratio-sildenafil R#Revatio#Riva-sildenafil#Sandoz Sildenafil#Sildenafil#Sildenafil Citrate#Sildenafil R#Sildenafil Tablets#Teva-sildenafil#Van-sildenafil#Viagra

>  <DrugBank ID>  (1) 
DB00203

>  <ATC Codes>  (1) 
G04BE03

>  <Ligand ID>  (1) 
VIA

>  <Target Name>  (1) 
cGMP-specific 3',5'-cyclic phosphodiesterase

>  <UniProt ID>  (1) 
O76074

>  <PDB ID.1>  (1) 
1UDT

>  <Seq. Identity>  (1) 
94%

$$$$
