PDB_DB00907_09
     RDKit          3D

 53 55  0  0  0  0  0  0  0  0999 V2000
   -1.4235    3.1612    1.5304 C   0  0  0  0  0  0  0  0  0  0  0  0
   -2.1089    2.5329    0.5237 O   0  0  0  0  0  0  0  0  0  0  0  0
   -2.3579    1.1877    0.7174 C   0  0  0  0  0  0  0  0  0  0  0  0
   -3.7615    1.1175    0.9580 O   0  0  0  0  0  0  0  0  0  0  0  0
   -2.1179    0.3397   -0.4677 C   0  0  2  0  0  0  0  0  0  0  0  0
   -2.4286   -1.0966   -0.1673 C   0  0  2  0  0  0  0  0  0  0  0  0
   -1.3215   -1.8899   -0.7373 N   0  0  0  0  0  0  0  0  0  0  0  0
   -1.4851   -3.2606   -0.3633 C   0  0  0  0  0  0  0  0  0  0  0  0
   -3.6255   -1.5608   -1.0154 C   0  0  0  0  0  0  0  0  0  0  0  0
   -3.0165   -1.7497   -2.3878 C   0  0  0  0  0  0  0  0  0  0  0  0
   -1.5319   -1.6565   -2.1613 C   0  0  1  0  0  0  0  0  0  0  0  0
   -0.9875   -0.2714   -2.4860 C   0  0  0  0  0  0  0  0  0  0  0  0
   -0.7756    0.4895   -1.1452 C   0  0  2  0  0  0  0  0  0  0  0  0
    0.2685   -0.1355   -0.5219 O   0  0  0  0  0  0  0  0  0  0  0  0
    1.3376    0.7619   -0.3410 C   0  0  0  0  0  0  0  0  0  0  0  0
    2.4074    0.3841   -1.1761 O   0  0  0  0  0  0  0  0  0  0  0  0
    1.8559    0.7338    1.0629 C   0  0  0  0  0  0  0  0  0  0  0  0
    2.3805   -0.6291    1.4530 C   0  0  0  0  0  0  0  0  0  0  0  0
    3.7715   -0.5190    2.0579 C   0  0  0  0  0  0  0  0  0  0  0  0
    4.6920    0.0455    0.9826 C   0  0  0  0  0  0  0  0  0  0  0  0
    4.2058    1.4406    0.6788 C   0  0  0  0  0  0  0  0  0  0  0  0
    2.8838    1.7891    1.2655 C   0  0  0  0  0  0  0  0  0  0  0  0
   -0.4314    2.7922    1.7655 H   0  0  0  0  0  0  0  0  0  0  0  0
   -1.3018    4.2453    1.2629 H   0  0  0  0  0  0  0  0  0  0  0  0
   -2.0398    3.0708    2.4700 H   0  0  0  0  0  0  0  0  0  0  0  0
   -1.9315    0.7976    1.6842 H   0  0  0  0  0  0  0  0  0  0  0  0
   -4.0371    0.2012    1.1625 H   0  0  0  0  0  0  0  0  0  0  0  0
   -2.8611    0.6801   -1.2535 H   0  0  0  0  0  0  0  0  0  0  0  0
   -2.5457   -1.3446    0.8892 H   0  0  0  0  0  0  0  0  0  0  0  0
   -2.4582   -3.4737    0.1060 H   0  0  0  0  0  0  0  0  0  0  0  0
   -0.7057   -3.5311    0.4074 H   0  0  0  0  0  0  0  0  0  0  0  0
   -1.3456   -3.9614   -1.2270 H   0  0  0  0  0  0  0  0  0  0  0  0
   -4.0819   -2.4617   -0.6058 H   0  0  0  0  0  0  0  0  0  0  0  0
   -4.3165   -0.6874   -1.0546 H   0  0  0  0  0  0  0  0  0  0  0  0
   -3.3202   -0.9288   -3.0818 H   0  0  0  0  0  0  0  0  0  0  0  0
   -3.3096   -2.7397   -2.8045 H   0  0  0  0  0  0  0  0  0  0  0  0
   -0.9701   -2.4451   -2.7079 H   0  0  0  0  0  0  0  0  0  0  0  0
   -0.0617   -0.3964   -3.0365 H   0  0  0  0  0  0  0  0  0  0  0  0
   -1.7730    0.2942   -3.0193 H   0  0  0  0  0  0  0  0  0  0  0  0
   -0.5973    1.5280   -1.3841 H   0  0  0  0  0  0  0  0  0  0  0  0
    1.0231    1.7446   -0.7148 H   0  0  0  0  0  0  0  0  0  0  0  0
    2.0840    0.1604   -2.0844 H   0  0  0  0  0  0  0  0  0  0  0  0
    1.0104    0.9239    1.7956 H   0  0  0  0  0  0  0  0  0  0  0  0
    1.7574   -1.1524    2.2006 H   0  0  0  0  0  0  0  0  0  0  0  0
    2.4802   -1.2969    0.5529 H   0  0  0  0  0  0  0  0  0  0  0  0
    4.1025   -1.4968    2.4057 H   0  0  0  0  0  0  0  0  0  0  0  0
    3.7822    0.1882    2.9096 H   0  0  0  0  0  0  0  0  0  0  0  0
    4.6253   -0.6018    0.1014 H   0  0  0  0  0  0  0  0  0  0  0  0
    5.7383    0.0387    1.3531 H   0  0  0  0  0  0  0  0  0  0  0  0
    4.1612    1.6281   -0.4334 H   0  0  0  0  0  0  0  0  0  0  0  0
    4.9827    2.1858    1.0403 H   0  0  0  0  0  0  0  0  0  0  0  0
    2.9607    2.1265    2.3285 H   0  0  0  0  0  0  0  0  0  0  0  0
    2.5192    2.6978    0.7123 H   0  0  0  0  0  0  0  0  0  0  0  0
  1  2  1  0
  2  3  1  0
  3  4  1  0
  3  5  1  0
  5  6  1  0
  6  7  1  0
  7  8  1  0
  6  9  1  0
  9 10  1  0
  7 11  1  0
 10 11  1  0
 11 12  1  0
  5 13  1  0
 12 13  1  0
 13 14  1  0
 14 15  1  0
 15 16  1  0
 15 17  1  0
 17 18  1  0
 18 19  1  0
 19 20  1  0
 20 21  1  0
 17 22  1  0
 21 22  1  0
  1 23  1  0
  1 24  1  0
  1 25  1  0
  3 26  1  0
  4 27  1  0
  5 28  1  6
  6 29  1  1
  8 30  1  0
  8 31  1  0
  8 32  1  0
  9 33  1  0
  9 34  1  0
 10 35  1  0
 10 36  1  0
 11 37  1  6
 12 38  1  0
 12 39  1  0
 13 40  1  6
 15 41  1  0
 16 42  1  0
 17 43  1  0
 18 44  1  0
 18 45  1  0
 19 46  1  0
 19 47  1  0
 20 48  1  0
 20 49  1  0
 21 50  1  0
 21 51  1  0
 22 52  1  0
 22 53  1  0
M  END
>  <PDBID>  (1) 
4XP4

>  <PDB ID>  (1) 
4XP4

>  <Generic Name>  (1) 
Cocaine

>  <Brand Name>  (1) 
Cocaine Hydrochloride#Cocaine Hydrochloride Top Sol 40mg/ml#Cocaine Hydrochloride Topical Sol 10%#PMS-cocaine Hydrochloride  Topical Sol 4%#PMS-cocaine Hydrochloride Topical Sol 10%

>  <DrugBank ID>  (1) 
DB00907

>  <ATC Codes>  (1) 
S01HA01#N01BC01#R02AD03#S02DA02

>  <Ligand ID>  (1) 
COC

>  <Target Name>  (1) 
Sodium-dependent noradrenaline transporter

>  <UniProt ID>  (1) 
P23975

>  <PDB ID.1>  (1) 
4XP4

>  <Seq. Identity>  (1) 
58%

$$$$
