PDB_DB00238_07
     RDKit          3D

 48 51  0  0  0  0  0  0  0  0999 V2000
    0.3100    1.1034   -0.1561 N   0  0  0  0  0  0  0  0  0  0  0  0
    0.6085    2.4411   -0.5404 C   0  0  0  0  0  0  0  0  0  0  0  0
    0.8008    3.3689    0.6822 C   0  0  0  0  0  0  0  0  0  0  0  0
   -0.2270    3.6093   -0.4217 C   0  0  0  0  0  0  0  0  0  0  0  0
   -1.8943    1.4812   -0.7316 N   0  0  0  0  0  0  0  0  0  0  0  0
   -2.6760    1.2654    0.4869 C   0  0  0  0  0  0  0  0  0  0  0  0
   -3.5795    0.0737    0.3279 C   0  0  0  0  0  0  0  0  0  0  0  0
   -2.8063   -0.8988   -0.5564 C   0  0  0  0  0  0  0  0  0  0  0  0
   -3.2919   -2.3037   -0.3401 C   0  0  0  0  0  0  0  0  0  0  0  0
   -0.8001    0.5076   -0.8107 C   0  0  2  0  0  0  0  0  0  0  0  0
   -1.3461   -0.7209   -0.1516 C   0  0  2  0  0  0  0  0  0  0  0  0
   -0.6790   -1.9412   -0.5277 N   0  0  0  0  0  0  0  0  0  0  0  0
    0.5699   -1.9460    0.2341 C   0  0  0  0  0  0  0  0  0  0  0  0
    1.0710   -3.2509    0.1480 O   0  0  0  0  0  0  0  0  0  0  0  0
    1.4966   -1.0474   -0.5232 C   0  0  1  0  0  0  0  0  0  0  0  0
    1.5181    0.3673   -0.0873 C   0  0  2  0  0  0  0  0  0  0  0  0
    2.8947   -1.6104   -0.3934 C   0  0  0  0  0  0  0  0  0  0  0  0
    3.5476   -1.2840    0.9167 C   0  0  0  0  0  0  0  0  0  0  0  0
    3.4680    0.2179    1.1623 C   0  0  0  0  0  0  0  0  0  0  0  0
    2.0414    0.5178    1.2702 N   0  0  0  0  0  0  0  0  0  0  0  0
    1.4675    2.5054   -1.2568 H   0  0  0  0  0  0  0  0  0  0  0  0
    0.4488    3.0130    1.6608 H   0  0  0  0  0  0  0  0  0  0  0  0
    1.7036    3.9901    0.7187 H   0  0  0  0  0  0  0  0  0  0  0  0
   -1.2452    3.6711   -0.0319 H   0  0  0  0  0  0  0  0  0  0  0  0
    0.0060    4.4754   -1.0922 H   0  0  0  0  0  0  0  0  0  0  0  0
   -2.5578    1.3640   -1.5194 H   0  0  0  0  0  0  0  0  0  0  0  0
   -3.2746    2.1967    0.6514 H   0  0  0  0  0  0  0  0  0  0  0  0
   -2.0094    1.1935    1.3765 H   0  0  0  0  0  0  0  0  0  0  0  0
   -4.5072    0.4264   -0.1471 H   0  0  0  0  0  0  0  0  0  0  0  0
   -3.7891   -0.4034    1.3053 H   0  0  0  0  0  0  0  0  0  0  0  0
   -2.9370   -0.6532   -1.6238 H   0  0  0  0  0  0  0  0  0  0  0  0
   -3.0558   -2.6676    0.6868 H   0  0  0  0  0  0  0  0  0  0  0  0
   -4.4098   -2.2678   -0.3882 H   0  0  0  0  0  0  0  0  0  0  0  0
   -2.9068   -2.9703   -1.1274 H   0  0  0  0  0  0  0  0  0  0  0  0
   -0.6367    0.2693   -1.8865 H   0  0  0  0  0  0  0  0  0  0  0  0
   -1.2960   -0.6704    0.9657 H   0  0  0  0  0  0  0  0  0  0  0  0
   -0.4495   -1.8552   -1.5499 H   0  0  0  0  0  0  0  0  0  0  0  0
    0.3876   -1.6322    1.2748 H   0  0  0  0  0  0  0  0  0  0  0  0
    0.9212   -3.5306   -0.7973 H   0  0  0  0  0  0  0  0  0  0  0  0
    1.2600   -1.0661   -1.6162 H   0  0  0  0  0  0  0  0  0  0  0  0
    2.2860    0.8708   -0.7315 H   0  0  0  0  0  0  0  0  0  0  0  0
    2.8297   -2.7263   -0.4516 H   0  0  0  0  0  0  0  0  0  0  0  0
    3.5626   -1.2926   -1.2170 H   0  0  0  0  0  0  0  0  0  0  0  0
    4.6301   -1.5135    0.8168 H   0  0  0  0  0  0  0  0  0  0  0  0
    3.0693   -1.7660    1.7811 H   0  0  0  0  0  0  0  0  0  0  0  0
    3.8045    0.7256    0.2255 H   0  0  0  0  0  0  0  0  0  0  0  0
    4.0310    0.5290    2.0521 H   0  0  0  0  0  0  0  0  0  0  0  0
    1.6409   -0.1653    1.9334 H   0  0  0  0  0  0  0  0  0  0  0  0
  1  2  1  0
  2  3  1  0
  2  4  1  0
  3  4  1  0
  5  6  1  0
  6  7  1  0
  7  8  1  0
  8  9  1  0
  1 10  1  0
  5 10  1  0
  8 11  1  0
 10 11  1  0
 11 12  1  0
 12 13  1  0
 13 14  1  0
 13 15  1  0
  1 16  1  0
 15 16  1  0
 15 17  1  0
 17 18  1  0
 18 19  1  0
 16 20  1  0
 19 20  1  0
  2 21  1  0
  3 22  1  0
  3 23  1  0
  4 24  1  0
  4 25  1  0
  5 26  1  0
  6 27  1  0
  6 28  1  0
  7 29  1  0
  7 30  1  0
  8 31  1  0
  9 32  1  0
  9 33  1  0
  9 34  1  0
 10 35  1  6
 11 36  1  1
 12 37  1  0
 13 38  1  0
 14 39  1  0
 15 40  1  6
 16 41  1  6
 17 42  1  0
 17 43  1  0
 18 44  1  0
 18 45  1  0
 19 46  1  0
 19 47  1  0
 20 48  1  0
M  END
>  <PDBID>  (1) 
2HND

>  <PDB ID>  (1) 
2HND

>  <Generic Name>  (1) 
Nevirapine

>  <Brand Name>  (1) 
Apo-nevirapine#Apo-nevirapine XR#Apo-zidovudine-lamivudine-nevirapine#Auro-nevirapine#Mylan-nevirapine#Nevirapine#Nevirapine Extended Release#PMS-nevirapine#Teva-nevirapine#Viramune#Viramune XR

>  <DrugBank ID>  (1) 
DB00238

>  <ATC Codes>  (1) 
J05AR05#J05AG01#J05AR07

>  <Ligand ID>  (1) 
NVP

>  <Target Name>  (1) 
Reverse transcriptase/RNaseH

>  <UniProt ID>  (1) 
Q72547

>  <PDB ID.1>  (1) 
2HND

>  <Seq. Identity>  (1) 
96%

$$$$
