PDB_DB09078_03
     RDKit          3D

 69 72  0  0  0  0  0  0  0  0999 V2000
   -4.8249    3.3847    0.6034 C   0  0  0  0  0  0  0  0  0  0  0  0
   -3.9913    2.4091    0.0599 O   0  0  0  0  0  0  0  0  0  0  0  0
   -4.4725    1.1165    0.2686 C   0  0  0  0  0  0  0  0  0  0  0  0
   -4.8027    0.3905   -0.9905 C   0  0  0  0  0  0  0  0  0  0  0  0
   -3.6088   -0.1344   -1.7030 C   0  0  0  0  0  0  0  0  0  0  0  0
   -2.8597    0.8716   -2.3947 N   0  0  0  0  0  0  0  0  0  0  0  0
   -2.1168    0.1710   -3.4536 C   0  0  0  0  0  0  0  0  0  0  0  0
   -1.7490   -1.2139   -3.0500 C   0  0  0  0  0  0  0  0  0  0  0  0
   -1.4339   -1.2956   -1.5350 C   0  0  2  0  0  0  0  0  0  0  0  0
   -2.6911   -0.9256   -0.7986 C   0  0  0  0  0  0  0  0  0  0  0  0
   -2.3906   -0.2550    0.4929 C   0  0  0  0  0  0  0  0  0  0  0  0
   -3.5530    0.3692    1.1807 C   0  0  2  0  0  0  0  0  0  0  0  0
   -4.3635   -0.6257    1.9832 C   0  0  2  0  0  0  0  0  0  0  0  0
   -5.0275   -1.5534    1.1934 O   0  0  0  0  0  0  0  0  0  0  0  0
   -5.2920    0.0405    2.8740 N   0  0  0  0  0  0  0  0  0  0  0  0
   -0.4094   -0.4709   -1.2259 O   0  0  0  0  0  0  0  0  0  0  0  0
    0.7612   -1.0109   -0.8005 C   0  0  1  0  0  0  0  0  0  0  0  0
    1.9321   -0.7766   -1.7300 C   0  0  0  0  0  0  0  0  0  0  0  0
    3.0634   -1.6705   -1.1952 C   0  0  1  0  0  0  0  0  0  0  0  0
    3.4576   -1.3052    0.1860 C   0  0  2  0  0  0  0  0  0  0  0  0
    2.2875   -1.2452    1.1415 C   0  0  0  0  0  0  0  0  0  0  0  0
    1.1467   -0.4541    0.5358 C   0  0  0  0  0  0  0  0  0  0  0  0
    4.3163   -0.1534    0.3189 N   0  0  0  0  0  0  0  0  0  0  0  0
    5.6124   -0.3168   -0.2960 C   0  0  0  0  0  0  0  0  0  0  0  0
    6.2690   -1.4395    0.2233 O   0  0  0  0  0  0  0  0  0  0  0  0
    6.4612    0.8358   -0.1352 N   0  0  0  0  0  0  0  0  0  0  0  0
    6.8177    1.1587    1.2078 C   0  0  0  0  0  0  0  0  0  0  0  0
    5.8187    1.5481    2.2209 C   0  0  0  0  0  0  0  0  0  0  0  0
    6.6434    2.6394    1.6246 C   0  0  0  0  0  0  0  0  0  0  0  0
    2.5491   -3.3783   -1.2390 Cl  0  0  0  0  0  0  0  0  0  0  0  0
   -4.8824    3.1807    1.7064 H   0  0  0  0  0  0  0  0  0  0  0  0
   -5.8504    3.3370    0.1916 H   0  0  0  0  0  0  0  0  0  0  0  0
   -4.3449    4.3663    0.4195 H   0  0  0  0  0  0  0  0  0  0  0  0
   -5.4394    1.2423    0.8399 H   0  0  0  0  0  0  0  0  0  0  0  0
   -5.5136   -0.4275   -0.7848 H   0  0  0  0  0  0  0  0  0  0  0  0
   -5.3014    1.1396   -1.6762 H   0  0  0  0  0  0  0  0  0  0  0  0
   -3.9850   -0.8403   -2.4827 H   0  0  0  0  0  0  0  0  0  0  0  0
   -2.2686    1.4685   -1.8127 H   0  0  0  0  0  0  0  0  0  0  0  0
   -1.2493    0.7806   -3.7861 H   0  0  0  0  0  0  0  0  0  0  0  0
   -2.8113    0.1156   -4.3171 H   0  0  0  0  0  0  0  0  0  0  0  0
   -0.8370   -1.4984   -3.6145 H   0  0  0  0  0  0  0  0  0  0  0  0
   -2.5060   -1.9895   -3.2401 H   0  0  0  0  0  0  0  0  0  0  0  0
   -1.2548   -2.3806   -1.3855 H   0  0  0  0  0  0  0  0  0  0  0  0
   -3.2942   -1.8511   -0.5342 H   0  0  0  0  0  0  0  0  0  0  0  0
   -1.9788   -1.0330    1.1959 H   0  0  0  0  0  0  0  0  0  0  0  0
   -1.6185    0.5189    0.3246 H   0  0  0  0  0  0  0  0  0  0  0  0
   -3.1496    1.1048    1.9253 H   0  0  0  0  0  0  0  0  0  0  0  0
   -3.6869   -1.2315    2.6570 H   0  0  0  0  0  0  0  0  0  0  0  0
   -5.0974   -2.4393    1.6103 H   0  0  0  0  0  0  0  0  0  0  0  0
   -6.2607    0.0773    2.4947 H   0  0  0  0  0  0  0  0  0  0  0  0
   -5.3203   -0.3769    3.8160 H   0  0  0  0  0  0  0  0  0  0  0  0
    0.6629   -2.1106   -0.7243 H   0  0  0  0  0  0  0  0  0  0  0  0
    2.3152    0.2533   -1.6914 H   0  0  0  0  0  0  0  0  0  0  0  0
    1.7371   -1.1623   -2.7512 H   0  0  0  0  0  0  0  0  0  0  0  0
    3.9025   -1.5638   -1.8904 H   0  0  0  0  0  0  0  0  0  0  0  0
    4.0857   -2.1700    0.5667 H   0  0  0  0  0  0  0  0  0  0  0  0
    2.6084   -0.7109    2.0600 H   0  0  0  0  0  0  0  0  0  0  0  0
    1.9855   -2.2859    1.3738 H   0  0  0  0  0  0  0  0  0  0  0  0
    1.5216    0.5971    0.4563 H   0  0  0  0  0  0  0  0  0  0  0  0
    0.3368   -0.4816    1.2703 H   0  0  0  0  0  0  0  0  0  0  0  0
    3.8505    0.7189   -0.0425 H   0  0  0  0  0  0  0  0  0  0  0  0
    5.4876   -0.4880   -1.3793 H   0  0  0  0  0  0  0  0  0  0  0  0
    6.1703   -2.2358   -0.3772 H   0  0  0  0  0  0  0  0  0  0  0  0
    6.1938    1.6460   -0.7232 H   0  0  0  0  0  0  0  0  0  0  0  0
    7.8280    0.7670    1.5481 H   0  0  0  0  0  0  0  0  0  0  0  0
    6.0471    1.2715    3.2915 H   0  0  0  0  0  0  0  0  0  0  0  0
    4.7647    1.5572    1.9646 H   0  0  0  0  0  0  0  0  0  0  0  0
    7.3998    3.0942    2.2715 H   0  0  0  0  0  0  0  0  0  0  0  0
    6.2038    3.3300    0.8857 H   0  0  0  0  0  0  0  0  0  0  0  0
  1  2  1  0
  2  3  1  0
  3  4  1  0
  4  5  1  0
  5  6  1  0
  6  7  1  0
  7  8  1  0
  8  9  1  0
  5 10  1  0
  9 10  1  0
 10 11  1  0
  3 12  1  0
 11 12  1  0
 12 13  1  0
 13 14  1  0
 13 15  1  0
  9 16  1  0
 16 17  1  0
 17 18  1  0
 18 19  1  0
 19 20  1  0
 20 21  1  0
 17 22  1  0
 21 22  1  0
 20 23  1  0
 23 24  1  0
 24 25  1  0
 24 26  1  0
 26 27  1  0
 27 28  1  0
 27 29  1  0
 28 29  1  0
 19 30  1  0
  1 31  1  0
  1 32  1  0
  1 33  1  0
  3 34  1  0
  4 35  1  0
  4 36  1  0
  5 37  1  0
  6 38  1  0
  7 39  1  0
  7 40  1  0
  8 41  1  0
  8 42  1  0
  9 43  1  1
 10 44  1  0
 11 45  1  0
 11 46  1  0
 12 47  1  1
 13 48  1  1
 14 49  1  0
 15 50  1  0
 15 51  1  0
 17 52  1  1
 18 53  1  0
 18 54  1  0
 19 55  1  6
 20 56  1  1
 21 57  1  0
 21 58  1  0
 22 59  1  0
 22 60  1  0
 23 61  1  0
 24 62  1  0
 25 63  1  0
 26 64  1  0
 27 65  1  0
 28 66  1  0
 28 67  1  0
 29 68  1  0
 29 69  1  0
M  END
>  <PDBID>  (1) 
3WZD

>  <PDB ID>  (1) 
3WZD

>  <Generic Name>  (1) 
Lenvatinib

>  <Brand Name>  (1) 
Lenvima

>  <DrugBank ID>  (1) 
DB09078

>  <ATC Codes>  (1) 
L01XE29

>  <Ligand ID>  (1) 
LEV

>  <Target Name>  (1) 
Vascular endothelial growth factor receptor 3

>  <UniProt ID>  (1) 
P35916

>  <PDB ID.1>  (1) 
3WZD

>  <Seq. Identity>  (1) 
67%

$$$$
