PDB_DB00491_04
     RDKit          3D

 31 31  0  0  0  0  0  0  0  0999 V2000
    4.1683   -0.3876   -0.4115 O   0  0  0  0  0  0  0  0  0  0  0  0
    0.9701   -2.8623    0.1401 O   0  0  0  0  0  0  0  0  0  0  0  0
   -1.0977    3.1843    0.0588 O   0  0  0  0  0  0  0  0  0  0  0  0
   -3.2497    1.3297   -0.4212 O   0  0  0  0  0  0  0  0  0  0  0  0
   -2.6705   -1.2498    0.3000 O   0  0  0  0  0  0  0  0  0  0  0  0
    2.8730   -0.0632   -0.8222 C   0  0  0  0  0  0  0  0  0  0  0  0
   -0.1689   -2.2159   -0.2049 C   0  0  0  0  0  0  0  0  0  0  0  0
    1.9998   -0.2086    0.4114 C   0  0  0  0  0  0  0  0  0  0  0  0
    0.4389    1.4043   -0.2079 C   0  0  0  0  0  0  0  0  0  0  0  0
   -0.9427    1.8898   -0.4381 C   0  0  1  0  0  0  0  0  0  0  0  0
   -2.0128    1.0399    0.1874 C   0  0  2  0  0  0  0  0  0  0  0  0
   -1.6945   -0.3843   -0.1554 C   0  0  1  0  0  0  0  0  0  0  0  0
   -0.3469   -0.8333    0.4113 C   0  0  2  0  0  0  0  0  0  0  0  0
    0.6594    0.0673    0.0734 N   0  0  0  0  0  0  0  0  0  0  0  0
    4.2858    0.0230    0.4668 H   0  0  0  0  0  0  0  0  0  0  0  0
    0.7986   -3.7865    0.3860 H   0  0  0  0  0  0  0  0  0  0  0  0
   -2.0288    3.4654   -0.1107 H   0  0  0  0  0  0  0  0  0  0  0  0
   -3.9397    0.7402   -0.0196 H   0  0  0  0  0  0  0  0  0  0  0  0
   -3.3119   -1.4023   -0.4142 H   0  0  0  0  0  0  0  0  0  0  0  0
    2.8744    1.0186   -1.1609 H   0  0  0  0  0  0  0  0  0  0  0  0
    2.5874   -0.7085   -1.6451 H   0  0  0  0  0  0  0  0  0  0  0  0
   -0.2980   -2.0821   -1.2985 H   0  0  0  0  0  0  0  0  0  0  0  0
   -1.0687   -2.8082    0.1420 H   0  0  0  0  0  0  0  0  0  0  0  0
    2.1936   -1.1342    0.9520 H   0  0  0  0  0  0  0  0  0  0  0  0
    2.4104    0.5933    1.1184 H   0  0  0  0  0  0  0  0  0  0  0  0
    0.8961    2.0773    0.5796 H   0  0  0  0  0  0  0  0  0  0  0  0
    1.0079    1.6776   -1.1404 H   0  0  0  0  0  0  0  0  0  0  0  0
   -1.1635    1.9514   -1.5318 H   0  0  0  0  0  0  0  0  0  0  0  0
   -2.0816    1.1240    1.2757 H   0  0  0  0  0  0  0  0  0  0  0  0
   -1.5753   -0.4701   -1.2676 H   0  0  0  0  0  0  0  0  0  0  0  0
   -0.5127   -0.9894    1.5134 H   0  0  0  0  0  0  0  0  0  0  0  0
  1  6  1  0
  2  7  1  0
  6  8  1  0
  3 10  1  0
  9 10  1  0
  4 11  1  0
 10 11  1  0
  5 12  1  0
 11 12  1  0
  7 13  1  0
 12 13  1  0
  8 14  1  0
  9 14  1  0
 13 14  1  0
  1 15  1  0
  2 16  1  0
  3 17  1  0
  4 18  1  0
  5 19  1  0
  6 20  1  0
  6 21  1  0
  7 22  1  0
  7 23  1  0
  8 24  1  0
  8 25  1  0
  9 26  1  0
  9 27  1  0
 10 28  1  6
 11 29  1  1
 12 30  1  6
 13 31  1  1
M  END
>  <PDBID>  (1) 
3L4W

>  <PDB ID>  (1) 
3L4W

>  <Generic Name>  (1) 
Miglitol

>  <Brand Name>  (1) 
Glyset#Miglitol#Diaban#Diamig#Diaset#Diastabol#Elitox#Euglitol#Glycet#Laiping#Migbose#Miglit#Mignar#Migtor#Misobit#Plumarol#Seibule

>  <DrugBank ID>  (1) 
DB00491

>  <ATC Codes>  (1) 
A10BF02

>  <Ligand ID>  (1) 
MIG

>  <Target Name>  (1) 
Maltase-glucoamylase, intestinal

>  <UniProt ID>  (1) 
O43451

>  <PDB ID.1>  (1) 
3L4W

>  <Seq. Identity>  (1) 
99%

$$$$
