PDB_DB00884_03
     RDKit          3D

 38 38  0  0  0  0  0  0  0  0999 V2000
   -3.0902    2.2686    0.1897 O   0  0  0  0  0  0  0  0  0  0  0  0
   -2.2224    1.4247   -0.8911 P   0  0  0  0  0  0  0  0  0  0  0  0
   -3.3956    0.4787   -1.1781 O   0  0  0  0  0  0  0  0  0  0  0  0
   -2.2395    1.8011   -2.5413 O   0  0  0  0  0  0  0  0  0  0  0  0
   -1.1012    0.1694   -0.3633 C   0  0  0  0  0  0  0  0  0  0  0  0
   -0.6206   -0.3625   -1.5795 O   0  0  0  0  0  0  0  0  0  0  0  0
   -1.9003   -1.0030    0.6760 P   0  0  0  0  0  0  0  0  0  0  0  0
   -1.0148   -2.2064    0.4012 O   0  0  0  0  0  0  0  0  0  0  0  0
   -1.4282   -1.0880    2.2794 O   0  0  0  0  0  0  0  0  0  0  0  0
   -3.2901   -1.7455    0.1899 O   0  0  0  0  0  0  0  0  0  0  0  0
    0.1108    0.6700    0.3800 C   0  0  0  0  0  0  0  0  0  0  0  0
    1.1205   -0.3001    0.8115 C   0  0  1  0  0  0  0  0  0  0  0  0
    1.8122   -1.0927   -0.2465 C   0  0  0  0  0  0  0  0  0  0  0  0
    2.8358   -0.2793   -1.0253 C   0  0  0  0  0  0  0  0  0  0  0  0
    3.8741    0.1540   -0.0124 C   0  0  0  0  0  0  0  0  0  0  0  0
    3.1970    1.0385    0.9105 N   0  0  0  0  0  0  0  0  0  0  0  0
    2.1576    0.4251    1.6454 C   0  0  0  0  0  0  0  0  0  0  0  0
   -1.0708   -1.2155   -1.7321 H   0  0  0  0  0  0  0  0  0  0  0  0
   -0.2480    1.2647    1.2783 H   0  0  0  0  0  0  0  0  0  0  0  0
    0.5878    1.4182   -0.3162 H   0  0  0  0  0  0  0  0  0  0  0  0
    1.2207   -1.6094   -0.9764 H   0  0  0  0  0  0  0  0  0  0  0  0
    3.2567   -0.9702   -1.7905 H   0  0  0  0  0  0  0  0  0  0  0  0
    4.1859   -0.7502    0.5342 H   0  0  0  0  0  0  0  0  0  0  0  0
    1.6109    1.2083    2.2095 H   0  0  0  0  0  0  0  0  0  0  0  0
    3.0234    1.9791    0.5473 H   0  0  0  0  0  0  0  0  0  0  0  0
   -3.6992    2.8477   -0.2778 H   0  0  0  0  0  0  0  0  0  0  0  0
   -1.3702    2.3857   -0.8660 H   0  0  0  0  0  0  0  0  0  0  0  0
   -4.2718    0.7707   -1.4602 H   0  0  0  0  0  0  0  0  0  0  0  0
   -1.6582    1.1390   -2.9328 H   0  0  0  0  0  0  0  0  0  0  0  0
   -2.6821   -0.0859    1.1620 H   0  0  0  0  0  0  0  0  0  0  0  0
   -1.2197   -3.0858    0.7439 H   0  0  0  0  0  0  0  0  0  0  0  0
   -1.9543   -1.7647    2.7136 H   0  0  0  0  0  0  0  0  0  0  0  0
   -3.2676   -2.0170   -0.7236 H   0  0  0  0  0  0  0  0  0  0  0  0
    0.6752   -1.0388    1.5100 H   0  0  0  0  0  0  0  0  0  0  0  0
    2.4221   -1.8771    0.2921 H   0  0  0  0  0  0  0  0  0  0  0  0
    2.3439    0.6043   -1.4811 H   0  0  0  0  0  0  0  0  0  0  0  0
    4.7099    0.7106   -0.4739 H   0  0  0  0  0  0  0  0  0  0  0  0
    2.6004   -0.2662    2.3936 H   0  0  0  0  0  0  0  0  0  0  0  0
  1  2  1  0
  2  3  1  0
  2  4  1  0
  2  5  1  0
  5  6  1  0
  5  7  1  0
  7  8  1  0
  7  9  1  0
  7 10  1  0
  5 11  1  0
 11 12  1  0
 12 13  1  0
 13 14  1  0
 14 15  1  0
 15 16  1  0
 12 17  1  0
 16 17  1  0
 18  6  1  0
 11 19  1  0
 11 20  1  0
 13 21  1  0
 14 22  1  0
 15 23  1  0
 17 24  1  0
 25 16  1  0
  1 26  1  0
  2 27  1  0
  3 28  1  0
  4 29  1  0
  7 30  1  0
  8 31  1  0
  9 32  1  0
 10 33  1  0
 12 34  1  1
 13 35  1  0
 14 36  1  0
 15 37  1  0
 17 38  1  0
M  END
>  <PDBID>  (1) 
5CG5

>  <PDB ID>  (1) 
5CG5

>  <Generic Name>  (1) 
Risedronate

>  <Brand Name>  (1) 
Actonel#Actonel Dr#Actonel Plus Calcium#Actonel Sachet Kit#Apo-risedronate#Atelvia#Auro-risedronate#Dom-risedronate#Jamp-risedronate#Mylan-risedronate#Ntp-risedronate#PHL-risedronate#PMS-risedronate#PMS-risedronate Plus Calcium#Pendo-risedronate#Q-risedronate#Ratio-risedronate#Risedronate#Risedronate Sodium#Risedronate-35#Riva-risedronate#Sandoz Risedronate#Teva-risedronate#Benet

>  <DrugBank ID>  (1) 
DB00884

>  <ATC Codes>  (1) 
M05BB02#M05BA07#M05BB04#M05BB07

>  <Ligand ID>  (1) 
RIS

>  <Target Name>  (1) 
Farnesyl pyrophosphate synthase

>  <UniProt ID>  (1) 
P14324

>  <PDB ID.1>  (1) 
5CG5

>  <Seq. Identity>  (1) 
100%

$$$$
