PDB_DB00990_06
     RDKit          3D

 56 59  0  0  0  0  0  0  0  0999 V2000
   -1.8941    3.1474   -0.0687 C   0  0  0  0  0  0  0  0  0  0  0  0
   -2.3450   -1.3585    0.8061 C   0  0  0  0  0  0  0  0  0  0  0  0
   -5.5184   -0.0980    0.6422 O   0  0  0  0  0  0  0  0  0  0  0  0
   -3.7361   -1.5511    0.1849 C   0  0  0  0  0  0  0  0  0  0  0  0
    5.1232   -1.1150    0.9944 O   0  0  0  0  0  0  0  0  0  0  0  0
   -4.3779   -0.2575   -0.1789 C   0  0  0  0  0  0  0  0  0  0  0  0
   -3.4518    0.8638    0.1342 C   0  0  0  0  0  0  0  0  0  0  0  0
   -2.0742    0.7110   -0.4396 C   0  0  0  0  0  0  0  0  0  0  0  0
   -1.2183    1.8137    0.1986 C   0  0  0  0  0  0  0  0  0  0  0  0
    0.1282    1.8503   -0.4504 C   0  0  0  0  0  0  0  0  0  0  0  0
    0.7697    0.4833   -0.4039 C   0  0  2  0  0  0  0  0  0  0  0  0
   -0.0912   -0.4832    0.4177 C   0  0  1  0  0  0  0  0  0  0  0  0
   -1.4547   -0.6345   -0.1551 C   0  0  1  0  0  0  0  0  0  0  0  0
    0.6257   -1.8059    0.5169 C   0  0  0  0  0  0  0  0  0  0  0  0
    1.9667   -1.6512    1.2008 C   0  0  0  0  0  0  0  0  0  0  0  0
    2.8122   -0.7185    0.4163 C   0  0  1  0  0  0  0  0  0  0  0  0
    2.0686    0.5983    0.2978 C   0  0  1  0  0  0  0  0  0  0  0  0
    3.0884    1.4698   -0.3255 C   0  0  0  0  0  0  0  0  0  0  0  0
    4.3429    1.1097    0.4698 C   0  0  0  0  0  0  0  0  0  0  0  0
    4.0621   -0.2574    1.0856 C   0  0  0  0  0  0  0  0  0  0  0  0
    3.1273   -1.3053   -0.9398 C   0  0  0  0  0  0  0  0  0  0  0  0
   -1.4081   -1.4687   -1.4353 C   0  0  0  0  0  0  0  0  0  0  0  0
   -1.1285    3.9351    0.1812 H   0  0  0  0  0  0  0  0  0  0  0  0
   -2.7156    3.3155    0.6795 H   0  0  0  0  0  0  0  0  0  0  0  0
   -2.2273    3.2600   -1.1039 H   0  0  0  0  0  0  0  0  0  0  0  0
   -2.4780   -0.7723    1.7319 H   0  0  0  0  0  0  0  0  0  0  0  0
   -2.0037   -2.3849    1.0519 H   0  0  0  0  0  0  0  0  0  0  0  0
   -5.3432   -0.5219    1.5292 H   0  0  0  0  0  0  0  0  0  0  0  0
   -4.3187   -2.1150    0.9425 H   0  0  0  0  0  0  0  0  0  0  0  0
   -3.6898   -2.1840   -0.7167 H   0  0  0  0  0  0  0  0  0  0  0  0
    5.3717   -1.4070    0.1039 H   0  0  0  0  0  0  0  0  0  0  0  0
   -4.7580   -0.2209   -1.2151 H   0  0  0  0  0  0  0  0  0  0  0  0
   -3.8806    1.7999   -0.2782 H   0  0  0  0  0  0  0  0  0  0  0  0
   -3.3634    1.0185    1.2267 H   0  0  0  0  0  0  0  0  0  0  0  0
   -2.0451    0.8817   -1.5380 H   0  0  0  0  0  0  0  0  0  0  0  0
   -1.1719    1.6936    1.2911 H   0  0  0  0  0  0  0  0  0  0  0  0
    0.7389    2.6221    0.0724 H   0  0  0  0  0  0  0  0  0  0  0  0
    0.0127    2.2195   -1.4928 H   0  0  0  0  0  0  0  0  0  0  0  0
    0.8576    0.1025   -1.4414 H   0  0  0  0  0  0  0  0  0  0  0  0
   -0.1573   -0.0726    1.4475 H   0  0  0  0  0  0  0  0  0  0  0  0
    0.0294   -2.4941    1.1512 H   0  0  0  0  0  0  0  0  0  0  0  0
    0.7179   -2.3059   -0.4702 H   0  0  0  0  0  0  0  0  0  0  0  0
    2.4162   -2.6745    1.2420 H   0  0  0  0  0  0  0  0  0  0  0  0
    1.7895   -1.2735    2.2183 H   0  0  0  0  0  0  0  0  0  0  0  0
    1.8838    0.9464    1.3327 H   0  0  0  0  0  0  0  0  0  0  0  0
    2.8147    2.5335   -0.1812 H   0  0  0  0  0  0  0  0  0  0  0  0
    3.2490    1.3189   -1.3961 H   0  0  0  0  0  0  0  0  0  0  0  0
    5.2472    1.1206   -0.1357 H   0  0  0  0  0  0  0  0  0  0  0  0
    4.4098    1.8915    1.2786 H   0  0  0  0  0  0  0  0  0  0  0  0
    3.8361   -0.1031    2.1616 H   0  0  0  0  0  0  0  0  0  0  0  0
    3.6070   -2.2861   -0.7684 H   0  0  0  0  0  0  0  0  0  0  0  0
    3.8609   -0.6862   -1.4940 H   0  0  0  0  0  0  0  0  0  0  0  0
    2.2234   -1.4347   -1.5359 H   0  0  0  0  0  0  0  0  0  0  0  0
   -0.5044   -1.3014   -2.0187 H   0  0  0  0  0  0  0  0  0  0  0  0
   -2.3009   -1.2188   -2.0749 H   0  0  0  0  0  0  0  0  0  0  0  0
   -1.5249   -2.5452   -1.1822 H   0  0  0  0  0  0  0  0  0  0  0  0
  2  4  1  0
  3  6  1  0
  4  6  1  0
  6  7  1  0
  7  8  1  0
  1  9  1  0
  8  9  1  0
  9 10  1  0
 10 11  1  0
 11 12  1  0
  2 13  1  0
  8 13  1  0
 12 13  1  0
 12 14  1  0
 14 15  1  0
 15 16  1  0
 11 17  1  0
 16 17  1  0
 17 18  1  0
 18 19  1  0
  5 20  1  0
 16 20  1  0
 19 20  1  0
 16 21  1  6
 13 22  1  6
  1 23  1  0
  1 24  1  0
  1 25  1  0
  2 26  1  0
  2 27  1  0
  3 28  1  0
  4 29  1  0
  4 30  1  0
  5 31  1  0
  6 32  1  0
  7 33  1  0
  7 34  1  0
  8 35  1  0
  9 36  1  0
 10 37  1  0
 10 38  1  0
 11 39  1  6
 12 40  1  1
 14 41  1  0
 14 42  1  0
 15 43  1  0
 15 44  1  0
 17 45  1  1
 18 46  1  0
 18 47  1  0
 19 48  1  0
 19 49  1  0
 20 50  1  0
 21 51  1  0
 21 52  1  0
 21 53  1  0
 22 54  1  0
 22 55  1  0
 22 56  1  0
M  END
>  <PDBID>  (1) 
3S7S

>  <PDB ID>  (1) 
3S7S

>  <Generic Name>  (1) 
Exemestane

>  <Brand Name>  (1) 
Act Exemestane#Apo-exemestane#Aromasin#Exemestane#Gd-exemestane#Med-exemestane#Mylan-exemestane#Teva-exemestane#Exemestance

>  <DrugBank ID>  (1) 
DB00990

>  <ATC Codes>  (1) 
L02BG06

>  <Ligand ID>  (1) 
EXM

>  <Target Name>  (1) 
Aromatase

>  <UniProt ID>  (1) 
P11511

>  <PDB ID.1>  (1) 
3S7S

>  <Seq. Identity>  (1) 
98%

$$$$
