PDB_DB00212_03
     RDKit          3D

220226  0  0  0  0  0  0  0  0999 V2000
   -3.6350   -3.0844    3.1467 O   0  0  0  0  0  0  0  0  0  0  0  0
   -3.6818   -2.6762    1.3767 S   0  0  0  0  0  0  0  0  0  0  0  0
   -2.2644   -3.2170    0.9388 O   0  0  0  0  0  0  0  0  0  0  0  0
   -4.9618   -3.6019    0.9256 C   0  0  0  0  0  0  0  0  0  0  0  0
   -4.6933   -5.0845    1.2380 C   0  0  0  0  0  0  0  0  0  0  0  0
   -6.2259   -3.2431    1.6784 C   0  0  0  0  0  0  0  0  0  0  0  0
   -5.2296   -3.5583   -0.5623 C   0  0  0  0  0  0  0  0  0  0  0  0
   -3.7943   -1.0578    1.4273 C   0  0  0  0  0  0  0  0  0  0  0  0
   -3.8437   -0.1925    0.2079 C   0  0  1  0  0  0  0  0  0  0  0  0
   -3.9708    1.2680    0.5373 C   0  0  0  0  0  0  0  0  0  0  0  0
   -4.0538    2.1886   -0.6211 C   0  0  0  0  0  0  0  0  0  0  0  0
   -4.1790    3.6517   -0.1644 C   0  0  0  0  0  0  0  0  0  0  0  0
   -5.3452    3.8119    0.7528 C   0  0  0  0  0  0  0  0  0  0  0  0
   -6.6301    3.4459    0.0701 C   0  0  0  0  0  0  0  0  0  0  0  0
   -6.5705    2.1895   -0.7334 C   0  0  0  0  0  0  0  0  0  0  0  0
   -5.2993    1.9623   -1.4811 C   0  0  0  0  0  0  0  0  0  0  0  0
   -2.6434   -0.3999   -0.6983 C   0  0  0  0  0  0  0  0  0  0  0  0
   -2.6396   -1.7400   -1.1724 O   0  0  0  0  0  0  0  0  0  0  0  0
   -1.4494   -0.1907    0.0842 N   0  0  0  0  0  0  0  0  0  0  0  0
   -0.2257   -0.0670   -0.6401 C   0  0  1  0  0  0  0  0  0  0  0  0
   -0.1936    1.1990   -1.4094 C   0  0  0  0  0  0  0  0  0  0  0  0
   -0.3141    2.4707   -0.6003 C   0  0  0  0  0  0  0  0  0  0  0  0
   -0.2756    3.6674   -1.5264 C   0  0  0  0  0  0  0  0  0  0  0  0
    1.1313    4.0804   -1.4244 N   0  0  0  0  0  0  0  0  0  0  0  0
    1.4312    3.8445   -0.0175 C   0  0  0  0  0  0  0  0  0  0  0  0
    0.6835    2.7018    0.3699 N   0  0  0  0  0  0  0  0  0  0  0  0
    1.0035   -0.4557    0.1269 C   0  0  0  0  0  0  0  0  0  0  0  0
    1.1532    0.3079    1.2611 O   0  0  0  0  0  0  0  0  0  0  0  0
    2.1533   -0.2940   -0.7468 N   0  0  0  0  0  0  0  0  0  0  0  0
    3.4282   -0.4504   -0.0501 C   0  0  2  0  0  0  0  0  0  0  0  0
    4.2401    0.7575   -0.3614 C   0  0  1  0  0  0  0  0  0  0  0  0
    5.4638    0.8445    0.2922 O   0  0  0  0  0  0  0  0  0  0  0  0
    4.5237    0.9274   -1.8472 C   0  0  2  0  0  0  0  0  0  0  0  0
    5.1496    2.2893   -2.1331 C   0  0  0  0  0  0  0  0  0  0  0  0
    6.4274    2.7072   -1.5584 C   0  0  0  0  0  0  0  0  0  0  0  0
    6.4213    2.2423   -2.9728 C   0  0  0  0  0  0  0  0  0  0  0  0
    3.4615    0.8114   -2.6833 O   0  0  0  0  0  0  0  0  0  0  0  0
    4.0374   -1.7747   -0.2621 C   0  0  0  0  0  0  0  0  0  0  0  0
    5.3503   -1.9654    0.4520 C   0  0  0  0  0  0  0  0  0  0  0  0
    5.2105   -1.8145    1.9517 C   0  0  0  0  0  0  0  0  0  0  0  0
    6.5687   -1.8586    2.6066 C   0  0  0  0  0  0  0  0  0  0  0  0
    7.6382   -2.3913    1.6934 C   0  0  0  0  0  0  0  0  0  0  0  0
    7.1370   -3.6321    0.9662 C   0  0  0  0  0  0  0  0  0  0  0  0
    5.8612   -3.3952    0.2381 C   0  0  0  0  0  0  0  0  0  0  0  0
   -3.6350   -3.0844    3.1467 O   0  0  0  0  0  0  0  0  0  0  0  0
   -3.6818   -2.6762    1.3767 S   0  0  0  0  0  0  0  0  0  0  0  0
   -2.2644   -3.2170    0.9388 O   0  0  0  0  0  0  0  0  0  0  0  0
   -4.9618   -3.6019    0.9256 C   0  0  0  0  0  0  0  0  0  0  0  0
   -4.6933   -5.0845    1.2380 C   0  0  0  0  0  0  0  0  0  0  0  0
   -6.2259   -3.2431    1.6784 C   0  0  0  0  0  0  0  0  0  0  0  0
   -5.2296   -3.5583   -0.5623 C   0  0  0  0  0  0  0  0  0  0  0  0
   -3.7943   -1.0578    1.4273 C   0  0  0  0  0  0  0  0  0  0  0  0
   -3.8437   -0.1925    0.2079 C   0  0  1  0  0  0  0  0  0  0  0  0
   -3.9708    1.2680    0.5373 C   0  0  0  0  0  0  0  0  0  0  0  0
   -4.0538    2.1886   -0.6211 C   0  0  0  0  0  0  0  0  0  0  0  0
   -4.1790    3.6517   -0.1644 C   0  0  0  0  0  0  0  0  0  0  0  0
   -5.3452    3.8119    0.7528 C   0  0  0  0  0  0  0  0  0  0  0  0
   -6.6301    3.4459    0.0701 C   0  0  0  0  0  0  0  0  0  0  0  0
   -6.5705    2.1895   -0.7334 C   0  0  0  0  0  0  0  0  0  0  0  0
   -5.2993    1.9623   -1.4811 C   0  0  0  0  0  0  0  0  0  0  0  0
   -2.6434   -0.3999   -0.6983 C   0  0  0  0  0  0  0  0  0  0  0  0
   -2.6396   -1.7400   -1.1724 O   0  0  0  0  0  0  0  0  0  0  0  0
   -1.4494   -0.1907    0.0842 N   0  0  0  0  0  0  0  0  0  0  0  0
   -0.2257   -0.0670   -0.6401 C   0  0  1  0  0  0  0  0  0  0  0  0
   -0.1936    1.1990   -1.4094 C   0  0  0  0  0  0  0  0  0  0  0  0
   -0.3141    2.4707   -0.6003 C   0  0  0  0  0  0  0  0  0  0  0  0
   -0.2756    3.6674   -1.5264 C   0  0  0  0  0  0  0  0  0  0  0  0
    1.1313    4.0804   -1.4244 N   0  0  0  0  0  0  0  0  0  0  0  0
    1.4312    3.8445   -0.0175 C   0  0  0  0  0  0  0  0  0  0  0  0
    0.6835    2.7018    0.3699 N   0  0  0  0  0  0  0  0  0  0  0  0
    1.0035   -0.4557    0.1269 C   0  0  0  0  0  0  0  0  0  0  0  0
    1.1532    0.3079    1.2611 O   0  0  0  0  0  0  0  0  0  0  0  0
    2.1533   -0.2940   -0.7468 N   0  0  0  0  0  0  0  0  0  0  0  0
    3.4282   -0.4504   -0.0501 C   0  0  2  0  0  0  0  0  0  0  0  0
    4.2401    0.7575   -0.3614 C   0  0  1  0  0  0  0  0  0  0  0  0
    5.4638    0.8445    0.2922 O   0  0  0  0  0  0  0  0  0  0  0  0
    4.5237    0.9274   -1.8472 C   0  0  2  0  0  0  0  0  0  0  0  0
    5.1496    2.2893   -2.1331 C   0  0  0  0  0  0  0  0  0  0  0  0
    6.4274    2.7072   -1.5584 C   0  0  0  0  0  0  0  0  0  0  0  0
    6.4213    2.2423   -2.9728 C   0  0  0  0  0  0  0  0  0  0  0  0
    3.4615    0.8114   -2.6833 O   0  0  0  0  0  0  0  0  0  0  0  0
    4.0374   -1.7747   -0.2621 C   0  0  0  0  0  0  0  0  0  0  0  0
    5.3503   -1.9654    0.4520 C   0  0  0  0  0  0  0  0  0  0  0  0
    5.2105   -1.8145    1.9517 C   0  0  0  0  0  0  0  0  0  0  0  0
    6.5687   -1.8586    2.6066 C   0  0  0  0  0  0  0  0  0  0  0  0
    7.6382   -2.3913    1.6934 C   0  0  0  0  0  0  0  0  0  0  0  0
    7.1370   -3.6321    0.9662 C   0  0  0  0  0  0  0  0  0  0  0  0
    5.8612   -3.3952    0.2381 C   0  0  0  0  0  0  0  0  0  0  0  0
   -4.4582   -2.5849    3.4501 H   0  0  0  0  0  0  0  0  0  0  0  0
   -2.2980   -4.0252    0.3896 H   0  0  0  0  0  0  0  0  0  0  0  0
   -4.9216   -5.7330    0.3965 H   0  0  0  0  0  0  0  0  0  0  0  0
   -5.2218   -5.3687    2.1728 H   0  0  0  0  0  0  0  0  0  0  0  0
   -3.6133   -5.1683    1.4724 H   0  0  0  0  0  0  0  0  0  0  0  0
   -6.4303   -4.0017    2.4975 H   0  0  0  0  0  0  0  0  0  0  0  0
   -6.1470   -2.2898    2.2069 H   0  0  0  0  0  0  0  0  0  0  0  0
   -7.0871   -3.3420    0.9943 H   0  0  0  0  0  0  0  0  0  0  0  0
   -6.0100   -4.2985   -0.8668 H   0  0  0  0  0  0  0  0  0  0  0  0
   -4.3192   -3.8900   -1.1282 H   0  0  0  0  0  0  0  0  0  0  0  0
   -5.6295   -2.5841   -0.9020 H   0  0  0  0  0  0  0  0  0  0  0  0
   -4.6862   -0.7203    2.0551 H   0  0  0  0  0  0  0  0  0  0  0  0
   -2.9359   -0.6252    2.0444 H   0  0  0  0  0  0  0  0  0  0  0  0
   -4.7229   -0.4229   -0.4440 H   0  0  0  0  0  0  0  0  0  0  0  0
   -4.9696    1.3705    1.0844 H   0  0  0  0  0  0  0  0  0  0  0  0
   -3.1660    1.6494    1.2191 H   0  0  0  0  0  0  0  0  0  0  0  0
   -3.2136    2.1675   -1.3164 H   0  0  0  0  0  0  0  0  0  0  0  0
   -3.2444    4.0626    0.2188 H   0  0  0  0  0  0  0  0  0  0  0  0
   -4.4209    4.2088   -1.1078 H   0  0  0  0  0  0  0  0  0  0  0  0
   -5.2247    3.2690    1.7164 H   0  0  0  0  0  0  0  0  0  0  0  0
   -5.4222    4.9053    0.9993 H   0  0  0  0  0  0  0  0  0  0  0  0
   -7.3709    3.2608    0.9034 H   0  0  0  0  0  0  0  0  0  0  0  0
   -7.0688    4.3123   -0.4830 H   0  0  0  0  0  0  0  0  0  0  0  0
   -7.3816    2.2530   -1.5147 H   0  0  0  0  0  0  0  0  0  0  0  0
   -6.8422    1.3120   -0.1139 H   0  0  0  0  0  0  0  0  0  0  0  0
   -5.3229    0.9128   -1.8702 H   0  0  0  0  0  0  0  0  0  0  0  0
   -5.2179    2.6834   -2.3148 H   0  0  0  0  0  0  0  0  0  0  0  0
   -2.7002    0.2796   -1.5264 H   0  0  0  0  0  0  0  0  0  0  0  0
   -2.1244   -1.7569   -2.0161 H   0  0  0  0  0  0  0  0  0  0  0  0
   -1.5587    0.5001    0.8445 H   0  0  0  0  0  0  0  0  0  0  0  0
   -0.3224   -0.9417   -1.4394 H   0  0  0  0  0  0  0  0  0  0  0  0
   -1.1040    1.2181   -2.0922 H   0  0  0  0  0  0  0  0  0  0  0  0
    0.6376    1.3014   -2.1463 H   0  0  0  0  0  0  0  0  0  0  0  0
   -1.2914    2.4451   -0.0365 H   0  0  0  0  0  0  0  0  0  0  0  0
   -0.5283    3.4070   -2.5776 H   0  0  0  0  0  0  0  0  0  0  0  0
   -0.8965    4.4587   -1.1009 H   0  0  0  0  0  0  0  0  0  0  0  0
    1.6511    3.3193   -1.9437 H   0  0  0  0  0  0  0  0  0  0  0  0
    1.1395    4.7303    0.6196 H   0  0  0  0  0  0  0  0  0  0  0  0
    2.4959    3.6778    0.1840 H   0  0  0  0  0  0  0  0  0  0  0  0
    0.3090    2.8548    1.3439 H   0  0  0  0  0  0  0  0  0  0  0  0
    0.9108   -1.5119    0.4796 H   0  0  0  0  0  0  0  0  0  0  0  0
    0.7932   -0.1103    2.0733 H   0  0  0  0  0  0  0  0  0  0  0  0
    2.0757    0.7438   -1.0170 H   0  0  0  0  0  0  0  0  0  0  0  0
    3.1415   -0.3711    1.0333 H   0  0  0  0  0  0  0  0  0  0  0  0
    3.6473    1.6402   -0.0648 H   0  0  0  0  0  0  0  0  0  0  0  0
    5.4400    1.5309    0.9970 H   0  0  0  0  0  0  0  0  0  0  0  0
    5.2710    0.1426   -2.1046 H   0  0  0  0  0  0  0  0  0  0  0  0
    4.4004    3.0549   -2.4811 H   0  0  0  0  0  0  0  0  0  0  0  0
    6.5572    3.8129   -1.4312 H   0  0  0  0  0  0  0  0  0  0  0  0
    6.9799    2.1079   -0.8477 H   0  0  0  0  0  0  0  0  0  0  0  0
    6.5424    2.9812   -3.7860 H   0  0  0  0  0  0  0  0  0  0  0  0
    6.8900    1.2817   -3.1808 H   0  0  0  0  0  0  0  0  0  0  0  0
    3.3889   -0.0401   -3.1872 H   0  0  0  0  0  0  0  0  0  0  0  0
    4.2085   -2.0484   -1.3246 H   0  0  0  0  0  0  0  0  0  0  0  0
    3.3509   -2.5360    0.1755 H   0  0  0  0  0  0  0  0  0  0  0  0
    6.1464   -1.2711    0.1241 H   0  0  0  0  0  0  0  0  0  0  0  0
    4.6781   -0.8855    2.2513 H   0  0  0  0  0  0  0  0  0  0  0  0
    4.6439   -2.7192    2.3116 H   0  0  0  0  0  0  0  0  0  0  0  0
    6.9144   -0.8734    2.9775 H   0  0  0  0  0  0  0  0  0  0  0  0
    6.5509   -2.5424    3.5060 H   0  0  0  0  0  0  0  0  0  0  0  0
    8.0149   -1.6387    0.9660 H   0  0  0  0  0  0  0  0  0  0  0  0
    8.5303   -2.7200    2.2708 H   0  0  0  0  0  0  0  0  0  0  0  0
    7.1001   -4.4477    1.7194 H   0  0  0  0  0  0  0  0  0  0  0  0
    7.9776   -3.9120    0.2655 H   0  0  0  0  0  0  0  0  0  0  0  0
    6.0396   -3.5964   -0.8392 H   0  0  0  0  0  0  0  0  0  0  0  0
    5.0907   -4.1026    0.5654 H   0  0  0  0  0  0  0  0  0  0  0  0
   -4.4582   -2.5849    3.4501 H   0  0  0  0  0  0  0  0  0  0  0  0
   -2.2980   -4.0252    0.3896 H   0  0  0  0  0  0  0  0  0  0  0  0
   -4.9216   -5.7330    0.3965 H   0  0  0  0  0  0  0  0  0  0  0  0
   -5.2218   -5.3687    2.1728 H   0  0  0  0  0  0  0  0  0  0  0  0
   -3.6133   -5.1683    1.4724 H   0  0  0  0  0  0  0  0  0  0  0  0
   -6.4303   -4.0017    2.4975 H   0  0  0  0  0  0  0  0  0  0  0  0
   -6.1470   -2.2898    2.2069 H   0  0  0  0  0  0  0  0  0  0  0  0
   -7.0871   -3.3420    0.9943 H   0  0  0  0  0  0  0  0  0  0  0  0
   -6.0100   -4.2985   -0.8668 H   0  0  0  0  0  0  0  0  0  0  0  0
   -4.3192   -3.8900   -1.1282 H   0  0  0  0  0  0  0  0  0  0  0  0
   -5.6295   -2.5841   -0.9020 H   0  0  0  0  0  0  0  0  0  0  0  0
   -4.6862   -0.7203    2.0551 H   0  0  0  0  0  0  0  0  0  0  0  0
   -2.9359   -0.6252    2.0444 H   0  0  0  0  0  0  0  0  0  0  0  0
   -4.7229   -0.4229   -0.4440 H   0  0  0  0  0  0  0  0  0  0  0  0
   -4.9696    1.3705    1.0844 H   0  0  0  0  0  0  0  0  0  0  0  0
   -3.1660    1.6494    1.2191 H   0  0  0  0  0  0  0  0  0  0  0  0
   -3.2136    2.1675   -1.3164 H   0  0  0  0  0  0  0  0  0  0  0  0
   -3.2444    4.0626    0.2188 H   0  0  0  0  0  0  0  0  0  0  0  0
   -4.4209    4.2088   -1.1078 H   0  0  0  0  0  0  0  0  0  0  0  0
   -5.2247    3.2690    1.7164 H   0  0  0  0  0  0  0  0  0  0  0  0
   -5.4222    4.9053    0.9993 H   0  0  0  0  0  0  0  0  0  0  0  0
   -7.3709    3.2608    0.9034 H   0  0  0  0  0  0  0  0  0  0  0  0
   -7.0688    4.3123   -0.4830 H   0  0  0  0  0  0  0  0  0  0  0  0
   -7.3816    2.2530   -1.5147 H   0  0  0  0  0  0  0  0  0  0  0  0
   -6.8422    1.3120   -0.1139 H   0  0  0  0  0  0  0  0  0  0  0  0
   -5.3229    0.9128   -1.8702 H   0  0  0  0  0  0  0  0  0  0  0  0
   -5.2179    2.6834   -2.3148 H   0  0  0  0  0  0  0  0  0  0  0  0
   -2.7002    0.2796   -1.5264 H   0  0  0  0  0  0  0  0  0  0  0  0
   -2.1244   -1.7569   -2.0161 H   0  0  0  0  0  0  0  0  0  0  0  0
   -1.5587    0.5001    0.8445 H   0  0  0  0  0  0  0  0  0  0  0  0
   -0.3224   -0.9417   -1.4394 H   0  0  0  0  0  0  0  0  0  0  0  0
   -1.1040    1.2181   -2.0922 H   0  0  0  0  0  0  0  0  0  0  0  0
    0.6376    1.3014   -2.1463 H   0  0  0  0  0  0  0  0  0  0  0  0
   -1.2914    2.4451   -0.0365 H   0  0  0  0  0  0  0  0  0  0  0  0
   -0.5283    3.4070   -2.5776 H   0  0  0  0  0  0  0  0  0  0  0  0
   -0.8965    4.4587   -1.1009 H   0  0  0  0  0  0  0  0  0  0  0  0
    1.6511    3.3193   -1.9437 H   0  0  0  0  0  0  0  0  0  0  0  0
    1.1395    4.7303    0.6196 H   0  0  0  0  0  0  0  0  0  0  0  0
    2.4959    3.6778    0.1840 H   0  0  0  0  0  0  0  0  0  0  0  0
    0.3090    2.8548    1.3439 H   0  0  0  0  0  0  0  0  0  0  0  0
    0.9108   -1.5119    0.4796 H   0  0  0  0  0  0  0  0  0  0  0  0
    0.7932   -0.1103    2.0733 H   0  0  0  0  0  0  0  0  0  0  0  0
    2.0757    0.7438   -1.0170 H   0  0  0  0  0  0  0  0  0  0  0  0
    3.1415   -0.3711    1.0333 H   0  0  0  0  0  0  0  0  0  0  0  0
    3.6473    1.6402   -0.0648 H   0  0  0  0  0  0  0  0  0  0  0  0
    5.4400    1.5309    0.9970 H   0  0  0  0  0  0  0  0  0  0  0  0
    5.2710    0.1426   -2.1046 H   0  0  0  0  0  0  0  0  0  0  0  0
    4.4004    3.0549   -2.4811 H   0  0  0  0  0  0  0  0  0  0  0  0
    6.5572    3.8129   -1.4312 H   0  0  0  0  0  0  0  0  0  0  0  0
    6.9799    2.1079   -0.8477 H   0  0  0  0  0  0  0  0  0  0  0  0
    6.5424    2.9812   -3.7860 H   0  0  0  0  0  0  0  0  0  0  0  0
    6.8900    1.2817   -3.1808 H   0  0  0  0  0  0  0  0  0  0  0  0
    3.3889   -0.0401   -3.1872 H   0  0  0  0  0  0  0  0  0  0  0  0
    4.2085   -2.0484   -1.3246 H   0  0  0  0  0  0  0  0  0  0  0  0
    3.3509   -2.5360    0.1755 H   0  0  0  0  0  0  0  0  0  0  0  0
    6.1464   -1.2711    0.1241 H   0  0  0  0  0  0  0  0  0  0  0  0
    4.6781   -0.8855    2.2513 H   0  0  0  0  0  0  0  0  0  0  0  0
    4.6439   -2.7192    2.3116 H   0  0  0  0  0  0  0  0  0  0  0  0
    6.9144   -0.8734    2.9775 H   0  0  0  0  0  0  0  0  0  0  0  0
    6.5509   -2.5424    3.5060 H   0  0  0  0  0  0  0  0  0  0  0  0
    8.0149   -1.6387    0.9660 H   0  0  0  0  0  0  0  0  0  0  0  0
    8.5303   -2.7200    2.2708 H   0  0  0  0  0  0  0  0  0  0  0  0
    7.1001   -4.4477    1.7194 H   0  0  0  0  0  0  0  0  0  0  0  0
    7.9776   -3.9120    0.2655 H   0  0  0  0  0  0  0  0  0  0  0  0
    6.0396   -3.5964   -0.8392 H   0  0  0  0  0  0  0  0  0  0  0  0
    5.0907   -4.1026    0.5654 H   0  0  0  0  0  0  0  0  0  0  0  0
  2  1  1  0
  2  3  1  0
  2  4  1  0
  4  5  1  0
  4  6  1  0
  4  7  1  0
  2  8  1  0
  8  9  1  0
  9 10  1  0
 10 11  1  0
 11 12  1  0
 12 13  1  0
 13 14  1  0
 14 15  1  0
 11 16  1  0
 15 16  1  0
  9 17  1  0
 17 18  1  0
 17 19  1  0
 19 20  1  0
 20 21  1  0
 21 22  1  0
 22 23  1  0
 23 24  1  0
 24 25  1  0
 22 26  1  0
 25 26  1  0
 20 27  1  0
 27 28  1  0
 27 29  1  0
 29 30  1  0
 30 31  1  0
 31 32  1  0
 31 33  1  0
 33 34  1  0
 34 35  1  0
 34 36  1  0
 35 36  1  0
 33 37  1  0
 30 38  1  0
 38 39  1  0
 39 40  1  0
 40 41  1  0
 41 42  1  0
 42 43  1  0
 39 44  1  0
 43 44  1  0
 46 45  1  0
 46 47  1  0
 46 48  1  0
 48 49  1  0
 48 50  1  0
 48 51  1  0
 46 52  1  0
 52 53  1  0
 53 54  1  0
 54 55  1  0
 55 56  1  0
 56 57  1  0
 57 58  1  0
 58 59  1  0
 55 60  1  0
 59 60  1  0
 53 61  1  0
 61 62  1  0
 61 63  1  0
 63 64  1  0
 64 65  1  0
 65 66  1  0
 66 67  1  0
 67 68  1  0
 68 69  1  0
 66 70  1  0
 69 70  1  0
 64 71  1  0
 71 72  1  0
 71 73  1  0
 73 74  1  0
 74 75  1  0
 75 76  1  0
 75 77  1  0
 77 78  1  0
 78 79  1  0
 78 80  1  0
 79 80  1  0
 77 81  1  0
 74 82  1  0
 82 83  1  0
 83 84  1  0
 84 85  1  0
 85 86  1  0
 86 87  1  0
 83 88  1  0
 87 88  1  0
  1 89  1  0
  3 90  1  0
  5 91  1  0
  5 92  1  0
  5 93  1  0
  6 94  1  0
  6 95  1  0
  6 96  1  0
  7 97  1  0
  7 98  1  0
  7 99  1  0
  8100  1  0
  8101  1  0
  9102  1  6
 10103  1  0
 10104  1  0
 11105  1  0
 12106  1  0
 12107  1  0
 13108  1  0
 13109  1  0
 14110  1  0
 14111  1  0
 15112  1  0
 15113  1  0
 16114  1  0
 16115  1  0
 17116  1  0
 18117  1  0
 19118  1  0
 20119  1  6
 21120  1  0
 21121  1  0
 22122  1  0
 23123  1  0
 23124  1  0
 24125  1  0
 25126  1  0
 25127  1  0
 26128  1  0
 27129  1  0
 28130  1  0
 29131  1  0
 30132  1  1
 31133  1  1
 32134  1  0
 33135  1  6
 34136  1  0
 35137  1  0
 35138  1  0
 36139  1  0
 36140  1  0
 37141  1  0
 38142  1  0
 38143  1  0
 39144  1  0
 40145  1  0
 40146  1  0
 41147  1  0
 41148  1  0
 42149  1  0
 42150  1  0
 43151  1  0
 43152  1  0
 44153  1  0
 44154  1  0
 45155  1  0
 47156  1  0
 49157  1  0
 49158  1  0
 49159  1  0
 50160  1  0
 50161  1  0
 50162  1  0
 51163  1  0
 51164  1  0
 51165  1  0
 52166  1  0
 52167  1  0
 53168  1  6
 54169  1  0
 54170  1  0
 55171  1  0
 56172  1  0
 56173  1  0
 57174  1  0
 57175  1  0
 58176  1  0
 58177  1  0
 59178  1  0
 59179  1  0
 60180  1  0
 60181  1  0
 61182  1  0
 62183  1  0
 63184  1  0
 64185  1  6
 65186  1  0
 65187  1  0
 66188  1  0
 67189  1  0
 67190  1  0
 68191  1  0
 69192  1  0
 69193  1  0
 70194  1  0
 71195  1  0
 72196  1  0
 73197  1  0
 74198  1  1
 75199  1  1
 76200  1  0
 77201  1  6
 78202  1  0
 79203  1  0
 79204  1  0
 80205  1  0
 80206  1  0
 81207  1  0
 82208  1  0
 82209  1  0
 83210  1  0
 84211  1  0
 84212  1  0
 85213  1  0
 85214  1  0
 86215  1  0
 86216  1  0
 87217  1  0
 87218  1  0
 88219  1  0
 88220  1  0
M  END
>  <PDBID>  (1) 
3D91

>  <PDB ID>  (1) 
3D91

>  <Generic Name>  (1) 
Remikiren

>  <Brand Name>  (1) 
nan

>  <DrugBank ID>  (1) 
DB00212

>  <ATC Codes>  (1) 
C09XA01

>  <Ligand ID>  (1) 
REM

>  <Target Name>  (1) 
Renin

>  <UniProt ID>  (1) 
P00797

>  <PDB ID.1>  (1) 
3D91

>  <Seq. Identity>  (1) 
100%

$$$$
