PDB_DB08873_02
     RDKit          3D

 91 93  0  0  0  0  0  0  0  0999 V2000
    4.1466    0.8800    0.0409 C   0  0  0  0  0  0  0  0  0  0  0  0
    4.3449    1.9360   -0.8797 O   0  0  0  0  0  0  0  0  0  0  0  0
    4.6444    1.4366    1.3116 N   0  0  0  0  0  0  0  0  0  0  0  0
    6.0487    1.7086    1.1632 C   0  0  0  0  0  0  0  0  0  0  0  0
    6.3841    2.7319    0.1248 C   0  0  0  0  0  0  0  0  0  0  0  0
    6.8178    0.4308    0.8026 C   0  0  0  0  0  0  0  0  0  0  0  0
    6.6291    2.2192    2.4888 C   0  0  0  0  0  0  0  0  0  0  0  0
    2.7928    0.4947    0.1584 N   0  0  0  0  0  0  0  0  0  0  0  0
    2.0609    0.0100   -0.9506 C   0  0  1  0  0  0  0  0  0  0  0  0
    2.5308   -1.2414   -1.5097 C   0  0  0  0  0  0  0  0  0  0  0  0
    2.5723   -2.3751   -0.4796 C   0  0  0  0  0  0  0  0  0  0  0  0
    3.8723   -1.1679   -2.1661 C   0  0  0  0  0  0  0  0  0  0  0  0
    1.6040   -1.8018   -2.6082 C   0  0  0  0  0  0  0  0  0  0  0  0
    0.5992    0.2102   -0.6668 C   0  0  1  0  0  0  0  0  0  0  0  0
   -0.0699   -0.2072   -1.8204 O   0  0  0  0  0  0  0  0  0  0  0  0
    0.0448   -0.3875    0.4822 N   0  0  0  0  0  0  0  0  0  0  0  0
    0.5171   -0.0482    1.7525 C   0  0  0  0  0  0  0  0  0  0  0  0
   -1.3666   -0.4200    0.5677 C   0  0  1  0  0  0  0  0  0  0  0  0
   -1.6080   -1.0060    1.9711 C   0  0  2  0  0  0  0  0  0  0  0  0
   -0.3031   -0.8840    2.7081 C   0  0  1  0  0  0  0  0  0  0  0  0
   -0.8403   -2.2105    2.3177 C   0  0  0  0  0  0  0  0  0  0  0  0
   -0.1927   -3.0989    1.2988 C   0  0  0  0  0  0  0  0  0  0  0  0
   -1.4590   -3.0157    3.4661 C   0  0  0  0  0  0  0  0  0  0  0  0
   -2.0741    0.9440    0.5599 C   0  0  0  0  0  0  0  0  0  0  0  0
   -1.7663    1.5756   -0.6101 O   0  0  0  0  0  0  0  0  0  0  0  0
   -3.4283    0.7578    0.8839 N   0  0  0  0  0  0  0  0  0  0  0  0
   -4.3277    0.0846    0.0641 C   0  0  1  0  0  0  0  0  0  0  0  0
   -4.6399    0.8308   -1.1999 C   0  0  0  0  0  0  0  0  0  0  0  0
   -5.3294    2.1474   -0.9817 C   0  0  0  0  0  0  0  0  0  0  0  0
   -5.6398    2.8473   -2.3191 C   0  0  0  0  0  0  0  0  0  0  0  0
   -4.5825    3.3627   -0.5989 C   0  0  0  0  0  0  0  0  0  0  0  0
   -5.4867    4.1861   -1.5673 C   0  0  0  0  0  0  0  0  0  0  0  0
   -4.4462   -2.1164    1.0792 O   0  0  0  0  0  0  0  0  0  0  0  0
   -4.2420   -1.3933   -0.0619 C   0  0  0  0  0  0  0  0  0  0  0  0
   -6.1823   -2.2595   -1.2190 O   0  0  0  0  0  0  0  0  0  0  0  0
   -4.1790   -3.3519   -1.3835 N   0  0  0  0  0  0  0  0  0  0  0  0
   -4.8248   -2.0241   -1.2664 C   0  0  0  0  0  0  0  0  0  0  0  0
    4.7951    0.0458   -0.1848 H   0  0  0  0  0  0  0  0  0  0  0  0
    3.5495    2.4916   -0.9661 H   0  0  0  0  0  0  0  0  0  0  0  0
    4.5204    0.7924    2.0998 H   0  0  0  0  0  0  0  0  0  0  0  0
    6.6287    2.2871   -0.8814 H   0  0  0  0  0  0  0  0  0  0  0  0
    7.3678    3.2037    0.4298 H   0  0  0  0  0  0  0  0  0  0  0  0
    5.6879    3.5799    0.0590 H   0  0  0  0  0  0  0  0  0  0  0  0
    7.8797    0.5655    1.0984 H   0  0  0  0  0  0  0  0  0  0  0  0
    6.8129    0.2957   -0.2988 H   0  0  0  0  0  0  0  0  0  0  0  0
    6.3130   -0.3843    1.3455 H   0  0  0  0  0  0  0  0  0  0  0  0
    6.4630    3.3170    2.5562 H   0  0  0  0  0  0  0  0  0  0  0  0
    6.1677    1.6927    3.3452 H   0  0  0  0  0  0  0  0  0  0  0  0
    7.7252    2.0809    2.4466 H   0  0  0  0  0  0  0  0  0  0  0  0
    2.3034    1.3609    0.5908 H   0  0  0  0  0  0  0  0  0  0  0  0
    2.2512    0.8130   -1.7768 H   0  0  0  0  0  0  0  0  0  0  0  0
    2.3845   -1.9753    0.5358 H   0  0  0  0  0  0  0  0  0  0  0  0
    1.8893   -3.1874   -0.7005 H   0  0  0  0  0  0  0  0  0  0  0  0
    3.5891   -2.8200   -0.4299 H   0  0  0  0  0  0  0  0  0  0  0  0
    4.6817   -1.7159   -1.6237 H   0  0  0  0  0  0  0  0  0  0  0  0
    3.8598   -1.7399   -3.1668 H   0  0  0  0  0  0  0  0  0  0  0  0
    4.2266   -0.1858   -2.4551 H   0  0  0  0  0  0  0  0  0  0  0  0
    1.4064   -1.0527   -3.3888 H   0  0  0  0  0  0  0  0  0  0  0  0
    2.2414   -2.5914   -3.1130 H   0  0  0  0  0  0  0  0  0  0  0  0
    0.7572   -2.3539   -2.2153 H   0  0  0  0  0  0  0  0  0  0  0  0
    0.4751    1.3084   -0.6058 H   0  0  0  0  0  0  0  0  0  0  0  0
   -0.8584   -0.7282   -1.7105 H   0  0  0  0  0  0  0  0  0  0  0  0
    1.5726   -0.3035    2.0000 H   0  0  0  0  0  0  0  0  0  0  0  0
    0.3753    1.0063    2.0608 H   0  0  0  0  0  0  0  0  0  0  0  0
   -1.8664   -1.1281   -0.1005 H   0  0  0  0  0  0  0  0  0  0  0  0
   -2.5493   -0.7376    2.4920 H   0  0  0  0  0  0  0  0  0  0  0  0
   -0.3674   -0.5464    3.7718 H   0  0  0  0  0  0  0  0  0  0  0  0
   -0.7416   -4.0883    1.2190 H   0  0  0  0  0  0  0  0  0  0  0  0
    0.8370   -3.4182    1.6127 H   0  0  0  0  0  0  0  0  0  0  0  0
   -0.2378   -2.6947    0.2723 H   0  0  0  0  0  0  0  0  0  0  0  0
   -0.6666   -3.5937    3.9998 H   0  0  0  0  0  0  0  0  0  0  0  0
   -2.0764   -2.3984    4.1182 H   0  0  0  0  0  0  0  0  0  0  0  0
   -2.1092   -3.7759    2.9853 H   0  0  0  0  0  0  0  0  0  0  0  0
   -1.6309    1.5879    1.3802 H   0  0  0  0  0  0  0  0  0  0  0  0
   -1.4792    2.5205   -0.4874 H   0  0  0  0  0  0  0  0  0  0  0  0
   -3.6921    0.8265    1.8807 H   0  0  0  0  0  0  0  0  0  0  0  0
   -5.3515    0.2027    0.6481 H   0  0  0  0  0  0  0  0  0  0  0  0
   -3.7167    1.0603   -1.8046 H   0  0  0  0  0  0  0  0  0  0  0  0
   -5.2906    0.2591   -1.8953 H   0  0  0  0  0  0  0  0  0  0  0  0
   -6.2562    2.0694   -0.3448 H   0  0  0  0  0  0  0  0  0  0  0  0
   -6.6412    2.6587   -2.7070 H   0  0  0  0  0  0  0  0  0  0  0  0
   -4.8204    2.7526   -3.0355 H   0  0  0  0  0  0  0  0  0  0  0  0
   -4.8206    3.7559    0.4303 H   0  0  0  0  0  0  0  0  0  0  0  0
   -3.5390    3.5003   -0.8695 H   0  0  0  0  0  0  0  0  0  0  0  0
   -4.9430    4.9596   -2.1025 H   0  0  0  0  0  0  0  0  0  0  0  0
   -6.4308    4.5054   -1.1240 H   0  0  0  0  0  0  0  0  0  0  0  0
   -5.3749   -2.4582    1.1350 H   0  0  0  0  0  0  0  0  0  0  0  0
   -6.6438   -2.1943   -2.0840 H   0  0  0  0  0  0  0  0  0  0  0  0
   -4.0880   -3.6443   -2.3769 H   0  0  0  0  0  0  0  0  0  0  0  0
   -4.6942   -4.0438   -0.7914 H   0  0  0  0  0  0  0  0  0  0  0  0
   -4.4961   -1.5245   -2.2255 H   0  0  0  0  0  0  0  0  0  0  0  0
  1  2  1  0
  1  3  1  0
  4  3  1  0
  4  5  1  0
  4  6  1  0
  4  7  1  0
  1  8  1  0
  8  9  1  0
  9 10  1  0
 10 11  1  0
 10 12  1  0
 10 13  1  0
  9 14  1  0
 14 15  1  0
 14 16  1  0
 16 17  1  0
 16 18  1  0
 18 19  1  0
 17 20  1  0
 19 20  1  0
 19 21  1  0
 20 21  1  0
 21 22  1  0
 21 23  1  0
 18 24  1  0
 24 25  1  0
 24 26  1  0
 26 27  1  0
 27 28  1  0
 28 29  1  0
 29 30  1  0
 29 31  1  0
 30 32  1  0
 31 32  1  0
 27 34  1  0
 34 33  1  0
 34 37  1  0
 35 37  1  0
 36 37  1  0
  1 38  1  0
  2 39  1  0
  3 40  1  0
  5 41  1  0
  5 42  1  0
  5 43  1  0
  6 44  1  0
  6 45  1  0
  6 46  1  0
  7 47  1  0
  7 48  1  0
  7 49  1  0
  8 50  1  0
  9 51  1  6
 11 52  1  0
 11 53  1  0
 11 54  1  0
 12 55  1  0
 12 56  1  0
 12 57  1  0
 13 58  1  0
 13 59  1  0
 13 60  1  0
 14 61  1  1
 15 62  1  0
 17 63  1  0
 17 64  1  0
 18 65  1  6
 19 66  1  1
 20 67  1  1
 22 68  1  0
 22 69  1  0
 22 70  1  0
 23 71  1  0
 23 72  1  0
 23 73  1  0
 24 74  1  0
 25 75  1  0
 26 76  1  0
 27 77  1  1
 28 78  1  0
 28 79  1  0
 29 80  1  0
 30 81  1  0
 30 82  1  0
 31 83  1  0
 31 84  1  0
 32 85  1  0
 32 86  1  0
 33 87  1  0
 35 88  1  0
 36 89  1  0
 36 90  1  0
 37 91  1  0
M  END
>  <PDBID>  (1) 
2OC8

>  <PDB ID>  (1) 
2OC8

>  <Generic Name>  (1) 
Boceprevir

>  <Brand Name>  (1) 
Victrelis#Victrelis Triple

>  <DrugBank ID>  (1) 
DB08873

>  <ATC Codes>  (1) 
J05AE12

>  <Ligand ID>  (1) 
HU5

>  <Target Name>  (1) 
Genome polyprotein

>  <UniProt ID>  (1) 
B0B3C9

>  <PDB ID.1>  (1) 
2OC8

>  <Seq. Identity>  (1) 
69%

$$$$
