PDB_DB09078_08
     RDKit          3D

 69 72  0  0  0  0  0  0  0  0999 V2000
   -7.0072    1.2473    0.1959 C   0  0  0  0  0  0  0  0  0  0  0  0
   -5.6378    1.1633    0.1863 O   0  0  0  0  0  0  0  0  0  0  0  0
   -5.1170   -0.0779    0.4892 C   0  0  0  0  0  0  0  0  0  0  0  0
   -4.2595   -0.0116    1.7531 C   0  0  0  0  0  0  0  0  0  0  0  0
   -3.0703    0.8939    1.5490 C   0  0  0  0  0  0  0  0  0  0  0  0
   -3.4328    2.2490    1.2076 N   0  0  0  0  0  0  0  0  0  0  0  0
   -2.1998    3.0155    1.2071 C   0  0  0  0  0  0  0  0  0  0  0  0
   -1.2090    2.5275    0.2082 C   0  0  0  0  0  0  0  0  0  0  0  0
   -0.9201    1.0657    0.2501 C   0  0  2  0  0  0  0  0  0  0  0  0
   -2.2583    0.3439    0.4020 C   0  0  0  0  0  0  0  0  0  0  0  0
   -3.0881    0.4585   -0.8592 C   0  0  0  0  0  0  0  0  0  0  0  0
   -4.2461   -0.5258   -0.6626 C   0  0  2  0  0  0  0  0  0  0  0  0
   -5.0685   -0.5148   -1.9234 C   0  0  2  0  0  0  0  0  0  0  0  0
   -6.1479   -1.3815   -1.8052 O   0  0  0  0  0  0  0  0  0  0  0  0
   -4.2520   -0.8304   -3.0817 N   0  0  0  0  0  0  0  0  0  0  0  0
   -0.1306    0.6335    1.2777 O   0  0  0  0  0  0  0  0  0  0  0  0
    0.9419   -0.1199    1.0034 C   0  0  1  0  0  0  0  0  0  0  0  0
    2.1927    0.6532    1.4061 C   0  0  0  0  0  0  0  0  0  0  0  0
    3.3347   -0.3473    1.6828 C   0  0  1  0  0  0  0  0  0  0  0  0
    3.2762   -1.3665    0.6091 C   0  0  2  0  0  0  0  0  0  0  0  0
    2.0645   -2.2776    0.8917 C   0  0  0  0  0  0  0  0  0  0  0  0
    1.0230   -1.4753    1.6208 C   0  0  0  0  0  0  0  0  0  0  0  0
    4.3680   -2.2454    0.4436 N   0  0  0  0  0  0  0  0  0  0  0  0
    5.6413   -1.7581    0.1018 C   0  0  0  0  0  0  0  0  0  0  0  0
    6.4481   -2.9123   -0.1361 O   0  0  0  0  0  0  0  0  0  0  0  0
    5.7249   -0.9456   -1.0683 N   0  0  0  0  0  0  0  0  0  0  0  0
    7.0536   -0.5004   -1.3742 C   0  0  0  0  0  0  0  0  0  0  0  0
    7.8547    0.3541   -0.5031 C   0  0  0  0  0  0  0  0  0  0  0  0
    7.1134    1.0157   -1.6730 C   0  0  0  0  0  0  0  0  0  0  0  0
    4.8052    0.6504    1.6861 Cl  0  0  0  0  0  0  0  0  0  0  0  0
   -7.5092    0.5874   -0.5117 H   0  0  0  0  0  0  0  0  0  0  0  0
   -7.2558    2.2998   -0.1240 H   0  0  0  0  0  0  0  0  0  0  0  0
   -7.4375    1.1740    1.2285 H   0  0  0  0  0  0  0  0  0  0  0  0
   -5.8652   -0.8654    0.6862 H   0  0  0  0  0  0  0  0  0  0  0  0
   -3.8656   -1.0298    1.9227 H   0  0  0  0  0  0  0  0  0  0  0  0
   -4.9003    0.2623    2.5902 H   0  0  0  0  0  0  0  0  0  0  0  0
   -2.4890    0.8706    2.4971 H   0  0  0  0  0  0  0  0  0  0  0  0
   -4.0225    2.6359    1.9751 H   0  0  0  0  0  0  0  0  0  0  0  0
   -1.7737    3.0120    2.2440 H   0  0  0  0  0  0  0  0  0  0  0  0
   -2.4787    4.0549    0.9325 H   0  0  0  0  0  0  0  0  0  0  0  0
   -0.3089    3.1665    0.2790 H   0  0  0  0  0  0  0  0  0  0  0  0
   -1.6349    2.7427   -0.8161 H   0  0  0  0  0  0  0  0  0  0  0  0
   -0.5544    0.7205   -0.7601 H   0  0  0  0  0  0  0  0  0  0  0  0
   -2.0565   -0.7236    0.6405 H   0  0  0  0  0  0  0  0  0  0  0  0
   -2.5157    0.1045   -1.7207 H   0  0  0  0  0  0  0  0  0  0  0  0
   -3.4888    1.4723   -0.9346 H   0  0  0  0  0  0  0  0  0  0  0  0
   -3.7940   -1.5243   -0.4744 H   0  0  0  0  0  0  0  0  0  0  0  0
   -5.4468    0.5281   -2.0512 H   0  0  0  0  0  0  0  0  0  0  0  0
   -5.9253   -2.0606   -1.1154 H   0  0  0  0  0  0  0  0  0  0  0  0
   -4.8510   -0.9298   -3.9111 H   0  0  0  0  0  0  0  0  0  0  0  0
   -3.6571   -1.6529   -2.8898 H   0  0  0  0  0  0  0  0  0  0  0  0
    1.0195   -0.2751   -0.0936 H   0  0  0  0  0  0  0  0  0  0  0  0
    2.0317    1.3244    2.2481 H   0  0  0  0  0  0  0  0  0  0  0  0
    2.4828    1.2674    0.5342 H   0  0  0  0  0  0  0  0  0  0  0  0
    3.1304   -0.7367    2.7060 H   0  0  0  0  0  0  0  0  0  0  0  0
    3.0509   -0.8284   -0.3678 H   0  0  0  0  0  0  0  0  0  0  0  0
    2.4268   -3.1419    1.4696 H   0  0  0  0  0  0  0  0  0  0  0  0
    1.7060   -2.6673   -0.0830 H   0  0  0  0  0  0  0  0  0  0  0  0
    1.2469   -1.5016    2.6808 H   0  0  0  0  0  0  0  0  0  0  0  0
    0.0518   -2.0365    1.4923 H   0  0  0  0  0  0  0  0  0  0  0  0
    4.0906   -3.0460   -0.1376 H   0  0  0  0  0  0  0  0  0  0  0  0
    6.1903   -1.2181    0.9101 H   0  0  0  0  0  0  0  0  0  0  0  0
    7.3529   -2.5612   -0.3877 H   0  0  0  0  0  0  0  0  0  0  0  0
    5.1759   -1.2378   -1.8791 H   0  0  0  0  0  0  0  0  0  0  0  0
    7.5631   -1.0994   -2.1505 H   0  0  0  0  0  0  0  0  0  0  0  0
    8.9680    0.2537   -0.6082 H   0  0  0  0  0  0  0  0  0  0  0  0
    7.5512    0.6939    0.4857 H   0  0  0  0  0  0  0  0  0  0  0  0
    7.7643    1.3550   -2.4854 H   0  0  0  0  0  0  0  0  0  0  0  0
    6.2306    1.6293   -1.4335 H   0  0  0  0  0  0  0  0  0  0  0  0
  1  2  1  0
  2  3  1  0
  3  4  1  0
  4  5  1  0
  5  6  1  0
  6  7  1  0
  7  8  1  0
  8  9  1  0
  5 10  1  0
  9 10  1  0
 10 11  1  0
  3 12  1  0
 11 12  1  0
 12 13  1  0
 13 14  1  0
 13 15  1  0
  9 16  1  0
 16 17  1  0
 17 18  1  0
 18 19  1  0
 19 20  1  0
 20 21  1  0
 17 22  1  0
 21 22  1  0
 20 23  1  0
 23 24  1  0
 24 25  1  0
 24 26  1  0
 26 27  1  0
 27 28  1  0
 27 29  1  0
 28 29  1  0
 19 30  1  0
  1 31  1  0
  1 32  1  0
  1 33  1  0
  3 34  1  0
  4 35  1  0
  4 36  1  0
  5 37  1  0
  6 38  1  0
  7 39  1  0
  7 40  1  0
  8 41  1  0
  8 42  1  0
  9 43  1  6
 10 44  1  0
 11 45  1  0
 11 46  1  0
 12 47  1  1
 13 48  1  6
 14 49  1  0
 15 50  1  0
 15 51  1  0
 17 52  1  6
 18 53  1  0
 18 54  1  0
 19 55  1  1
 20 56  1  6
 21 57  1  0
 21 58  1  0
 22 59  1  0
 22 60  1  0
 23 61  1  0
 24 62  1  0
 25 63  1  0
 26 64  1  0
 27 65  1  0
 28 66  1  0
 28 67  1  0
 29 68  1  0
 29 69  1  0
M  END
>  <PDBID>  (1) 
3WZD

>  <PDB ID>  (1) 
3WZD

>  <Generic Name>  (1) 
Lenvatinib

>  <Brand Name>  (1) 
Lenvima

>  <DrugBank ID>  (1) 
DB09078

>  <ATC Codes>  (1) 
L01XE29

>  <Ligand ID>  (1) 
LEV

>  <Target Name>  (1) 
Vascular endothelial growth factor receptor 3

>  <UniProt ID>  (1) 
P35916

>  <PDB ID.1>  (1) 
3WZD

>  <Seq. Identity>  (1) 
67%

$$$$
