PDB_DB01034_02
     RDKit          3D

 82 82  0  0  0  0  0  0  0  0999 V2000
   -6.0275   -0.3109    0.9678 O   0  0  0  0  0  0  0  0  0  0  0  0
   -4.9477   -0.8522    0.2201 C   0  0  0  0  0  0  0  0  0  0  0  0
   -4.8593   -0.0629   -0.9560 N   0  0  0  0  0  0  0  0  0  0  0  0
   -3.7557   -0.9282    1.0925 C   0  0  2  0  0  0  0  0  0  0  0  0
   -3.4118    0.4514    1.5497 O   0  0  0  0  0  0  0  0  0  0  0  0
   -2.4467   -0.4826    0.9519 C   0  0  2  0  0  0  0  0  0  0  0  0
   -1.6756    0.0669   -0.1866 C   0  0  1  0  0  0  0  0  0  0  0  0
   -2.3514    0.4975   -1.2810 O   0  0  0  0  0  0  0  0  0  0  0  0
   -0.7054    1.0927    0.3690 C   0  0  0  0  0  0  0  0  0  0  0  0
    0.1321    1.7138   -0.7256 C   0  0  0  0  0  0  0  0  0  0  0  0
    0.9560    0.7246   -1.4787 C   0  0  0  0  0  0  0  0  0  0  0  0
    1.9378   -0.0561   -0.5864 C   0  0  0  0  0  0  0  0  0  0  0  0
    2.8539    0.9123    0.0483 C   0  0  0  0  0  0  0  0  0  0  0  0
    3.8926    0.4447    0.9761 C   0  0  0  0  0  0  0  0  0  0  0  0
    4.9287   -0.4999    0.5292 C   0  0  0  0  0  0  0  0  0  0  0  0
    4.3514   -1.8191    0.1131 C   0  0  0  0  0  0  0  0  0  0  0  0
   -5.9308   -1.4389    0.7589 O   0  0  0  0  0  0  0  0  0  0  0  0
   -5.1631   -0.3468    0.4040 C   0  0  0  0  0  0  0  0  0  0  0  0
   -5.9646    0.8437    0.7234 N   0  0  0  0  0  0  0  0  0  0  0  0
   -3.9277   -0.2838    1.2248 C   0  0  2  0  0  0  0  0  0  0  0  0
   -3.1751    0.9502    0.8961 O   0  0  0  0  0  0  0  0  0  0  0  0
   -2.5812   -0.2892    0.7328 C   0  0  2  0  0  0  0  0  0  0  0  0
   -2.1784   -0.6965   -0.6649 C   0  0  0  0  0  0  0  0  0  0  0  0
   -1.5920   -1.9521   -0.7323 O   0  0  0  0  0  0  0  0  0  0  0  0
   -1.3206    0.2937   -1.3608 C   0  0  0  0  0  0  0  0  0  0  0  0
   -0.0175    0.6228   -0.7057 C   0  0  0  0  0  0  0  0  0  0  0  0
    0.8920   -0.5624   -0.5363 C   0  0  0  0  0  0  0  0  0  0  0  0
    2.2180   -0.2047    0.1480 C   0  0  0  0  0  0  0  0  0  0  0  0
    2.9745    0.7891   -0.6306 C   0  0  0  0  0  0  0  0  0  0  0  0
    4.2716    1.2747   -0.1409 C   0  0  0  0  0  0  0  0  0  0  0  0
    5.3887    0.3428    0.0729 C   0  0  0  0  0  0  0  0  0  0  0  0
    5.1253   -0.7072    1.1170 C   0  0  0  0  0  0  0  0  0  0  0  0
   -5.8828   -0.6748    1.8917 H   0  0  0  0  0  0  0  0  0  0  0  0
   -5.3341   -1.8817   -0.0536 H   0  0  0  0  0  0  0  0  0  0  0  0
   -5.0277    0.9578   -0.8166 H   0  0  0  0  0  0  0  0  0  0  0  0
   -5.4574   -0.4739   -1.7013 H   0  0  0  0  0  0  0  0  0  0  0  0
   -3.9759   -1.5804    2.0098 H   0  0  0  0  0  0  0  0  0  0  0  0
   -1.7296   -0.7333    1.8147 H   0  0  0  0  0  0  0  0  0  0  0  0
   -1.0081   -0.7786   -0.5406 H   0  0  0  0  0  0  0  0  0  0  0  0
   -2.2431   -0.0565   -2.0978 H   0  0  0  0  0  0  0  0  0  0  0  0
   -1.2320    1.9137    0.8975 H   0  0  0  0  0  0  0  0  0  0  0  0
   -0.0072    0.6382    1.0989 H   0  0  0  0  0  0  0  0  0  0  0  0
    0.7757    2.5288   -0.3591 H   0  0  0  0  0  0  0  0  0  0  0  0
   -0.5980    2.2170   -1.4240 H   0  0  0  0  0  0  0  0  0  0  0  0
    0.2929    0.0165   -2.0226 H   0  0  0  0  0  0  0  0  0  0  0  0
    1.5259    1.2791   -2.2498 H   0  0  0  0  0  0  0  0  0  0  0  0
    1.2964   -0.5971    0.1367 H   0  0  0  0  0  0  0  0  0  0  0  0
    2.4320   -0.8350   -1.2150 H   0  0  0  0  0  0  0  0  0  0  0  0
    2.1897    1.6130    0.6604 H   0  0  0  0  0  0  0  0  0  0  0  0
    3.3079    1.6308   -0.6974 H   0  0  0  0  0  0  0  0  0  0  0  0
    4.4170    1.3836    1.3643 H   0  0  0  0  0  0  0  0  0  0  0  0
    3.4018    0.0642    1.9334 H   0  0  0  0  0  0  0  0  0  0  0  0
    5.6208   -0.7248    1.4005 H   0  0  0  0  0  0  0  0  0  0  0  0
    5.6233   -0.0836   -0.2395 H   0  0  0  0  0  0  0  0  0  0  0  0
    3.3527   -2.0224    0.5484 H   0  0  0  0  0  0  0  0  0  0  0  0
    4.9789   -2.6793    0.5440 H   0  0  0  0  0  0  0  0  0  0  0  0
    4.4097   -2.0132   -0.9769 H   0  0  0  0  0  0  0  0  0  0  0  0
   -6.8647   -1.3220    0.4008 H   0  0  0  0  0  0  0  0  0  0  0  0
   -5.0297   -0.3520   -0.6721 H   0  0  0  0  0  0  0  0  0  0  0  0
   -5.5405    1.4005    1.4887 H   0  0  0  0  0  0  0  0  0  0  0  0
   -6.0493    1.4749   -0.0958 H   0  0  0  0  0  0  0  0  0  0  0  0
   -4.1005   -0.4001    2.3184 H   0  0  0  0  0  0  0  0  0  0  0  0
   -1.7659   -0.4766    1.4768 H   0  0  0  0  0  0  0  0  0  0  0  0
   -3.1248   -0.7828   -1.2555 H   0  0  0  0  0  0  0  0  0  0  0  0
   -1.8314   -2.4356    0.1181 H   0  0  0  0  0  0  0  0  0  0  0  0
   -1.0590   -0.1650   -2.3612 H   0  0  0  0  0  0  0  0  0  0  0  0
   -1.8549    1.2337   -1.6349 H   0  0  0  0  0  0  0  0  0  0  0  0
   -0.1379    1.2031    0.2313 H   0  0  0  0  0  0  0  0  0  0  0  0
    0.5179    1.3396   -1.4028 H   0  0  0  0  0  0  0  0  0  0  0  0
    0.4268   -1.3166    0.1459 H   0  0  0  0  0  0  0  0  0  0  0  0
    1.1201   -1.0754   -1.4711 H   0  0  0  0  0  0  0  0  0  0  0  0
    1.9332    0.1920    1.1442 H   0  0  0  0  0  0  0  0  0  0  0  0
    2.7566   -1.1597    0.3323 H   0  0  0  0  0  0  0  0  0  0  0  0
    2.3316    1.7185   -0.7730 H   0  0  0  0  0  0  0  0  0  0  0  0
    3.0925    0.4286   -1.7010 H   0  0  0  0  0  0  0  0  0  0  0  0
    4.5845    2.1182   -0.8393 H   0  0  0  0  0  0  0  0  0  0  0  0
    4.1117    1.8476    0.8323 H   0  0  0  0  0  0  0  0  0  0  0  0
    6.2591    0.9615    0.4590 H   0  0  0  0  0  0  0  0  0  0  0  0
    5.8037   -0.0993   -0.8643 H   0  0  0  0  0  0  0  0  0  0  0  0
    4.3560   -0.4108    1.8562 H   0  0  0  0  0  0  0  0  0  0  0  0
    6.0587   -0.8317    1.7675 H   0  0  0  0  0  0  0  0  0  0  0  0
    4.9870   -1.7262    0.7025 H   0  0  0  0  0  0  0  0  0  0  0  0
  1  2  1  0
  2  3  1  0
  2  4  1  0
  4  5  1  0
  4  6  1  0
  5  6  1  0
  6  7  1  0
  7  8  1  0
  7  9  1  0
  9 10  1  0
 10 11  1  0
 11 12  1  0
 12 13  1  0
 13 14  1  0
 14 15  1  0
 15 16  1  0
 17 18  1  0
 18 19  1  0
 18 20  1  0
 20 21  1  0
 20 22  1  0
 21 22  1  0
 22 23  1  0
 23 24  1  0
 23 25  1  0
 25 26  1  0
 26 27  1  0
 27 28  1  0
 28 29  1  0
 29 30  1  0
 30 31  1  0
 31 32  1  0
  1 33  1  0
  2 34  1  0
  3 35  1  0
  3 36  1  0
  4 37  1  1
  6 38  1  1
  7 39  1  6
  8 40  1  0
  9 41  1  0
  9 42  1  0
 10 43  1  0
 10 44  1  0
 11 45  1  0
 11 46  1  0
 12 47  1  0
 12 48  1  0
 13 49  1  0
 13 50  1  0
 14 51  1  0
 14 52  1  0
 15 53  1  0
 15 54  1  0
 16 55  1  0
 16 56  1  0
 16 57  1  0
 17 58  1  0
 18 59  1  0
 19 60  1  0
 19 61  1  0
 20 62  1  1
 22 63  1  1
 23 64  1  0
 24 65  1  0
 25 66  1  0
 25 67  1  0
 26 68  1  0
 26 69  1  0
 27 70  1  0
 27 71  1  0
 28 72  1  0
 28 73  1  0
 29 74  1  0
 29 75  1  0
 30 76  1  0
 30 77  1  0
 31 78  1  0
 31 79  1  0
 32 80  1  0
 32 81  1  0
 32 82  1  0
M  END
>  <PDBID>  (1) 
4LS7

>  <PDB ID>  (1) 
4LS7

>  <Generic Name>  (1) 
Cerulenin

>  <Brand Name>  (1) 
Helicocerin

>  <DrugBank ID>  (1) 
DB01034

>  <ATC Codes>  (1) 
nan

>  <Ligand ID>  (1) 
1X9

>  <Target Name>  (1) 
3-oxoacyl-[acyl-carrier-protein] synthase 2

>  <UniProt ID>  (1) 
P0AAI5

>  <PDB ID.1>  (1) 
4LS7

>  <Seq. Identity>  (1) 
51%

$$$$
