PDB_DB00311_05
     RDKit          3D

 36 37  0  0  0  0  0  0  0  0999 V2000
    4.4606    1.3739   -1.7994 N   0  0  0  0  0  0  0  0  0  0  0  0
    0.8027   -0.6430    0.2877 C   0  0  2  0  0  0  0  0  0  0  0  0
    0.0784   -0.2810   -1.0167 C   0  0  1  0  0  0  0  0  0  0  0  0
   -0.9835    0.6963   -0.6782 C   0  0  0  0  0  0  0  0  0  0  0  0
   -1.9127    0.0491    0.3307 C   0  0  0  0  0  0  0  0  0  0  0  0
   -4.0421    0.7692    0.8479 C   0  0  0  0  0  0  0  0  0  0  0  0
    5.3879   -0.7372   -0.4408 O   0  0  0  0  0  0  0  0  0  0  0  0
    3.9629    1.1204    0.7725 O   0  0  0  0  0  0  0  0  0  0  0  0
    3.9209    0.4502   -0.2519 S   0  0  0  0  0  0  0  0  0  0  0  0
    2.7684   -0.5163   -0.9623 C   0  0  0  0  0  0  0  0  0  0  0  0
    1.9879   -1.3578   -0.1145 N   0  0  0  0  0  0  0  0  0  0  0  0
    1.5130    0.5024   -1.8477 S   0  0  0  0  0  0  0  0  0  0  0  0
   -1.5592   -1.3962    0.5890 C   0  0  0  0  0  0  0  0  0  0  0  0
   -0.1147   -1.5604    1.0301 C   0  0  0  0  0  0  0  0  0  0  0  0
   -3.2325    0.0988   -0.0638 O   0  0  0  0  0  0  0  0  0  0  0  0
   -5.4611    0.7650    0.3200 C   0  0  0  0  0  0  0  0  0  0  0  0
    5.3341    1.7927   -1.3944 H   0  0  0  0  0  0  0  0  0  0  0  0
    3.6818    2.0520   -1.7918 H   0  0  0  0  0  0  0  0  0  0  0  0
    1.0039    0.2730    0.8552 H   0  0  0  0  0  0  0  0  0  0  0  0
   -0.2555   -1.1751   -1.5412 H   0  0  0  0  0  0  0  0  0  0  0  0
   -0.5049    1.5844   -0.2070 H   0  0  0  0  0  0  0  0  0  0  0  0
   -1.5238    0.9783   -1.6097 H   0  0  0  0  0  0  0  0  0  0  0  0
   -1.8381    0.5744    1.3049 H   0  0  0  0  0  0  0  0  0  0  0  0
   -3.7048    1.8442    0.8229 H   0  0  0  0  0  0  0  0  0  0  0  0
   -3.9692    0.3437    1.8695 H   0  0  0  0  0  0  0  0  0  0  0  0
    5.8399   -0.5363    0.4059 H   0  0  0  0  0  0  0  0  0  0  0  0
    4.0131    1.3473    1.7202 H   0  0  0  0  0  0  0  0  0  0  0  0
    3.2026   -1.1602   -1.7568 H   0  0  0  0  0  0  0  0  0  0  0  0
    2.5060   -1.6168    0.7274 H   0  0  0  0  0  0  0  0  0  0  0  0
   -2.2082   -1.7464    1.4098 H   0  0  0  0  0  0  0  0  0  0  0  0
   -1.7981   -2.0324   -0.2965 H   0  0  0  0  0  0  0  0  0  0  0  0
    0.1414   -2.6325    0.8195 H   0  0  0  0  0  0  0  0  0  0  0  0
   -0.0934   -1.4350    2.1261 H   0  0  0  0  0  0  0  0  0  0  0  0
   -5.5827   -0.1623   -0.2861 H   0  0  0  0  0  0  0  0  0  0  0  0
   -6.2124    0.7591    1.1424 H   0  0  0  0  0  0  0  0  0  0  0  0
   -5.6083    1.6145   -0.3750 H   0  0  0  0  0  0  0  0  0  0  0  0
  2  3  1  0
  3  4  1  0
  4  5  1  0
  1  9  1  0
  9  7  1  0
  8  9  1  0
  9 10  1  0
  2 11  1  0
 10 11  1  0
  3 12  1  0
 10 12  1  0
  5 13  1  0
  2 14  1  0
 13 14  1  0
  5 15  1  0
  6 15  1  0
  6 16  1  0
  1 17  1  0
  1 18  1  0
  2 19  1  1
  3 20  1  6
  4 21  1  0
  4 22  1  0
  5 23  1  0
  6 24  1  0
  6 25  1  0
  7 26  1  0
  8 27  1  0
 10 28  1  0
 11 29  1  0
 13 30  1  0
 13 31  1  0
 14 32  1  0
 14 33  1  0
 16 34  1  0
 16 35  1  0
 16 36  1  0
M  END
>  <PDBID>  (1) 
3DD0

>  <PDB ID>  (1) 
3DD0

>  <Generic Name>  (1) 
Ethoxzolamide

>  <Brand Name>  (1) 
Cardrase#Ethamide

>  <DrugBank ID>  (1) 
DB00311

>  <ATC Codes>  (1) 
nan

>  <Ligand ID>  (1) 
EZL

>  <Target Name>  (1) 
Carbonic anhydrase 1

>  <UniProt ID>  (1) 
P00915

>  <PDB ID.1>  (1) 
3DD0

>  <Seq. Identity>  (1) 
61%

$$$$
