PDB_DB01015_01
     RDKit          3D

 40 41  0  0  0  0  0  0  0  0999 V2000
    0.3492    0.6889   -2.7093 O   0  0  0  0  0  0  0  0  0  0  0  0
   -0.2564    0.5233   -0.8063 S   0  0  0  0  0  0  0  0  0  0  0  0
   -0.2889    2.1102   -0.6001 O   0  0  0  0  0  0  0  0  0  0  0  0
    1.2825   -0.1087   -0.3528 C   0  0  0  0  0  0  0  0  0  0  0  0
    2.3451    0.8980   -0.8066 C   0  0  0  0  0  0  0  0  0  0  0  0
    3.6312    0.6506   -0.0552 C   0  0  0  0  0  0  0  0  0  0  0  0
    1.4316   -0.2929    1.1066 C   0  0  0  0  0  0  0  0  0  0  0  0
    2.7060   -1.0820    1.3938 C   0  0  0  0  0  0  0  0  0  0  0  0
    3.7579   -0.7980    0.3271 C   0  0  0  0  0  0  0  0  0  0  0  0
    5.0958   -1.0238    0.8706 N   0  0  0  0  0  0  0  0  0  0  0  0
   -1.3977   -0.3320   -0.9965 N   0  0  0  0  0  0  0  0  0  0  0  0
   -2.7309    0.0380   -0.5170 C   0  0  0  0  0  0  0  0  0  0  0  0
   -3.7037   -0.9530   -0.8132 N   0  0  0  0  0  0  0  0  0  0  0  0
   -4.3865   -1.2709    0.2700 O   0  0  0  0  0  0  0  0  0  0  0  0
   -4.1646   -0.3586    1.2618 C   0  0  0  0  0  0  0  0  0  0  0  0
   -2.7223    0.0604    1.0002 C   0  0  0  0  0  0  0  0  0  0  0  0
   -5.0424    0.8617    0.9650 C   0  0  0  0  0  0  0  0  0  0  0  0
    0.4391   -0.2802   -2.7867 H   0  0  0  0  0  0  0  0  0  0  0  0
   -0.7501    2.6224   -1.3239 H   0  0  0  0  0  0  0  0  0  0  0  0
    1.5018   -1.0422   -0.9033 H   0  0  0  0  0  0  0  0  0  0  0  0
    2.5211    0.7233   -1.8866 H   0  0  0  0  0  0  0  0  0  0  0  0
    1.9338    1.9109   -0.6225 H   0  0  0  0  0  0  0  0  0  0  0  0
    3.6964    1.2465    0.8685 H   0  0  0  0  0  0  0  0  0  0  0  0
    4.5079    0.8863   -0.7130 H   0  0  0  0  0  0  0  0  0  0  0  0
    0.6106   -0.8512    1.5915 H   0  0  0  0  0  0  0  0  0  0  0  0
    1.5411    0.6641    1.6545 H   0  0  0  0  0  0  0  0  0  0  0  0
    2.5244   -2.1583    1.4311 H   0  0  0  0  0  0  0  0  0  0  0  0
    3.1546   -0.7808    2.3622 H   0  0  0  0  0  0  0  0  0  0  0  0
    3.6288   -1.4873   -0.5122 H   0  0  0  0  0  0  0  0  0  0  0  0
    5.4501   -1.9767    0.6271 H   0  0  0  0  0  0  0  0  0  0  0  0
    5.7278   -0.3032    0.4555 H   0  0  0  0  0  0  0  0  0  0  0  0
   -1.5816   -1.0047   -1.7995 H   0  0  0  0  0  0  0  0  0  0  0  0
   -3.0011    1.0595   -0.8548 H   0  0  0  0  0  0  0  0  0  0  0  0
   -3.1814   -1.8267   -1.1259 H   0  0  0  0  0  0  0  0  0  0  0  0
   -4.3089   -0.7411    2.2729 H   0  0  0  0  0  0  0  0  0  0  0  0
   -2.4999    1.0571    1.4001 H   0  0  0  0  0  0  0  0  0  0  0  0
   -2.0213   -0.7082    1.3351 H   0  0  0  0  0  0  0  0  0  0  0  0
   -5.4008    0.8341   -0.0952 H   0  0  0  0  0  0  0  0  0  0  0  0
   -4.4427    1.7552    1.1606 H   0  0  0  0  0  0  0  0  0  0  0  0
   -5.9555    0.7900    1.5904 H   0  0  0  0  0  0  0  0  0  0  0  0
  2  1  1  0
  2  3  1  0
  2  4  1  0
  4  5  1  0
  5  6  1  0
  4  7  1  0
  7  8  1  0
  6  9  1  0
  8  9  1  0
  9 10  1  0
  2 11  1  0
 11 12  1  0
 12 13  1  0
 13 14  1  0
 14 15  1  0
 12 16  1  0
 15 16  1  0
 15 17  1  0
  1 18  1  0
  3 19  1  0
  4 20  1  0
  5 21  1  0
  5 22  1  0
  6 23  1  0
  6 24  1  0
  7 25  1  0
  7 26  1  0
  8 27  1  0
  8 28  1  0
  9 29  1  0
 10 30  1  0
 10 31  1  0
 11 32  1  0
 12 33  1  0
 13 34  1  0
 15 35  1  0
 16 36  1  0
 16 37  1  0
 17 38  1  0
 17 39  1  0
 17 40  1  0
M  END
>  <PDBID>  (1) 
3TZF

>  <PDB ID>  (1) 
3TZF

>  <Generic Name>  (1) 
Sulfamethoxazole

>  <Brand Name>  (1) 
Apo Sulfamethoxazole Tab 500mg#Apo Sulfatrim DS Tab#Apo Sulfatrim Pediatric#Apo Sulfatrim Tab#Apo-sulfatrim Oral Suspension#Bactrim#Bactrim DS#Bactrim DS Roche Tab#Bactrim Roche Inj#Bactrim Roche Suspension Paediatric#Bactrim Roche Tab#Nu-cotrimox Sus 40/8mg/ml#Nu-cotrimox Tab 400/80mg#Nu-cotrimox-DS Tab 800/160mg#Protrin Df Tab#Protrin Tab#Riva-sep DS#Roubac Tab 160/800#Roubac Tab 80/400#Septra#Septra DS Tablets#Septra Injection#Septra Pediatric Suspension#Sulfamethoxazole Tab 500mg#Sulfamethoxazole and Trimethoprim#Sulfamethoxazole and Trimethoprim (double Strength)#Sulfamethoxazole and Trimethoprim DS#Sulfamethoxazole and Trimethoprim Double Strength#Sulfamethoxazole and Trimethoprim Tablets#Sulfatrim#Teva-trimel#Teva-trimel DS#Trisulfa DS Tab#Trisulfa S Suspension#Trisulfa Tab#Gantanol#Sinomin#Urobak

>  <DrugBank ID>  (1) 
DB01015

>  <ATC Codes>  (1) 
J01EE01#J01EC01

>  <Ligand ID>  (1) 
08D

>  <Target Name>  (1) 
Dihydropteroate synthase

>  <UniProt ID>  (1) 
P0AC13

>  <PDB ID.1>  (1) 
3TZF

>  <Seq. Identity>  (1) 
75%

$$$$
