PDB_DB01113_03
     RDKit          3D

 62 64  0  0  0  0  0  0  0  0999 V2000
    5.1816    2.5303   -1.4491 C   0  0  0  0  0  0  0  0  0  0  0  0
    4.3442    1.4199   -1.4773 O   0  0  0  0  0  0  0  0  0  0  0  0
    4.0161    0.9928   -0.1938 C   0  0  0  0  0  0  0  0  0  0  0  0
    4.6160   -0.3576    0.0049 C   0  0  0  0  0  0  0  0  0  0  0  0
    5.9496   -0.3193   -0.3077 O   0  0  0  0  0  0  0  0  0  0  0  0
    6.6694   -0.8204    0.7923 C   0  0  0  0  0  0  0  0  0  0  0  0
    3.9090   -1.3170   -0.9645 C   0  0  0  0  0  0  0  0  0  0  0  0
    2.4756   -1.3857   -0.4109 C   0  0  0  0  0  0  0  0  0  0  0  0
    2.5348    1.0763    0.0718 C   0  0  0  0  0  0  0  0  0  0  0  0
    1.8034   -0.0581   -0.6048 C   0  0  0  0  0  0  0  0  0  0  0  0
    0.3543   -0.0849   -0.4825 C   0  0  0  0  0  0  0  0  0  0  0  0
   -0.3288   -0.5000    0.7644 C   0  0  0  0  0  0  0  0  0  0  0  0
   -0.0814   -1.8063    1.2458 N   0  0  0  0  0  0  0  0  0  0  0  0
   -1.1241   -2.4425    2.0005 C   0  0  0  0  0  0  0  0  0  0  0  0
   -2.0973   -1.4169    2.5944 C   0  0  0  0  0  0  0  0  0  0  0  0
   -2.7643   -0.8821    1.3768 C   0  0  0  0  0  0  0  0  0  0  0  0
   -1.7668   -0.0944    0.6037 C   0  0  0  0  0  0  0  0  0  0  0  0
   -2.2650   -0.1385   -0.8274 C   0  0  0  0  0  0  0  0  0  0  0  0
   -3.7597   -0.0193   -0.9021 C   0  0  0  0  0  0  0  0  0  0  0  0
   -4.0615    0.8218   -1.9744 O   0  0  0  0  0  0  0  0  0  0  0  0
   -4.8632    0.1810   -2.9327 C   0  0  0  0  0  0  0  0  0  0  0  0
   -4.4085    0.5801    0.3064 C   0  0  0  0  0  0  0  0  0  0  0  0
   -3.9693   -0.0259    1.6101 C   0  0  0  0  0  0  0  0  0  0  0  0
   -4.2194    1.9498    0.4003 O   0  0  0  0  0  0  0  0  0  0  0  0
   -5.4631    2.5639    0.3480 C   0  0  0  0  0  0  0  0  0  0  0  0
    4.7035    3.3958   -0.9240 H   0  0  0  0  0  0  0  0  0  0  0  0
    6.1510    2.3109   -0.9579 H   0  0  0  0  0  0  0  0  0  0  0  0
    5.3537    2.8457   -2.4896 H   0  0  0  0  0  0  0  0  0  0  0  0
    4.5370    1.6879    0.5145 H   0  0  0  0  0  0  0  0  0  0  0  0
    4.4361   -0.7630    1.0198 H   0  0  0  0  0  0  0  0  0  0  0  0
    7.7514   -0.8223    0.6190 H   0  0  0  0  0  0  0  0  0  0  0  0
    6.4839   -0.1160    1.6482 H   0  0  0  0  0  0  0  0  0  0  0  0
    6.2991   -1.8263    1.0896 H   0  0  0  0  0  0  0  0  0  0  0  0
    4.3399   -2.3171   -0.9450 H   0  0  0  0  0  0  0  0  0  0  0  0
    3.8635   -0.8812   -1.9678 H   0  0  0  0  0  0  0  0  0  0  0  0
    1.9276   -2.1396   -1.0089 H   0  0  0  0  0  0  0  0  0  0  0  0
    2.5777   -1.7480    0.5997 H   0  0  0  0  0  0  0  0  0  0  0  0
    2.1860    2.0271   -0.3839 H   0  0  0  0  0  0  0  0  0  0  0  0
    2.3724    1.1585    1.1419 H   0  0  0  0  0  0  0  0  0  0  0  0
    2.0107    0.1567   -1.7102 H   0  0  0  0  0  0  0  0  0  0  0  0
   -0.0686   -0.5976   -1.4007 H   0  0  0  0  0  0  0  0  0  0  0  0
    0.0040    0.9914   -0.6458 H   0  0  0  0  0  0  0  0  0  0  0  0
    0.0767    0.2075    1.5619 H   0  0  0  0  0  0  0  0  0  0  0  0
    0.7133   -1.7799    1.9671 H   0  0  0  0  0  0  0  0  0  0  0  0
   -1.7288   -3.0562    1.3030 H   0  0  0  0  0  0  0  0  0  0  0  0
   -0.7940   -3.0889    2.8108 H   0  0  0  0  0  0  0  0  0  0  0  0
   -1.4872   -0.6081    3.0416 H   0  0  0  0  0  0  0  0  0  0  0  0
   -2.7426   -1.9453    3.2966 H   0  0  0  0  0  0  0  0  0  0  0  0
   -3.1022   -1.7427    0.7301 H   0  0  0  0  0  0  0  0  0  0  0  0
   -1.9044    0.9879    0.9107 H   0  0  0  0  0  0  0  0  0  0  0  0
   -1.7624    0.5941   -1.4843 H   0  0  0  0  0  0  0  0  0  0  0  0
   -2.0106   -1.1488   -1.2113 H   0  0  0  0  0  0  0  0  0  0  0  0
   -4.2582   -0.9863   -1.1243 H   0  0  0  0  0  0  0  0  0  0  0  0
   -4.2938   -0.7164   -3.3144 H   0  0  0  0  0  0  0  0  0  0  0  0
   -4.9841    0.8400   -3.8033 H   0  0  0  0  0  0  0  0  0  0  0  0
   -5.8508   -0.0819   -2.5374 H   0  0  0  0  0  0  0  0  0  0  0  0
   -5.4959    0.4013    0.2186 H   0  0  0  0  0  0  0  0  0  0  0  0
   -3.7024    0.7390    2.3694 H   0  0  0  0  0  0  0  0  0  0  0  0
   -4.7504   -0.6625    2.0762 H   0  0  0  0  0  0  0  0  0  0  0  0
   -5.9987    2.3343   -0.6085 H   0  0  0  0  0  0  0  0  0  0  0  0
   -5.3986    3.6665    0.3973 H   0  0  0  0  0  0  0  0  0  0  0  0
   -6.1349    2.2368    1.1633 H   0  0  0  0  0  0  0  0  0  0  0  0
  1  2  1  0
  2  3  1  0
  3  4  1  0
  4  5  1  0
  5  6  1  0
  4  7  1  0
  7  8  1  0
  3  9  1  0
  8 10  1  0
  9 10  1  0
 10 11  1  0
 11 12  1  0
 12 13  1  0
 13 14  1  0
 14 15  1  0
 15 16  1  0
 12 17  1  0
 16 17  1  0
 17 18  1  0
 18 19  1  0
 19 20  1  0
 20 21  1  0
 19 22  1  0
 16 23  1  0
 22 23  1  0
 22 24  1  0
 24 25  1  0
  1 26  1  0
  1 27  1  0
  1 28  1  0
  3 29  1  0
  4 30  1  0
  6 31  1  0
  6 32  1  0
  6 33  1  0
  7 34  1  0
  7 35  1  0
  8 36  1  0
  8 37  1  0
  9 38  1  0
  9 39  1  0
 10 40  1  0
 11 41  1  0
 11 42  1  0
 12 43  1  0
 13 44  1  0
 14 45  1  0
 14 46  1  0
 15 47  1  0
 15 48  1  0
 16 49  1  0
 17 50  1  0
 18 51  1  0
 18 52  1  0
 19 53  1  0
 21 54  1  0
 21 55  1  0
 21 56  1  0
 22 57  1  0
 23 58  1  0
 23 59  1  0
 25 60  1  0
 25 61  1  0
 25 62  1  0
M  END
>  <PDBID>  (1) 
3IAK

>  <PDB ID>  (1) 
3IAK

>  <Generic Name>  (1) 
Papaverine

>  <Brand Name>  (1) 
Papaverine Hydrochloride#Papaverine Hydrochloride Injection USP#Alapav#Albatran#Artegodan#Cardioverina#Cerebid#Cerespan#Delapav#Dilaves#Dispamil#Drapavel#Durapav#Dynovas#Mesotina#Myobid#Optenyl#Pameion#Pamelon#Panergon#Papacon#Papalease#Papaversan#Papital T.R.#Paptial T.R.#Pavabid#Pavacap#Pavacen#Pavadel#Pavagen#Pavakey#Pavased#Pavatest#Paverolan#Paveron#Pavnell#Qua Bid#Ro-Papav#Therapav#Vasal#Vaso-Pav

>  <DrugBank ID>  (1) 
DB01113

>  <ATC Codes>  (1) 
G04BE52#G04BE02#A03AD01

>  <Ligand ID>  (1) 
EV1

>  <Target Name>  (1) 
cAMP-specific 3',5'-cyclic phosphodiesterase 4B

>  <UniProt ID>  (1) 
Q07343

>  <PDB ID.1>  (1) 
3IAK

>  <Seq. Identity>  (1) 
85%

$$$$
