PDB_DB06700_08
     RDKit          3D

 50 51  0  0  0  0  0  0  0  0999 V2000
   -0.5512   -1.9710   -0.5573 O   0  0  0  0  0  0  0  0  0  0  0  0
   -1.2475   -0.7980   -0.1498 C   0  0  0  0  0  0  0  0  0  0  0  0
   -1.7045   -0.8880    1.2308 C   0  0  0  0  0  0  0  0  0  0  0  0
   -2.4563   -0.7827   -1.0615 C   0  0  0  0  0  0  0  0  0  0  0  0
   -3.7041   -1.2659   -0.3541 C   0  0  0  0  0  0  0  0  0  0  0  0
   -3.4929   -2.4020    0.5754 C   0  0  0  0  0  0  0  0  0  0  0  0
   -2.2413   -2.3262    1.3956 C   0  0  0  0  0  0  0  0  0  0  0  0
   -0.2484    0.3379   -0.4755 C   0  0  1  0  0  0  0  0  0  0  0  0
   -0.7856    1.6295   -0.0807 C   0  0  0  0  0  0  0  0  0  0  0  0
   -0.1249    2.8620   -0.2108 N   0  0  0  0  0  0  0  0  0  0  0  0
    0.9170    3.2211    0.6724 C   0  0  0  0  0  0  0  0  0  0  0  0
   -0.9738    3.9990   -0.4166 C   0  0  0  0  0  0  0  0  0  0  0  0
    1.1038   -0.1504   -0.2986 C   0  0  0  0  0  0  0  0  0  0  0  0
    2.2601    0.7505   -0.6448 C   0  0  0  0  0  0  0  0  0  0  0  0
    3.3649   -0.1519   -1.2782 C   0  0  0  0  0  0  0  0  0  0  0  0
    3.4317   -1.3705   -0.3855 C   0  0  0  0  0  0  0  0  0  0  0  0
    4.7328   -1.9058   -0.3804 O   0  0  0  0  0  0  0  0  0  0  0  0
    2.9627   -1.0451    0.9966 C   0  0  0  0  0  0  0  0  0  0  0  0
    1.4583   -0.8510    1.0008 C   0  0  0  0  0  0  0  0  0  0  0  0
   -0.5499   -1.9274   -1.5449 H   0  0  0  0  0  0  0  0  0  0  0  0
   -1.0533   -0.6143    2.0468 H   0  0  0  0  0  0  0  0  0  0  0  0
   -2.6451   -0.2640    1.3614 H   0  0  0  0  0  0  0  0  0  0  0  0
   -2.2800   -1.3623   -2.0025 H   0  0  0  0  0  0  0  0  0  0  0  0
   -2.6489    0.2476   -1.3775 H   0  0  0  0  0  0  0  0  0  0  0  0
   -4.3794   -1.6447   -1.1792 H   0  0  0  0  0  0  0  0  0  0  0  0
   -4.2797   -0.4415    0.1113 H   0  0  0  0  0  0  0  0  0  0  0  0
   -3.6132   -3.3736    0.0486 H   0  0  0  0  0  0  0  0  0  0  0  0
   -4.3519   -2.3772    1.3094 H   0  0  0  0  0  0  0  0  0  0  0  0
   -1.4823   -2.9679    0.8937 H   0  0  0  0  0  0  0  0  0  0  0  0
   -2.3795   -2.5801    2.4614 H   0  0  0  0  0  0  0  0  0  0  0  0
   -0.3858    0.3356   -1.6386 H   0  0  0  0  0  0  0  0  0  0  0  0
   -1.7819    1.7669   -0.6424 H   0  0  0  0  0  0  0  0  0  0  0  0
   -1.1681    1.6245    1.0055 H   0  0  0  0  0  0  0  0  0  0  0  0
    0.6955    4.1951    1.2209 H   0  0  0  0  0  0  0  0  0  0  0  0
    1.1388    2.4294    1.4177 H   0  0  0  0  0  0  0  0  0  0  0  0
    1.8474    3.4421    0.1210 H   0  0  0  0  0  0  0  0  0  0  0  0
   -0.3065    4.8182   -0.8104 H   0  0  0  0  0  0  0  0  0  0  0  0
   -1.7424    3.8305   -1.1695 H   0  0  0  0  0  0  0  0  0  0  0  0
   -1.3765    4.4009    0.5337 H   0  0  0  0  0  0  0  0  0  0  0  0
    1.2108   -1.0157   -1.0567 H   0  0  0  0  0  0  0  0  0  0  0  0
    2.7412    1.2375    0.2264 H   0  0  0  0  0  0  0  0  0  0  0  0
    1.9664    1.4758   -1.3780 H   0  0  0  0  0  0  0  0  0  0  0  0
    4.3213    0.3682   -1.2723 H   0  0  0  0  0  0  0  0  0  0  0  0
    2.9846   -0.4123   -2.2732 H   0  0  0  0  0  0  0  0  0  0  0  0
    2.7852   -2.1628   -0.8041 H   0  0  0  0  0  0  0  0  0  0  0  0
    5.0652   -1.7602   -1.3068 H   0  0  0  0  0  0  0  0  0  0  0  0
    3.2302   -1.9017    1.6733 H   0  0  0  0  0  0  0  0  0  0  0  0
    3.4976   -0.1770    1.4421 H   0  0  0  0  0  0  0  0  0  0  0  0
    0.9970   -1.8360    1.1154 H   0  0  0  0  0  0  0  0  0  0  0  0
    1.2426   -0.2449    1.8900 H   0  0  0  0  0  0  0  0  0  0  0  0
  2  1  1  0
  2  3  1  0
  2  4  1  0
  4  5  1  0
  5  6  1  0
  3  7  1  0
  6  7  1  0
  2  8  1  0
  8  9  1  0
  9 10  1  0
 10 11  1  0
 10 12  1  0
  8 13  1  0
 13 14  1  0
 14 15  1  0
 15 16  1  0
 16 17  1  0
 16 18  1  0
 13 19  1  0
 18 19  1  0
  1 20  1  0
  3 21  1  0
  3 22  1  0
  4 23  1  0
  4 24  1  0
  5 25  1  0
  5 26  1  0
  6 27  1  0
  6 28  1  0
  7 29  1  0
  7 30  1  0
  8 31  1  6
  9 32  1  0
  9 33  1  0
 11 34  1  0
 11 35  1  0
 11 36  1  0
 12 37  1  0
 12 38  1  0
 12 39  1  0
 13 40  1  0
 14 41  1  0
 14 42  1  0
 15 43  1  0
 15 44  1  0
 16 45  1  0
 17 46  1  0
 18 47  1  0
 18 48  1  0
 19 49  1  0
 19 50  1  0
M  END
>  <PDBID>  (1) 
4MM7

>  <PDB ID>  (1) 
4MM7

>  <Generic Name>  (1) 
Desvenlafaxine

>  <Brand Name>  (1) 
Desvenlafaxine#Desvenlafaxine Extended-release#Desvenlafaxine Succinate#Gd-desvenlafaxine#Khedezla Extended-release#Pristiq#Pristiq Extended Release#Pristiq Extended-release#Pristiq Extended-release Extended-release#Zyven-OD

>  <DrugBank ID>  (1) 
DB06700

>  <ATC Codes>  (1) 
N06AX23

>  <Ligand ID>  (1) 
29J

>  <Target Name>  (1) 
Sodium-dependent noradrenaline transporter

>  <UniProt ID>  (1) 
P23975

>  <PDB ID.1>  (1) 
4MM7

>  <Seq. Identity>  (1) 
30%

$$$$
