PDB_DB01026_08
     RDKit          3D

164172  0  0  0  0  0  0  0  0999 V2000
   -4.9719   -2.4495    2.2829 C   0  0  0  0  0  0  0  0  0  0  0  0
   -4.3334   -2.0702    1.0146 N   0  0  0  0  0  0  0  0  0  0  0  0
   -2.5010    0.0485    0.0087 O   0  0  0  0  0  0  0  0  0  0  0  0
   -6.7407    5.1560   -0.9987 Cl  0  0  0  0  0  0  0  0  0  0  0  0
   -6.4740   -2.8330    0.5784 C   0  0  0  0  0  0  0  0  0  0  0  0
   -6.3723   -2.3940    1.9485 N   0  0  0  0  0  0  0  0  0  0  0  0
   -3.8664   -0.8853   -1.4672 O   0  0  0  0  0  0  0  0  0  0  0  0
   -5.4965    1.9918    1.6694 Cl  0  0  0  0  0  0  0  0  0  0  0  0
   -5.0129   -3.0268    0.1389 C   0  0  0  0  0  0  0  0  0  0  0  0
    4.7107    0.1537   -0.6912 N   0  0  0  0  0  0  0  0  0  0  0  0
   -0.2592   -1.0795    1.0986 O   0  0  0  0  0  0  0  0  0  0  0  0
   -4.6387   -0.7036    0.7158 C   0  0  0  0  0  0  0  0  0  0  0  0
    7.4589    0.1407   -0.3678 N   0  0  0  0  0  0  0  0  0  0  0  0
    9.2058    1.3048   -1.3281 O   0  0  0  0  0  0  0  0  0  0  0  0
   -3.8182   -0.0609   -0.3685 C   0  0  1  0  0  0  0  0  0  0  0  0
   -1.7115   -0.7882   -0.7326 C   0  0  2  0  0  0  0  0  0  0  0  0
   -2.6425   -1.3987   -1.7293 C   0  0  0  0  0  0  0  0  0  0  0  0
   -4.3244    1.3148   -0.7248 C   0  0  0  0  0  0  0  0  0  0  0  0
   -4.2682    2.2948    0.4122 C   0  0  0  0  0  0  0  0  0  0  0  0
   -4.5633    3.6896   -0.1987 C   0  0  0  0  0  0  0  0  0  0  0  0
   -6.0134    3.5974   -0.6735 C   0  0  0  0  0  0  0  0  0  0  0  0
   -6.0197    2.6550   -1.8633 C   0  0  0  0  0  0  0  0  0  0  0  0
   -5.7105    1.2732   -1.3203 C   0  0  0  0  0  0  0  0  0  0  0  0
   -1.0697   -1.7589    0.2111 C   0  0  0  0  0  0  0  0  0  0  0  0
    0.8792   -0.6484    0.4450 C   0  0  0  0  0  0  0  0  0  0  0  0
    2.0068   -1.4836    1.1010 C   0  0  0  0  0  0  0  0  0  0  0  0
    3.2589   -0.6689    1.0588 C   0  0  0  0  0  0  0  0  0  0  0  0
    3.3507   -0.1013   -0.3553 C   0  0  0  0  0  0  0  0  0  0  0  0
    2.3956    1.0378   -0.4434 C   0  0  0  0  0  0  0  0  0  0  0  0
    1.2021    0.7975    0.5097 C   0  0  0  0  0  0  0  0  0  0  0  0
    5.4685   -1.0852   -0.7063 C   0  0  0  0  0  0  0  0  0  0  0  0
    6.8531   -0.7770   -1.3143 C   0  0  0  0  0  0  0  0  0  0  0  0
    6.7528    1.3718   -0.3312 C   0  0  0  0  0  0  0  0  0  0  0  0
    5.3469    1.0823    0.1959 C   0  0  0  0  0  0  0  0  0  0  0  0
    8.8732    0.2626   -0.4692 C   0  0  0  0  0  0  0  0  0  0  0  0
    9.4455    0.5364    0.9213 C   0  0  0  0  0  0  0  0  0  0  0  0
   -5.3922   -1.8580    2.8527 C   0  0  0  0  0  0  0  0  0  0  0  0
   -4.4805   -1.8867    1.6741 N   0  0  0  0  0  0  0  0  0  0  0  0
   -2.4101   -0.4120    0.2492 O   0  0  0  0  0  0  0  0  0  0  0  0
   -4.6948    5.0865   -2.5041 Cl  0  0  0  0  0  0  0  0  0  0  0  0
   -6.5070   -2.6223    0.9471 C   0  0  0  0  0  0  0  0  0  0  0  0
   -6.6820   -1.9111    2.2042 N   0  0  0  0  0  0  0  0  0  0  0  0
   -3.8967   -1.3985   -1.0672 O   0  0  0  0  0  0  0  0  0  0  0  0
   -4.9864    2.4784    1.2170 Cl  0  0  0  0  0  0  0  0  0  0  0  0
   -5.0231   -3.0259    1.0005 C   0  0  0  0  0  0  0  0  0  0  0  0
    4.3425    0.5459   -0.5812 N   0  0  0  0  0  0  0  0  0  0  0  0
   -0.2327   -1.9780    0.9511 O   0  0  0  0  0  0  0  0  0  0  0  0
   -4.6319   -0.6197    1.0127 C   0  0  0  0  0  0  0  0  0  0  0  0
    6.9882    1.3809   -0.7453 N   0  0  0  0  0  0  0  0  0  0  0  0
    8.3889    1.6838    1.0926 O   0  0  0  0  0  0  0  0  0  0  0  0
   -3.7526   -0.3592   -0.1509 C   0  0  1  0  0  0  0  0  0  0  0  0
   -1.6947   -1.1095   -0.6871 C   0  0  2  0  0  0  0  0  0  0  0  0
   -2.7012   -1.4188   -1.7617 C   0  0  0  0  0  0  0  0  0  0  0  0
   -3.9311    0.9556   -0.8079 C   0  0  0  0  0  0  0  0  0  0  0  0
   -3.6570    2.1459    0.0807 C   0  0  0  0  0  0  0  0  0  0  0  0
   -3.4370    3.3687   -0.8059 C   0  0  0  0  0  0  0  0  0  0  0  0
   -4.7203    3.5657   -1.5881 C   0  0  0  0  0  0  0  0  0  0  0  0
   -4.9099    2.3703   -2.4911 C   0  0  0  0  0  0  0  0  0  0  0  0
   -5.2032    1.1752   -1.5641 C   0  0  0  0  0  0  0  0  0  0  0  0
   -1.0962   -2.3427   -0.0636 C   0  0  0  0  0  0  0  0  0  0  0  0
    0.8369   -1.2764    0.4445 C   0  0  0  0  0  0  0  0  0  0  0  0
    2.0875   -2.0809    0.8397 C   0  0  0  0  0  0  0  0  0  0  0  0
    3.2949   -1.1615    0.8189 C   0  0  0  0  0  0  0  0  0  0  0  0
    3.0997   -0.1271   -0.2734 C   0  0  0  0  0  0  0  0  0  0  0  0
    1.9940    0.8192    0.0957 C   0  0  0  0  0  0  0  0  0  0  0  0
    0.9723    0.1220    1.0120 C   0  0  0  0  0  0  0  0  0  0  0  0
    5.3165   -0.3963   -1.0977 C   0  0  0  0  0  0  0  0  0  0  0  0
    6.4357    0.4656   -1.6942 C   0  0  0  0  0  0  0  0  0  0  0  0
    6.0034    2.1367   -0.0050 C   0  0  0  0  0  0  0  0  0  0  0  0
    4.9431    1.2009    0.5394 C   0  0  0  0  0  0  0  0  0  0  0  0
    7.9547    0.7606    0.1428 C   0  0  2  0  0  0  0  0  0  0  0  0
    9.1304    0.2511   -0.6322 C   0  0  0  0  0  0  0  0  0  0  0  0
   -4.6154   -3.4859    2.4987 H   0  0  0  0  0  0  0  0  0  0  0  0
   -4.6678   -1.7367    3.0837 H   0  0  0  0  0  0  0  0  0  0  0  0
   -6.9697   -3.8380    0.5084 H   0  0  0  0  0  0  0  0  0  0  0  0
   -6.9754   -2.1390   -0.0986 H   0  0  0  0  0  0  0  0  0  0  0  0
   -6.7269   -1.4295    2.1210 H   0  0  0  0  0  0  0  0  0  0  0  0
   -4.6340   -4.0414    0.4478 H   0  0  0  0  0  0  0  0  0  0  0  0
   -4.8977   -2.8508   -0.9221 H   0  0  0  0  0  0  0  0  0  0  0  0
   -5.7202   -0.5949    0.5848 H   0  0  0  0  0  0  0  0  0  0  0  0
   -4.4003   -0.1581    1.6960 H   0  0  0  0  0  0  0  0  0  0  0  0
    9.1629    0.9395   -2.2663 H   0  0  0  0  0  0  0  0  0  0  0  0
   -0.9457   -0.2259   -1.3356 H   0  0  0  0  0  0  0  0  0  0  0  0
   -2.3006   -1.2471   -2.7866 H   0  0  0  0  0  0  0  0  0  0  0  0
   -2.5847   -2.5132   -1.5543 H   0  0  0  0  0  0  0  0  0  0  0  0
   -3.6524    1.7037   -1.5249 H   0  0  0  0  0  0  0  0  0  0  0  0
   -3.2423    2.3479    0.7987 H   0  0  0  0  0  0  0  0  0  0  0  0
   -4.4687    4.4063    0.6172 H   0  0  0  0  0  0  0  0  0  0  0  0
   -3.8695    3.8333   -1.0337 H   0  0  0  0  0  0  0  0  0  0  0  0
   -6.5383    3.0297    0.1489 H   0  0  0  0  0  0  0  0  0  0  0  0
   -7.0929    2.6184   -2.2104 H   0  0  0  0  0  0  0  0  0  0  0  0
   -5.3477    2.9908   -2.6560 H   0  0  0  0  0  0  0  0  0  0  0  0
   -6.4949    1.0660   -0.5497 H   0  0  0  0  0  0  0  0  0  0  0  0
   -5.7068    0.5747   -2.1664 H   0  0  0  0  0  0  0  0  0  0  0  0
   -0.4657   -2.5172   -0.3807 H   0  0  0  0  0  0  0  0  0  0  0  0
   -1.7890   -2.3446    0.7735 H   0  0  0  0  0  0  0  0  0  0  0  0
    0.7999   -0.9677   -0.6275 H   0  0  0  0  0  0  0  0  0  0  0  0
    1.7511   -1.6505    2.1731 H   0  0  0  0  0  0  0  0  0  0  0  0
    2.0902   -2.3989    0.5201 H   0  0  0  0  0  0  0  0  0  0  0  0
    3.2221    0.1741    1.7812 H   0  0  0  0  0  0  0  0  0  0  0  0
    4.0996   -1.2936    1.3351 H   0  0  0  0  0  0  0  0  0  0  0  0
    2.9789   -0.9203   -1.0311 H   0  0  0  0  0  0  0  0  0  0  0  0
    2.8239    2.0368   -0.2583 H   0  0  0  0  0  0  0  0  0  0  0  0
    1.9257    1.0948   -1.4711 H   0  0  0  0  0  0  0  0  0  0  0  0
    0.3723    1.3950    0.1110 H   0  0  0  0  0  0  0  0  0  0  0  0
    1.4572    1.1483    1.5255 H   0  0  0  0  0  0  0  0  0  0  0  0
    4.9342   -1.8492   -1.2903 H   0  0  0  0  0  0  0  0  0  0  0  0
    5.7017   -1.4590    0.3102 H   0  0  0  0  0  0  0  0  0  0  0  0
    6.6936   -0.3661   -2.3105 H   0  0  0  0  0  0  0  0  0  0  0  0
    7.4593   -1.7114   -1.3395 H   0  0  0  0  0  0  0  0  0  0  0  0
    7.2407    2.0645    0.3961 H   0  0  0  0  0  0  0  0  0  0  0  0
    6.7185    1.9041   -1.2898 H   0  0  0  0  0  0  0  0  0  0  0  0
    5.4642    0.6825    1.2127 H   0  0  0  0  0  0  0  0  0  0  0  0
    4.7777    2.0443    0.2100 H   0  0  0  0  0  0  0  0  0  0  0  0
    9.3092   -0.6842   -0.8747 H   0  0  0  0  0  0  0  0  0  0  0  0
    8.8342    0.0199    1.6986 H   0  0  0  0  0  0  0  0  0  0  0  0
    9.3974    1.6283    1.0946 H   0  0  0  0  0  0  0  0  0  0  0  0
   10.4921    0.2243    1.0102 H   0  0  0  0  0  0  0  0  0  0  0  0
   -5.2035   -2.7502    3.4666 H   0  0  0  0  0  0  0  0  0  0  0  0
   -5.2412   -0.9576    3.4505 H   0  0  0  0  0  0  0  0  0  0  0  0
   -7.1236   -3.5392    0.8983 H   0  0  0  0  0  0  0  0  0  0  0  0
   -6.7323   -2.0301    0.0602 H   0  0  0  0  0  0  0  0  0  0  0  0
   -7.1356   -0.9987    2.1262 H   0  0  0  0  0  0  0  0  0  0  0  0
   -4.9040   -3.8882    1.7048 H   0  0  0  0  0  0  0  0  0  0  0  0
   -4.5782   -3.1986    0.0382 H   0  0  0  0  0  0  0  0  0  0  0  0
   -5.7088   -0.4398    0.8172 H   0  0  0  0  0  0  0  0  0  0  0  0
   -4.3827    0.1446    1.8197 H   0  0  0  0  0  0  0  0  0  0  0  0
    8.4825    1.2728    1.9752 H   0  0  0  0  0  0  0  0  0  0  0  0
   -0.9364   -0.4522   -1.1826 H   0  0  0  0  0  0  0  0  0  0  0  0
   -2.6909   -0.6918   -2.6021 H   0  0  0  0  0  0  0  0  0  0  0  0
   -2.4439   -2.4450   -2.1240 H   0  0  0  0  0  0  0  0  0  0  0  0
   -3.1111    1.0185   -1.5987 H   0  0  0  0  0  0  0  0  0  0  0  0
   -2.7348    1.9863    0.6509 H   0  0  0  0  0  0  0  0  0  0  0  0
   -3.1862    4.2049   -0.1432 H   0  0  0  0  0  0  0  0  0  0  0  0
   -2.6035    3.1206   -1.4822 H   0  0  0  0  0  0  0  0  0  0  0  0
   -5.5507    3.5781   -0.8547 H   0  0  0  0  0  0  0  0  0  0  0  0
   -5.7867    2.5813   -3.1396 H   0  0  0  0  0  0  0  0  0  0  0  0
   -4.0246    2.1804   -3.1142 H   0  0  0  0  0  0  0  0  0  0  0  0
   -6.0567    1.5139   -0.9475 H   0  0  0  0  0  0  0  0  0  0  0  0
   -5.4175    0.3265   -2.2144 H   0  0  0  0  0  0  0  0  0  0  0  0
   -0.5987   -2.9902   -0.8194 H   0  0  0  0  0  0  0  0  0  0  0  0
   -1.9057   -2.9402    0.4006 H   0  0  0  0  0  0  0  0  0  0  0  0
    0.7961   -1.1727   -0.6434 H   0  0  0  0  0  0  0  0  0  0  0  0
    1.9908   -2.4964    1.8600 H   0  0  0  0  0  0  0  0  0  0  0  0
    2.1845   -2.9046    0.1196 H   0  0  0  0  0  0  0  0  0  0  0  0
    3.3602   -0.6903    1.8214 H   0  0  0  0  0  0  0  0  0  0  0  0
    4.1621   -1.7788    0.5795 H   0  0  0  0  0  0  0  0  0  0  0  0
    2.8008   -0.7313   -1.1795 H   0  0  0  0  0  0  0  0  0  0  0  0
    2.3092    1.7770    0.5065 H   0  0  0  0  0  0  0  0  0  0  0  0
    1.4232    1.0437   -0.8496 H   0  0  0  0  0  0  0  0  0  0  0  0
    0.0201    0.6496    0.8664 H   0  0  0  0  0  0  0  0  0  0  0  0
    1.3214    0.1401    2.0507 H   0  0  0  0  0  0  0  0  0  0  0  0
    4.9303   -1.0208   -1.9053 H   0  0  0  0  0  0  0  0  0  0  0  0
    5.8218   -0.9747   -0.2867 H   0  0  0  0  0  0  0  0  0  0  0  0
    5.9456    1.0306   -2.5212 H   0  0  0  0  0  0  0  0  0  0  0  0
    7.2547   -0.1708   -2.0649 H   0  0  0  0  0  0  0  0  0  0  0  0
    6.5187    2.6363    0.8354 H   0  0  0  0  0  0  0  0  0  0  0  0
    5.5128    2.9158   -0.5973 H   0  0  0  0  0  0  0  0  0  0  0  0
    5.4882    0.4773    1.2040 H   0  0  0  0  0  0  0  0  0  0  0  0
    4.2382    1.8080    1.1292 H   0  0  0  0  0  0  0  0  0  0  0  0
    7.4643   -0.1091    0.6571 H   0  0  0  0  0  0  0  0  0  0  0  0
    9.0781    0.6621   -1.6659 H   0  0  0  0  0  0  0  0  0  0  0  0
   10.0664    0.6390   -0.1948 H   0  0  0  0  0  0  0  0  0  0  0  0
    9.1394   -0.8646   -0.6549 H   0  0  0  0  0  0  0  0  0  0  0  0
  1  2  1  0
  1  6  1  0
  5  6  1  0
  2  9  1  0
  5  9  1  0
  2 12  1  0
  3 15  1  0
  7 15  1  0
 15 12  1  1
  3 16  1  0
  7 17  1  0
 16 17  1  0
 15 18  1  0
  8 19  1  0
 18 19  1  0
 19 20  1  0
  4 21  1  0
 20 21  1  0
 21 22  1  0
 18 23  1  0
 22 23  1  0
 11 24  1  0
 16 24  1  0
 11 25  1  0
 25 26  1  0
 26 27  1  0
 10 28  1  0
 27 28  1  0
 28 29  1  0
 25 30  1  0
 29 30  1  0
 10 31  1  0
 13 32  1  0
 31 32  1  0
 13 33  1  0
 10 34  1  0
 33 34  1  0
 13 35  1  0
 14 35  1  0
 35 36  1  0
 37 38  1  0
 37 42  1  0
 41 42  1  0
 38 45  1  0
 41 45  1  0
 38 48  1  0
 39 51  1  0
 43 51  1  0
 51 48  1  1
 39 52  1  0
 43 53  1  0
 52 53  1  0
 51 54  1  0
 44 55  1  0
 54 55  1  0
 55 56  1  0
 40 57  1  0
 56 57  1  0
 57 58  1  0
 54 59  1  0
 58 59  1  0
 47 60  1  0
 52 60  1  0
 47 61  1  0
 61 62  1  0
 62 63  1  0
 46 64  1  0
 63 64  1  0
 64 65  1  0
 61 66  1  0
 65 66  1  0
 46 67  1  0
 49 68  1  0
 67 68  1  0
 49 69  1  0
 46 70  1  0
 69 70  1  0
 49 71  1  0
 50 71  1  0
 71 72  1  0
  1 73  1  0
  1 74  1  0
  5 75  1  0
  5 76  1  0
  6 77  1  0
  9 78  1  0
  9 79  1  0
 12 80  1  0
 12 81  1  0
 14 82  1  0
 16 83  1  6
 17 84  1  0
 17 85  1  0
 18 86  1  0
 19 87  1  0
 20 88  1  0
 20 89  1  0
 21 90  1  0
 22 91  1  0
 22 92  1  0
 23 93  1  0
 23 94  1  0
 24 95  1  0
 24 96  1  0
 25 97  1  0
 26 98  1  0
 26 99  1  0
 27100  1  0
 27101  1  0
 28102  1  0
 29103  1  0
 29104  1  0
 30105  1  0
 30106  1  0
 31107  1  0
 31108  1  0
 32109  1  0
 32110  1  0
 33111  1  0
 33112  1  0
 34113  1  0
 34114  1  0
 35115  1  0
 36116  1  0
 36117  1  0
 36118  1  0
 37119  1  0
 37120  1  0
 41121  1  0
 41122  1  0
 42123  1  0
 45124  1  0
 45125  1  0
 48126  1  0
 48127  1  0
 50128  1  0
 52129  1  6
 53130  1  0
 53131  1  0
 54132  1  0
 55133  1  0
 56134  1  0
 56135  1  0
 57136  1  0
 58137  1  0
 58138  1  0
 59139  1  0
 59140  1  0
 60141  1  0
 60142  1  0
 61143  1  0
 62144  1  0
 62145  1  0
 63146  1  0
 63147  1  0
 64148  1  0
 65149  1  0
 65150  1  0
 66151  1  0
 66152  1  0
 67153  1  0
 67154  1  0
 68155  1  0
 68156  1  0
 69157  1  0
 69158  1  0
 70159  1  0
 70160  1  0
 71161  1  1
 72162  1  0
 72163  1  0
 72164  1  0
M  END
>  <PDBID>  (1) 
3LD6

>  <PDB ID>  (1) 
3LD6

>  <Generic Name>  (1) 
Ketoconazole

>  <Brand Name>  (1) 
Apo-ketoconazole#Extina#Ketoconazole#Ketodan#Ketoderm Cream 2%#Nizoral#Nizoral  - 2%#Nizoral A-D#Nizoral Cream 2%#Nizoral Oral Suspension 20mg/ml#Nizoral Shp 2%#Nizoral Tablets 200mg#Nu-ketocon Tablets - 200mg#Teva-ketoconazole#Xolegel#Fungarest#Fungoral#Ketoderm#Ketoisdin#Ketozole#Nizoral Cream#Nizoral Shampoo#Orifungal#Orifungal M#Panfungol

>  <DrugBank ID>  (1) 
DB01026

>  <ATC Codes>  (1) 
G01AF11#D01AC08#J02AB02

>  <Ligand ID>  (1) 
KKK,KLN,KTN

>  <Target Name>  (1) 
Lanosterol 14-alpha demethylase

>  <UniProt ID>  (1) 
P10613

>  <PDB ID.1>  (1) 
3LD6

>  <Seq. Identity>  (1) 
40%

$$$$
