PDB_DB04786_09
     RDKit          3D

192199  0  0  0  0  0  0  0  0999 V2000
  -15.7209    1.4194    2.7647 O   0  0  0  0  0  0  0  0  0  0  0  0
  -15.5884    1.5573    1.2128 S   0  0  0  0  0  0  0  0  0  0  0  0
  -15.8214    3.0947    0.7401 O   0  0  0  0  0  0  0  0  0  0  0  0
  -16.5009    0.5877    0.3335 O   0  0  0  0  0  0  0  0  0  0  0  0
  -13.8709    1.1580    0.7933 C   0  0  0  0  0  0  0  0  0  0  0  0
  -13.7788    1.3928   -0.7004 C   0  0  0  0  0  0  0  0  0  0  0  0
  -12.6170    0.7227   -1.3477 C   0  0  2  0  0  0  0  0  0  0  0  0
  -13.2667   -0.6256   -2.3133 S   0  0  0  0  0  0  0  0  0  0  0  0
  -14.0940    0.5362   -3.5687 O   0  0  0  0  0  0  0  0  0  0  0  0
  -12.5122   -1.4667   -3.0428 O   0  0  0  0  0  0  0  0  0  0  0  0
  -14.6843   -1.1022   -1.6076 O   0  0  0  0  0  0  0  0  0  0  0  0
  -13.6492   -0.2544    1.2144 C   0  0  0  0  0  0  0  0  0  0  0  0
  -12.5147   -0.9188    0.4649 C   0  0  0  0  0  0  0  0  0  0  0  0
  -11.6220   -1.7446    1.3802 C   0  0  1  0  0  0  0  0  0  0  0  0
  -12.6230   -2.8556    2.2193 S   0  0  0  0  0  0  0  0  0  0  0  0
  -13.5928   -2.3974    3.0573 O   0  0  0  0  0  0  0  0  0  0  0  0
  -12.9139   -4.0892    1.0853 O   0  0  0  0  0  0  0  0  0  0  0  0
  -11.3279   -3.6908    3.2105 O   0  0  0  0  0  0  0  0  0  0  0  0
  -10.6390   -2.4449    0.4311 C   0  0  0  0  0  0  0  0  0  0  0  0
   -9.7108   -1.3575   -0.1059 C   0  0  0  0  0  0  0  0  0  0  0  0
  -11.7487    0.1584   -0.2205 C   0  0  0  0  0  0  0  0  0  0  0  0
  -10.4269   -0.2775   -0.8007 C   0  0  1  0  0  0  0  0  0  0  0  0
   -9.6358    0.8437   -1.1366 N   0  0  0  0  0  0  0  0  0  0  0  0
   -8.8747    1.4990   -0.1470 C   0  0  0  0  0  0  0  0  0  0  0  0
   -8.8586    2.8614   -0.3356 O   0  0  0  0  0  0  0  0  0  0  0  0
   -7.3965    1.0046   -0.2487 C   0  0  2  0  0  0  0  0  0  0  0  0
   -6.6739    1.7086    0.8493 C   0  0  0  0  0  0  0  0  0  0  0  0
   -6.9088    1.5102   -1.5982 C   0  0  0  0  0  0  0  0  0  0  0  0
   -5.4493    1.5422   -1.7175 C   0  0  0  0  0  0  0  0  0  0  0  0
   -4.6795    1.9699   -0.5116 C   0  0  0  0  0  0  0  0  0  0  0  0
   -4.9561    3.5011   -0.3774 C   0  0  0  0  0  0  0  0  0  0  0  0
   -5.1659    1.3744    0.7527 C   0  0  0  0  0  0  0  0  0  0  0  0
   -4.9527    0.0648    1.1134 N   0  0  0  0  0  0  0  0  0  0  0  0
   -3.8008   -0.6794    0.9893 C   0  0  0  0  0  0  0  0  0  0  0  0
   -3.9786   -1.9216    1.6789 O   0  0  0  0  0  0  0  0  0  0  0  0
   -3.4127   -1.0515   -0.4118 C   0  0  0  0  0  0  0  0  0  0  0  0
   -2.1081   -1.8545   -0.4181 C   0  0  0  0  0  0  0  0  0  0  0  0
   -4.4856   -1.9600   -0.9922 C   0  0  0  0  0  0  0  0  0  0  0  0
   -4.0345   -2.4148   -2.3618 C   0  0  0  0  0  0  0  0  0  0  0  0
   -2.7740   -1.7197   -2.7868 C   0  0  0  0  0  0  0  0  0  0  0  0
   -1.6657   -2.1111   -1.7944 C   0  0  0  0  0  0  0  0  0  0  0  0
   -0.4827   -1.4963   -2.2876 N   0  0  0  0  0  0  0  0  0  0  0  0
    0.6968   -1.9092   -1.5824 C   0  0  0  0  0  0  0  0  0  0  0  0
    1.7739   -1.5281   -2.4279 O   0  0  0  0  0  0  0  0  0  0  0  0
    0.7822   -1.1879   -0.3412 N   0  0  0  0  0  0  0  0  0  0  0  0
    1.8586   -1.4983    0.5236 C   0  0  0  0  0  0  0  0  0  0  0  0
    3.2419   -1.2258    0.0664 C   0  0  0  0  0  0  0  0  0  0  0  0
    1.6423   -0.6667    1.8033 C   0  0  0  0  0  0  0  0  0  0  0  0
    1.7090    0.8156    1.4836 C   0  0  0  0  0  0  0  0  0  0  0  0
    2.8717    1.1334    0.5628 C   0  0  0  0  0  0  0  0  0  0  0  0
    3.8618    0.0231    0.6806 C   0  0  2  0  0  0  0  0  0  0  0  0
    5.1381    0.3082   -0.0928 C   0  0  0  0  0  0  0  0  0  0  0  0
    4.8588    0.5202   -1.4455 O   0  0  0  0  0  0  0  0  0  0  0  0
    5.7550    1.4695    0.4589 N   0  0  0  0  0  0  0  0  0  0  0  0
    6.6527    2.1420   -0.4164 C   0  0  0  0  0  0  0  0  0  0  0  0
    7.8274    1.2492   -0.7497 C   0  0  0  0  0  0  0  0  0  0  0  0
    7.2295    3.4050    0.1613 C   0  0  0  0  0  0  0  0  0  0  0  0
    6.1787    4.4000    0.5931 C   0  0  0  0  0  0  0  0  0  0  0  0
    8.0667    4.0489   -0.9158 C   0  0  0  0  0  0  0  0  0  0  0  0
    8.1398    3.2173   -2.1673 C   0  0  0  0  0  0  0  0  0  0  0  0
    8.5334    1.7819   -1.9188 C   0  0  0  0  0  0  0  0  0  0  0  0
   10.0289    1.7417   -1.9463 C   0  0  0  0  0  0  0  0  0  0  0  0
   10.4764    2.4940   -0.8408 O   0  0  0  0  0  0  0  0  0  0  0  0
   10.6864    0.5338   -2.1218 N   0  0  0  0  0  0  0  0  0  0  0  0
   10.6269   -0.5188   -1.1886 C   0  0  0  0  0  0  0  0  0  0  0  0
   11.3085   -1.7172   -1.8122 C   0  0  0  0  0  0  0  0  0  0  0  0
   11.3444   -2.9182   -0.9457 C   0  0  0  0  0  0  0  0  0  0  0  0
   11.5592   -2.7034    0.5092 C   0  0  2  0  0  0  0  0  0  0  0  0
   10.5290   -4.0019    1.3722 S   0  0  0  0  0  0  0  0  0  0  0  0
   11.1746   -5.3297    0.7998 O   0  0  0  0  0  0  0  0  0  0  0  0
   10.5116   -3.7313    2.8543 O   0  0  0  0  0  0  0  0  0  0  0  0
    9.0969   -3.7382    0.6398 O   0  0  0  0  0  0  0  0  0  0  0  0
   11.3105   -0.2524    0.1158 C   0  0  0  0  0  0  0  0  0  0  0  0
   10.9630   -1.4199    1.0264 C   0  0  0  0  0  0  0  0  0  0  0  0
   11.4451   -1.1733    2.4386 C   0  0  0  0  0  0  0  0  0  0  0  0
   12.7994   -0.1749    0.0385 C   0  0  1  0  0  0  0  0  0  0  0  0
   13.4559    0.8627   -1.0922 S   0  0  0  0  0  0  0  0  0  0  0  0
   13.4362    1.0031   -2.3916 O   0  0  0  0  0  0  0  0  0  0  0  0
   13.6785    2.4411   -0.2056 O   0  0  0  0  0  0  0  0  0  0  0  0
   15.3459    0.4750   -0.7232 O   0  0  0  0  0  0  0  0  0  0  0  0
   13.2882    0.1897    1.4360 C   0  0  0  0  0  0  0  0  0  0  0  0
   12.1994    0.1376    2.4504 C   0  0  2  0  0  0  0  0  0  0  0  0
   13.1089    0.1733    4.0473 S   0  0  0  0  0  0  0  0  0  0  0  0
   13.9209    1.6711    3.9435 O   0  0  0  0  0  0  0  0  0  0  0  0
   14.0715   -0.9353    4.0370 O   0  0  0  0  0  0  0  0  0  0  0  0
   11.9969    0.3205    5.1478 O   0  0  0  0  0  0  0  0  0  0  0  0
  -15.9285    0.5368    3.1312 H   0  0  0  0  0  0  0  0  0  0  0  0
  -14.9708    3.6339    0.6595 H   0  0  0  0  0  0  0  0  0  0  0  0
  -16.8174    1.0236   -0.5126 H   0  0  0  0  0  0  0  0  0  0  0  0
  -13.2852    1.9087    1.3638 H   0  0  0  0  0  0  0  0  0  0  0  0
  -14.7781    1.0990   -1.1368 H   0  0  0  0  0  0  0  0  0  0  0  0
  -13.6589    2.4906   -0.8588 H   0  0  0  0  0  0  0  0  0  0  0  0
  -11.9953    1.3743   -2.0052 H   0  0  0  0  0  0  0  0  0  0  0  0
  -14.4272   -0.2232   -4.1426 H   0  0  0  0  0  0  0  0  0  0  0  0
  -12.1341   -2.3660   -2.9226 H   0  0  0  0  0  0  0  0  0  0  0  0
  -14.8443   -2.0838   -1.6686 H   0  0  0  0  0  0  0  0  0  0  0  0
  -13.3071   -0.2094    2.2901 H   0  0  0  0  0  0  0  0  0  0  0  0
  -14.5771   -0.8611    1.2170 H   0  0  0  0  0  0  0  0  0  0  0  0
  -12.9468   -1.6128   -0.2664 H   0  0  0  0  0  0  0  0  0  0  0  0
  -11.0299   -1.0766    2.0236 H   0  0  0  0  0  0  0  0  0  0  0  0
  -14.5397   -2.2188    3.2019 H   0  0  0  0  0  0  0  0  0  0  0  0
  -12.1902   -4.7631    1.0949 H   0  0  0  0  0  0  0  0  0  0  0  0
  -11.8885   -4.2873    3.7717 H   0  0  0  0  0  0  0  0  0  0  0  0
  -10.0058   -3.0954    1.0653 H   0  0  0  0  0  0  0  0  0  0  0  0
  -11.1522   -2.9928   -0.3562 H   0  0  0  0  0  0  0  0  0  0  0  0
   -9.1265   -1.0195    0.7876 H   0  0  0  0  0  0  0  0  0  0  0  0
   -8.9961   -1.8513   -0.7864 H   0  0  0  0  0  0  0  0  0  0  0  0
  -11.6274    1.0030    0.4909 H   0  0  0  0  0  0  0  0  0  0  0  0
  -10.6847   -0.7409   -1.8407 H   0  0  0  0  0  0  0  0  0  0  0  0
   -9.9684    1.4007   -1.9275 H   0  0  0  0  0  0  0  0  0  0  0  0
   -9.1646    1.2249    0.9085 H   0  0  0  0  0  0  0  0  0  0  0  0
   -9.5810    3.2831    0.2039 H   0  0  0  0  0  0  0  0  0  0  0  0
   -7.3143   -0.0602   -0.2250 H   0  0  0  0  0  0  0  0  0  0  0  0
   -6.8433    2.7951    0.8727 H   0  0  0  0  0  0  0  0  0  0  0  0
   -7.0405    1.2582    1.8121 H   0  0  0  0  0  0  0  0  0  0  0  0
   -7.3199    0.8156   -2.3770 H   0  0  0  0  0  0  0  0  0  0  0  0
   -7.3880    2.5042   -1.7625 H   0  0  0  0  0  0  0  0  0  0  0  0
   -5.2085    2.3550   -2.5032 H   0  0  0  0  0  0  0  0  0  0  0  0
   -5.0880    0.6203   -2.2181 H   0  0  0  0  0  0  0  0  0  0  0  0
   -3.6145    1.9275   -0.6885 H   0  0  0  0  0  0  0  0  0  0  0  0
   -4.7411    3.7354    0.6813 H   0  0  0  0  0  0  0  0  0  0  0  0
   -4.2495    4.0471   -1.0004 H   0  0  0  0  0  0  0  0  0  0  0  0
   -5.9710    3.7158   -0.7051 H   0  0  0  0  0  0  0  0  0  0  0  0
   -4.7220    2.0819    1.5728 H   0  0  0  0  0  0  0  0  0  0  0  0
   -5.6154   -0.2414    1.8386 H   0  0  0  0  0  0  0  0  0  0  0  0
   -2.8983   -0.2471    1.5191 H   0  0  0  0  0  0  0  0  0  0  0  0
   -3.9918   -1.7388    2.6403 H   0  0  0  0  0  0  0  0  0  0  0  0
   -3.2757   -0.1879   -1.0283 H   0  0  0  0  0  0  0  0  0  0  0  0
   -2.2685   -2.8197    0.1248 H   0  0  0  0  0  0  0  0  0  0  0  0
   -1.4297   -1.2732    0.2355 H   0  0  0  0  0  0  0  0  0  0  0  0
   -5.4258   -1.3958   -1.0322 H   0  0  0  0  0  0  0  0  0  0  0  0
   -4.5806   -2.8638   -0.3308 H   0  0  0  0  0  0  0  0  0  0  0  0
   -3.7931   -3.5080   -2.3531 H   0  0  0  0  0  0  0  0  0  0  0  0
   -4.8136   -2.2650   -3.1166 H   0  0  0  0  0  0  0  0  0  0  0  0
   -2.8465   -0.6469   -2.9181 H   0  0  0  0  0  0  0  0  0  0  0  0
   -2.4729   -2.1819   -3.7536 H   0  0  0  0  0  0  0  0  0  0  0  0
   -1.5615   -3.2459   -1.9026 H   0  0  0  0  0  0  0  0  0  0  0  0
   -0.5000   -0.4774   -2.4154 H   0  0  0  0  0  0  0  0  0  0  0  0
    0.6568   -2.9813   -1.4027 H   0  0  0  0  0  0  0  0  0  0  0  0
    1.5064   -0.7106   -2.8743 H   0  0  0  0  0  0  0  0  0  0  0  0
    0.5850   -0.1702   -0.4458 H   0  0  0  0  0  0  0  0  0  0  0  0
    1.7670   -2.5642    0.9063 H   0  0  0  0  0  0  0  0  0  0  0  0
    3.4295   -1.1659   -0.9993 H   0  0  0  0  0  0  0  0  0  0  0  0
    3.8974   -2.0757    0.4356 H   0  0  0  0  0  0  0  0  0  0  0  0
    2.3924   -0.9866    2.5324 H   0  0  0  0  0  0  0  0  0  0  0  0
    0.6325   -0.8720    2.2239 H   0  0  0  0  0  0  0  0  0  0  0  0
    0.7456    1.2023    1.1208 H   0  0  0  0  0  0  0  0  0  0  0  0
    1.9110    1.3436    2.4448 H   0  0  0  0  0  0  0  0  0  0  0  0
    3.3727    2.0666    0.8924 H   0  0  0  0  0  0  0  0  0  0  0  0
    2.5297    1.3062   -0.4810 H   0  0  0  0  0  0  0  0  0  0  0  0
    4.0775   -0.1698    1.7347 H   0  0  0  0  0  0  0  0  0  0  0  0
    5.8293   -0.5543   -0.0322 H   0  0  0  0  0  0  0  0  0  0  0  0
    4.3658    1.3705   -1.5751 H   0  0  0  0  0  0  0  0  0  0  0  0
    5.9885    1.4491    1.4514 H   0  0  0  0  0  0  0  0  0  0  0  0
    6.1244    2.3881   -1.3719 H   0  0  0  0  0  0  0  0  0  0  0  0
    7.3866    0.2555   -1.0054 H   0  0  0  0  0  0  0  0  0  0  0  0
    8.4276    1.2016    0.1852 H   0  0  0  0  0  0  0  0  0  0  0  0
    7.8535    3.1477    1.0617 H   0  0  0  0  0  0  0  0  0  0  0  0
    5.7412    4.1154    1.5467 H   0  0  0  0  0  0  0  0  0  0  0  0
    5.4629    4.4975   -0.2510 H   0  0  0  0  0  0  0  0  0  0  0  0
    6.7013    5.3706    0.7281 H   0  0  0  0  0  0  0  0  0  0  0  0
    7.6565    5.0593   -1.1707 H   0  0  0  0  0  0  0  0  0  0  0  0
    9.0596    4.2690   -0.4680 H   0  0  0  0  0  0  0  0  0  0  0  0
    8.9527    3.7211   -2.7970 H   0  0  0  0  0  0  0  0  0  0  0  0
    7.1996    3.3289   -2.7518 H   0  0  0  0  0  0  0  0  0  0  0  0
    8.1681    1.2240   -2.8296 H   0  0  0  0  0  0  0  0  0  0  0  0
   10.3127    2.4012   -2.8180 H   0  0  0  0  0  0  0  0  0  0  0  0
   11.1706    3.1361   -1.0599 H   0  0  0  0  0  0  0  0  0  0  0  0
   10.5530    0.1747   -3.0716 H   0  0  0  0  0  0  0  0  0  0  0  0
    9.5895   -0.8362   -0.9875 H   0  0  0  0  0  0  0  0  0  0  0  0
   10.6442   -1.9852   -2.6959 H   0  0  0  0  0  0  0  0  0  0  0  0
   12.2796   -1.4710   -2.2886 H   0  0  0  0  0  0  0  0  0  0  0  0
   10.4762   -3.5975   -1.1311 H   0  0  0  0  0  0  0  0  0  0  0  0
   12.2276   -3.5387   -1.3008 H   0  0  0  0  0  0  0  0  0  0  0  0
   12.5768   -2.9173    0.8584 H   0  0  0  0  0  0  0  0  0  0  0  0
   12.0928   -5.2685    0.4217 H   0  0  0  0  0  0  0  0  0  0  0  0
   11.1686   -4.1409    3.4364 H   0  0  0  0  0  0  0  0  0  0  0  0
    8.5129   -3.0618    1.0555 H   0  0  0  0  0  0  0  0  0  0  0  0
   10.8687    0.6420    0.6477 H   0  0  0  0  0  0  0  0  0  0  0  0
    9.8622   -1.5326    0.9742 H   0  0  0  0  0  0  0  0  0  0  0  0
   10.5588   -1.0372    3.0906 H   0  0  0  0  0  0  0  0  0  0  0  0
   12.0403   -1.9831    2.8557 H   0  0  0  0  0  0  0  0  0  0  0  0
   13.1584   -1.2214   -0.1392 H   0  0  0  0  0  0  0  0  0  0  0  0
   13.9407    0.7583   -3.2233 H   0  0  0  0  0  0  0  0  0  0  0  0
   14.0372    3.0269   -0.8944 H   0  0  0  0  0  0  0  0  0  0  0  0
   15.2481    0.5106    0.2479 H   0  0  0  0  0  0  0  0  0  0  0  0
   14.1704   -0.4129    1.7357 H   0  0  0  0  0  0  0  0  0  0  0  0
   13.6453    1.2568    1.3844 H   0  0  0  0  0  0  0  0  0  0  0  0
   11.5637    1.0278    2.5169 H   0  0  0  0  0  0  0  0  0  0  0  0
   13.3043    2.4224    4.1356 H   0  0  0  0  0  0  0  0  0  0  0  0
   15.0023   -0.8904    4.3028 H   0  0  0  0  0  0  0  0  0  0  0  0
   11.5112    1.1916    5.2508 H   0  0  0  0  0  0  0  0  0  0  0  0
  2  1  1  0
  2  3  1  0
  2  4  1  0
  2  5  1  0
  5  6  1  0
  6  7  1  0
  7  8  1  0
  8  9  1  0
  8 10  1  0
  8 11  1  0
  5 12  1  0
 12 13  1  0
 13 14  1  0
 14 15  1  0
 15 16  1  0
 15 17  1  0
 15 18  1  0
 14 19  1  0
 19 20  1  0
  7 21  1  0
 13 21  1  0
 20 22  1  0
 21 22  1  0
 22 23  1  0
 23 24  1  0
 24 25  1  0
 24 26  1  0
 26 27  1  0
 26 28  1  0
 28 29  1  0
 29 30  1  0
 30 31  1  0
 27 32  1  0
 30 32  1  0
 32 33  1  0
 33 34  1  0
 34 35  1  0
 34 36  1  0
 36 37  1  0
 36 38  1  0
 38 39  1  0
 39 40  1  0
 37 41  1  0
 40 41  1  0
 41 42  1  0
 42 43  1  0
 43 44  1  0
 43 45  1  0
 45 46  1  0
 46 47  1  0
 46 48  1  0
 48 49  1  0
 49 50  1  0
 47 51  1  0
 50 51  1  0
 51 52  1  0
 52 53  1  0
 52 54  1  0
 54 55  1  0
 55 56  1  0
 55 57  1  0
 57 58  1  0
 57 59  1  0
 59 60  1  0
 56 61  1  0
 60 61  1  0
 61 62  1  0
 62 63  1  0
 62 64  1  0
 64 65  1  0
 65 66  1  0
 66 67  1  0
 67 68  1  0
 68 69  1  0
 69 70  1  0
 69 71  1  0
 69 72  1  0
 65 73  1  0
 68 74  1  0
 73 74  1  0
 74 75  1  0
 73 76  1  0
 76 77  1  0
 77 78  1  0
 77 79  1  0
 77 80  1  0
 76 81  1  0
 75 82  1  0
 81 82  1  0
 82 83  1  0
 83 84  1  0
 83 85  1  0
 83 86  1  0
  1 87  1  0
  3 88  1  0
  4 89  1  0
  5 90  1  0
  6 91  1  0
  6 92  1  0
  7 93  1  6
  9 94  1  0
 10 95  1  0
 11 96  1  0
 12 97  1  0
 12 98  1  0
 13 99  1  0
 14100  1  1
 16101  1  0
 17102  1  0
 18103  1  0
 19104  1  0
 19105  1  0
 20106  1  0
 20107  1  0
 21108  1  0
 22109  1  6
 23110  1  0
 24111  1  0
 25112  1  0
 26113  1  6
 27114  1  0
 27115  1  0
 28116  1  0
 28117  1  0
 29118  1  0
 29119  1  0
 30120  1  0
 31121  1  0
 31122  1  0
 31123  1  0
 32124  1  0
 33125  1  0
 34126  1  0
 35127  1  0
 36128  1  0
 37129  1  0
 37130  1  0
 38131  1  0
 38132  1  0
 39133  1  0
 39134  1  0
 40135  1  0
 40136  1  0
 41137  1  0
 42138  1  0
 43139  1  0
 44140  1  0
 45141  1  0
 46142  1  0
 47143  1  0
 47144  1  0
 48145  1  0
 48146  1  0
 49147  1  0
 49148  1  0
 50149  1  0
 50150  1  0
 51151  1  1
 52152  1  0
 53153  1  0
 54154  1  0
 55155  1  0
 56156  1  0
 56157  1  0
 57158  1  0
 58159  1  0
 58160  1  0
 58161  1  0
 59162  1  0
 59163  1  0
 60164  1  0
 60165  1  0
 61166  1  0
 62167  1  0
 63168  1  0
 64169  1  0
 65170  1  0
 66171  1  0
 66172  1  0
 67173  1  0
 67174  1  0
 68175  1  6
 70176  1  0
 71177  1  0
 72178  1  0
 73179  1  0
 74180  1  0
 75181  1  0
 75182  1  0
 76183  1  6
 78184  1  0
 79185  1  0
 80186  1  0
 81187  1  0
 81188  1  0
 82189  1  1
 84190  1  0
 85191  1  0
 86192  1  0
M  END
>  <PDBID>  (1) 
2NYR

>  <PDB ID>  (1) 
2NYR

>  <Generic Name>  (1) 
Suramin

>  <Brand Name>  (1) 
309 Fourneau#Antrypol#Bayer 205#Belganyl#Germanin#Moranyl#Naganin#Naganine#Naganol#Naphuride

>  <DrugBank ID>  (1) 
DB04786

>  <ATC Codes>  (1) 
P01CX02

>  <Ligand ID>  (1) 
SVR

>  <Target Name>  (1) 
NAD-dependent protein deacylase sirtuin-5, mitochondrial

>  <UniProt ID>  (1) 
Q9NXA8

>  <PDB ID.1>  (1) 
2NYR

>  <Seq. Identity>  (1) 
100%

$$$$
