PDB_DB01076_06
     RDKit          3D

408420  0  0  0  0  0  0  0  0999 V2000
   -2.4796   -1.5342   -1.0672 C   0  0  0  0  0  0  0  0  0  0  0  0
   -2.2932   -1.0072    0.2890 C   0  0  0  0  0  0  0  0  0  0  0  0
   -2.9611   -1.8229    1.3846 C   0  0  0  0  0  0  0  0  0  0  0  0
   -4.2788   -2.3818    1.0107 C   0  0  0  0  0  0  0  0  0  0  0  0
   -4.2792   -3.1349   -0.2921 C   0  0  0  0  0  0  0  0  0  0  0  0
   -3.8140   -2.1837   -1.3366 C   0  0  0  0  0  0  0  0  0  0  0  0
    2.1019   -3.8709   -0.3902 C   0  0  0  0  0  0  0  0  0  0  0  0
    1.2524   -2.6072   -0.7256 C   0  0  0  0  0  0  0  0  0  0  0  0
    0.9260   -2.0243    0.6123 C   0  0  0  0  0  0  0  0  0  0  0  0
    0.5763   -3.1006    1.6308 C   0  0  0  0  0  0  0  0  0  0  0  0
   -0.0482   -4.2368    0.8400 C   0  0  0  0  0  0  0  0  0  0  0  0
    1.0583   -4.9103    0.0431 C   0  0  0  0  0  0  0  0  0  0  0  0
    1.6905   -5.8279    0.8493 F   0  0  0  0  0  0  0  0  0  0  0  0
    0.2859   -0.7480    0.7792 C   0  0  0  0  0  0  0  0  0  0  0  0
   -3.7171    2.8845    0.3701 C   0  0  0  0  0  0  0  0  0  0  0  0
   -4.1933    2.1487   -0.8147 C   0  0  0  0  0  0  0  0  0  0  0  0
   -5.2932    2.9938   -1.5406 C   0  0  0  0  0  0  0  0  0  0  0  0
   -6.4478    3.1909   -0.5974 C   0  0  0  0  0  0  0  0  0  0  0  0
   -6.1454    2.5863    0.7604 C   0  0  0  0  0  0  0  0  0  0  0  0
   -4.8955    3.1755    1.3147 C   0  0  0  0  0  0  0  0  0  0  0  0
    8.0972   -1.6656   -0.2318 O   0  0  0  0  0  0  0  0  0  0  0  0
    6.4978   -1.6905    1.3505 O   0  0  0  0  0  0  0  0  0  0  0  0
    5.4326    0.7651    1.8957 O   0  0  0  0  0  0  0  0  0  0  0  0
    6.8604   -1.0944    0.1499 C   0  0  0  0  0  0  0  0  0  0  0  0
    7.1012    0.3755    0.2793 C   0  0  0  0  0  0  0  0  0  0  0  0
    5.8969    1.1823    0.6769 C   0  0  1  0  0  0  0  0  0  0  0  0
    4.8904    1.2921   -0.4155 C   0  0  0  0  0  0  0  0  0  0  0  0
    3.7646    2.2481   -0.1904 C   0  0  1  0  0  0  0  0  0  0  0  0
    2.8737    1.9955    0.9710 C   0  0  0  0  0  0  0  0  0  0  0  0
    2.1281    0.7549    1.0988 C   0  0  0  0  0  0  0  0  0  0  0  0
    1.1847    0.2829    0.1877 N   0  0  0  0  0  0  0  0  0  0  0  0
   -1.0746   -0.3199    0.6938 C   0  0  0  0  0  0  0  0  0  0  0  0
   -0.9906    1.0093   -0.1034 C   0  0  0  0  0  0  0  0  0  0  0  0
   -1.3630    2.2086    0.6527 C   0  0  0  0  0  0  0  0  0  0  0  0
   -2.6502    2.4015    1.1174 N   0  0  0  0  0  0  0  0  0  0  0  0
   -0.4912    2.3714    1.7947 O   0  0  0  0  0  0  0  0  0  0  0  0
    0.4325    1.0871   -0.6395 C   0  0  0  0  0  0  0  0  0  0  0  0
    0.4389    0.5966   -2.0948 C   0  0  0  0  0  0  0  0  0  0  0  0
   -0.3898    1.5036   -2.9649 C   0  0  0  0  0  0  0  0  0  0  0  0
    1.8140    0.5278   -2.6540 C   0  0  0  0  0  0  0  0  0  0  0  0
    4.4626    3.5071    0.0246 O   0  0  0  0  0  0  0  0  0  0  0  0
   -2.4796   -1.5342   -1.0672 C   0  0  0  0  0  0  0  0  0  0  0  0
   -2.2932   -1.0072    0.2890 C   0  0  0  0  0  0  0  0  0  0  0  0
   -2.9611   -1.8229    1.3846 C   0  0  0  0  0  0  0  0  0  0  0  0
   -4.2788   -2.3818    1.0107 C   0  0  0  0  0  0  0  0  0  0  0  0
   -4.2792   -3.1349   -0.2921 C   0  0  0  0  0  0  0  0  0  0  0  0
   -3.8140   -2.1837   -1.3366 C   0  0  0  0  0  0  0  0  0  0  0  0
    2.1019   -3.8709   -0.3902 C   0  0  0  0  0  0  0  0  0  0  0  0
    1.2524   -2.6072   -0.7256 C   0  0  0  0  0  0  0  0  0  0  0  0
    0.9260   -2.0243    0.6123 C   0  0  0  0  0  0  0  0  0  0  0  0
    0.5763   -3.1006    1.6308 C   0  0  0  0  0  0  0  0  0  0  0  0
   -0.0482   -4.2368    0.8400 C   0  0  0  0  0  0  0  0  0  0  0  0
    1.0583   -4.9103    0.0431 C   0  0  0  0  0  0  0  0  0  0  0  0
    1.6905   -5.8279    0.8493 F   0  0  0  0  0  0  0  0  0  0  0  0
    0.2859   -0.7480    0.7792 C   0  0  0  0  0  0  0  0  0  0  0  0
   -3.7171    2.8845    0.3701 C   0  0  0  0  0  0  0  0  0  0  0  0
   -4.1933    2.1487   -0.8147 C   0  0  0  0  0  0  0  0  0  0  0  0
   -5.2932    2.9938   -1.5406 C   0  0  0  0  0  0  0  0  0  0  0  0
   -6.4478    3.1909   -0.5974 C   0  0  0  0  0  0  0  0  0  0  0  0
   -6.1454    2.5863    0.7604 C   0  0  0  0  0  0  0  0  0  0  0  0
   -4.8955    3.1755    1.3147 C   0  0  0  0  0  0  0  0  0  0  0  0
    8.0972   -1.6656   -0.2318 O   0  0  0  0  0  0  0  0  0  0  0  0
    6.4978   -1.6905    1.3505 O   0  0  0  0  0  0  0  0  0  0  0  0
    5.4326    0.7651    1.8957 O   0  0  0  0  0  0  0  0  0  0  0  0
    6.8604   -1.0944    0.1499 C   0  0  0  0  0  0  0  0  0  0  0  0
    7.1012    0.3755    0.2793 C   0  0  0  0  0  0  0  0  0  0  0  0
    5.8969    1.1823    0.6769 C   0  0  1  0  0  0  0  0  0  0  0  0
    4.8904    1.2921   -0.4155 C   0  0  0  0  0  0  0  0  0  0  0  0
    3.7646    2.2481   -0.1904 C   0  0  1  0  0  0  0  0  0  0  0  0
    2.8737    1.9955    0.9710 C   0  0  0  0  0  0  0  0  0  0  0  0
    2.1281    0.7549    1.0988 C   0  0  0  0  0  0  0  0  0  0  0  0
    1.1847    0.2829    0.1877 N   0  0  0  0  0  0  0  0  0  0  0  0
   -1.0746   -0.3199    0.6938 C   0  0  0  0  0  0  0  0  0  0  0  0
   -0.9906    1.0093   -0.1034 C   0  0  0  0  0  0  0  0  0  0  0  0
   -1.3630    2.2086    0.6527 C   0  0  0  0  0  0  0  0  0  0  0  0
   -2.6502    2.4015    1.1174 N   0  0  0  0  0  0  0  0  0  0  0  0
   -0.4912    2.3714    1.7947 O   0  0  0  0  0  0  0  0  0  0  0  0
    0.4325    1.0871   -0.6395 C   0  0  0  0  0  0  0  0  0  0  0  0
    0.4389    0.5966   -2.0948 C   0  0  0  0  0  0  0  0  0  0  0  0
   -0.3898    1.5036   -2.9649 C   0  0  0  0  0  0  0  0  0  0  0  0
    1.8140    0.5278   -2.6540 C   0  0  0  0  0  0  0  0  0  0  0  0
    4.4626    3.5071    0.0246 O   0  0  0  0  0  0  0  0  0  0  0  0
   -2.4796   -1.5342   -1.0672 C   0  0  0  0  0  0  0  0  0  0  0  0
   -2.2932   -1.0072    0.2890 C   0  0  0  0  0  0  0  0  0  0  0  0
   -2.9611   -1.8229    1.3846 C   0  0  0  0  0  0  0  0  0  0  0  0
   -4.2788   -2.3818    1.0107 C   0  0  0  0  0  0  0  0  0  0  0  0
   -4.2792   -3.1349   -0.2921 C   0  0  0  0  0  0  0  0  0  0  0  0
   -3.8140   -2.1837   -1.3366 C   0  0  0  0  0  0  0  0  0  0  0  0
    2.1019   -3.8709   -0.3902 C   0  0  0  0  0  0  0  0  0  0  0  0
    1.2524   -2.6072   -0.7256 C   0  0  0  0  0  0  0  0  0  0  0  0
    0.9260   -2.0243    0.6123 C   0  0  0  0  0  0  0  0  0  0  0  0
    0.5763   -3.1006    1.6308 C   0  0  0  0  0  0  0  0  0  0  0  0
   -0.0482   -4.2368    0.8400 C   0  0  0  0  0  0  0  0  0  0  0  0
    1.0583   -4.9103    0.0431 C   0  0  0  0  0  0  0  0  0  0  0  0
    1.6905   -5.8279    0.8493 F   0  0  0  0  0  0  0  0  0  0  0  0
    0.2859   -0.7480    0.7792 C   0  0  0  0  0  0  0  0  0  0  0  0
   -3.7171    2.8845    0.3701 C   0  0  0  0  0  0  0  0  0  0  0  0
   -4.1933    2.1487   -0.8147 C   0  0  0  0  0  0  0  0  0  0  0  0
   -5.2932    2.9938   -1.5406 C   0  0  0  0  0  0  0  0  0  0  0  0
   -6.4478    3.1909   -0.5974 C   0  0  0  0  0  0  0  0  0  0  0  0
   -6.1454    2.5863    0.7604 C   0  0  0  0  0  0  0  0  0  0  0  0
   -4.8955    3.1755    1.3147 C   0  0  0  0  0  0  0  0  0  0  0  0
    8.0972   -1.6656   -0.2318 O   0  0  0  0  0  0  0  0  0  0  0  0
    6.4978   -1.6905    1.3505 O   0  0  0  0  0  0  0  0  0  0  0  0
    5.4326    0.7651    1.8957 O   0  0  0  0  0  0  0  0  0  0  0  0
    6.8604   -1.0944    0.1499 C   0  0  0  0  0  0  0  0  0  0  0  0
    7.1012    0.3755    0.2793 C   0  0  0  0  0  0  0  0  0  0  0  0
    5.8969    1.1823    0.6769 C   0  0  1  0  0  0  0  0  0  0  0  0
    4.8904    1.2921   -0.4155 C   0  0  0  0  0  0  0  0  0  0  0  0
    3.7646    2.2481   -0.1904 C   0  0  1  0  0  0  0  0  0  0  0  0
    2.8737    1.9955    0.9710 C   0  0  0  0  0  0  0  0  0  0  0  0
    2.1281    0.7549    1.0988 C   0  0  0  0  0  0  0  0  0  0  0  0
    1.1847    0.2829    0.1877 N   0  0  0  0  0  0  0  0  0  0  0  0
   -1.0746   -0.3199    0.6938 C   0  0  0  0  0  0  0  0  0  0  0  0
   -0.9906    1.0093   -0.1034 C   0  0  0  0  0  0  0  0  0  0  0  0
   -1.3630    2.2086    0.6527 C   0  0  0  0  0  0  0  0  0  0  0  0
   -2.6502    2.4015    1.1174 N   0  0  0  0  0  0  0  0  0  0  0  0
   -0.4912    2.3714    1.7947 O   0  0  0  0  0  0  0  0  0  0  0  0
    0.4325    1.0871   -0.6395 C   0  0  0  0  0  0  0  0  0  0  0  0
    0.4389    0.5966   -2.0948 C   0  0  0  0  0  0  0  0  0  0  0  0
   -0.3898    1.5036   -2.9649 C   0  0  0  0  0  0  0  0  0  0  0  0
    1.8140    0.5278   -2.6540 C   0  0  0  0  0  0  0  0  0  0  0  0
    4.4626    3.5071    0.0246 O   0  0  0  0  0  0  0  0  0  0  0  0
   -2.4796   -1.5342   -1.0672 C   0  0  0  0  0  0  0  0  0  0  0  0
   -2.2932   -1.0072    0.2890 C   0  0  0  0  0  0  0  0  0  0  0  0
   -2.9611   -1.8229    1.3846 C   0  0  0  0  0  0  0  0  0  0  0  0
   -4.2788   -2.3818    1.0107 C   0  0  0  0  0  0  0  0  0  0  0  0
   -4.2792   -3.1349   -0.2921 C   0  0  0  0  0  0  0  0  0  0  0  0
   -3.8140   -2.1837   -1.3366 C   0  0  0  0  0  0  0  0  0  0  0  0
    2.1019   -3.8709   -0.3902 C   0  0  0  0  0  0  0  0  0  0  0  0
    1.2524   -2.6072   -0.7256 C   0  0  0  0  0  0  0  0  0  0  0  0
    0.9260   -2.0243    0.6123 C   0  0  0  0  0  0  0  0  0  0  0  0
    0.5763   -3.1006    1.6308 C   0  0  0  0  0  0  0  0  0  0  0  0
   -0.0482   -4.2368    0.8400 C   0  0  0  0  0  0  0  0  0  0  0  0
    1.0583   -4.9103    0.0431 C   0  0  0  0  0  0  0  0  0  0  0  0
    1.6905   -5.8279    0.8493 F   0  0  0  0  0  0  0  0  0  0  0  0
    0.2859   -0.7480    0.7792 C   0  0  0  0  0  0  0  0  0  0  0  0
   -3.7171    2.8845    0.3701 C   0  0  0  0  0  0  0  0  0  0  0  0
   -4.1933    2.1487   -0.8147 C   0  0  0  0  0  0  0  0  0  0  0  0
   -5.2932    2.9938   -1.5406 C   0  0  0  0  0  0  0  0  0  0  0  0
   -6.4478    3.1909   -0.5974 C   0  0  0  0  0  0  0  0  0  0  0  0
   -6.1454    2.5863    0.7604 C   0  0  0  0  0  0  0  0  0  0  0  0
   -4.8955    3.1755    1.3147 C   0  0  0  0  0  0  0  0  0  0  0  0
    8.0972   -1.6656   -0.2318 O   0  0  0  0  0  0  0  0  0  0  0  0
    6.4978   -1.6905    1.3505 O   0  0  0  0  0  0  0  0  0  0  0  0
    5.4326    0.7651    1.8957 O   0  0  0  0  0  0  0  0  0  0  0  0
    6.8604   -1.0944    0.1499 C   0  0  0  0  0  0  0  0  0  0  0  0
    7.1012    0.3755    0.2793 C   0  0  0  0  0  0  0  0  0  0  0  0
    5.8969    1.1823    0.6769 C   0  0  1  0  0  0  0  0  0  0  0  0
    4.8904    1.2921   -0.4155 C   0  0  0  0  0  0  0  0  0  0  0  0
    3.7646    2.2481   -0.1904 C   0  0  1  0  0  0  0  0  0  0  0  0
    2.8737    1.9955    0.9710 C   0  0  0  0  0  0  0  0  0  0  0  0
    2.1281    0.7549    1.0988 C   0  0  0  0  0  0  0  0  0  0  0  0
    1.1847    0.2829    0.1877 N   0  0  0  0  0  0  0  0  0  0  0  0
   -1.0746   -0.3199    0.6938 C   0  0  0  0  0  0  0  0  0  0  0  0
   -0.9906    1.0093   -0.1034 C   0  0  0  0  0  0  0  0  0  0  0  0
   -1.3630    2.2086    0.6527 C   0  0  0  0  0  0  0  0  0  0  0  0
   -2.6502    2.4015    1.1174 N   0  0  0  0  0  0  0  0  0  0  0  0
   -0.4912    2.3714    1.7947 O   0  0  0  0  0  0  0  0  0  0  0  0
    0.4325    1.0871   -0.6395 C   0  0  0  0  0  0  0  0  0  0  0  0
    0.4389    0.5966   -2.0948 C   0  0  0  0  0  0  0  0  0  0  0  0
   -0.3898    1.5036   -2.9649 C   0  0  0  0  0  0  0  0  0  0  0  0
    1.8140    0.5278   -2.6540 C   0  0  0  0  0  0  0  0  0  0  0  0
    4.4626    3.5071    0.0246 O   0  0  0  0  0  0  0  0  0  0  0  0
   -1.7297   -2.3005   -1.3039 H   0  0  0  0  0  0  0  0  0  0  0  0
   -2.3937   -0.7619   -1.8872 H   0  0  0  0  0  0  0  0  0  0  0  0
   -3.0454   -0.1300    0.2756 H   0  0  0  0  0  0  0  0  0  0  0  0
   -3.1291   -1.1993    2.3126 H   0  0  0  0  0  0  0  0  0  0  0  0
   -2.2645   -2.6138    1.6907 H   0  0  0  0  0  0  0  0  0  0  0  0
   -5.0260   -1.5431    0.8916 H   0  0  0  0  0  0  0  0  0  0  0  0
   -4.6832   -3.0068    1.8324 H   0  0  0  0  0  0  0  0  0  0  0  0
   -5.3036   -3.4337   -0.5150 H   0  0  0  0  0  0  0  0  0  0  0  0
   -3.5792   -4.0036   -0.1589 H   0  0  0  0  0  0  0  0  0  0  0  0
   -3.8017   -2.7242   -2.3027 H   0  0  0  0  0  0  0  0  0  0  0  0
   -4.5993   -1.4007   -1.4566 H   0  0  0  0  0  0  0  0  0  0  0  0
    2.7421   -3.6657    0.4920 H   0  0  0  0  0  0  0  0  0  0  0  0
    2.6464   -4.1848   -1.2811 H   0  0  0  0  0  0  0  0  0  0  0  0
    0.4576   -3.0324   -1.3096 H   0  0  0  0  0  0  0  0  0  0  0  0
    1.9436   -1.9485   -1.2902 H   0  0  0  0  0  0  0  0  0  0  0  0
    2.0271   -1.8174    0.9357 H   0  0  0  0  0  0  0  0  0  0  0  0
   -0.0192   -2.7445    2.4686 H   0  0  0  0  0  0  0  0  0  0  0  0
    1.4811   -3.5785    2.0950 H   0  0  0  0  0  0  0  0  0  0  0  0
   -0.8902   -3.9169    0.2289 H   0  0  0  0  0  0  0  0  0  0  0  0
   -0.4389   -4.9995    1.5481 H   0  0  0  0  0  0  0  0  0  0  0  0
    0.6771   -5.4234   -0.8414 H   0  0  0  0  0  0  0  0  0  0  0  0
    0.5481   -0.5404    1.9119 H   0  0  0  0  0  0  0  0  0  0  0  0
   -3.4225    3.9630    0.0107 H   0  0  0  0  0  0  0  0  0  0  0  0
   -3.4165    2.0816   -1.5964 H   0  0  0  0  0  0  0  0  0  0  0  0
   -4.6581    1.1653   -0.6427 H   0  0  0  0  0  0  0  0  0  0  0  0
   -4.8014    3.9127   -1.8387 H   0  0  0  0  0  0  0  0  0  0  0  0
   -5.5953    2.4164   -2.4037 H   0  0  0  0  0  0  0  0  0  0  0  0
   -7.3539    2.7431   -1.0361 H   0  0  0  0  0  0  0  0  0  0  0  0
   -6.6016    4.2830   -0.4659 H   0  0  0  0  0  0  0  0  0  0  0  0
   -6.1342    1.5044    0.6802 H   0  0  0  0  0  0  0  0  0  0  0  0
   -6.9757    2.8884    1.4748 H   0  0  0  0  0  0  0  0  0  0  0  0
   -4.9884    4.2625    1.4107 H   0  0  0  0  0  0  0  0  0  0  0  0
   -4.6515    2.7121    2.2972 H   0  0  0  0  0  0  0  0  0  0  0  0
    8.8108   -0.9974   -0.3309 H   0  0  0  0  0  0  0  0  0  0  0  0
    7.0239   -2.4918    1.4942 H   0  0  0  0  0  0  0  0  0  0  0  0
    6.1911    0.7070    2.5389 H   0  0  0  0  0  0  0  0  0  0  0  0
    6.0735   -1.3406   -0.6014 H   0  0  0  0  0  0  0  0  0  0  0  0
    7.5699    0.8091   -0.6460 H   0  0  0  0  0  0  0  0  0  0  0  0
    7.8966    0.4956    1.0656 H   0  0  0  0  0  0  0  0  0  0  0  0
    6.2991    2.2297    0.8486 H   0  0  0  0  0  0  0  0  0  0  0  0
    4.5356    0.2490   -0.6433 H   0  0  0  0  0  0  0  0  0  0  0  0
    5.4250    1.6745   -1.3414 H   0  0  0  0  0  0  0  0  0  0  0  0
    3.2181    2.3710   -1.1558 H   0  0  0  0  0  0  0  0  0  0  0  0
    2.2288    2.9226    1.1802 H   0  0  0  0  0  0  0  0  0  0  0  0
    3.5637    2.0594    1.8827 H   0  0  0  0  0  0  0  0  0  0  0  0
    1.6367    0.7783    2.1289 H   0  0  0  0  0  0  0  0  0  0  0  0
    2.9237   -0.0737    1.2401 H   0  0  0  0  0  0  0  0  0  0  0  0
   -1.4023    0.0908    1.7269 H   0  0  0  0  0  0  0  0  0  0  0  0
   -1.6205    0.9172   -1.0115 H   0  0  0  0  0  0  0  0  0  0  0  0
   -1.1223    3.0980   -0.0332 H   0  0  0  0  0  0  0  0  0  0  0  0
   -2.8232    2.2455    2.1465 H   0  0  0  0  0  0  0  0  0  0  0  0
   -0.9131    1.9435    2.5786 H   0  0  0  0  0  0  0  0  0  0  0  0
    0.6752    2.1597   -0.7007 H   0  0  0  0  0  0  0  0  0  0  0  0
   -0.0508   -0.4224   -2.1246 H   0  0  0  0  0  0  0  0  0  0  0  0
   -1.0323    0.9058   -3.6007 H   0  0  0  0  0  0  0  0  0  0  0  0
   -0.9200    2.2542   -2.3384 H   0  0  0  0  0  0  0  0  0  0  0  0
    0.3266    2.1106   -3.5865 H   0  0  0  0  0  0  0  0  0  0  0  0
    2.5270    0.2456   -1.8781 H   0  0  0  0  0  0  0  0  0  0  0  0
    2.0598    1.5061   -3.1199 H   0  0  0  0  0  0  0  0  0  0  0  0
    1.8543   -0.2160   -3.4937 H   0  0  0  0  0  0  0  0  0  0  0  0
    4.0635    3.8779    0.8294 H   0  0  0  0  0  0  0  0  0  0  0  0
   -1.7297   -2.3005   -1.3039 H   0  0  0  0  0  0  0  0  0  0  0  0
   -2.3937   -0.7619   -1.8872 H   0  0  0  0  0  0  0  0  0  0  0  0
   -3.0454   -0.1300    0.2756 H   0  0  0  0  0  0  0  0  0  0  0  0
   -3.1291   -1.1993    2.3126 H   0  0  0  0  0  0  0  0  0  0  0  0
   -2.2645   -2.6138    1.6907 H   0  0  0  0  0  0  0  0  0  0  0  0
   -5.0260   -1.5431    0.8916 H   0  0  0  0  0  0  0  0  0  0  0  0
   -4.6832   -3.0068    1.8324 H   0  0  0  0  0  0  0  0  0  0  0  0
   -5.3036   -3.4337   -0.5150 H   0  0  0  0  0  0  0  0  0  0  0  0
   -3.5792   -4.0036   -0.1589 H   0  0  0  0  0  0  0  0  0  0  0  0
   -3.8017   -2.7242   -2.3027 H   0  0  0  0  0  0  0  0  0  0  0  0
   -4.5993   -1.4007   -1.4566 H   0  0  0  0  0  0  0  0  0  0  0  0
    2.7421   -3.6657    0.4920 H   0  0  0  0  0  0  0  0  0  0  0  0
    2.6464   -4.1848   -1.2811 H   0  0  0  0  0  0  0  0  0  0  0  0
    0.4576   -3.0324   -1.3096 H   0  0  0  0  0  0  0  0  0  0  0  0
    1.9436   -1.9485   -1.2902 H   0  0  0  0  0  0  0  0  0  0  0  0
    2.0271   -1.8174    0.9357 H   0  0  0  0  0  0  0  0  0  0  0  0
   -0.0192   -2.7445    2.4686 H   0  0  0  0  0  0  0  0  0  0  0  0
    1.4811   -3.5785    2.0950 H   0  0  0  0  0  0  0  0  0  0  0  0
   -0.8902   -3.9169    0.2289 H   0  0  0  0  0  0  0  0  0  0  0  0
   -0.4389   -4.9995    1.5481 H   0  0  0  0  0  0  0  0  0  0  0  0
    0.6771   -5.4234   -0.8414 H   0  0  0  0  0  0  0  0  0  0  0  0
    0.5481   -0.5404    1.9119 H   0  0  0  0  0  0  0  0  0  0  0  0
   -3.4225    3.9630    0.0107 H   0  0  0  0  0  0  0  0  0  0  0  0
   -3.4165    2.0816   -1.5964 H   0  0  0  0  0  0  0  0  0  0  0  0
   -4.6581    1.1653   -0.6427 H   0  0  0  0  0  0  0  0  0  0  0  0
   -4.8014    3.9127   -1.8387 H   0  0  0  0  0  0  0  0  0  0  0  0
   -5.5953    2.4164   -2.4037 H   0  0  0  0  0  0  0  0  0  0  0  0
   -7.3539    2.7431   -1.0361 H   0  0  0  0  0  0  0  0  0  0  0  0
   -6.6016    4.2830   -0.4659 H   0  0  0  0  0  0  0  0  0  0  0  0
   -6.1342    1.5044    0.6802 H   0  0  0  0  0  0  0  0  0  0  0  0
   -6.9757    2.8884    1.4748 H   0  0  0  0  0  0  0  0  0  0  0  0
   -4.9884    4.2625    1.4107 H   0  0  0  0  0  0  0  0  0  0  0  0
   -4.6515    2.7121    2.2972 H   0  0  0  0  0  0  0  0  0  0  0  0
    8.8108   -0.9974   -0.3309 H   0  0  0  0  0  0  0  0  0  0  0  0
    7.0239   -2.4918    1.4942 H   0  0  0  0  0  0  0  0  0  0  0  0
    6.1911    0.7070    2.5389 H   0  0  0  0  0  0  0  0  0  0  0  0
    6.0735   -1.3406   -0.6014 H   0  0  0  0  0  0  0  0  0  0  0  0
    7.5699    0.8091   -0.6460 H   0  0  0  0  0  0  0  0  0  0  0  0
    7.8966    0.4956    1.0656 H   0  0  0  0  0  0  0  0  0  0  0  0
    6.2991    2.2297    0.8486 H   0  0  0  0  0  0  0  0  0  0  0  0
    4.5356    0.2490   -0.6433 H   0  0  0  0  0  0  0  0  0  0  0  0
    5.4250    1.6745   -1.3414 H   0  0  0  0  0  0  0  0  0  0  0  0
    3.2181    2.3710   -1.1558 H   0  0  0  0  0  0  0  0  0  0  0  0
    2.2288    2.9226    1.1802 H   0  0  0  0  0  0  0  0  0  0  0  0
    3.5637    2.0594    1.8827 H   0  0  0  0  0  0  0  0  0  0  0  0
    1.6367    0.7783    2.1289 H   0  0  0  0  0  0  0  0  0  0  0  0
    2.9237   -0.0737    1.2401 H   0  0  0  0  0  0  0  0  0  0  0  0
   -1.4023    0.0908    1.7269 H   0  0  0  0  0  0  0  0  0  0  0  0
   -1.6205    0.9172   -1.0115 H   0  0  0  0  0  0  0  0  0  0  0  0
   -1.1223    3.0980   -0.0332 H   0  0  0  0  0  0  0  0  0  0  0  0
   -2.8232    2.2455    2.1465 H   0  0  0  0  0  0  0  0  0  0  0  0
   -0.9131    1.9435    2.5786 H   0  0  0  0  0  0  0  0  0  0  0  0
    0.6752    2.1597   -0.7007 H   0  0  0  0  0  0  0  0  0  0  0  0
   -0.0508   -0.4224   -2.1246 H   0  0  0  0  0  0  0  0  0  0  0  0
   -1.0323    0.9058   -3.6007 H   0  0  0  0  0  0  0  0  0  0  0  0
   -0.9200    2.2542   -2.3384 H   0  0  0  0  0  0  0  0  0  0  0  0
    0.3266    2.1106   -3.5865 H   0  0  0  0  0  0  0  0  0  0  0  0
    2.5270    0.2456   -1.8781 H   0  0  0  0  0  0  0  0  0  0  0  0
    2.0598    1.5061   -3.1199 H   0  0  0  0  0  0  0  0  0  0  0  0
    1.8543   -0.2160   -3.4937 H   0  0  0  0  0  0  0  0  0  0  0  0
    4.0635    3.8779    0.8294 H   0  0  0  0  0  0  0  0  0  0  0  0
   -1.7297   -2.3005   -1.3039 H   0  0  0  0  0  0  0  0  0  0  0  0
   -2.3937   -0.7619   -1.8872 H   0  0  0  0  0  0  0  0  0  0  0  0
   -3.0454   -0.1300    0.2756 H   0  0  0  0  0  0  0  0  0  0  0  0
   -3.1291   -1.1993    2.3126 H   0  0  0  0  0  0  0  0  0  0  0  0
   -2.2645   -2.6138    1.6907 H   0  0  0  0  0  0  0  0  0  0  0  0
   -5.0260   -1.5431    0.8916 H   0  0  0  0  0  0  0  0  0  0  0  0
   -4.6832   -3.0068    1.8324 H   0  0  0  0  0  0  0  0  0  0  0  0
   -5.3036   -3.4337   -0.5150 H   0  0  0  0  0  0  0  0  0  0  0  0
   -3.5792   -4.0036   -0.1589 H   0  0  0  0  0  0  0  0  0  0  0  0
   -3.8017   -2.7242   -2.3027 H   0  0  0  0  0  0  0  0  0  0  0  0
   -4.5993   -1.4007   -1.4566 H   0  0  0  0  0  0  0  0  0  0  0  0
    2.7421   -3.6657    0.4920 H   0  0  0  0  0  0  0  0  0  0  0  0
    2.6464   -4.1848   -1.2811 H   0  0  0  0  0  0  0  0  0  0  0  0
    0.4576   -3.0324   -1.3096 H   0  0  0  0  0  0  0  0  0  0  0  0
    1.9436   -1.9485   -1.2902 H   0  0  0  0  0  0  0  0  0  0  0  0
    2.0271   -1.8174    0.9357 H   0  0  0  0  0  0  0  0  0  0  0  0
   -0.0192   -2.7445    2.4686 H   0  0  0  0  0  0  0  0  0  0  0  0
    1.4811   -3.5785    2.0950 H   0  0  0  0  0  0  0  0  0  0  0  0
   -0.8902   -3.9169    0.2289 H   0  0  0  0  0  0  0  0  0  0  0  0
   -0.4389   -4.9995    1.5481 H   0  0  0  0  0  0  0  0  0  0  0  0
    0.6771   -5.4234   -0.8414 H   0  0  0  0  0  0  0  0  0  0  0  0
    0.5481   -0.5404    1.9119 H   0  0  0  0  0  0  0  0  0  0  0  0
   -3.4225    3.9630    0.0107 H   0  0  0  0  0  0  0  0  0  0  0  0
   -3.4165    2.0816   -1.5964 H   0  0  0  0  0  0  0  0  0  0  0  0
   -4.6581    1.1653   -0.6427 H   0  0  0  0  0  0  0  0  0  0  0  0
   -4.8014    3.9127   -1.8387 H   0  0  0  0  0  0  0  0  0  0  0  0
   -5.5953    2.4164   -2.4037 H   0  0  0  0  0  0  0  0  0  0  0  0
   -7.3539    2.7431   -1.0361 H   0  0  0  0  0  0  0  0  0  0  0  0
   -6.6016    4.2830   -0.4659 H   0  0  0  0  0  0  0  0  0  0  0  0
   -6.1342    1.5044    0.6802 H   0  0  0  0  0  0  0  0  0  0  0  0
   -6.9757    2.8884    1.4748 H   0  0  0  0  0  0  0  0  0  0  0  0
   -4.9884    4.2625    1.4107 H   0  0  0  0  0  0  0  0  0  0  0  0
   -4.6515    2.7121    2.2972 H   0  0  0  0  0  0  0  0  0  0  0  0
    8.8108   -0.9974   -0.3309 H   0  0  0  0  0  0  0  0  0  0  0  0
    7.0239   -2.4918    1.4942 H   0  0  0  0  0  0  0  0  0  0  0  0
    6.1911    0.7070    2.5389 H   0  0  0  0  0  0  0  0  0  0  0  0
    6.0735   -1.3406   -0.6014 H   0  0  0  0  0  0  0  0  0  0  0  0
    7.5699    0.8091   -0.6460 H   0  0  0  0  0  0  0  0  0  0  0  0
    7.8966    0.4956    1.0656 H   0  0  0  0  0  0  0  0  0  0  0  0
    6.2991    2.2297    0.8486 H   0  0  0  0  0  0  0  0  0  0  0  0
    4.5356    0.2490   -0.6433 H   0  0  0  0  0  0  0  0  0  0  0  0
    5.4250    1.6745   -1.3414 H   0  0  0  0  0  0  0  0  0  0  0  0
    3.2181    2.3710   -1.1558 H   0  0  0  0  0  0  0  0  0  0  0  0
    2.2288    2.9226    1.1802 H   0  0  0  0  0  0  0  0  0  0  0  0
    3.5637    2.0594    1.8827 H   0  0  0  0  0  0  0  0  0  0  0  0
    1.6367    0.7783    2.1289 H   0  0  0  0  0  0  0  0  0  0  0  0
    2.9237   -0.0737    1.2401 H   0  0  0  0  0  0  0  0  0  0  0  0
   -1.4023    0.0908    1.7269 H   0  0  0  0  0  0  0  0  0  0  0  0
   -1.6205    0.9172   -1.0115 H   0  0  0  0  0  0  0  0  0  0  0  0
   -1.1223    3.0980   -0.0332 H   0  0  0  0  0  0  0  0  0  0  0  0
   -2.8232    2.2455    2.1465 H   0  0  0  0  0  0  0  0  0  0  0  0
   -0.9131    1.9435    2.5786 H   0  0  0  0  0  0  0  0  0  0  0  0
    0.6752    2.1597   -0.7007 H   0  0  0  0  0  0  0  0  0  0  0  0
   -0.0508   -0.4224   -2.1246 H   0  0  0  0  0  0  0  0  0  0  0  0
   -1.0323    0.9058   -3.6007 H   0  0  0  0  0  0  0  0  0  0  0  0
   -0.9200    2.2542   -2.3384 H   0  0  0  0  0  0  0  0  0  0  0  0
    0.3266    2.1106   -3.5865 H   0  0  0  0  0  0  0  0  0  0  0  0
    2.5270    0.2456   -1.8781 H   0  0  0  0  0  0  0  0  0  0  0  0
    2.0598    1.5061   -3.1199 H   0  0  0  0  0  0  0  0  0  0  0  0
    1.8543   -0.2160   -3.4937 H   0  0  0  0  0  0  0  0  0  0  0  0
    4.0635    3.8779    0.8294 H   0  0  0  0  0  0  0  0  0  0  0  0
   -1.7297   -2.3005   -1.3039 H   0  0  0  0  0  0  0  0  0  0  0  0
   -2.3937   -0.7619   -1.8872 H   0  0  0  0  0  0  0  0  0  0  0  0
   -3.0454   -0.1300    0.2756 H   0  0  0  0  0  0  0  0  0  0  0  0
   -3.1291   -1.1993    2.3126 H   0  0  0  0  0  0  0  0  0  0  0  0
   -2.2645   -2.6138    1.6907 H   0  0  0  0  0  0  0  0  0  0  0  0
   -5.0260   -1.5431    0.8916 H   0  0  0  0  0  0  0  0  0  0  0  0
   -4.6832   -3.0068    1.8324 H   0  0  0  0  0  0  0  0  0  0  0  0
   -5.3036   -3.4337   -0.5150 H   0  0  0  0  0  0  0  0  0  0  0  0
   -3.5792   -4.0036   -0.1589 H   0  0  0  0  0  0  0  0  0  0  0  0
   -3.8017   -2.7242   -2.3027 H   0  0  0  0  0  0  0  0  0  0  0  0
   -4.5993   -1.4007   -1.4566 H   0  0  0  0  0  0  0  0  0  0  0  0
    2.7421   -3.6657    0.4920 H   0  0  0  0  0  0  0  0  0  0  0  0
    2.6464   -4.1848   -1.2811 H   0  0  0  0  0  0  0  0  0  0  0  0
    0.4576   -3.0324   -1.3096 H   0  0  0  0  0  0  0  0  0  0  0  0
    1.9436   -1.9485   -1.2902 H   0  0  0  0  0  0  0  0  0  0  0  0
    2.0271   -1.8174    0.9357 H   0  0  0  0  0  0  0  0  0  0  0  0
   -0.0192   -2.7445    2.4686 H   0  0  0  0  0  0  0  0  0  0  0  0
    1.4811   -3.5785    2.0950 H   0  0  0  0  0  0  0  0  0  0  0  0
   -0.8902   -3.9169    0.2289 H   0  0  0  0  0  0  0  0  0  0  0  0
   -0.4389   -4.9995    1.5481 H   0  0  0  0  0  0  0  0  0  0  0  0
    0.6771   -5.4234   -0.8414 H   0  0  0  0  0  0  0  0  0  0  0  0
    0.5481   -0.5404    1.9119 H   0  0  0  0  0  0  0  0  0  0  0  0
   -3.4225    3.9630    0.0107 H   0  0  0  0  0  0  0  0  0  0  0  0
   -3.4165    2.0816   -1.5964 H   0  0  0  0  0  0  0  0  0  0  0  0
   -4.6581    1.1653   -0.6427 H   0  0  0  0  0  0  0  0  0  0  0  0
   -4.8014    3.9127   -1.8387 H   0  0  0  0  0  0  0  0  0  0  0  0
   -5.5953    2.4164   -2.4037 H   0  0  0  0  0  0  0  0  0  0  0  0
   -7.3539    2.7431   -1.0361 H   0  0  0  0  0  0  0  0  0  0  0  0
   -6.6016    4.2830   -0.4659 H   0  0  0  0  0  0  0  0  0  0  0  0
   -6.1342    1.5044    0.6802 H   0  0  0  0  0  0  0  0  0  0  0  0
   -6.9757    2.8884    1.4748 H   0  0  0  0  0  0  0  0  0  0  0  0
   -4.9884    4.2625    1.4107 H   0  0  0  0  0  0  0  0  0  0  0  0
   -4.6515    2.7121    2.2972 H   0  0  0  0  0  0  0  0  0  0  0  0
    8.8108   -0.9974   -0.3309 H   0  0  0  0  0  0  0  0  0  0  0  0
    7.0239   -2.4918    1.4942 H   0  0  0  0  0  0  0  0  0  0  0  0
    6.1911    0.7070    2.5389 H   0  0  0  0  0  0  0  0  0  0  0  0
    6.0735   -1.3406   -0.6014 H   0  0  0  0  0  0  0  0  0  0  0  0
    7.5699    0.8091   -0.6460 H   0  0  0  0  0  0  0  0  0  0  0  0
    7.8966    0.4956    1.0656 H   0  0  0  0  0  0  0  0  0  0  0  0
    6.2991    2.2297    0.8486 H   0  0  0  0  0  0  0  0  0  0  0  0
    4.5356    0.2490   -0.6433 H   0  0  0  0  0  0  0  0  0  0  0  0
    5.4250    1.6745   -1.3414 H   0  0  0  0  0  0  0  0  0  0  0  0
    3.2181    2.3710   -1.1558 H   0  0  0  0  0  0  0  0  0  0  0  0
    2.2288    2.9226    1.1802 H   0  0  0  0  0  0  0  0  0  0  0  0
    3.5637    2.0594    1.8827 H   0  0  0  0  0  0  0  0  0  0  0  0
    1.6367    0.7783    2.1289 H   0  0  0  0  0  0  0  0  0  0  0  0
    2.9237   -0.0737    1.2401 H   0  0  0  0  0  0  0  0  0  0  0  0
   -1.4023    0.0908    1.7269 H   0  0  0  0  0  0  0  0  0  0  0  0
   -1.6205    0.9172   -1.0115 H   0  0  0  0  0  0  0  0  0  0  0  0
   -1.1223    3.0980   -0.0332 H   0  0  0  0  0  0  0  0  0  0  0  0
   -2.8232    2.2455    2.1465 H   0  0  0  0  0  0  0  0  0  0  0  0
   -0.9131    1.9435    2.5786 H   0  0  0  0  0  0  0  0  0  0  0  0
    0.6752    2.1597   -0.7007 H   0  0  0  0  0  0  0  0  0  0  0  0
   -0.0508   -0.4224   -2.1246 H   0  0  0  0  0  0  0  0  0  0  0  0
   -1.0323    0.9058   -3.6007 H   0  0  0  0  0  0  0  0  0  0  0  0
   -0.9200    2.2542   -2.3384 H   0  0  0  0  0  0  0  0  0  0  0  0
    0.3266    2.1106   -3.5865 H   0  0  0  0  0  0  0  0  0  0  0  0
    2.5270    0.2456   -1.8781 H   0  0  0  0  0  0  0  0  0  0  0  0
    2.0598    1.5061   -3.1199 H   0  0  0  0  0  0  0  0  0  0  0  0
    1.8543   -0.2160   -3.4937 H   0  0  0  0  0  0  0  0  0  0  0  0
    4.0635    3.8779    0.8294 H   0  0  0  0  0  0  0  0  0  0  0  0
  1  2  1  0
  2  3  1  0
  3  4  1  0
  4  5  1  0
  1  6  1  0
  5  6  1  0
  7  8  1  0
  8  9  1  0
  9 10  1  0
 10 11  1  0
  7 12  1  0
 11 12  1  0
 12 13  1  0
  9 14  1  0
 15 16  1  0
 16 17  1  0
 17 18  1  0
 18 19  1  0
 15 20  1  0
 19 20  1  0
 21 24  1  0
 22 24  1  0
 24 25  1  0
 23 26  1  0
 25 26  1  0
 26 27  1  0
 27 28  1  0
 28 29  1  0
 29 30  1  0
 14 31  1  0
 30 31  1  0
  2 32  1  0
 14 32  1  0
 32 33  1  0
 33 34  1  0
 15 35  1  0
 34 35  1  0
 34 36  1  0
 31 37  1  0
 33 37  1  0
 37 38  1  0
 38 39  1  0
 38 40  1  0
 28 41  1  0
 42 43  1  0
 43 44  1  0
 44 45  1  0
 45 46  1  0
 42 47  1  0
 46 47  1  0
 48 49  1  0
 49 50  1  0
 50 51  1  0
 51 52  1  0
 48 53  1  0
 52 53  1  0
 53 54  1  0
 50 55  1  0
 56 57  1  0
 57 58  1  0
 58 59  1  0
 59 60  1  0
 56 61  1  0
 60 61  1  0
 62 65  1  0
 63 65  1  0
 65 66  1  0
 64 67  1  0
 66 67  1  0
 67 68  1  0
 68 69  1  0
 69 70  1  0
 70 71  1  0
 55 72  1  0
 71 72  1  0
 43 73  1  0
 55 73  1  0
 73 74  1  0
 74 75  1  0
 56 76  1  0
 75 76  1  0
 75 77  1  0
 72 78  1  0
 74 78  1  0
 78 79  1  0
 79 80  1  0
 79 81  1  0
 69 82  1  0
 83 84  1  0
 84 85  1  0
 85 86  1  0
 86 87  1  0
 83 88  1  0
 87 88  1  0
 89 90  1  0
 90 91  1  0
 91 92  1  0
 92 93  1  0
 89 94  1  0
 93 94  1  0
 94 95  1  0
 91 96  1  0
 97 98  1  0
 98 99  1  0
 99100  1  0
100101  1  0
 97102  1  0
101102  1  0
103106  1  0
104106  1  0
106107  1  0
105108  1  0
107108  1  0
108109  1  0
109110  1  0
110111  1  0
111112  1  0
 96113  1  0
112113  1  0
 84114  1  0
 96114  1  0
114115  1  0
115116  1  0
 97117  1  0
116117  1  0
116118  1  0
113119  1  0
115119  1  0
119120  1  0
120121  1  0
120122  1  0
110123  1  0
124125  1  0
125126  1  0
126127  1  0
127128  1  0
124129  1  0
128129  1  0
130131  1  0
131132  1  0
132133  1  0
133134  1  0
130135  1  0
134135  1  0
135136  1  0
132137  1  0
138139  1  0
139140  1  0
140141  1  0
141142  1  0
138143  1  0
142143  1  0
144147  1  0
145147  1  0
147148  1  0
146149  1  0
148149  1  0
149150  1  0
150151  1  0
151152  1  0
152153  1  0
137154  1  0
153154  1  0
125155  1  0
137155  1  0
155156  1  0
156157  1  0
138158  1  0
157158  1  0
157159  1  0
154160  1  0
156160  1  0
160161  1  0
161162  1  0
161163  1  0
151164  1  0
  1165  1  0
  1166  1  0
  2167  1  0
  3168  1  0
  3169  1  0
  4170  1  0
  4171  1  0
  5172  1  0
  5173  1  0
  6174  1  0
  6175  1  0
  7176  1  0
  7177  1  0
  8178  1  0
  8179  1  0
  9180  1  0
 10181  1  0
 10182  1  0
 11183  1  0
 11184  1  0
 12185  1  0
 14186  1  0
 15187  1  0
 16188  1  0
 16189  1  0
 17190  1  0
 17191  1  0
 18192  1  0
 18193  1  0
 19194  1  0
 19195  1  0
 20196  1  0
 20197  1  0
 21198  1  0
 22199  1  0
 23200  1  0
 24201  1  0
 25202  1  0
 25203  1  0
 26204  1  1
 27205  1  0
 27206  1  0
 28207  1  6
 29208  1  0
 29209  1  0
 30210  1  0
 30211  1  0
 32212  1  0
 33213  1  0
 34214  1  0
 35215  1  0
 36216  1  0
 37217  1  0
 38218  1  0
 39219  1  0
 39220  1  0
 39221  1  0
 40222  1  0
 40223  1  0
 40224  1  0
 41225  1  0
 42226  1  0
 42227  1  0
 43228  1  0
 44229  1  0
 44230  1  0
 45231  1  0
 45232  1  0
 46233  1  0
 46234  1  0
 47235  1  0
 47236  1  0
 48237  1  0
 48238  1  0
 49239  1  0
 49240  1  0
 50241  1  0
 51242  1  0
 51243  1  0
 52244  1  0
 52245  1  0
 53246  1  0
 55247  1  0
 56248  1  0
 57249  1  0
 57250  1  0
 58251  1  0
 58252  1  0
 59253  1  0
 59254  1  0
 60255  1  0
 60256  1  0
 61257  1  0
 61258  1  0
 62259  1  0
 63260  1  0
 64261  1  0
 65262  1  0
 66263  1  0
 66264  1  0
 67265  1  1
 68266  1  0
 68267  1  0
 69268  1  6
 70269  1  0
 70270  1  0
 71271  1  0
 71272  1  0
 73273  1  0
 74274  1  0
 75275  1  0
 76276  1  0
 77277  1  0
 78278  1  0
 79279  1  0
 80280  1  0
 80281  1  0
 80282  1  0
 81283  1  0
 81284  1  0
 81285  1  0
 82286  1  0
 83287  1  0
 83288  1  0
 84289  1  0
 85290  1  0
 85291  1  0
 86292  1  0
 86293  1  0
 87294  1  0
 87295  1  0
 88296  1  0
 88297  1  0
 89298  1  0
 89299  1  0
 90300  1  0
 90301  1  0
 91302  1  0
 92303  1  0
 92304  1  0
 93305  1  0
 93306  1  0
 94307  1  0
 96308  1  0
 97309  1  0
 98310  1  0
 98311  1  0
 99312  1  0
 99313  1  0
100314  1  0
100315  1  0
101316  1  0
101317  1  0
102318  1  0
102319  1  0
103320  1  0
104321  1  0
105322  1  0
106323  1  0
107324  1  0
107325  1  0
108326  1  1
109327  1  0
109328  1  0
110329  1  6
111330  1  0
111331  1  0
112332  1  0
112333  1  0
114334  1  0
115335  1  0
116336  1  0
117337  1  0
118338  1  0
119339  1  0
120340  1  0
121341  1  0
121342  1  0
121343  1  0
122344  1  0
122345  1  0
122346  1  0
123347  1  0
124348  1  0
124349  1  0
125350  1  0
126351  1  0
126352  1  0
127353  1  0
127354  1  0
128355  1  0
128356  1  0
129357  1  0
129358  1  0
130359  1  0
130360  1  0
131361  1  0
131362  1  0
132363  1  0
133364  1  0
133365  1  0
134366  1  0
134367  1  0
135368  1  0
137369  1  0
138370  1  0
139371  1  0
139372  1  0
140373  1  0
140374  1  0
141375  1  0
141376  1  0
142377  1  0
142378  1  0
143379  1  0
143380  1  0
144381  1  0
145382  1  0
146383  1  0
147384  1  0
148385  1  0
148386  1  0
149387  1  1
150388  1  0
150389  1  0
151390  1  6
152391  1  0
152392  1  0
153393  1  0
153394  1  0
155395  1  0
156396  1  0
157397  1  0
158398  1  0
159399  1  0
160400  1  0
161401  1  0
162402  1  0
162403  1  0
162404  1  0
163405  1  0
163406  1  0
163407  1  0
164408  1  0
M  END
>  <PDBID>  (1) 
1HWK

>  <PDB ID>  (1) 
1HWK

>  <Generic Name>  (1) 
Atorvastatin

>  <Brand Name>  (1) 
Ach-atorvastatin Calcium#Act Atorvastatin#Amlodipine Besylate and Atorvastatin Calcium#Amlodipine Besylate/atorvastatin Calcium#Apo-amlodipine-atorvastatin#Apo-atorvastatin#Atorvastatin#Atorvastatin Calcium#Atorvastatin-10#Atorvastatin-20#Atorvastatin-40#Atorvastatin-80#Auro-atorvastatin#Ava-atorvastatin#Caduet#Dom-atorvastatin#Gd-amlodipine/atorvastatin#Gd-atorvastatin#Jamp-atorvastatin#Lipitor#Liptruzet#Mar-atorvastatin#Mylan-amlodipine/atorvastatin#Mylan-atorvastatin#Novo-atorvastatin#Ntp-atorvastatin#PMS-amlodipine-atorvastatin#PMS-atorvastatin#Pendo-amlodipine-atorvastatin#Q-gen Atorvastatin#Ran-atorvastatin#Ratio-atorvastatin#Rbx-atorvastatin#Reddy-atorvastatin#Riva-atorvastatin#Sandoz Atorvastatin#Atogal#Cardyl#Faboxim#Hipolixan#Lipotropic#Liprimar#Lowden#Normalip#Sincol#Sortis#Torvacard#Torvast#Totalip#Tulip#Vastina#Xanator#Xarator#Zurinel

>  <DrugBank ID>  (1) 
DB01076

>  <ATC Codes>  (1) 
C10AA05#C10BA05#C10BX06#C10BX11#C10BX03#C10BX08

>  <Ligand ID>  (1) 
117

>  <Target Name>  (1) 
3-hydroxy-3-methylglutaryl-coenzyme A reductase

>  <UniProt ID>  (1) 
P04035

>  <PDB ID.1>  (1) 
1HWK

>  <Seq. Identity>  (1) 
97%

$$$$
