PDB_DB00877_01
     RDKit          3D

162165  0  0  0  0  0  0  0  0999 V2000
    3.1470   -2.0904   -1.4842 C   0  0  0  0  0  0  0  0  0  0  0  0
    3.3211   -0.8587   -0.9022 O   0  0  0  0  0  0  0  0  0  0  0  0
    4.3129   -2.7161   -1.8827 O   0  0  0  0  0  0  0  0  0  0  0  0
    2.2911   -2.9507   -0.5850 C   0  0  2  0  0  0  0  0  0  0  0  0
    3.1049   -3.7094    0.4297 C   0  0  0  0  0  0  0  0  0  0  0  0
    3.5811   -5.0394    0.0202 C   0  0  0  0  0  0  0  0  0  0  0  0
    2.7973   -5.7749   -0.9880 C   0  0  0  0  0  0  0  0  0  0  0  0
    2.0170   -4.9196   -1.9576 C   0  0  0  0  0  0  0  0  0  0  0  0
    1.4451   -3.8490   -1.2605 N   0  0  0  0  0  0  0  0  0  0  0  0
    0.0549   -3.7584   -1.0819 C   0  0  2  0  0  0  0  0  0  0  0  0
   -0.1699   -3.1841    0.1931 O   0  0  0  0  0  0  0  0  0  0  0  0
   -0.7132   -4.9931   -1.2984 C   0  0  0  0  0  0  0  0  0  0  0  0
   -0.9922   -5.0720   -2.6879 O   0  0  0  0  0  0  0  0  0  0  0  0
   -2.0407   -5.1187   -0.6193 C   0  0  1  0  0  0  0  0  0  0  0  0
   -2.8010   -4.0148   -0.8242 O   0  0  0  0  0  0  0  0  0  0  0  0
   -2.6797   -6.1799   -1.3167 O   0  0  0  0  0  0  0  0  0  0  0  0
   -1.9891   -5.5561    0.8145 C   0  0  1  0  0  0  0  0  0  0  0  0
   -3.3999   -6.0721    1.1330 C   0  0  0  0  0  0  0  0  0  0  0  0
   -4.4499   -5.2896    0.4108 C   0  0  0  0  0  0  0  0  0  0  0  0
   -4.0259   -3.9962   -0.1700 C   0  0  1  0  0  0  0  0  0  0  0  0
   -4.0400   -2.8200    0.7287 C   0  0  0  0  0  0  0  0  0  0  0  0
   -5.2888   -2.5508    1.5048 C   0  0  2  0  0  0  0  0  0  0  0  0
   -5.4707   -3.4080    2.5761 O   0  0  0  0  0  0  0  0  0  0  0  0
   -6.5273   -2.4246    0.6964 C   0  0  0  0  0  0  0  0  0  0  0  0
   -6.5389   -1.4070   -0.3774 C   0  0  0  0  0  0  0  0  0  0  0  0
   -5.9991   -0.0640   -0.0778 C   0  0  0  0  0  0  0  0  0  0  0  0
   -7.0837    0.9776    0.1290 C   0  0  0  0  0  0  0  0  0  0  0  0
   -6.8775    1.7700    1.3919 C   0  0  0  0  0  0  0  0  0  0  0  0
   -5.6361    2.6216    1.3553 C   0  0  0  0  0  0  0  0  0  0  0  0
   -5.6745    3.6656    0.2639 C   0  0  2  0  0  0  0  0  0  0  0  0
   -4.5672    4.6477    0.5396 C   0  0  0  0  0  0  0  0  0  0  0  0
   -3.5849    4.7471   -0.6350 C   0  0  2  0  0  0  0  0  0  0  0  0
   -2.7999    6.0220   -0.5829 C   0  0  0  0  0  0  0  0  0  0  0  0
   -3.2347    6.7811    0.5006 O   0  0  0  0  0  0  0  0  0  0  0  0
   -1.3178    5.7971   -0.3963 C   0  0  2  0  0  0  0  0  0  0  0  0
   -0.7341    6.9732    0.0105 O   0  0  0  0  0  0  0  0  0  0  0  0
   -0.6725    5.2653   -1.6588 C   0  0  2  0  0  0  0  0  0  0  0  0
   -1.5265    4.4330   -2.3395 O   0  0  0  0  0  0  0  0  0  0  0  0
    0.5807    4.4818   -1.3400 C   0  0  0  0  0  0  0  0  0  0  0  0
    0.5207    3.0747   -1.9079 C   0  0  0  0  0  0  0  0  0  0  0  0
    1.4026    2.1425   -1.1356 C   0  0  2  0  0  0  0  0  0  0  0  0
    1.7721    0.8969   -1.9398 C   0  0  0  0  0  0  0  0  0  0  0  0
    0.9313    0.8304   -3.0570 O   0  0  0  0  0  0  0  0  0  0  0  0
    3.2250    1.0519   -2.3491 C   0  0  0  0  0  0  0  0  0  0  0  0
    4.1136   -0.0012   -1.6646 C   0  0  1  0  0  0  0  0  0  0  0  0
    5.1432    0.7276   -0.7807 C   0  0  1  0  0  0  0  0  0  0  0  0
    5.9525   -0.3408   -0.1398 C   0  0  0  0  0  0  0  0  0  0  0  0
    7.0140    0.0359    0.8017 C   0  0  1  0  0  0  0  0  0  0  0  0
    8.1262    0.9017    0.2876 C   0  0  0  0  0  0  0  0  0  0  0  0
    9.0775    1.1022    1.4884 C   0  0  1  0  0  0  0  0  0  0  0  0
   10.3229    1.4094    1.0076 O   0  0  0  0  0  0  0  0  0  0  0  0
    8.4298    2.2115    2.2985 C   0  0  2  0  0  0  0  0  0  0  0  0
    8.9121    2.2329    3.5987 O   0  0  0  0  0  0  0  0  0  0  0  0
    6.9137    2.0863    2.2485 C   0  0  0  0  0  0  0  0  0  0  0  0
    6.5184    0.6096    2.1081 C   0  0  0  0  0  0  0  0  0  0  0  0
   -1.0105   -6.6524    1.0497 C   0  0  0  0  0  0  0  0  0  0  0  0
   -7.7024   -2.2274    1.6667 C   0  0  0  0  0  0  0  0  0  0  0  0
   -7.0096    4.4102    0.3596 C   0  0  0  0  0  0  0  0  0  0  0  0
   -4.3602    4.7175   -1.9373 C   0  0  0  0  0  0  0  0  0  0  0  0
    1.8341    5.1638   -1.8390 C   0  0  0  0  0  0  0  0  0  0  0  0
    0.8228    1.6775    0.1716 C   0  0  0  0  0  0  0  0  0  0  0  0
    5.9581    1.5763   -1.7403 C   0  0  0  0  0  0  0  0  0  0  0  0
   -5.3715   -2.8275    3.8143 C   0  0  0  0  0  0  0  0  0  0  0  0
   -0.1380    6.8974    1.2572 C   0  0  0  0  0  0  0  0  0  0  0  0
   11.2947    0.4912    1.3936 C   0  0  0  0  0  0  0  0  0  0  0  0
   -2.0528   -6.9437   -1.2393 H   0  0  0  0  0  0  0  0  0  0  0  0
   -1.2633    4.3676   -3.3127 H   0  0  0  0  0  0  0  0  0  0  0  0
    9.7427    2.8061    3.5968 H   0  0  0  0  0  0  0  0  0  0  0  0
    2.5508   -1.9451   -2.4188 H   0  0  0  0  0  0  0  0  0  0  0  0
    4.9808   -2.8539   -1.1980 H   0  0  0  0  0  0  0  0  0  0  0  0
    1.6564   -2.2357   -0.0191 H   0  0  0  0  0  0  0  0  0  0  0  0
    2.5793   -3.7313    1.4132 H   0  0  0  0  0  0  0  0  0  0  0  0
    4.0125   -3.0653    0.6339 H   0  0  0  0  0  0  0  0  0  0  0  0
    4.6611   -5.0558   -0.3110 H   0  0  0  0  0  0  0  0  0  0  0  0
    3.6048   -5.6812    0.9550 H   0  0  0  0  0  0  0  0  0  0  0  0
    3.4517   -6.4363   -1.6209 H   0  0  0  0  0  0  0  0  0  0  0  0
    2.0841   -6.4764   -0.5076 H   0  0  0  0  0  0  0  0  0  0  0  0
    2.7112   -4.6146   -2.7947 H   0  0  0  0  0  0  0  0  0  0  0  0
    1.2775   -5.5590   -2.4344 H   0  0  0  0  0  0  0  0  0  0  0  0
   -0.3285   -2.9755   -1.8056 H   0  0  0  0  0  0  0  0  0  0  0  0
    0.2652   -3.8159    0.8190 H   0  0  0  0  0  0  0  0  0  0  0  0
   -0.1695   -5.9480   -1.0782 H   0  0  0  0  0  0  0  0  0  0  0  0
   -1.2817   -6.0072   -2.8795 H   0  0  0  0  0  0  0  0  0  0  0  0
   -1.8128   -4.7515    1.5409 H   0  0  0  0  0  0  0  0  0  0  0  0
   -3.3959   -7.1471    0.8239 H   0  0  0  0  0  0  0  0  0  0  0  0
   -3.5479   -6.0954    2.2385 H   0  0  0  0  0  0  0  0  0  0  0  0
   -4.8196   -5.9440   -0.4375 H   0  0  0  0  0  0  0  0  0  0  0  0
   -5.3606   -5.1411    1.0250 H   0  0  0  0  0  0  0  0  0  0  0  0
   -4.7644   -3.7692   -1.0033 H   0  0  0  0  0  0  0  0  0  0  0  0
   -3.8755   -1.9077    0.0827 H   0  0  0  0  0  0  0  0  0  0  0  0
   -3.1924   -2.7912    1.4555 H   0  0  0  0  0  0  0  0  0  0  0  0
   -5.1061   -1.5458    1.9967 H   0  0  0  0  0  0  0  0  0  0  0  0
   -6.7754   -3.4079    0.1923 H   0  0  0  0  0  0  0  0  0  0  0  0
   -6.1110   -1.8251   -1.3313 H   0  0  0  0  0  0  0  0  0  0  0  0
   -7.6291   -1.2580   -0.6526 H   0  0  0  0  0  0  0  0  0  0  0  0
   -5.3052    0.0389    0.7491 H   0  0  0  0  0  0  0  0  0  0  0  0
   -5.4236    0.2850   -0.9895 H   0  0  0  0  0  0  0  0  0  0  0  0
   -8.0916    0.5016    0.2139 H   0  0  0  0  0  0  0  0  0  0  0  0
   -7.1497    1.7006   -0.7076 H   0  0  0  0  0  0  0  0  0  0  0  0
   -7.7497    2.4544    1.4795 H   0  0  0  0  0  0  0  0  0  0  0  0
   -6.8669    1.1560    2.2959 H   0  0  0  0  0  0  0  0  0  0  0  0
   -5.5900    3.1794    2.3190 H   0  0  0  0  0  0  0  0  0  0  0  0
   -4.7093    2.0579    1.2630 H   0  0  0  0  0  0  0  0  0  0  0  0
   -5.5990    3.1425   -0.6942 H   0  0  0  0  0  0  0  0  0  0  0  0
   -4.9824    5.6728    0.7215 H   0  0  0  0  0  0  0  0  0  0  0  0
   -3.9889    4.3906    1.4535 H   0  0  0  0  0  0  0  0  0  0  0  0
   -2.9481    3.8336   -0.5775 H   0  0  0  0  0  0  0  0  0  0  0  0
   -2.9344    6.6626   -1.4818 H   0  0  0  0  0  0  0  0  0  0  0  0
   -3.1638    6.3241    1.3636 H   0  0  0  0  0  0  0  0  0  0  0  0
   -1.1808    5.0296    0.3850 H   0  0  0  0  0  0  0  0  0  0  0  0
   -0.4214    6.1136   -2.3259 H   0  0  0  0  0  0  0  0  0  0  0  0
    0.6702    4.4104   -0.2204 H   0  0  0  0  0  0  0  0  0  0  0  0
    0.9146    3.1177   -2.9511 H   0  0  0  0  0  0  0  0  0  0  0  0
   -0.4929    2.6611   -1.9451 H   0  0  0  0  0  0  0  0  0  0  0  0
    2.3247    2.7342   -0.8673 H   0  0  0  0  0  0  0  0  0  0  0  0
    1.6523   -0.0156   -1.3567 H   0  0  0  0  0  0  0  0  0  0  0  0
    1.4023    1.2487   -3.8438 H   0  0  0  0  0  0  0  0  0  0  0  0
    3.2890    0.9919   -3.4461 H   0  0  0  0  0  0  0  0  0  0  0  0
    3.6148    2.0545   -2.0541 H   0  0  0  0  0  0  0  0  0  0  0  0
    4.6100   -0.5537   -2.4734 H   0  0  0  0  0  0  0  0  0  0  0  0
    4.5489    1.3429   -0.0810 H   0  0  0  0  0  0  0  0  0  0  0  0
    5.2594   -1.0461    0.3472 H   0  0  0  0  0  0  0  0  0  0  0  0
    6.4205   -0.9431   -0.9726 H   0  0  0  0  0  0  0  0  0  0  0  0
    7.5275   -0.9337    1.1040 H   0  0  0  0  0  0  0  0  0  0  0  0
    8.6957    0.4349   -0.5443 H   0  0  0  0  0  0  0  0  0  0  0  0
    7.8446    1.9143   -0.0043 H   0  0  0  0  0  0  0  0  0  0  0  0
    9.0273    0.1882    2.0980 H   0  0  0  0  0  0  0  0  0  0  0  0
    8.7040    3.1631    1.8129 H   0  0  0  0  0  0  0  0  0  0  0  0
    6.5414    2.3959    3.2458 H   0  0  0  0  0  0  0  0  0  0  0  0
    6.4466    2.7181    1.4941 H   0  0  0  0  0  0  0  0  0  0  0  0
    6.9570    0.1121    2.9963 H   0  0  0  0  0  0  0  0  0  0  0  0
    5.4323    0.5756    2.2271 H   0  0  0  0  0  0  0  0  0  0  0  0
   -1.2377   -7.5918    0.5118 H   0  0  0  0  0  0  0  0  0  0  0  0
   -1.0835   -6.9258    2.1451 H   0  0  0  0  0  0  0  0  0  0  0  0
    0.0316   -6.3184    0.9121 H   0  0  0  0  0  0  0  0  0  0  0  0
   -7.5971   -1.2893    2.2080 H   0  0  0  0  0  0  0  0  0  0  0  0
   -8.6742   -2.3034    1.1116 H   0  0  0  0  0  0  0  0  0  0  0  0
   -7.6396   -3.0657    2.3888 H   0  0  0  0  0  0  0  0  0  0  0  0
   -6.8676    5.4770    0.0617 H   0  0  0  0  0  0  0  0  0  0  0  0
   -7.7687    3.9791   -0.2913 H   0  0  0  0  0  0  0  0  0  0  0  0
   -7.3422    4.4586    1.4329 H   0  0  0  0  0  0  0  0  0  0  0  0
   -4.0280    5.5335   -2.6216 H   0  0  0  0  0  0  0  0  0  0  0  0
   -4.1859    3.7479   -2.4622 H   0  0  0  0  0  0  0  0  0  0  0  0
   -5.4535    4.9003   -1.7879 H   0  0  0  0  0  0  0  0  0  0  0  0
    2.5816    4.3782   -2.0800 H   0  0  0  0  0  0  0  0  0  0  0  0
    2.2684    5.7676   -1.0265 H   0  0  0  0  0  0  0  0  0  0  0  0
    1.6300    5.8389   -2.6963 H   0  0  0  0  0  0  0  0  0  0  0  0
   -0.2588    1.4408    0.1205 H   0  0  0  0  0  0  0  0  0  0  0  0
    1.3477    0.7381    0.4660 H   0  0  0  0  0  0  0  0  0  0  0  0
    1.0531    2.4204    0.9685 H   0  0  0  0  0  0  0  0  0  0  0  0
    6.0865    2.6115   -1.4301 H   0  0  0  0  0  0  0  0  0  0  0  0
    6.8963    1.0215   -1.9679 H   0  0  0  0  0  0  0  0  0  0  0  0
    5.4202    1.6087   -2.7103 H   0  0  0  0  0  0  0  0  0  0  0  0
   -6.1204   -2.0396    3.9310 H   0  0  0  0  0  0  0  0  0  0  0  0
   -5.4539   -3.6339    4.5687 H   0  0  0  0  0  0  0  0  0  0  0  0
   -4.3614   -2.3421    3.8723 H   0  0  0  0  0  0  0  0  0  0  0  0
   -0.8867    6.6266    2.0405 H   0  0  0  0  0  0  0  0  0  0  0  0
    0.7498    6.2643    1.2999 H   0  0  0  0  0  0  0  0  0  0  0  0
    0.2013    7.9314    1.5446 H   0  0  0  0  0  0  0  0  0  0  0  0
   12.2517    0.8621    0.9344 H   0  0  0  0  0  0  0  0  0  0  0  0
   11.4222    0.5032    2.4965 H   0  0  0  0  0  0  0  0  0  0  0  0
   11.1313   -0.5225    1.0046 H   0  0  0  0  0  0  0  0  0  0  0  0
  1  2  1  0
  1  3  1  0
  1  4  1  0
  4  5  1  0
  5  6  1  0
  6  7  1  0
  7  8  1  0
  4  9  1  0
  8  9  1  0
  9 10  1  0
 10 11  1  0
 10 12  1  0
 12 13  1  0
 12 14  1  0
 14 15  1  0
 14 16  1  6
 14 17  1  0
 17 18  1  0
 18 19  1  0
 15 20  1  0
 19 20  1  0
 20 21  1  0
 21 22  1  0
 22 23  1  0
 22 24  1  0
 24 25  1  0
 25 26  1  0
 26 27  1  0
 27 28  1  0
 28 29  1  0
 29 30  1  0
 30 31  1  0
 31 32  1  0
 32 33  1  0
 33 34  1  0
 33 35  1  0
 35 36  1  0
 35 37  1  0
 37 38  1  0
 37 39  1  0
 39 40  1  0
 40 41  1  0
 41 42  1  0
 42 43  1  0
 42 44  1  0
  2 45  1  0
 44 45  1  0
 45 46  1  0
 46 47  1  0
 47 48  1  0
 48 49  1  0
 49 50  1  0
 50 51  1  0
 50 52  1  0
 52 53  1  0
 52 54  1  0
 48 55  1  0
 54 55  1  0
 17 56  1  0
 24 57  1  0
 30 58  1  0
 32 59  1  0
 39 60  1  0
 41 61  1  0
 46 62  1  0
 23 63  1  0
 36 64  1  0
 51 65  1  0
 16 66  1  0
 38 67  1  0
 53 68  1  0
  1 69  1  0
  3 70  1  0
  4 71  1  1
  5 72  1  0
  5 73  1  0
  6 74  1  0
  6 75  1  0
  7 76  1  0
  7 77  1  0
  8 78  1  0
  8 79  1  0
 10 80  1  6
 11 81  1  0
 12 82  1  0
 13 83  1  0
 17 84  1  1
 18 85  1  0
 18 86  1  0
 19 87  1  0
 19 88  1  0
 20 89  1  6
 21 90  1  0
 21 91  1  0
 22 92  1  1
 24 93  1  0
 25 94  1  0
 25 95  1  0
 26 96  1  0
 26 97  1  0
 27 98  1  0
 27 99  1  0
 28100  1  0
 28101  1  0
 29102  1  0
 29103  1  0
 30104  1  6
 31105  1  0
 31106  1  0
 32107  1  6
 33108  1  0
 34109  1  0
 35110  1  1
 37111  1  6
 39112  1  0
 40113  1  0
 40114  1  0
 41115  1  1
 42116  1  0
 43117  1  0
 44118  1  0
 44119  1  0
 45120  1  6
 46121  1  1
 47122  1  0
 47123  1  0
 48124  1  1
 49125  1  0
 49126  1  0
 50127  1  1
 52128  1  6
 54129  1  0
 54130  1  0
 55131  1  0
 55132  1  0
 56133  1  0
 56134  1  0
 56135  1  0
 57136  1  0
 57137  1  0
 57138  1  0
 58139  1  0
 58140  1  0
 58141  1  0
 59142  1  0
 59143  1  0
 59144  1  0
 60145  1  0
 60146  1  0
 60147  1  0
 61148  1  0
 61149  1  0
 61150  1  0
 62151  1  0
 62152  1  0
 62153  1  0
 63154  1  0
 63155  1  0
 63156  1  0
 64157  1  0
 64158  1  0
 64159  1  0
 65160  1  0
 65161  1  0
 65162  1  0
M  END
>  <PDBID>  (1) 
1FKB

>  <PDB ID>  (1) 
1FKB

>  <Generic Name>  (1) 
Sirolimus

>  <Brand Name>  (1) 
Gd-sirolimus#Rapamune#Rapamune Oral Solution#Sirolimus

>  <DrugBank ID>  (1) 
DB00877

>  <ATC Codes>  (1) 
S01XA23#L04AA10

>  <Ligand ID>  (1) 
RAP

>  <Target Name>  (1) 
Peptidyl-prolyl cis-trans isomerase FKBP1A

>  <UniProt ID>  (1) 
P62942

>  <PDB ID.1>  (1) 
1FKB

>  <Seq. Identity>  (1) 
100%

$$$$
