PDB_DB01011_03
     RDKit          3D

 45 46  0  0  0  0  0  0  0  0999 V2000
    4.2764    0.0841   -0.3554 N   0  0  0  0  0  0  0  0  0  0  0  0
    2.9274    0.0581   -0.8877 C   0  0  0  0  0  0  0  0  0  0  0  0
    1.9250   -0.4169    0.1596 C   0  0  0  0  0  0  0  0  0  0  0  0
    2.1541    0.2806    1.4526 C   0  0  0  0  0  0  0  0  0  0  0  0
    3.6073    0.1876    1.9082 C   0  0  0  0  0  0  0  0  0  0  0  0
    4.4170    0.8895    0.8234 C   0  0  0  0  0  0  0  0  0  0  0  0
    0.5705   -0.2220   -0.4199 C   0  0  0  0  0  0  0  0  0  0  0  0
    0.4401   -0.9703   -1.6372 O   0  0  0  0  0  0  0  0  0  0  0  0
   -0.4975   -1.9817    0.8685 C   0  0  0  0  0  0  0  0  0  0  0  0
   -0.6091   -0.5118    0.4399 C   0  0  0  0  0  0  0  0  0  0  0  0
   -0.8315    0.2868    1.6465 C   0  0  0  0  0  0  0  0  0  0  0  0
   -1.8377   -0.4606   -0.5174 C   0  0  0  0  0  0  0  0  0  0  0  0
   -3.1160   -0.7449    0.1685 C   0  0  0  0  0  0  0  0  0  0  0  0
   -4.1070    0.3048    0.0359 N   0  0  0  0  0  0  0  0  0  0  0  0
   -4.2971    0.4851   -1.4078 C   0  0  0  0  0  0  0  0  0  0  0  0
   -3.0808    1.1712   -1.9640 C   0  0  0  0  0  0  0  0  0  0  0  0
   -1.8092    0.8373   -1.2819 C   0  0  0  0  0  0  0  0  0  0  0  0
    4.8785    0.4984   -1.0946 H   0  0  0  0  0  0  0  0  0  0  0  0
    2.6924    1.0830   -1.2350 H   0  0  0  0  0  0  0  0  0  0  0  0
    2.9456   -0.6925   -1.7052 H   0  0  0  0  0  0  0  0  0  0  0  0
    2.1767   -1.5048    0.3216 H   0  0  0  0  0  0  0  0  0  0  0  0
    1.9732    1.3745    1.2995 H   0  0  0  0  0  0  0  0  0  0  0  0
    1.5764   -0.0581    2.2973 H   0  0  0  0  0  0  0  0  0  0  0  0
    3.8497   -0.8748    1.9947 H   0  0  0  0  0  0  0  0  0  0  0  0
    3.6616    0.7362    2.8646 H   0  0  0  0  0  0  0  0  0  0  0  0
    3.9360    1.8660    0.6335 H   0  0  0  0  0  0  0  0  0  0  0  0
    5.4758    0.9615    1.0711 H   0  0  0  0  0  0  0  0  0  0  0  0
    0.5391    0.8362   -0.8114 H   0  0  0  0  0  0  0  0  0  0  0  0
    1.1433   -1.6552   -1.6902 H   0  0  0  0  0  0  0  0  0  0  0  0
   -0.3092   -2.6415    0.0202 H   0  0  0  0  0  0  0  0  0  0  0  0
   -1.3720   -2.2821    1.4819 H   0  0  0  0  0  0  0  0  0  0  0  0
    0.3754   -2.0134    1.5667 H   0  0  0  0  0  0  0  0  0  0  0  0
   -0.7347   -0.3475    2.5559 H   0  0  0  0  0  0  0  0  0  0  0  0
   -1.9223    0.5809    1.6565 H   0  0  0  0  0  0  0  0  0  0  0  0
   -0.3133    1.2588    1.7357 H   0  0  0  0  0  0  0  0  0  0  0  0
   -1.6237   -1.2676   -1.2496 H   0  0  0  0  0  0  0  0  0  0  0  0
   -3.0605   -1.0119    1.2391 H   0  0  0  0  0  0  0  0  0  0  0  0
   -3.6187   -1.6532   -0.2982 H   0  0  0  0  0  0  0  0  0  0  0  0
   -3.8275    1.2221    0.3928 H   0  0  0  0  0  0  0  0  0  0  0  0
   -4.4897   -0.4595   -1.9225 H   0  0  0  0  0  0  0  0  0  0  0  0
   -5.2226    1.1074   -1.5012 H   0  0  0  0  0  0  0  0  0  0  0  0
   -3.0597    0.9240   -3.0655 H   0  0  0  0  0  0  0  0  0  0  0  0
   -3.2714    2.2696   -1.9326 H   0  0  0  0  0  0  0  0  0  0  0  0
   -1.4999    1.6997   -0.6595 H   0  0  0  0  0  0  0  0  0  0  0  0
   -1.0305    0.7671   -2.0984 H   0  0  0  0  0  0  0  0  0  0  0  0
  1  2  1  0
  2  3  1  0
  3  4  1  0
  4  5  1  0
  1  6  1  0
  5  6  1  0
  3  7  1  0
  7  8  1  0
 10  7  1  0
  9 10  1  0
 10 11  1  0
 10 12  1  0
 12 13  1  0
 13 14  1  0
 14 15  1  0
 15 16  1  0
 12 17  1  0
 16 17  1  0
  1 18  1  0
  2 19  1  0
  2 20  1  0
  3 21  1  0
  4 22  1  0
  4 23  1  0
  5 24  1  0
  5 25  1  0
  6 26  1  0
  6 27  1  0
  7 28  1  0
  8 29  1  0
  9 30  1  0
  9 31  1  0
  9 32  1  0
 11 33  1  0
 11 34  1  0
 11 35  1  0
 12 36  1  0
 13 37  1  0
 13 38  1  0
 14 39  1  0
 15 40  1  0
 15 41  1  0
 16 42  1  0
 16 43  1  0
 17 44  1  0
 17 45  1  0
M  END
>  <PDBID>  (1) 
1W0G

>  <PDB ID>  (1) 
1W0G

>  <Generic Name>  (1) 
Metyrapone

>  <Brand Name>  (1) 
Metopirone#Metopiron

>  <DrugBank ID>  (1) 
DB01011

>  <ATC Codes>  (1) 
V04CD01

>  <Ligand ID>  (1) 
MYT

>  <Target Name>  (1) 
Cytochrome P450 11B1, mitochondrial

>  <UniProt ID>  (1) 
P15538

>  <PDB ID.1>  (1) 
1W0G

>  <Seq. Identity>  (1) 
32%

$$$$
