PDB_DB09324_04
     RDKit          3D

 32 33  0  0  0  0  0  0  0  0999 V2000
   -2.3181    0.7770   -0.1032 C   0  0  0  0  0  0  0  0  0  0  0  0
   -1.0785    0.0585    0.3092 C   0  0  0  0  0  0  0  0  0  0  0  0
   -1.3831   -0.5833    1.6503 C   0  0  0  0  0  0  0  0  0  0  0  0
   -0.5944   -1.1703   -0.8774 S   0  0  0  0  0  0  0  0  0  0  0  0
   -1.4134   -0.9202   -2.5195 O   0  0  0  0  0  0  0  0  0  0  0  0
   -0.9283   -2.8657   -0.3837 O   0  0  0  0  0  0  0  0  0  0  0  0
    1.0873   -0.8092   -0.9575 C   0  0  2  0  0  0  0  0  0  0  0  0
    1.9857   -1.6958   -0.0839 C   0  0  0  0  0  0  0  0  0  0  0  0
    2.1441   -0.4619    0.8149 C   0  0  0  0  0  0  0  0  0  0  0  0
    1.7997   -0.6393    2.1211 O   0  0  0  0  0  0  0  0  0  0  0  0
    1.2852    0.2321   -0.0543 N   0  0  0  0  0  0  0  0  0  0  0  0
    0.1509    0.8938    0.3673 C   0  0  1  0  0  0  0  0  0  0  0  0
    0.0335    2.2101   -0.3829 C   0  0  0  0  0  0  0  0  0  0  0  0
   -0.0565    2.0536   -1.7433 O   0  0  0  0  0  0  0  0  0  0  0  0
    1.2197    2.9267   -0.1389 O   0  0  0  0  0  0  0  0  0  0  0  0
   -2.4272    1.7159    0.4265 H   0  0  0  0  0  0  0  0  0  0  0  0
   -3.1938    0.1314    0.2071 H   0  0  0  0  0  0  0  0  0  0  0  0
   -2.4361    0.8590   -1.2107 H   0  0  0  0  0  0  0  0  0  0  0  0
   -2.4738   -0.8371    1.6920 H   0  0  0  0  0  0  0  0  0  0  0  0
   -1.2118    0.1759    2.4335 H   0  0  0  0  0  0  0  0  0  0  0  0
   -0.7967   -1.4968    1.8324 H   0  0  0  0  0  0  0  0  0  0  0  0
   -0.9488   -1.6054   -3.0572 H   0  0  0  0  0  0  0  0  0  0  0  0
   -1.8242   -2.8355   -0.0038 H   0  0  0  0  0  0  0  0  0  0  0  0
    1.5489   -0.6681   -1.9305 H   0  0  0  0  0  0  0  0  0  0  0  0
    1.3743   -2.4866    0.4063 H   0  0  0  0  0  0  0  0  0  0  0  0
    2.9086   -2.0165   -0.5725 H   0  0  0  0  0  0  0  0  0  0  0  0
    3.1969   -0.0663    0.7414 H   0  0  0  0  0  0  0  0  0  0  0  0
    2.5855   -0.6131    2.7505 H   0  0  0  0  0  0  0  0  0  0  0  0
    0.2896    1.2019    1.4367 H   0  0  0  0  0  0  0  0  0  0  0  0
   -0.7838    2.8478    0.0067 H   0  0  0  0  0  0  0  0  0  0  0  0
    0.7853    2.2114   -2.2317 H   0  0  0  0  0  0  0  0  0  0  0  0
    1.4733    3.4760   -0.9448 H   0  0  0  0  0  0  0  0  0  0  0  0
  2  1  1  0
  2  3  1  0
  2  4  1  0
  4  5  1  0
  4  6  1  0
  4  7  1  0
  7  8  1  0
  8  9  1  0
  9 10  1  0
  7 11  1  0
  9 11  1  0
  2 12  1  0
 11 12  1  0
 12 13  1  0
 13 14  1  0
 13 15  1  0
  1 16  1  0
  1 17  1  0
  1 18  1  0
  3 19  1  0
  3 20  1  0
  3 21  1  0
  5 22  1  0
  6 23  1  0
  7 24  1  6
  8 25  1  0
  8 26  1  0
  9 27  1  0
 10 28  1  0
 12 29  1  1
 13 30  1  0
 14 31  1  0
 15 32  1  0
M  END
>  <PDBID>  (1) 
4FH2

>  <PDB ID>  (1) 
4FH2

>  <Generic Name>  (1) 
Sulbactam

>  <Brand Name>  (1) 
Ampicillin Sodium and Sulbactam Sodium#Ampicillin and Sulbactam#Unasyn

>  <DrugBank ID>  (1) 
DB09324

>  <ATC Codes>  (1) 
J01CG01

>  <Ligand ID>  (1) 
0RN

>  <Target Name>  (1) 
Beta-lactamase

>  <UniProt ID>  (1) 
P00807

>  <PDB ID.1>  (1) 
4FH2

>  <Seq. Identity>  (1) 
31%

$$$$
