PDB_DB00701_01
     RDKit          3D

 86 88  0  0  0  0  0  0  0  0999 V2000
   -3.2802    3.8988    2.2993 C   0  0  0  0  0  0  0  0  0  0  0  0
   -5.2742    4.1277    1.1007 C   0  0  0  0  0  0  0  0  0  0  0  0
   -3.1066    2.1730   -0.7052 C   0  0  2  0  0  0  0  0  0  0  0  0
   -3.8301    3.6431    0.9229 C   0  0  2  0  0  0  0  0  0  0  0  0
   -2.2118   -0.0269   -0.2223 C   0  0  2  0  0  0  0  0  0  0  0  0
   -0.8458   -0.5764    0.2189 C   0  0  1  0  0  0  0  0  0  0  0  0
   -2.6863   -0.8513   -1.3698 C   0  0  0  0  0  0  0  0  0  0  0  0
   -2.7985   -2.2892   -0.9680 C   0  0  0  0  0  0  0  0  0  0  0  0
   -3.3025   -3.0677   -2.1794 C   0  0  0  0  0  0  0  0  0  0  0  0
   -3.7407   -2.5526    0.1747 C   0  0  0  0  0  0  0  0  0  0  0  0
   -4.0340   -4.3227   -1.7127 C   0  0  0  0  0  0  0  0  0  0  0  0
   -3.4449   -3.9492    0.6939 C   0  0  0  0  0  0  0  0  0  0  0  0
   -3.3719   -4.8823   -0.4698 C   0  0  0  0  0  0  0  0  0  0  0  0
    0.1324   -0.5100   -0.8848 C   0  0  0  0  0  0  0  0  0  0  0  0
    1.4744   -2.2598   -0.2277 C   0  0  0  0  0  0  0  0  0  0  0  0
    2.6664   -3.0192    0.2492 C   0  0  0  0  0  0  0  0  0  0  0  0
    3.9632    0.5225   -0.6630 C   0  0  0  0  0  0  0  0  0  0  0  0
    4.9776    0.1173    0.3140 C   0  0  0  0  0  0  0  0  0  0  0  0
    5.5021    1.2743    1.1887 C   0  0  0  0  0  0  0  0  0  0  0  0
    6.2564    2.2814    0.3917 C   0  0  0  0  0  0  0  0  0  0  0  0
    5.5326    2.4736   -0.9273 C   0  0  0  0  0  0  0  0  0  0  0  0
    4.1063    2.0903   -0.7485 C   0  0  0  0  0  0  0  0  0  0  0  0
    3.8188   -2.9097   -0.7065 C   0  0  0  0  0  0  0  0  0  0  0  0
    3.0063   -2.7708    1.6846 C   0  0  0  0  0  0  0  0  0  0  0  0
   -5.0780    5.2304    2.1054 C   0  0  0  0  0  0  0  0  0  0  0  0
   -1.9370    1.3541   -0.6223 N   0  0  0  0  0  0  0  0  0  0  0  0
    1.5222   -0.8975   -0.4511 N   0  0  0  0  0  0  0  0  0  0  0  0
    6.2442    3.5557    1.1319 N   0  0  0  0  0  0  0  0  0  0  0  0
   -3.7788    2.3135    0.5281 O   0  0  0  0  0  0  0  0  0  0  0  0
   -3.9965    1.7506   -1.6957 O   0  0  0  0  0  0  0  0  0  0  0  0
   -0.4547    0.2838    1.2826 O   0  0  0  0  0  0  0  0  0  0  0  0
    1.7023    1.5522    0.3499 O   0  0  0  0  0  0  0  0  0  0  0  0
    1.8991    1.0843   -2.2026 O   0  0  0  0  0  0  0  0  0  0  0  0
   -3.9539    4.9788    2.8314 O   0  0  0  0  0  0  0  0  0  0  0  0
    2.4342    0.1669   -0.3804 S   0  0  0  0  0  0  0  0  0  0  0  0
   -3.4622    3.0151    2.9424 H   0  0  0  0  0  0  0  0  0  0  0  0
   -2.1713    4.0755    2.2679 H   0  0  0  0  0  0  0  0  0  0  0  0
   -5.6668    4.4531    0.1344 H   0  0  0  0  0  0  0  0  0  0  0  0
   -5.8447    3.3089    1.5783 H   0  0  0  0  0  0  0  0  0  0  0  0
   -2.7967    3.1922   -1.0052 H   0  0  0  0  0  0  0  0  0  0  0  0
   -3.3258    4.2691    0.1576 H   0  0  0  0  0  0  0  0  0  0  0  0
   -2.9088    0.0491    0.6277 H   0  0  0  0  0  0  0  0  0  0  0  0
   -0.9623   -1.5668    0.6760 H   0  0  0  0  0  0  0  0  0  0  0  0
   -1.9955   -0.7302   -2.2112 H   0  0  0  0  0  0  0  0  0  0  0  0
   -3.6983   -0.5493   -1.7312 H   0  0  0  0  0  0  0  0  0  0  0  0
   -1.8014   -2.7289   -0.7035 H   0  0  0  0  0  0  0  0  0  0  0  0
   -4.0428   -2.4589   -2.7390 H   0  0  0  0  0  0  0  0  0  0  0  0
   -2.4932   -3.3268   -2.8810 H   0  0  0  0  0  0  0  0  0  0  0  0
   -3.6024   -1.8208    1.0053 H   0  0  0  0  0  0  0  0  0  0  0  0
   -4.7921   -2.4664   -0.1629 H   0  0  0  0  0  0  0  0  0  0  0  0
   -5.0978   -4.0874   -1.5489 H   0  0  0  0  0  0  0  0  0  0  0  0
   -3.9471   -5.0889   -2.5057 H   0  0  0  0  0  0  0  0  0  0  0  0
   -2.4701   -3.8924    1.2255 H   0  0  0  0  0  0  0  0  0  0  0  0
   -4.2067   -4.2564    1.4318 H   0  0  0  0  0  0  0  0  0  0  0  0
   -3.8599   -5.8348   -0.2290 H   0  0  0  0  0  0  0  0  0  0  0  0
   -2.3105   -5.0791   -0.7685 H   0  0  0  0  0  0  0  0  0  0  0  0
   -0.0871   -1.1404   -1.7516 H   0  0  0  0  0  0  0  0  0  0  0  0
    0.2246    0.5333   -1.2221 H   0  0  0  0  0  0  0  0  0  0  0  0
    1.1130   -2.7740   -1.1954 H   0  0  0  0  0  0  0  0  0  0  0  0
    0.6327   -2.5869    0.4764 H   0  0  0  0  0  0  0  0  0  0  0  0
    2.4099   -4.1437    0.2286 H   0  0  0  0  0  0  0  0  0  0  0  0
    4.3268    0.2582   -1.7079 H   0  0  0  0  0  0  0  0  0  0  0  0
    4.7099   -0.6745    1.0341 H   0  0  0  0  0  0  0  0  0  0  0  0
    5.9284   -0.2629   -0.1864 H   0  0  0  0  0  0  0  0  0  0  0  0
    6.2439    0.7966    1.8775 H   0  0  0  0  0  0  0  0  0  0  0  0
    4.7093    1.7011    1.8173 H   0  0  0  0  0  0  0  0  0  0  0  0
    7.2982    1.9917    0.1754 H   0  0  0  0  0  0  0  0  0  0  0  0
    5.5591    3.5487   -1.1626 H   0  0  0  0  0  0  0  0  0  0  0  0
    6.0270    1.9418   -1.7642 H   0  0  0  0  0  0  0  0  0  0  0  0
    3.7331    2.4457    0.2258 H   0  0  0  0  0  0  0  0  0  0  0  0
    3.4397    2.4570   -1.5441 H   0  0  0  0  0  0  0  0  0  0  0  0
    3.5598   -2.1840   -1.5273 H   0  0  0  0  0  0  0  0  0  0  0  0
    3.9327   -3.8901   -1.2641 H   0  0  0  0  0  0  0  0  0  0  0  0
    4.7931   -2.6893   -0.2277 H   0  0  0  0  0  0  0  0  0  0  0  0
    2.7994   -1.7282    2.0065 H   0  0  0  0  0  0  0  0  0  0  0  0
    4.1062   -2.9168    1.7962 H   0  0  0  0  0  0  0  0  0  0  0  0
    2.5142   -3.5146    2.3197 H   0  0  0  0  0  0  0  0  0  0  0  0
   -5.9733    5.3465    2.7655 H   0  0  0  0  0  0  0  0  0  0  0  0
   -4.9683    6.2178    1.5967 H   0  0  0  0  0  0  0  0  0  0  0  0
   -1.3302    1.7502    0.1366 H   0  0  0  0  0  0  0  0  0  0  0  0
    5.3924    4.1192    0.8624 H   0  0  0  0  0  0  0  0  0  0  0  0
    6.1581    3.3635    2.1606 H   0  0  0  0  0  0  0  0  0  0  0  0
   -3.5224    1.7468   -2.5630 H   0  0  0  0  0  0  0  0  0  0  0  0
   -0.6952   -0.0944    2.1444 H   0  0  0  0  0  0  0  0  0  0  0  0
    2.0969    1.6664    1.2253 H   0  0  0  0  0  0  0  0  0  0  0  0
    2.2126    0.2522   -2.6242 H   0  0  0  0  0  0  0  0  0  0  0  0
  1  4  1  0
  2  4  1  0
  5  6  1  0
  5  7  1  0
  7  8  1  0
  8  9  1  0
  8 10  1  0
  9 11  1  0
 10 12  1  0
 11 13  1  0
 12 13  1  0
  6 14  1  0
 15 16  1  0
 17 18  1  0
 18 19  1  0
 19 20  1  0
 20 21  1  0
 17 22  1  0
 21 22  1  0
 16 23  1  0
 16 24  1  0
  2 25  1  0
  3 26  1  0
  5 26  1  0
 14 27  1  0
 15 27  1  0
 20 28  1  0
  3 29  1  0
  4 29  1  0
  3 30  1  0
  6 31  1  0
  1 34  1  0
 25 34  1  0
 17 35  1  0
 27 35  1  0
 35 32  1  0
 33 35  1  0
  1 36  1  0
  1 37  1  0
  2 38  1  0
  2 39  1  0
  3 40  1  6
  4 41  1  6
  5 42  1  1
  6 43  1  1
  7 44  1  0
  7 45  1  0
  8 46  1  0
  9 47  1  0
  9 48  1  0
 10 49  1  0
 10 50  1  0
 11 51  1  0
 11 52  1  0
 12 53  1  0
 12 54  1  0
 13 55  1  0
 13 56  1  0
 14 57  1  0
 14 58  1  0
 15 59  1  0
 15 60  1  0
 16 61  1  0
 17 62  1  0
 18 63  1  0
 18 64  1  0
 19 65  1  0
 19 66  1  0
 20 67  1  0
 21 68  1  0
 21 69  1  0
 22 70  1  0
 22 71  1  0
 23 72  1  0
 23 73  1  0
 23 74  1  0
 24 75  1  0
 24 76  1  0
 24 77  1  0
 25 78  1  0
 25 79  1  0
 26 80  1  0
 28 81  1  0
 28 82  1  0
 30 83  1  0
 31 84  1  0
 32 85  1  0
 33 86  1  0
M  END
>  <PDBID>  (1) 
1HPV

>  <PDB ID>  (1) 
1HPV

>  <Generic Name>  (1) 
Amprenavir

>  <Brand Name>  (1) 
Agenerase#Agemerase#Prozei

>  <DrugBank ID>  (1) 
DB00701

>  <ATC Codes>  (1) 
J05AE05

>  <Ligand ID>  (1) 
478

>  <Target Name>  (1) 
Pol polyprotein

>  <UniProt ID>  (1) 
Q72874

>  <PDB ID.1>  (1) 
1HPV

>  <Seq. Identity>  (1) 
99%

$$$$
