PDB_DB00238_06
     RDKit          3D

 48 51  0  0  0  0  0  0  0  0999 V2000
   -0.3267    0.7083   -0.4906 N   0  0  0  0  0  0  0  0  0  0  0  0
   -0.8172    2.0560   -0.6573 C   0  0  0  0  0  0  0  0  0  0  0  0
   -1.0247    2.8181    0.6558 C   0  0  0  0  0  0  0  0  0  0  0  0
   -0.0933    3.2867   -0.4152 C   0  0  0  0  0  0  0  0  0  0  0  0
    1.8882    1.4569   -0.7496 N   0  0  0  0  0  0  0  0  0  0  0  0
    3.1820    0.9347   -0.9855 C   0  0  0  0  0  0  0  0  0  0  0  0
    3.7977    0.1065    0.0746 C   0  0  0  0  0  0  0  0  0  0  0  0
    2.8809   -0.8693    0.7243 C   0  0  0  0  0  0  0  0  0  0  0  0
    2.8195   -0.7237    2.2131 C   0  0  0  0  0  0  0  0  0  0  0  0
    1.0030    0.6530    0.0681 C   0  0  2  0  0  0  0  0  0  0  0  0
    1.5187   -0.7436    0.0545 C   0  0  2  0  0  0  0  0  0  0  0  0
    0.6984   -1.7471    0.6344 N   0  0  0  0  0  0  0  0  0  0  0  0
   -0.2235   -2.1957   -0.4044 C   0  0  0  0  0  0  0  0  0  0  0  0
    0.2664   -2.0535   -1.6761 O   0  0  0  0  0  0  0  0  0  0  0  0
   -1.5036   -1.4582   -0.1310 C   0  0  1  0  0  0  0  0  0  0  0  0
   -1.2960   -0.0252    0.2907 C   0  0  2  0  0  0  0  0  0  0  0  0
   -2.5637   -1.6359   -1.1772 C   0  0  0  0  0  0  0  0  0  0  0  0
   -3.8970   -1.3663   -0.4621 C   0  0  0  0  0  0  0  0  0  0  0  0
   -3.6452   -0.3265    0.6312 C   0  0  0  0  0  0  0  0  0  0  0  0
   -2.6238    0.5841    0.0967 N   0  0  0  0  0  0  0  0  0  0  0  0
   -1.6783    2.1055   -1.3887 H   0  0  0  0  0  0  0  0  0  0  0  0
   -2.0103    3.3300    0.8013 H   0  0  0  0  0  0  0  0  0  0  0  0
   -0.5080    2.4375    1.5596 H   0  0  0  0  0  0  0  0  0  0  0  0
    0.9602    3.4324   -0.1775 H   0  0  0  0  0  0  0  0  0  0  0  0
   -0.5006    4.1976   -0.9611 H   0  0  0  0  0  0  0  0  0  0  0  0
    1.4234    1.5916   -1.6754 H   0  0  0  0  0  0  0  0  0  0  0  0
    3.2275    0.3986   -1.9712 H   0  0  0  0  0  0  0  0  0  0  0  0
    3.8675    1.8212   -1.1456 H   0  0  0  0  0  0  0  0  0  0  0  0
    4.3244    0.6851    0.8729 H   0  0  0  0  0  0  0  0  0  0  0  0
    4.6255   -0.4920   -0.4114 H   0  0  0  0  0  0  0  0  0  0  0  0
    3.1863   -1.9411    0.5311 H   0  0  0  0  0  0  0  0  0  0  0  0
    3.8721   -0.8746    2.5783 H   0  0  0  0  0  0  0  0  0  0  0  0
    2.2145   -1.5681    2.6244 H   0  0  0  0  0  0  0  0  0  0  0  0
    2.4556    0.2661    2.5044 H   0  0  0  0  0  0  0  0  0  0  0  0
    0.9886    1.0264    1.1104 H   0  0  0  0  0  0  0  0  0  0  0  0
    1.7282   -0.9864   -1.0289 H   0  0  0  0  0  0  0  0  0  0  0  0
    0.2181   -1.4803    1.4966 H   0  0  0  0  0  0  0  0  0  0  0  0
   -0.4042   -3.2717   -0.2214 H   0  0  0  0  0  0  0  0  0  0  0  0
   -0.3074   -1.5299   -2.2724 H   0  0  0  0  0  0  0  0  0  0  0  0
   -1.9291   -1.9636    0.7999 H   0  0  0  0  0  0  0  0  0  0  0  0
   -1.0798    0.0875    1.3684 H   0  0  0  0  0  0  0  0  0  0  0  0
   -2.5727   -2.7237   -1.4332 H   0  0  0  0  0  0  0  0  0  0  0  0
   -2.4734   -1.0070   -2.0611 H   0  0  0  0  0  0  0  0  0  0  0  0
   -4.3218   -2.2872   -0.0463 H   0  0  0  0  0  0  0  0  0  0  0  0
   -4.5709   -0.8618   -1.2050 H   0  0  0  0  0  0  0  0  0  0  0  0
   -4.5531    0.2881    0.8016 H   0  0  0  0  0  0  0  0  0  0  0  0
   -3.3681   -0.7681    1.5898 H   0  0  0  0  0  0  0  0  0  0  0  0
   -2.8545    0.6284   -0.9339 H   0  0  0  0  0  0  0  0  0  0  0  0
  1  2  1  0
  2  3  1  0
  2  4  1  0
  3  4  1  0
  5  6  1  0
  6  7  1  0
  7  8  1  0
  8  9  1  0
  1 10  1  0
  5 10  1  0
  8 11  1  0
 10 11  1  0
 11 12  1  0
 12 13  1  0
 13 14  1  0
 13 15  1  0
  1 16  1  0
 15 16  1  0
 15 17  1  0
 17 18  1  0
 18 19  1  0
 16 20  1  0
 19 20  1  0
  2 21  1  0
  3 22  1  0
  3 23  1  0
  4 24  1  0
  4 25  1  0
  5 26  1  0
  6 27  1  0
  6 28  1  0
  7 29  1  0
  7 30  1  0
  8 31  1  0
  9 32  1  0
  9 33  1  0
  9 34  1  0
 10 35  1  1
 11 36  1  6
 12 37  1  0
 13 38  1  0
 14 39  1  0
 15 40  1  1
 16 41  1  1
 17 42  1  0
 17 43  1  0
 18 44  1  0
 18 45  1  0
 19 46  1  0
 19 47  1  0
 20 48  1  0
M  END
>  <PDBID>  (1) 
2HND

>  <PDB ID>  (1) 
2HND

>  <Generic Name>  (1) 
Nevirapine

>  <Brand Name>  (1) 
Apo-nevirapine#Apo-nevirapine XR#Apo-zidovudine-lamivudine-nevirapine#Auro-nevirapine#Mylan-nevirapine#Nevirapine#Nevirapine Extended Release#PMS-nevirapine#Teva-nevirapine#Viramune#Viramune XR

>  <DrugBank ID>  (1) 
DB00238

>  <ATC Codes>  (1) 
J05AR05#J05AG01#J05AR07

>  <Ligand ID>  (1) 
NVP

>  <Target Name>  (1) 
Reverse transcriptase/RNaseH

>  <UniProt ID>  (1) 
Q72547

>  <PDB ID.1>  (1) 
2HND

>  <Seq. Identity>  (1) 
96%

$$$$
