PDB_DB06147_09
     RDKit          3D

 37 38  0  0  0  0  0  0  0  0999 V2000
   -0.3640   -1.0210   -2.3121 O   0  0  0  0  0  0  0  0  0  0  0  0
    0.5611   -1.2479   -0.8002 S   0  0  0  0  0  0  0  0  0  0  0  0
    0.6427   -2.7716   -0.6434 O   0  0  0  0  0  0  0  0  0  0  0  0
   -0.7433   -0.6097    0.3573 C   0  0  0  0  0  0  0  0  0  0  0  0
   -0.8689    0.8181    0.0171 C   0  0  0  0  0  0  0  0  0  0  0  0
   -2.2163    1.2124   -0.5463 C   0  0  0  0  0  0  0  0  0  0  0  0
   -1.9267   -1.4602    0.2504 C   0  0  0  0  0  0  0  0  0  0  0  0
   -3.2562   -0.8082    0.2970 C   0  0  0  0  0  0  0  0  0  0  0  0
   -3.2359    0.6734    0.4661 C   0  0  0  0  0  0  0  0  0  0  0  0
   -4.5335    1.2010    0.0896 N   0  0  0  0  0  0  0  0  0  0  0  0
    1.6974   -0.2813   -0.9051 N   0  0  0  0  0  0  0  0  0  0  0  0
    2.9311   -0.3348   -0.2045 C   0  0  0  0  0  0  0  0  0  0  0  0
    3.9471    1.1096   -0.7232 S   0  0  0  0  0  0  0  0  0  0  0  0
    4.5064    1.6049    0.9585 C   0  0  0  0  0  0  0  0  0  0  0  0
    4.1129    0.3140    1.6940 C   0  0  0  0  0  0  0  0  0  0  0  0
    2.7748   -0.0117    1.2234 N   0  0  0  0  0  0  0  0  0  0  0  0
   -0.3086   -0.0464   -2.4950 H   0  0  0  0  0  0  0  0  0  0  0  0
    0.5326   -3.3112   -1.4867 H   0  0  0  0  0  0  0  0  0  0  0  0
   -0.1959   -0.7357    1.3367 H   0  0  0  0  0  0  0  0  0  0  0  0
   -0.7529    1.4174    0.9669 H   0  0  0  0  0  0  0  0  0  0  0  0
   -0.0644    1.2109   -0.6527 H   0  0  0  0  0  0  0  0  0  0  0  0
   -2.4451    0.7152   -1.5031 H   0  0  0  0  0  0  0  0  0  0  0  0
   -2.2479    2.2985   -0.6291 H   0  0  0  0  0  0  0  0  0  0  0  0
   -1.8939   -2.2338    1.0739 H   0  0  0  0  0  0  0  0  0  0  0  0
   -1.8493   -2.0737   -0.6950 H   0  0  0  0  0  0  0  0  0  0  0  0
   -3.9092   -1.2223    1.1197 H   0  0  0  0  0  0  0  0  0  0  0  0
   -3.8440   -1.0241   -0.6410 H   0  0  0  0  0  0  0  0  0  0  0  0
   -2.9428    0.9873    1.4856 H   0  0  0  0  0  0  0  0  0  0  0  0
   -4.7778    0.7711   -0.8349 H   0  0  0  0  0  0  0  0  0  0  0  0
   -5.2233    0.8334    0.7787 H   0  0  0  0  0  0  0  0  0  0  0  0
    1.8446    0.2711   -1.8020 H   0  0  0  0  0  0  0  0  0  0  0  0
    3.4895   -1.2671   -0.2724 H   0  0  0  0  0  0  0  0  0  0  0  0
    3.8973    2.4152    1.3534 H   0  0  0  0  0  0  0  0  0  0  0  0
    5.5832    1.7388    1.0050 H   0  0  0  0  0  0  0  0  0  0  0  0
    4.8198   -0.4917    1.3809 H   0  0  0  0  0  0  0  0  0  0  0  0
    4.0710    0.4858    2.7642 H   0  0  0  0  0  0  0  0  0  0  0  0
    2.1884    0.8743    1.2806 H   0  0  0  0  0  0  0  0  0  0  0  0
  2  1  1  0
  2  3  1  0
  2  4  1  0
  4  5  1  0
  5  6  1  0
  4  7  1  0
  7  8  1  0
  6  9  1  0
  8  9  1  0
  9 10  1  0
  2 11  1  0
 11 12  1  0
 12 13  1  0
 13 14  1  0
 14 15  1  0
 12 16  1  0
 15 16  1  0
  1 17  1  0
  3 18  1  0
  4 19  1  0
  5 20  1  0
  5 21  1  0
  6 22  1  0
  6 23  1  0
  7 24  1  0
  7 25  1  0
  8 26  1  0
  8 27  1  0
  9 28  1  0
 10 29  1  0
 10 30  1  0
 11 31  1  0
 12 32  1  0
 14 33  1  0
 14 34  1  0
 15 35  1  0
 15 36  1  0
 16 37  1  0
M  END
>  <PDBID>  (1) 
3TYE

>  <PDB ID>  (1) 
3TYE

>  <Generic Name>  (1) 
Sulfathiazole

>  <Brand Name>  (1) 
Norsulfazolum#Sulfatiazol

>  <DrugBank ID>  (1) 
DB06147

>  <ATC Codes>  (1) 
J01EB07#D06BA02

>  <Ligand ID>  (1) 
YTZ

>  <Target Name>  (1) 
Dihydropteroate synthetase

>  <UniProt ID>  (1) 
Q27738

>  <PDB ID.1>  (1) 
3TYE

>  <Seq. Identity>  (1) 
35%

$$$$
