PDB_DB01004_00
     RDKit          3D

 78 80  0  0  0  0  0  0  0  0999 V2000
   -4.1209   -0.0554    0.1078 N   0  0  0  0  0  0  0  0  0  0  0  0
   -3.5343    1.1356   -0.4386 C   0  0  0  0  0  0  0  0  0  0  0  0
   -1.3413    0.1387   -0.5349 C   0  0  0  0  0  0  0  0  0  0  0  0
   -0.0825   -1.4021    0.6237 C   0  0  0  0  0  0  0  0  0  0  0  0
    4.2620   -0.7708   -0.3880 C   0  0  0  0  0  0  0  0  0  0  0  0
    4.5896   -1.3191    0.8269 O   0  0  0  0  0  0  0  0  0  0  0  0
    4.1150    1.5630    0.3424 C   0  0  0  0  0  0  0  0  0  0  0  0
    5.3042    1.7108   -0.4028 O   0  0  0  0  0  0  0  0  0  0  0  0
    3.3514    0.4337   -0.2823 C   0  0  0  0  0  0  0  0  0  0  0  0
    2.1562    0.1501    0.3225 O   0  0  0  0  0  0  0  0  0  0  0  0
    1.0538    0.3116   -0.4774 C   0  0  0  0  0  0  0  0  0  0  0  0
   -0.1414   -0.0153    0.2663 N   0  0  0  0  0  0  0  0  0  0  0  0
   -2.1343    1.2634   -0.1461 N   0  0  0  0  0  0  0  0  0  0  0  0
   -4.2247    2.2811    0.1252 N   0  0  0  0  0  0  0  0  0  0  0  0
   -3.4825   -1.1896   -0.4868 C   0  0  0  0  0  0  0  0  0  0  0  0
   -3.9208   -2.3275    0.2288 O   0  0  0  0  0  0  0  0  0  0  0  0
   -2.0068   -1.1737   -0.4841 C   0  0  0  0  0  0  0  0  0  0  0  0
   -1.5052   -1.7371    0.7794 N   0  0  0  0  0  0  0  0  0  0  0  0
   -4.1209   -0.0554    0.1078 N   0  0  0  0  0  0  0  0  0  0  0  0
   -3.5343    1.1356   -0.4386 C   0  0  0  0  0  0  0  0  0  0  0  0
   -1.3413    0.1387   -0.5349 C   0  0  0  0  0  0  0  0  0  0  0  0
   -0.0825   -1.4021    0.6237 C   0  0  0  0  0  0  0  0  0  0  0  0
    4.2620   -0.7708   -0.3880 C   0  0  0  0  0  0  0  0  0  0  0  0
    4.5896   -1.3191    0.8269 O   0  0  0  0  0  0  0  0  0  0  0  0
    4.1150    1.5630    0.3424 C   0  0  0  0  0  0  0  0  0  0  0  0
    5.3042    1.7108   -0.4028 O   0  0  0  0  0  0  0  0  0  0  0  0
    3.3514    0.4337   -0.2823 C   0  0  0  0  0  0  0  0  0  0  0  0
    2.1562    0.1501    0.3225 O   0  0  0  0  0  0  0  0  0  0  0  0
    1.0538    0.3116   -0.4774 C   0  0  0  0  0  0  0  0  0  0  0  0
   -0.1414   -0.0153    0.2663 N   0  0  0  0  0  0  0  0  0  0  0  0
   -2.1343    1.2634   -0.1461 N   0  0  0  0  0  0  0  0  0  0  0  0
   -4.2247    2.2811    0.1252 N   0  0  0  0  0  0  0  0  0  0  0  0
   -3.4825   -1.1896   -0.4868 C   0  0  0  0  0  0  0  0  0  0  0  0
   -3.9208   -2.3275    0.2288 O   0  0  0  0  0  0  0  0  0  0  0  0
   -2.0068   -1.1737   -0.4841 C   0  0  0  0  0  0  0  0  0  0  0  0
   -1.5052   -1.7371    0.7794 N   0  0  0  0  0  0  0  0  0  0  0  0
   -4.0950   -0.0952    1.1373 H   0  0  0  0  0  0  0  0  0  0  0  0
   -3.7221    1.1435   -1.5350 H   0  0  0  0  0  0  0  0  0  0  0  0
   -0.9948    0.3214   -1.5900 H   0  0  0  0  0  0  0  0  0  0  0  0
    0.4713   -1.6118    1.5507 H   0  0  0  0  0  0  0  0  0  0  0  0
    0.2641   -1.9784   -0.2505 H   0  0  0  0  0  0  0  0  0  0  0  0
    5.1985   -0.5098   -0.9199 H   0  0  0  0  0  0  0  0  0  0  0  0
    3.7842   -1.5873   -0.9965 H   0  0  0  0  0  0  0  0  0  0  0  0
    4.2693   -2.2351    0.9753 H   0  0  0  0  0  0  0  0  0  0  0  0
    3.5598    2.5211    0.2258 H   0  0  0  0  0  0  0  0  0  0  0  0
    4.4232    1.3679    1.3798 H   0  0  0  0  0  0  0  0  0  0  0  0
    5.1130    1.5821   -1.3818 H   0  0  0  0  0  0  0  0  0  0  0  0
    3.1241    0.7443   -1.3372 H   0  0  0  0  0  0  0  0  0  0  0  0
    0.9799    1.3838   -0.7507 H   0  0  0  0  0  0  0  0  0  0  0  0
    1.1138   -0.2770   -1.4292 H   0  0  0  0  0  0  0  0  0  0  0  0
   -1.7331    2.1759   -0.3565 H   0  0  0  0  0  0  0  0  0  0  0  0
   -5.2330    2.0092    0.3287 H   0  0  0  0  0  0  0  0  0  0  0  0
   -4.3105    3.0375   -0.6093 H   0  0  0  0  0  0  0  0  0  0  0  0
   -3.8826   -1.3437   -1.5280 H   0  0  0  0  0  0  0  0  0  0  0  0
   -3.1926   -2.7361    0.7468 H   0  0  0  0  0  0  0  0  0  0  0  0
   -1.6244   -1.8322   -1.3101 H   0  0  0  0  0  0  0  0  0  0  0  0
   -1.8506   -1.0775    1.5340 H   0  0  0  0  0  0  0  0  0  0  0  0
   -4.0950   -0.0952    1.1373 H   0  0  0  0  0  0  0  0  0  0  0  0
   -3.7221    1.1435   -1.5350 H   0  0  0  0  0  0  0  0  0  0  0  0
   -0.9948    0.3214   -1.5900 H   0  0  0  0  0  0  0  0  0  0  0  0
    0.4713   -1.6118    1.5507 H   0  0  0  0  0  0  0  0  0  0  0  0
    0.2641   -1.9784   -0.2505 H   0  0  0  0  0  0  0  0  0  0  0  0
    5.1985   -0.5098   -0.9199 H   0  0  0  0  0  0  0  0  0  0  0  0
    3.7842   -1.5873   -0.9965 H   0  0  0  0  0  0  0  0  0  0  0  0
    4.2693   -2.2351    0.9753 H   0  0  0  0  0  0  0  0  0  0  0  0
    3.5598    2.5211    0.2258 H   0  0  0  0  0  0  0  0  0  0  0  0
    4.4232    1.3679    1.3798 H   0  0  0  0  0  0  0  0  0  0  0  0
    5.1130    1.5821   -1.3818 H   0  0  0  0  0  0  0  0  0  0  0  0
    3.1241    0.7443   -1.3372 H   0  0  0  0  0  0  0  0  0  0  0  0
    0.9799    1.3838   -0.7507 H   0  0  0  0  0  0  0  0  0  0  0  0
    1.1138   -0.2770   -1.4292 H   0  0  0  0  0  0  0  0  0  0  0  0
   -1.7331    2.1759   -0.3565 H   0  0  0  0  0  0  0  0  0  0  0  0
   -5.2330    2.0092    0.3287 H   0  0  0  0  0  0  0  0  0  0  0  0
   -4.3105    3.0375   -0.6093 H   0  0  0  0  0  0  0  0  0  0  0  0
   -3.8826   -1.3437   -1.5280 H   0  0  0  0  0  0  0  0  0  0  0  0
   -3.1926   -2.7361    0.7468 H   0  0  0  0  0  0  0  0  0  0  0  0
   -1.6244   -1.8322   -1.3101 H   0  0  0  0  0  0  0  0  0  0  0  0
   -1.8506   -1.0775    1.5340 H   0  0  0  0  0  0  0  0  0  0  0  0
  1  2  1  0
  5  6  1  0
  7  8  1  0
  5  9  1  0
  7  9  1  0
  9 10  1  0
 10 11  1  0
  3 12  1  0
  4 12  1  0
 11 12  1  0
  2 13  1  0
  3 13  1  0
  2 14  1  0
  1 15  1  0
 15 16  1  0
  3 17  1  0
 15 17  1  0
  4 18  1  0
 17 18  1  0
 19 20  1  0
 23 24  1  0
 25 26  1  0
 23 27  1  0
 25 27  1  0
 27 28  1  0
 28 29  1  0
 21 30  1  0
 22 30  1  0
 29 30  1  0
 20 31  1  0
 21 31  1  0
 20 32  1  0
 19 33  1  0
 33 34  1  0
 21 35  1  0
 33 35  1  0
 22 36  1  0
 35 36  1  0
  1 37  1  0
  2 38  1  0
  3 39  1  0
  4 40  1  0
  4 41  1  0
  5 42  1  0
  5 43  1  0
  6 44  1  0
  7 45  1  0
  7 46  1  0
  8 47  1  0
  9 48  1  0
 11 49  1  0
 11 50  1  0
 13 51  1  0
 14 52  1  0
 14 53  1  0
 15 54  1  0
 16 55  1  0
 17 56  1  0
 18 57  1  0
 19 58  1  0
 20 59  1  0
 21 60  1  0
 22 61  1  0
 22 62  1  0
 23 63  1  0
 23 64  1  0
 24 65  1  0
 25 66  1  0
 25 67  1  0
 26 68  1  0
 27 69  1  0
 29 70  1  0
 29 71  1  0
 31 72  1  0
 32 73  1  0
 32 74  1  0
 33 75  1  0
 34 76  1  0
 35 77  1  0
 36 78  1  0
M  END
>  <PDBID>  (1) 
1KI2

>  <PDB ID>  (1) 
1KI2

>  <Generic Name>  (1) 
Ganciclovir

>  <Brand Name>  (1) 
Cytovene - Cap 250mg#Cytovene - Pws 500mg/10m/-vial IV#Cytovene IV#Cytovene Inj 500mg/vial#Cytovene, 500 mg#Ganciclovir#Ganciclovir for Injection#Vitrasert, Intravitreal Implant#Zirgan#Cytovene#Vitrasert

>  <DrugBank ID>  (1) 
DB01004

>  <ATC Codes>  (1) 
J05AB06#S01AD09

>  <Ligand ID>  (1) 
GA2

>  <Target Name>  (1) 
Thymidine kinase

>  <UniProt ID>  (1) 
P03176

>  <PDB ID.1>  (1) 
1KI2

>  <Seq. Identity>  (1) 
100%

$$$$
