PDB_DB00360_01
     RDKit          3D

 38 39  0  0  0  0  0  0  0  0999 V2000
   -2.7671    1.3452    0.0047 N   0  0  0  0  0  0  0  0  0  0  0  0
   -3.8565    0.4027    0.0820 C   0  0  2  0  0  0  0  0  0  0  0  0
   -4.8035    0.7703    1.1431 N   0  0  0  0  0  0  0  0  0  0  0  0
   -3.4585   -0.9590    0.1473 N   0  0  0  0  0  0  0  0  0  0  0  0
   -2.3150   -1.2365    0.9457 C   0  0  1  0  0  0  0  0  0  0  0  0
   -1.8197   -2.4987    0.5737 O   0  0  0  0  0  0  0  0  0  0  0  0
   -1.1840   -0.2504    0.7372 C   0  0  2  0  0  0  0  0  0  0  0  0
   -1.5941    0.6037   -0.4406 C   0  0  2  0  0  0  0  0  0  0  0  0
    0.0868   -0.9034    0.5247 N   0  0  0  0  0  0  0  0  0  0  0  0
   -0.5563    1.4852   -0.8889 N   0  0  0  0  0  0  0  0  0  0  0  0
    1.0715    0.1388    0.3035 C   0  0  2  0  0  0  0  0  0  0  0  0
    0.7112    0.8315   -0.9829 C   0  0  0  0  0  0  0  0  0  0  0  0
    2.4287   -0.5097    0.1830 C   0  0  1  0  0  0  0  0  0  0  0  0
    2.4859   -1.4124   -0.8763 O   0  0  0  0  0  0  0  0  0  0  0  0
    3.5241    0.5307    0.0719 C   0  0  2  0  0  0  0  0  0  0  0  0
    4.8659   -0.1519    0.1013 C   0  0  0  0  0  0  0  0  0  0  0  0
    3.3909    1.3892    1.1698 O   0  0  0  0  0  0  0  0  0  0  0  0
   -2.6150    1.7824    0.9310 H   0  0  0  0  0  0  0  0  0  0  0  0
   -4.4451    0.5352   -0.8721 H   0  0  0  0  0  0  0  0  0  0  0  0
   -5.2505   -0.0895    1.5229 H   0  0  0  0  0  0  0  0  0  0  0  0
   -4.3517    1.3617    1.8566 H   0  0  0  0  0  0  0  0  0  0  0  0
   -3.5273   -1.4962   -0.7290 H   0  0  0  0  0  0  0  0  0  0  0  0
   -2.6242   -1.2927    2.0087 H   0  0  0  0  0  0  0  0  0  0  0  0
   -2.0742   -3.1785    1.2706 H   0  0  0  0  0  0  0  0  0  0  0  0
   -1.1061    0.3583    1.6479 H   0  0  0  0  0  0  0  0  0  0  0  0
   -1.9379   -0.0987   -1.2402 H   0  0  0  0  0  0  0  0  0  0  0  0
    0.3407   -1.3752    1.4215 H   0  0  0  0  0  0  0  0  0  0  0  0
   -0.8170    1.7890   -1.8740 H   0  0  0  0  0  0  0  0  0  0  0  0
    1.0981    0.8563    1.1278 H   0  0  0  0  0  0  0  0  0  0  0  0
    0.7564    0.0774   -1.8156 H   0  0  0  0  0  0  0  0  0  0  0  0
    1.4831    1.6264   -1.1903 H   0  0  0  0  0  0  0  0  0  0  0  0
    2.6233   -1.0939    1.1296 H   0  0  0  0  0  0  0  0  0  0  0  0
    2.8497   -0.9538   -1.6874 H   0  0  0  0  0  0  0  0  0  0  0  0
    3.4199    1.0690   -0.8743 H   0  0  0  0  0  0  0  0  0  0  0  0
    5.4608    0.0879   -0.8219 H   0  0  0  0  0  0  0  0  0  0  0  0
    5.4721    0.1799    0.9650 H   0  0  0  0  0  0  0  0  0  0  0  0
    4.7323   -1.2495    0.2238 H   0  0  0  0  0  0  0  0  0  0  0  0
    4.3025    1.5295    1.5417 H   0  0  0  0  0  0  0  0  0  0  0  0
  1  2  1  0
  2  3  1  0
  2  4  1  0
  4  5  1  0
  5  6  1  0
  5  7  1  0
  1  8  1  0
  7  8  1  0
  7  9  1  0
  8 10  1  0
  9 11  1  0
 10 12  1  0
 11 12  1  0
 11 13  1  0
 13 14  1  0
 13 15  1  0
 15 16  1  0
 15 17  1  0
  1 18  1  0
  2 19  1  6
  3 20  1  0
  3 21  1  0
  4 22  1  0
  5 23  1  1
  6 24  1  0
  7 25  1  1
  8 26  1  6
  9 27  1  0
 10 28  1  0
 11 29  1  1
 12 30  1  0
 12 31  1  0
 13 32  1  1
 14 33  1  0
 15 34  1  6
 16 35  1  0
 16 36  1  0
 16 37  1  0
 17 38  1  0
M  END
>  <PDBID>  (1) 
1J8U

>  <PDB ID>  (1) 
1J8U

>  <Generic Name>  (1) 
Sapropterin

>  <Brand Name>  (1) 
Kuvan#BH4#Biopten

>  <DrugBank ID>  (1) 
DB00360

>  <ATC Codes>  (1) 
A16AX07

>  <Ligand ID>  (1) 
BH4,BHS,H4B,THB

>  <Target Name>  (1) 
Tryptophan 5-hydroxylase 1

>  <UniProt ID>  (1) 
P17752

>  <PDB ID.1>  (1) 
1J8U

>  <Seq. Identity>  (1) 
65%

$$$$
