PDB_DB00302_08
     RDKit          3D

 56 56  0  0  0  0  0  0  0  0999 V2000
    1.4919   -0.2502    0.3144 C   0  0  0  0  0  0  0  0  0  0  0  0
    0.6453   -1.1879   -0.5030 C   0  0  0  0  0  0  0  0  0  0  0  0
   -0.6422   -1.5046    0.2350 C   0  0  0  0  0  0  0  0  0  0  0  0
   -1.5013   -0.3094    0.4198 C   0  0  0  0  0  0  0  0  0  0  0  0
   -0.6411    0.9287    0.2869 C   0  0  0  0  0  0  0  0  0  0  0  0
    0.6352    0.7174    1.0920 C   0  0  0  0  0  0  0  0  0  0  0  0
   -2.6748   -0.2446   -0.5252 C   0  0  0  0  0  0  0  0  0  0  0  0
    2.4740    0.4895   -0.5923 C   0  0  0  0  0  0  0  0  0  0  0  0
   -3.4491    0.9452   -0.2728 N   0  0  0  0  0  0  0  0  0  0  0  0
    3.2856   -0.4317   -1.2226 O   0  0  0  0  0  0  0  0  0  0  0  0
    3.2347    1.3572    0.2012 O   0  0  0  0  0  0  0  0  0  0  0  0
    1.4919   -0.2502    0.3144 C   0  0  0  0  0  0  0  0  0  0  0  0
    0.6453   -1.1879   -0.5030 C   0  0  0  0  0  0  0  0  0  0  0  0
   -0.6422   -1.5046    0.2350 C   0  0  0  0  0  0  0  0  0  0  0  0
   -1.5013   -0.3094    0.4198 C   0  0  0  0  0  0  0  0  0  0  0  0
   -0.6411    0.9287    0.2869 C   0  0  0  0  0  0  0  0  0  0  0  0
    0.6352    0.7174    1.0920 C   0  0  0  0  0  0  0  0  0  0  0  0
   -2.6748   -0.2446   -0.5252 C   0  0  0  0  0  0  0  0  0  0  0  0
    2.4740    0.4895   -0.5923 C   0  0  0  0  0  0  0  0  0  0  0  0
   -3.4491    0.9452   -0.2728 N   0  0  0  0  0  0  0  0  0  0  0  0
    3.2856   -0.4317   -1.2226 O   0  0  0  0  0  0  0  0  0  0  0  0
    3.2347    1.3572    0.2012 O   0  0  0  0  0  0  0  0  0  0  0  0
    2.0743   -0.8835    1.0334 H   0  0  0  0  0  0  0  0  0  0  0  0
    1.2023   -2.1485   -0.6194 H   0  0  0  0  0  0  0  0  0  0  0  0
    0.4518   -0.8196   -1.5292 H   0  0  0  0  0  0  0  0  0  0  0  0
   -1.1470   -2.3671   -0.2444 H   0  0  0  0  0  0  0  0  0  0  0  0
   -0.3288   -1.8610    1.2512 H   0  0  0  0  0  0  0  0  0  0  0  0
   -1.9262   -0.2795    1.4576 H   0  0  0  0  0  0  0  0  0  0  0  0
   -1.2351    1.7747    0.6659 H   0  0  0  0  0  0  0  0  0  0  0  0
   -0.3455    1.0664   -0.7695 H   0  0  0  0  0  0  0  0  0  0  0  0
    0.3131    0.2633    2.0705 H   0  0  0  0  0  0  0  0  0  0  0  0
    1.1037    1.6945    1.2328 H   0  0  0  0  0  0  0  0  0  0  0  0
   -3.3550   -1.1088   -0.3836 H   0  0  0  0  0  0  0  0  0  0  0  0
   -2.3646   -0.2519   -1.5850 H   0  0  0  0  0  0  0  0  0  0  0  0
    1.8412    1.0522   -1.3203 H   0  0  0  0  0  0  0  0  0  0  0  0
   -3.5361    1.1676    0.7414 H   0  0  0  0  0  0  0  0  0  0  0  0
   -3.1401    1.7611   -0.8445 H   0  0  0  0  0  0  0  0  0  0  0  0
    4.1887   -0.4528   -0.8127 H   0  0  0  0  0  0  0  0  0  0  0  0
    3.3451    0.8833    1.0747 H   0  0  0  0  0  0  0  0  0  0  0  0
    2.0743   -0.8835    1.0334 H   0  0  0  0  0  0  0  0  0  0  0  0
    1.2023   -2.1485   -0.6194 H   0  0  0  0  0  0  0  0  0  0  0  0
    0.4518   -0.8196   -1.5292 H   0  0  0  0  0  0  0  0  0  0  0  0
   -1.1470   -2.3671   -0.2444 H   0  0  0  0  0  0  0  0  0  0  0  0
   -0.3288   -1.8610    1.2512 H   0  0  0  0  0  0  0  0  0  0  0  0
   -1.9262   -0.2795    1.4576 H   0  0  0  0  0  0  0  0  0  0  0  0
   -1.2351    1.7747    0.6659 H   0  0  0  0  0  0  0  0  0  0  0  0
   -0.3455    1.0664   -0.7695 H   0  0  0  0  0  0  0  0  0  0  0  0
    0.3131    0.2633    2.0705 H   0  0  0  0  0  0  0  0  0  0  0  0
    1.1037    1.6945    1.2328 H   0  0  0  0  0  0  0  0  0  0  0  0
   -3.3550   -1.1088   -0.3836 H   0  0  0  0  0  0  0  0  0  0  0  0
   -2.3646   -0.2519   -1.5850 H   0  0  0  0  0  0  0  0  0  0  0  0
    1.8412    1.0522   -1.3203 H   0  0  0  0  0  0  0  0  0  0  0  0
   -3.5361    1.1676    0.7414 H   0  0  0  0  0  0  0  0  0  0  0  0
   -3.1401    1.7611   -0.8445 H   0  0  0  0  0  0  0  0  0  0  0  0
    4.1887   -0.4528   -0.8127 H   0  0  0  0  0  0  0  0  0  0  0  0
    3.3451    0.8833    1.0747 H   0  0  0  0  0  0  0  0  0  0  0  0
  1  2  1  0
  2  3  1  0
  3  4  1  0
  4  5  1  0
  1  6  1  0
  5  6  1  0
  4  7  1  0
  1  8  1  0
  7  9  1  0
  8 10  1  0
  8 11  1  0
 12 13  1  0
 13 14  1  0
 14 15  1  0
 15 16  1  0
 12 17  1  0
 16 17  1  0
 15 18  1  0
 12 19  1  0
 18 20  1  0
 19 21  1  0
 19 22  1  0
  1 23  1  0
  2 24  1  0
  2 25  1  0
  3 26  1  0
  3 27  1  0
  4 28  1  0
  5 29  1  0
  5 30  1  0
  6 31  1  0
  6 32  1  0
  7 33  1  0
  7 34  1  0
  8 35  1  0
  9 36  1  0
  9 37  1  0
 10 38  1  0
 11 39  1  0
 12 40  1  0
 13 41  1  0
 13 42  1  0
 14 43  1  0
 14 44  1  0
 15 45  1  0
 16 46  1  0
 16 47  1  0
 17 48  1  0
 17 49  1  0
 18 50  1  0
 18 51  1  0
 19 52  1  0
 20 53  1  0
 20 54  1  0
 21 55  1  0
 22 56  1  0
M  END
>  <PDBID>  (1) 
1CEB

>  <PDB ID>  (1) 
1CEB

>  <Generic Name>  (1) 
Tranexamic Acid

>  <Brand Name>  (1) 
Cyklokapron#Cyklokapron 100 mg/ml#Cyklokapron 500 mg#Erfa-tranexamic#Gd-tranexamic Acid#Lysteda#Pure Whitenol Serum#Tranexamic Acid#Tranexamic Acid Injection#Tranexamic Acid Injection BP#Tranexamic Acid Tablets#Tranexamic Acid Tranexamic Acid#Cyclo-F#Espercil#Femstrual#Rikavarin#Transamin#Transcam#Traxyl

>  <DrugBank ID>  (1) 
DB00302

>  <ATC Codes>  (1) 
B02AA02

>  <Ligand ID>  (1) 
AMH

>  <Target Name>  (1) 
Plasminogen

>  <UniProt ID>  (1) 
P00747

>  <PDB ID.1>  (1) 
1CEB

>  <Seq. Identity>  (1) 
100%

$$$$
