PDB_DB00203_01
     RDKit          3D

 79 82  0  0  0  0  0  0  0  0999 V2000
   -6.0849    3.6012   -0.2920 C   0  0  0  0  0  0  0  0  0  0  0  0
   -5.5725    3.1877   -1.6581 C   0  0  0  0  0  0  0  0  0  0  0  0
   -4.9037    1.8344   -1.6155 C   0  0  0  0  0  0  0  0  0  0  0  0
   -3.7213    1.7944   -0.6835 C   0  0  0  0  0  0  0  0  0  0  0  0
   -4.0281    2.0945    0.6709 N   0  0  0  0  0  0  0  0  0  0  0  0
   -4.2205    0.9289    1.3702 N   0  0  0  0  0  0  0  0  0  0  0  0
   -3.5069    0.9121    2.5966 C   0  0  0  0  0  0  0  0  0  0  0  0
   -4.0614   -0.1899    0.5066 C   0  0  0  0  0  0  0  0  0  0  0  0
   -3.5476   -1.4303    1.1191 C   0  0  0  0  0  0  0  0  0  0  0  0
   -4.2890   -2.5272    0.6212 O   0  0  0  0  0  0  0  0  0  0  0  0
   -2.1757   -1.7404    0.9241 N   0  0  0  0  0  0  0  0  0  0  0  0
   -1.5300   -1.1449   -0.1972 C   0  0  0  0  0  0  0  0  0  0  0  0
   -1.8312    0.2479   -0.3556 N   0  0  0  0  0  0  0  0  0  0  0  0
   -3.2419    0.3602   -0.6271 C   0  0  0  0  0  0  0  0  0  0  0  0
   -0.0363   -1.3726   -0.0518 C   0  0  0  0  0  0  0  0  0  0  0  0
    0.7275   -0.7586   -1.2076 C   0  0  0  0  0  0  0  0  0  0  0  0
    2.1947   -0.9132   -0.8978 C   0  0  0  0  0  0  0  0  0  0  0  0
    2.4523   -1.6908    0.3531 C   0  0  0  0  0  0  0  0  0  0  0  0
    1.7000   -3.0024    0.4138 C   0  0  0  0  0  0  0  0  0  0  0  0
    0.2796   -2.8527   -0.0795 C   0  0  0  0  0  0  0  0  0  0  0  0
   -0.6339   -3.5136    0.6939 O   0  0  0  0  0  0  0  0  0  0  0  0
   -1.3864   -4.4570    0.0408 C   0  0  0  0  0  0  0  0  0  0  0  0
   -2.3344   -5.0794    1.0678 C   0  0  0  0  0  0  0  0  0  0  0  0
    2.9086    0.6367   -0.7832 S   0  0  0  0  0  0  0  0  0  0  0  0
    2.4558    1.2781   -2.4216 O   0  0  0  0  0  0  0  0  0  0  0  0
    2.2909    1.5858    0.1688 O   0  0  0  0  0  0  0  0  0  0  0  0
    4.5382    0.5679   -0.9542 N   0  0  0  0  0  0  0  0  0  0  0  0
    5.0093    1.6938   -1.7456 C   0  0  0  0  0  0  0  0  0  0  0  0
    6.5106    1.6572   -1.9246 C   0  0  0  0  0  0  0  0  0  0  0  0
    7.2148    1.5781   -0.6748 N   0  0  0  0  0  0  0  0  0  0  0  0
    7.4987    2.8482   -0.0817 C   0  0  0  0  0  0  0  0  0  0  0  0
    6.6986    0.5958    0.2257 C   0  0  0  0  0  0  0  0  0  0  0  0
    5.1912    0.6622    0.3348 C   0  0  0  0  0  0  0  0  0  0  0  0
   -5.3473    4.2506    0.2372 H   0  0  0  0  0  0  0  0  0  0  0  0
   -6.3117    2.7308    0.3397 H   0  0  0  0  0  0  0  0  0  0  0  0
   -7.0261    4.1914   -0.3655 H   0  0  0  0  0  0  0  0  0  0  0  0
   -6.4602    3.0859   -2.3172 H   0  0  0  0  0  0  0  0  0  0  0  0
   -4.9322    3.9667   -2.1140 H   0  0  0  0  0  0  0  0  0  0  0  0
   -5.6378    1.0646   -1.3794 H   0  0  0  0  0  0  0  0  0  0  0  0
   -4.5178    1.6386   -2.6382 H   0  0  0  0  0  0  0  0  0  0  0  0
   -2.9286    2.4812   -1.0263 H   0  0  0  0  0  0  0  0  0  0  0  0
   -3.3448    2.6801    1.1729 H   0  0  0  0  0  0  0  0  0  0  0  0
   -4.1868    0.6663    3.4626 H   0  0  0  0  0  0  0  0  0  0  0  0
   -3.1830    1.9727    2.8155 H   0  0  0  0  0  0  0  0  0  0  0  0
   -2.5972    0.3156    2.6253 H   0  0  0  0  0  0  0  0  0  0  0  0
   -5.0822   -0.3962    0.0668 H   0  0  0  0  0  0  0  0  0  0  0  0
   -3.7243   -1.3712    2.2310 H   0  0  0  0  0  0  0  0  0  0  0  0
   -5.2730   -2.3804    0.7666 H   0  0  0  0  0  0  0  0  0  0  0  0
   -1.6300   -1.7073    1.7858 H   0  0  0  0  0  0  0  0  0  0  0  0
   -1.8814   -1.6668   -1.1121 H   0  0  0  0  0  0  0  0  0  0  0  0
   -1.5319    0.8139    0.4618 H   0  0  0  0  0  0  0  0  0  0  0  0
   -3.4635   -0.1405   -1.5858 H   0  0  0  0  0  0  0  0  0  0  0  0
    0.3598   -0.9184    0.8730 H   0  0  0  0  0  0  0  0  0  0  0  0
    0.4337   -1.1759   -2.1791 H   0  0  0  0  0  0  0  0  0  0  0  0
    0.4240    0.3271   -1.2263 H   0  0  0  0  0  0  0  0  0  0  0  0
    2.6377   -1.4878   -1.7515 H   0  0  0  0  0  0  0  0  0  0  0  0
    3.5450   -1.9775    0.3292 H   0  0  0  0  0  0  0  0  0  0  0  0
    2.3476   -1.0934    1.2850 H   0  0  0  0  0  0  0  0  0  0  0  0
    2.2224   -3.8147   -0.1353 H   0  0  0  0  0  0  0  0  0  0  0  0
    1.6276   -3.2702    1.4973 H   0  0  0  0  0  0  0  0  0  0  0  0
    0.2838   -3.1734   -1.1426 H   0  0  0  0  0  0  0  0  0  0  0  0
   -0.7711   -5.2527   -0.4502 H   0  0  0  0  0  0  0  0  0  0  0  0
   -2.0440   -4.0333   -0.7523 H   0  0  0  0  0  0  0  0  0  0  0  0
   -2.3875   -4.4369    1.9862 H   0  0  0  0  0  0  0  0  0  0  0  0
   -3.3654   -5.1505    0.6924 H   0  0  0  0  0  0  0  0  0  0  0  0
   -1.9194   -6.0445    1.4049 H   0  0  0  0  0  0  0  0  0  0  0  0
    2.8220    0.5599   -3.0225 H   0  0  0  0  0  0  0  0  0  0  0  0
    2.7583    2.0081    0.9171 H   0  0  0  0  0  0  0  0  0  0  0  0
    4.7006    2.6061   -1.2048 H   0  0  0  0  0  0  0  0  0  0  0  0
    4.5690    1.6199   -2.7676 H   0  0  0  0  0  0  0  0  0  0  0  0
    6.7965    0.8793   -2.6433 H   0  0  0  0  0  0  0  0  0  0  0  0
    6.7863    2.6465   -2.3849 H   0  0  0  0  0  0  0  0  0  0  0  0
    6.9467    3.6500   -0.6331 H   0  0  0  0  0  0  0  0  0  0  0  0
    8.5814    3.0870   -0.2126 H   0  0  0  0  0  0  0  0  0  0  0  0
    7.2148    2.9334    0.9780 H   0  0  0  0  0  0  0  0  0  0  0  0
    7.1052    0.7867    1.2342 H   0  0  0  0  0  0  0  0  0  0  0  0
    7.0192   -0.4091   -0.1160 H   0  0  0  0  0  0  0  0  0  0  0  0
    4.9203    1.6524    0.7738 H   0  0  0  0  0  0  0  0  0  0  0  0
    4.8800   -0.1056    1.0480 H   0  0  0  0  0  0  0  0  0  0  0  0
  1  2  1  0
  2  3  1  0
  3  4  1  0
  4  5  1  0
  5  6  1  0
  6  7  1  0
  6  8  1  0
  8  9  1  0
  9 10  1  0
  9 11  1  0
 11 12  1  0
 12 13  1  0
  4 14  1  0
  8 14  1  0
 13 14  1  0
 12 15  1  0
 15 16  1  0
 16 17  1  0
 17 18  1  0
 18 19  1  0
 15 20  1  0
 19 20  1  0
 20 21  1  0
 21 22  1  0
 22 23  1  0
 17 24  1  0
 24 25  1  0
 24 26  1  0
 24 27  1  0
 27 28  1  0
 28 29  1  0
 29 30  1  0
 30 31  1  0
 30 32  1  0
 27 33  1  0
 32 33  1  0
  1 34  1  0
  1 35  1  0
  1 36  1  0
  2 37  1  0
  2 38  1  0
  3 39  1  0
  3 40  1  0
  4 41  1  0
  5 42  1  0
  7 43  1  0
  7 44  1  0
  7 45  1  0
  8 46  1  0
  9 47  1  0
 10 48  1  0
 11 49  1  0
 12 50  1  0
 13 51  1  0
 14 52  1  0
 15 53  1  0
 16 54  1  0
 16 55  1  0
 17 56  1  0
 18 57  1  0
 18 58  1  0
 19 59  1  0
 19 60  1  0
 20 61  1  0
 22 62  1  0
 22 63  1  0
 23 64  1  0
 23 65  1  0
 23 66  1  0
 25 67  1  0
 26 68  1  0
 28 69  1  0
 28 70  1  0
 29 71  1  0
 29 72  1  0
 31 73  1  0
 31 74  1  0
 31 75  1  0
 32 76  1  0
 32 77  1  0
 33 78  1  0
 33 79  1  0
M  END
>  <PDBID>  (1) 
1UDT

>  <PDB ID>  (1) 
1UDT

>  <Generic Name>  (1) 
Sildenafil

>  <Brand Name>  (1) 
Act Sildenafil#Apo-sildenafil#Apo-sildenafil R#Auro-sildenafil#Dom-sildenafil#Gd-sildenafil#Ipg-sildenafil#Jamp-sildenafil#M-sildenafil#Mar-sildenafil#Mint-sildenafil#Myl-sildenafil#Mylan-sildenafil#PMS-sildenafil#PMS-sildenafil R#Pb-sildenafil#Priva-sildenafil#Ran-sildenafil#Ratio-sildenafil#Ratio-sildenafil R#Revatio#Riva-sildenafil#Sandoz Sildenafil#Sildenafil#Sildenafil Citrate#Sildenafil R#Sildenafil Tablets#Teva-sildenafil#Van-sildenafil#Viagra

>  <DrugBank ID>  (1) 
DB00203

>  <ATC Codes>  (1) 
G04BE03

>  <Ligand ID>  (1) 
VIA

>  <Target Name>  (1) 
cGMP-specific 3',5'-cyclic phosphodiesterase

>  <UniProt ID>  (1) 
O76074

>  <PDB ID.1>  (1) 
1UDT

>  <Seq. Identity>  (1) 
94%

$$$$
