PDB_DB06700_09
     RDKit          3D

 50 51  0  0  0  0  0  0  0  0999 V2000
   -1.9721   -0.0629    1.0233 O   0  0  0  0  0  0  0  0  0  0  0  0
   -1.1195   -0.6763    0.1190 C   0  0  0  0  0  0  0  0  0  0  0  0
   -1.8774   -1.0703   -1.1177 C   0  0  0  0  0  0  0  0  0  0  0  0
   -0.7600   -2.0021    0.7698 C   0  0  0  0  0  0  0  0  0  0  0  0
   -2.1177   -2.6513    1.1199 C   0  0  0  0  0  0  0  0  0  0  0  0
   -2.8711   -3.0317   -0.1064 C   0  0  0  0  0  0  0  0  0  0  0  0
   -3.2065   -1.7074   -0.8103 C   0  0  0  0  0  0  0  0  0  0  0  0
    0.0476    0.1403   -0.3137 C   0  0  1  0  0  0  0  0  0  0  0  0
   -0.5780    1.3796   -0.9388 C   0  0  0  0  0  0  0  0  0  0  0  0
   -1.4713    2.1145   -0.0389 N   0  0  0  0  0  0  0  0  0  0  0  0
   -2.3277    3.0003   -0.8573 C   0  0  0  0  0  0  0  0  0  0  0  0
   -0.7470    2.9899    0.8776 C   0  0  0  0  0  0  0  0  0  0  0  0
    1.1359    0.4933    0.5475 C   0  0  0  0  0  0  0  0  0  0  0  0
    1.8971   -0.5982    1.2582 C   0  0  0  0  0  0  0  0  0  0  0  0
    3.3481   -0.1813    1.4890 C   0  0  0  0  0  0  0  0  0  0  0  0
    4.0427   -0.5178    0.1768 C   0  0  0  0  0  0  0  0  0  0  0  0
    5.2212    0.1336   -0.0288 O   0  0  0  0  0  0  0  0  0  0  0  0
    3.0490   -0.1253   -0.8793 C   0  0  0  0  0  0  0  0  0  0  0  0
    2.2398    1.0792   -0.3740 C   0  0  0  0  0  0  0  0  0  0  0  0
   -1.4201    0.1644    1.8073 H   0  0  0  0  0  0  0  0  0  0  0  0
   -1.2619   -1.9024   -1.5871 H   0  0  0  0  0  0  0  0  0  0  0  0
   -2.0128   -0.3388   -1.8891 H   0  0  0  0  0  0  0  0  0  0  0  0
   -0.3248   -1.9001    1.7807 H   0  0  0  0  0  0  0  0  0  0  0  0
   -0.2636   -2.7005    0.0972 H   0  0  0  0  0  0  0  0  0  0  0  0
   -2.6847   -1.7979    1.6033 H   0  0  0  0  0  0  0  0  0  0  0  0
   -1.9631   -3.4474    1.8418 H   0  0  0  0  0  0  0  0  0  0  0  0
   -3.8666   -3.4262    0.2367 H   0  0  0  0  0  0  0  0  0  0  0  0
   -2.3539   -3.7315   -0.7736 H   0  0  0  0  0  0  0  0  0  0  0  0
   -3.6655   -1.9473   -1.7690 H   0  0  0  0  0  0  0  0  0  0  0  0
   -3.8083   -1.0918   -0.1510 H   0  0  0  0  0  0  0  0  0  0  0  0
    0.4564   -0.4112   -1.2260 H   0  0  0  0  0  0  0  0  0  0  0  0
    0.2055    2.1914   -1.1262 H   0  0  0  0  0  0  0  0  0  0  0  0
   -0.9960    1.2306   -1.9368 H   0  0  0  0  0  0  0  0  0  0  0  0
   -3.3608    3.0251   -0.4006 H   0  0  0  0  0  0  0  0  0  0  0  0
   -1.9199    4.0125   -0.7750 H   0  0  0  0  0  0  0  0  0  0  0  0
   -2.4231    2.6636   -1.8868 H   0  0  0  0  0  0  0  0  0  0  0  0
    0.2452    3.2714    0.5449 H   0  0  0  0  0  0  0  0  0  0  0  0
   -1.3518    3.9510    0.9283 H   0  0  0  0  0  0  0  0  0  0  0  0
   -0.8328    2.5761    1.8939 H   0  0  0  0  0  0  0  0  0  0  0  0
    0.9221    1.2538    1.2889 H   0  0  0  0  0  0  0  0  0  0  0  0
    1.9349   -1.5619    0.7864 H   0  0  0  0  0  0  0  0  0  0  0  0
    1.5128   -0.6035    2.3261 H   0  0  0  0  0  0  0  0  0  0  0  0
    3.4604    0.8503    1.8083 H   0  0  0  0  0  0  0  0  0  0  0  0
    3.7430   -0.8890    2.2740 H   0  0  0  0  0  0  0  0  0  0  0  0
    4.1798   -1.6231    0.1735 H   0  0  0  0  0  0  0  0  0  0  0  0
    5.2977    0.9978    0.4069 H   0  0  0  0  0  0  0  0  0  0  0  0
    2.3824   -0.9728   -1.0712 H   0  0  0  0  0  0  0  0  0  0  0  0
    3.5339    0.1215   -1.8487 H   0  0  0  0  0  0  0  0  0  0  0  0
    1.8477    1.5085   -1.2999 H   0  0  0  0  0  0  0  0  0  0  0  0
    2.8544    1.8215    0.1491 H   0  0  0  0  0  0  0  0  0  0  0  0
  2  1  1  0
  2  3  1  0
  2  4  1  0
  4  5  1  0
  5  6  1  0
  3  7  1  0
  6  7  1  0
  2  8  1  0
  8  9  1  0
  9 10  1  0
 10 11  1  0
 10 12  1  0
  8 13  1  0
 13 14  1  0
 14 15  1  0
 15 16  1  0
 16 17  1  0
 16 18  1  0
 13 19  1  0
 18 19  1  0
  1 20  1  0
  3 21  1  0
  3 22  1  0
  4 23  1  0
  4 24  1  0
  5 25  1  0
  5 26  1  0
  6 27  1  0
  6 28  1  0
  7 29  1  0
  7 30  1  0
  8 31  1  6
  9 32  1  0
  9 33  1  0
 11 34  1  0
 11 35  1  0
 11 36  1  0
 12 37  1  0
 12 38  1  0
 12 39  1  0
 13 40  1  0
 14 41  1  0
 14 42  1  0
 15 43  1  0
 15 44  1  0
 16 45  1  0
 17 46  1  0
 18 47  1  0
 18 48  1  0
 19 49  1  0
 19 50  1  0
M  END
>  <PDBID>  (1) 
4MM7

>  <PDB ID>  (1) 
4MM7

>  <Generic Name>  (1) 
Desvenlafaxine

>  <Brand Name>  (1) 
Desvenlafaxine#Desvenlafaxine Extended-release#Desvenlafaxine Succinate#Gd-desvenlafaxine#Khedezla Extended-release#Pristiq#Pristiq Extended Release#Pristiq Extended-release#Pristiq Extended-release Extended-release#Zyven-OD

>  <DrugBank ID>  (1) 
DB06700

>  <ATC Codes>  (1) 
N06AX23

>  <Ligand ID>  (1) 
29J

>  <Target Name>  (1) 
Sodium-dependent noradrenaline transporter

>  <UniProt ID>  (1) 
P23975

>  <PDB ID.1>  (1) 
4MM7

>  <Seq. Identity>  (1) 
30%

$$$$
