PDB_DB01051_04
     RDKit          3D

408420  0  0  0  0  0  0  0  0999 V2000
   -9.2710   -1.0845    2.0009 C   0  0  0  0  0  0  0  0  0  0  0  0
   -8.9592   -0.8724    0.6407 O   0  0  0  0  0  0  0  0  0  0  0  0
  -10.5711    1.9721   -0.2784 N   0  0  0  0  0  0  0  0  0  0  0  0
   -9.2014    2.3475   -0.5769 C   0  0  0  0  0  0  0  0  0  0  0  0
   -9.0631    3.7153   -0.7140 O   0  0  0  0  0  0  0  0  0  0  0  0
   -8.3758    1.8264    0.4411 O   0  0  0  0  0  0  0  0  0  0  0  0
   -7.6544   -0.4842    0.4801 C   0  0  2  0  0  0  0  0  0  0  0  0
   -7.5108    0.9128   -0.1058 C   0  0  2  0  0  0  0  0  0  0  0  0
   -6.0440    1.2953    0.1104 C   0  0  1  0  0  0  0  0  0  0  0  0
   -5.8377    1.6544    1.4402 O   0  0  0  0  0  0  0  0  0  0  0  0
   -5.1470    0.1488   -0.3038 C   0  0  1  0  0  0  0  0  0  0  0  0
   -5.9139   -0.6790   -1.1431 O   0  0  0  0  0  0  0  0  0  0  0  0
   -6.8470   -1.4068   -0.4117 C   0  0  0  0  0  0  0  0  0  0  0  0
   -7.6997   -2.1840   -1.3733 C   0  0  0  0  0  0  0  0  0  0  0  0
   -6.0997   -2.3689    0.4809 C   0  0  0  0  0  0  0  0  0  0  0  0
   -4.0212    0.5995   -0.9639 O   0  0  0  0  0  0  0  0  0  0  0  0
   -2.8538    0.2002   -0.3711 C   0  0  0  0  0  0  0  0  0  0  0  0
   -2.0303   -0.6101   -1.3380 C   0  0  1  0  0  0  0  0  0  0  0  0
   -2.3000   -0.2665   -2.7840 C   0  0  0  0  0  0  0  0  0  0  0  0
   -0.5804   -0.3744   -0.9765 C   0  0  0  0  0  0  0  0  0  0  0  0
   -0.5282   -0.4751    0.5541 C   0  0  0  0  0  0  0  0  0  0  0  0
   -0.9486    0.8502    1.0887 C   0  0  0  0  0  0  0  0  0  0  0  0
   -2.0327    1.3870    0.1444 C   0  0  0  0  0  0  0  0  0  0  0  0
    0.2933   -1.3108   -1.4596 O   0  0  0  0  0  0  0  0  0  0  0  0
    1.5882   -0.7450   -1.3231 C   0  0  0  0  0  0  0  0  0  0  0  0
    2.4822   -1.6232   -1.8665 O   0  0  0  0  0  0  0  0  0  0  0  0
    1.8423   -0.2950    0.0711 C   0  0  1  0  0  0  0  0  0  0  0  0
    0.8247   -0.9515    1.0116 C   0  0  0  0  0  0  0  0  0  0  0  0
    0.8216   -2.3402    0.8786 O   0  0  0  0  0  0  0  0  0  0  0  0
    3.1635   -0.3100    0.5497 N   0  0  0  0  0  0  0  0  0  0  0  0
    3.8685   -1.5184    0.6683 C   0  0  0  0  0  0  0  0  0  0  0  0
    3.3275   -2.3489    1.6797 O   0  0  0  0  0  0  0  0  0  0  0  0
    5.3101   -1.2559    1.1317 C   0  0  1  0  0  0  0  0  0  0  0  0
    6.0603   -0.3814    0.1641 C   0  0  0  0  0  0  0  0  0  0  0  0
    7.4834   -0.2992    0.6026 C   0  0  0  0  0  0  0  0  0  0  0  0
    7.7588   -1.0723    1.8731 C   0  0  1  0  0  0  0  0  0  0  0  0
    9.0363   -0.6917    2.3144 O   0  0  0  0  0  0  0  0  0  0  0  0
    6.7991   -0.7392    2.9814 C   0  0  0  0  0  0  0  0  0  0  0  0
    5.3636   -0.6298    2.4973 C   0  0  0  0  0  0  0  0  0  0  0  0
    7.9567    1.1241    0.8064 C   0  0  0  0  0  0  0  0  0  0  0  0
    7.8641    1.9585   -0.4519 C   0  0  0  0  0  0  0  0  0  0  0  0
    8.6950    1.3932   -1.5695 C   0  0  0  0  0  0  0  0  0  0  0  0
    8.5582    2.2729   -2.7930 C   0  0  0  0  0  0  0  0  0  0  0  0
   10.1427    1.2683   -1.2245 C   0  0  0  0  0  0  0  0  0  0  0  0
   -9.6119    0.0933    2.1301 C   0  0  0  0  0  0  0  0  0  0  0  0
   -9.0623   -0.0802    0.8607 O   0  0  0  0  0  0  0  0  0  0  0  0
   -9.7141    3.1627   -0.4246 N   0  0  0  0  0  0  0  0  0  0  0  0
   -8.3251    2.8811   -0.7429 C   0  0  0  0  0  0  0  0  0  0  0  0
   -7.7408    4.1082   -1.1254 O   0  0  0  0  0  0  0  0  0  0  0  0
   -7.6564    2.3060    0.3303 O   0  0  0  0  0  0  0  0  0  0  0  0
   -7.6723   -0.0274    0.9216 C   0  0  2  0  0  0  0  0  0  0  0  0
   -7.1129    1.0701    0.0451 C   0  0  2  0  0  0  0  0  0  0  0  0
   -5.6086    1.0630    0.2041 C   0  0  1  0  0  0  0  0  0  0  0  0
   -5.2954    1.5521    1.4668 O   0  0  0  0  0  0  0  0  0  0  0  0
   -5.0456   -0.3339    0.0925 C   0  0  1  0  0  0  0  0  0  0  0  0
   -6.0085   -1.2371   -0.3630 O   0  0  0  0  0  0  0  0  0  0  0  0
   -7.1043   -1.3381    0.4572 C   0  0  0  0  0  0  0  0  0  0  0  0
   -6.7818   -2.2393    1.6505 C   0  0  0  0  0  0  0  0  0  0  0  0
   -8.1899   -2.0395   -0.3716 C   0  0  0  0  0  0  0  0  0  0  0  0
   -4.0211   -0.3133   -0.8299 O   0  0  0  0  0  0  0  0  0  0  0  0
   -2.7868   -0.7339   -0.3069 C   0  0  0  0  0  0  0  0  0  0  0  0
   -1.8049    0.3771   -0.5309 C   0  0  0  0  0  0  0  0  0  0  0  0
   -1.9844    0.9941   -1.9170 C   0  0  0  0  0  0  0  0  0  0  0  0
   -0.3780    0.0461   -0.2794 C   0  0  0  0  0  0  0  0  0  0  0  0
   -0.1584   -1.4261   -0.2104 C   0  0  0  0  0  0  0  0  0  0  0  0
   -0.9513   -2.0663   -1.3580 C   0  0  0  0  0  0  0  0  0  0  0  0
   -2.4357   -1.9832   -1.0809 C   0  0  0  0  0  0  0  0  0  0  0  0
    0.4404    0.5611   -1.2851 O   0  0  0  0  0  0  0  0  0  0  0  0
    1.7492    0.6459   -0.8219 C   0  0  0  0  0  0  0  0  0  0  0  0
    2.5445    1.2634   -1.7831 O   0  0  0  0  0  0  0  0  0  0  0  0
    2.2807   -0.7050   -0.3889 C   0  0  1  0  0  0  0  0  0  0  0  0
    1.2624   -1.7823   -0.4152 C   0  0  0  0  0  0  0  0  0  0  0  0
    1.4284   -2.6176   -1.5511 O   0  0  0  0  0  0  0  0  0  0  0  0
    3.3310   -1.0219   -1.3212 N   0  0  0  0  0  0  0  0  0  0  0  0
    4.3170   -1.9397   -0.9392 C   0  0  0  0  0  0  0  0  0  0  0  0
    3.8461   -3.2242   -0.7299 O   0  0  0  0  0  0  0  0  0  0  0  0
    5.1862   -1.5476    0.2454 C   0  0  0  0  0  0  0  0  0  0  0  0
    5.9106   -0.2800   -0.0286 C   0  0  0  0  0  0  0  0  0  0  0  0
    7.3355   -0.1868    0.3193 C   0  0  0  0  0  0  0  0  0  0  0  0
    8.0748   -1.5051    0.3990 C   0  0  0  0  0  0  0  0  0  0  0  0
    8.3440   -2.0485   -0.8338 O   0  0  0  0  0  0  0  0  0  0  0  0
    7.2992   -2.4869    1.2739 C   0  0  0  0  0  0  0  0  0  0  0  0
    6.0245   -2.7534    0.5425 C   0  0  0  0  0  0  0  0  0  0  0  0
    7.6637    0.6012    1.5599 C   0  0  0  0  0  0  0  0  0  0  0  0
    7.2566    2.0311    1.5363 C   0  0  0  0  0  0  0  0  0  0  0  0
    7.9016    2.8111    0.4125 C   0  0  0  0  0  0  0  0  0  0  0  0
    7.4049    4.2384    0.5037 C   0  0  0  0  0  0  0  0  0  0  0  0
    9.4061    2.8486    0.5432 C   0  0  0  0  0  0  0  0  0  0  0  0
   -9.7305    0.0350    2.1327 C   0  0  0  0  0  0  0  0  0  0  0  0
   -9.2829   -0.1741    0.8408 O   0  0  0  0  0  0  0  0  0  0  0  0
  -10.0014    2.9858   -0.6131 N   0  0  0  0  0  0  0  0  0  0  0  0
   -8.5761    2.7891   -0.8180 C   0  0  0  0  0  0  0  0  0  0  0  0
   -8.0443    4.0354   -1.1591 O   0  0  0  0  0  0  0  0  0  0  0  0
   -7.9586    2.2148    0.2750 O   0  0  0  0  0  0  0  0  0  0  0  0
   -7.8909   -0.1220    0.8439 C   0  0  2  0  0  0  0  0  0  0  0  0
   -7.3747    1.0075   -0.0222 C   0  0  2  0  0  0  0  0  0  0  0  0
   -5.8652    1.0359    0.1528 C   0  0  1  0  0  0  0  0  0  0  0  0
   -5.6081    1.5153    1.4345 O   0  0  0  0  0  0  0  0  0  0  0  0
   -5.2858   -0.3547    0.0508 C   0  0  1  0  0  0  0  0  0  0  0  0
   -6.2061   -1.2660   -0.4574 O   0  0  0  0  0  0  0  0  0  0  0  0
   -7.3417   -1.4097    0.2891 C   0  0  0  0  0  0  0  0  0  0  0  0
   -7.1112   -2.4393    1.3950 C   0  0  0  0  0  0  0  0  0  0  0  0
   -8.4223   -1.9816   -0.6385 C   0  0  0  0  0  0  0  0  0  0  0  0
   -4.2332   -0.3034   -0.8551 O   0  0  0  0  0  0  0  0  0  0  0  0
   -3.0076   -0.6699   -0.2470 C   0  0  0  0  0  0  0  0  0  0  0  0
   -2.0741    0.4723   -0.4227 C   0  0  0  0  0  0  0  0  0  0  0  0
   -2.2753    1.1594   -1.7820 C   0  0  0  0  0  0  0  0  0  0  0  0
   -0.6134    0.1576   -0.2484 C   0  0  0  0  0  0  0  0  0  0  0  0
   -0.4409   -1.2745    0.1915 C   0  0  0  0  0  0  0  0  0  0  0  0
   -1.0817   -2.1497   -0.8646 C   0  0  0  0  0  0  0  0  0  0  0  0
   -2.5735   -1.9329   -0.9401 C   0  0  0  0  0  0  0  0  0  0  0  0
    0.0690    0.2856   -1.4533 O   0  0  0  0  0  0  0  0  0  0  0  0
    1.4500    0.3299   -1.2806 C   0  0  0  0  0  0  0  0  0  0  0  0
    2.1007   -0.1789   -2.4222 O   0  0  0  0  0  0  0  0  0  0  0  0
    1.8915   -0.3956   -0.0319 C   0  0  1  0  0  0  0  0  0  0  0  0
    1.0298   -1.5673    0.2988 C   0  0  0  0  0  0  0  0  0  0  0  0
    1.2854   -2.7312   -0.3641 O   0  0  0  0  0  0  0  0  0  0  0  0
    3.2674   -0.5107    0.0113 N   0  0  0  0  0  0  0  0  0  0  0  0
    4.0656   -1.1769   -0.8972 C   0  0  0  0  0  0  0  0  0  0  0  0
    3.6874   -2.4244   -1.2829 O   0  0  0  0  0  0  0  0  0  0  0  0
    5.4970   -1.3236   -0.3281 C   0  0  1  0  0  0  0  0  0  0  0  0
    6.1285    0.0088   -0.0473 C   0  0  0  0  0  0  0  0  0  0  0  0
    7.5906   -0.2499    0.2396 C   0  0  2  0  0  0  0  0  0  0  0  0
    7.9112   -1.7124    0.3855 C   0  0  0  0  0  0  0  0  0  0  0  0
    9.1659   -1.7796    1.0366 O   0  0  0  0  0  0  0  0  0  0  0  0
    6.9447   -2.4630    1.2515 C   0  0  0  0  0  0  0  0  0  0  0  0
    5.4986   -2.1069    0.9511 C   0  0  0  0  0  0  0  0  0  0  0  0
    8.0997    0.4694    1.4455 C   0  0  0  0  0  0  0  0  0  0  0  0
    7.9810    1.9733    1.3489 C   0  0  0  0  0  0  0  0  0  0  0  0
    8.7476    2.5349    0.1910 C   0  0  0  0  0  0  0  0  0  0  0  0
    8.5420    4.0494    0.2130 C   0  0  0  0  0  0  0  0  0  0  0  0
   10.2293    2.2863    0.2927 C   0  0  0  0  0  0  0  0  0  0  0  0
   -9.1079   -1.8378    1.6492 C   0  0  0  0  0  0  0  0  0  0  0  0
   -8.7540   -1.1719    0.4645 O   0  0  0  0  0  0  0  0  0  0  0  0
  -10.7465    1.5439   -0.0637 N   0  0  0  0  0  0  0  0  0  0  0  0
   -9.4300    2.0871   -0.2334 C   0  0  0  0  0  0  0  0  0  0  0  0
   -9.5025    3.4675   -0.2710 O   0  0  0  0  0  0  0  0  0  0  0  0
   -8.5516    1.6135    0.7604 O   0  0  0  0  0  0  0  0  0  0  0  0
   -7.5105   -0.5703    0.5696 C   0  0  2  0  0  0  0  0  0  0  0  0
   -7.5194    0.9002    0.2126 C   0  0  2  0  0  0  0  0  0  0  0  0
   -6.1363    1.4511    0.5324 C   0  0  1  0  0  0  0  0  0  0  0  0
   -5.9978    1.6899    1.8802 O   0  0  0  0  0  0  0  0  0  0  0  0
   -5.1230    0.4801   -0.0146 C   0  0  1  0  0  0  0  0  0  0  0  0
   -5.7498   -0.2683   -1.0304 O   0  0  0  0  0  0  0  0  0  0  0  0
   -6.5743   -1.2376   -0.4398 C   0  0  0  0  0  0  0  0  0  0  0  0
   -5.7277   -2.2984    0.2663 C   0  0  0  0  0  0  0  0  0  0  0  0
   -7.4157   -1.8728   -1.5051 C   0  0  0  0  0  0  0  0  0  0  0  0
   -4.0604    1.1181   -0.6309 O   0  0  0  0  0  0  0  0  0  0  0  0
   -2.8354    0.6874   -0.1727 C   0  0  0  0  0  0  0  0  0  0  0  0
   -2.1716   -0.0120   -1.3468 C   0  0  1  0  0  0  0  0  0  0  0  0
   -2.7195    0.3765   -2.6755 C   0  0  0  0  0  0  0  0  0  0  0  0
   -0.6699    0.1231   -1.2196 C   0  0  0  0  0  0  0  0  0  0  0  0
   -0.3855   -0.1955    0.2387 C   0  0  0  0  0  0  0  0  0  0  0  0
   -0.7062    1.0579    1.0046 C   0  0  0  0  0  0  0  0  0  0  0  0
   -1.9373    1.7463    0.3823 C   0  0  0  0  0  0  0  0  0  0  0  0
   -0.0667   -0.7311   -2.0827 O   0  0  0  0  0  0  0  0  0  0  0  0
    1.3070   -0.7791   -2.0017 C   0  0  0  0  0  0  0  0  0  0  0  0
    1.7013   -2.1015   -2.2188 O   0  0  0  0  0  0  0  0  0  0  0  0
    1.8446   -0.1923   -0.7294 C   0  0  1  0  0  0  0  0  0  0  0  0
    1.0527   -0.5921    0.4491 C   0  0  0  0  0  0  0  0  0  0  0  0
    1.0325   -1.9657    0.6889 O   0  0  0  0  0  0  0  0  0  0  0  0
    3.2413   -0.2505   -0.6024 N   0  0  0  0  0  0  0  0  0  0  0  0
    3.9339   -1.4640   -0.6255 C   0  0  2  0  0  0  0  0  0  0  0  0
    3.2697   -2.6050   -0.1917 O   0  0  0  0  0  0  0  0  0  0  0  0
    5.1983   -1.4025    0.2196 C   0  0  1  0  0  0  0  0  0  0  0  0
    6.1790   -0.3719   -0.2154 C   0  0  0  0  0  0  0  0  0  0  0  0
    7.4518   -0.5889    0.5572 C   0  0  0  0  0  0  0  0  0  0  0  0
    7.3603   -1.8173    1.4563 C   0  0  0  0  0  0  0  0  0  0  0  0
    8.5179   -1.7794    2.2719 O   0  0  0  0  0  0  0  0  0  0  0  0
    6.1866   -1.7864    2.3864 C   0  0  0  0  0  0  0  0  0  0  0  0
    4.9375   -1.2470    1.6874 C   0  0  0  0  0  0  0  0  0  0  0  0
    7.7780    0.5630    1.4773 C   0  0  0  0  0  0  0  0  0  0  0  0
    7.9424    1.8574    0.7460 C   0  0  0  0  0  0  0  0  0  0  0  0
    9.0159    1.8645   -0.2908 C   0  0  0  0  0  0  0  0  0  0  0  0
    9.0154    3.2667   -0.9138 C   0  0  0  0  0  0  0  0  0  0  0  0
   10.3964    1.6419    0.2803 C   0  0  0  0  0  0  0  0  0  0  0  0
   -8.6173   -1.8825    2.4305 H   0  0  0  0  0  0  0  0  0  0  0  0
  -10.3355   -1.2713    2.1235 H   0  0  0  0  0  0  0  0  0  0  0  0
   -8.9570   -0.1446    2.5454 H   0  0  0  0  0  0  0  0  0  0  0  0
  -10.9741    2.7449    0.3127 H   0  0  0  0  0  0  0  0  0  0  0  0
  -11.0710    1.8254   -1.1604 H   0  0  0  0  0  0  0  0  0  0  0  0
   -8.9460    1.8916   -1.5579 H   0  0  0  0  0  0  0  0  0  0  0  0
   -8.1744    3.8848   -1.1313 H   0  0  0  0  0  0  0  0  0  0  0  0
   -7.1834   -0.4405    1.4826 H   0  0  0  0  0  0  0  0  0  0  0  0
   -7.6597    0.8001   -1.2120 H   0  0  0  0  0  0  0  0  0  0  0  0
   -5.7978    2.1530   -0.5475 H   0  0  0  0  0  0  0  0  0  0  0  0
   -6.3400    2.4574    1.6661 H   0  0  0  0  0  0  0  0  0  0  0  0
   -4.7824   -0.4464    0.5832 H   0  0  0  0  0  0  0  0  0  0  0  0
   -7.3089   -2.1675   -2.4100 H   0  0  0  0  0  0  0  0  0  0  0  0
   -8.7197   -1.7221   -1.4115 H   0  0  0  0  0  0  0  0  0  0  0  0
   -7.7596   -3.2613   -1.0842 H   0  0  0  0  0  0  0  0  0  0  0  0
   -5.9972   -1.9353    1.4776 H   0  0  0  0  0  0  0  0  0  0  0  0
   -5.0849   -2.5897    0.0807 H   0  0  0  0  0  0  0  0  0  0  0  0
   -6.6557   -3.3291    0.5010 H   0  0  0  0  0  0  0  0  0  0  0  0
   -3.0951   -0.4038    0.5106 H   0  0  0  0  0  0  0  0  0  0  0  0
   -2.2273   -1.7017   -1.2171 H   0  0  0  0  0  0  0  0  0  0  0  0
   -2.4642    0.8067   -2.9649 H   0  0  0  0  0  0  0  0  0  0  0  0
   -1.3901   -0.5614   -3.3566 H   0  0  0  0  0  0  0  0  0  0  0  0
   -3.1269   -0.9080   -3.1494 H   0  0  0  0  0  0  0  0  0  0  0  0
   -0.2216    0.6282   -1.3194 H   0  0  0  0  0  0  0  0  0  0  0  0
   -1.2730   -1.2467    0.8763 H   0  0  0  0  0  0  0  0  0  0  0  0
   -1.3906    0.7092    2.0947 H   0  0  0  0  0  0  0  0  0  0  0  0
   -0.1179    1.5786    1.1902 H   0  0  0  0  0  0  0  0  0  0  0  0
   -1.6039    1.9818   -0.6736 H   0  0  0  0  0  0  0  0  0  0  0  0
   -2.6629    2.0441    0.7483 H   0  0  0  0  0  0  0  0  0  0  0  0
    1.5484    0.1294   -2.0419 H   0  0  0  0  0  0  0  0  0  0  0  0
    2.3514   -1.6310   -2.8471 H   0  0  0  0  0  0  0  0  0  0  0  0
    1.5162    0.7983    0.0970 H   0  0  0  0  0  0  0  0  0  0  0  0
    0.9774   -0.6533    2.0447 H   0  0  0  0  0  0  0  0  0  0  0  0
   -0.0855   -2.7284    0.8959 H   0  0  0  0  0  0  0  0  0  0  0  0
    3.3211    0.4026    1.2593 H   0  0  0  0  0  0  0  0  0  0  0  0
    3.9457   -2.1546   -0.2072 H   0  0  0  0  0  0  0  0  0  0  0  0
    3.0134   -1.8430    2.4431 H   0  0  0  0  0  0  0  0  0  0  0  0
    5.8008   -2.2594    1.2154 H   0  0  0  0  0  0  0  0  0  0  0  0
    5.9306   -0.7117   -0.8907 H   0  0  0  0  0  0  0  0  0  0  0  0
    5.6254    0.6374    0.2290 H   0  0  0  0  0  0  0  0  0  0  0  0
    8.1357   -0.7473   -0.1772 H   0  0  0  0  0  0  0  0  0  0  0  0
    7.7962   -2.1422    1.6123 H   0  0  0  0  0  0  0  0  0  0  0  0
    9.6429   -1.4750    2.3561 H   0  0  0  0  0  0  0  0  0  0  0  0
    7.1191    0.1639    3.5140 H   0  0  0  0  0  0  0  0  0  0  0  0
    6.8321   -1.6180    3.6888 H   0  0  0  0  0  0  0  0  0  0  0  0
    5.1288    0.4659    2.3788 H   0  0  0  0  0  0  0  0  0  0  0  0
    4.6958   -1.0722    3.2371 H   0  0  0  0  0  0  0  0  0  0  0  0
    8.9522    1.1040    1.2383 H   0  0  0  0  0  0  0  0  0  0  0  0
    7.2786    1.5657    1.5794 H   0  0  0  0  0  0  0  0  0  0  0  0
    8.2541    2.9641   -0.2021 H   0  0  0  0  0  0  0  0  0  0  0  0
    6.8261    2.0557   -0.8123 H   0  0  0  0  0  0  0  0  0  0  0  0
    8.3135    0.3765   -1.8657 H   0  0  0  0  0  0  0  0  0  0  0  0
    7.6291    2.1034   -3.3543 H   0  0  0  0  0  0  0  0  0  0  0  0
    9.4488    2.1279   -3.4499 H   0  0  0  0  0  0  0  0  0  0  0  0
    8.6126    3.3205   -2.4275 H   0  0  0  0  0  0  0  0  0  0  0  0
   10.3857    0.2466   -0.8641 H   0  0  0  0  0  0  0  0  0  0  0  0
   10.4556    2.0546   -0.5102 H   0  0  0  0  0  0  0  0  0  0  0  0
   10.7372    1.4169   -2.1499 H   0  0  0  0  0  0  0  0  0  0  0  0
   -9.2866   -0.6823    2.8516 H   0  0  0  0  0  0  0  0  0  0  0  0
  -10.7212    0.0639    2.0635 H   0  0  0  0  0  0  0  0  0  0  0  0
   -9.2770    1.0791    2.5483 H   0  0  0  0  0  0  0  0  0  0  0  0
   -9.8848    3.0918    0.6213 H   0  0  0  0  0  0  0  0  0  0  0  0
  -10.0163    4.1186   -0.7578 H   0  0  0  0  0  0  0  0  0  0  0  0
   -8.3102    2.2546   -1.6445 H   0  0  0  0  0  0  0  0  0  0  0  0
   -8.3835    4.8541   -1.0614 H   0  0  0  0  0  0  0  0  0  0  0  0
   -7.3645    0.1459    1.9839 H   0  0  0  0  0  0  0  0  0  0  0  0
   -7.3416    0.8209   -1.0034 H   0  0  0  0  0  0  0  0  0  0  0  0
   -5.1504    1.7329   -0.5644 H   0  0  0  0  0  0  0  0  0  0  0  0
   -6.0825    1.9307    1.9306 H   0  0  0  0  0  0  0  0  0  0  0  0
   -4.6316   -0.6802    1.0589 H   0  0  0  0  0  0  0  0  0  0  0  0
   -5.7441   -2.6675    1.5613 H   0  0  0  0  0  0  0  0  0  0  0  0
   -7.4955   -3.0848    1.6772 H   0  0  0  0  0  0  0  0  0  0  0  0
   -6.8028   -1.6859    2.5975 H   0  0  0  0  0  0  0  0  0  0  0  0
   -8.1437   -1.6655   -1.4169 H   0  0  0  0  0  0  0  0  0  0  0  0
   -9.1919   -1.9021    0.0722 H   0  0  0  0  0  0  0  0  0  0  0  0
   -7.9233   -3.1339   -0.4244 H   0  0  0  0  0  0  0  0  0  0  0  0
   -2.9506   -0.9837    0.7486 H   0  0  0  0  0  0  0  0  0  0  0  0
   -2.0984    1.1947    0.1889 H   0  0  0  0  0  0  0  0  0  0  0  0
   -1.0133    1.3059   -2.3345 H   0  0  0  0  0  0  0  0  0  0  0  0
   -2.6255    1.9124   -1.8712 H   0  0  0  0  0  0  0  0  0  0  0  0
   -2.4377    0.2146   -2.5655 H   0  0  0  0  0  0  0  0  0  0  0  0
   -0.0211    0.4847    0.6899 H   0  0  0  0  0  0  0  0  0  0  0  0
   -0.5948   -1.8626    0.7302 H   0  0  0  0  0  0  0  0  0  0  0  0
   -0.5969   -3.0945   -1.5071 H   0  0  0  0  0  0  0  0  0  0  0  0
   -0.7488   -1.4499   -2.2515 H   0  0  0  0  0  0  0  0  0  0  0  0
   -3.0307   -2.0738   -2.0118 H   0  0  0  0  0  0  0  0  0  0  0  0
   -2.6989   -2.8543   -0.4471 H   0  0  0  0  0  0  0  0  0  0  0  0
    1.7414    1.3018    0.0696 H   0  0  0  0  0  0  0  0  0  0  0  0
    1.9823    1.6843   -2.5018 H   0  0  0  0  0  0  0  0  0  0  0  0
    2.7496   -0.6139    0.6137 H   0  0  0  0  0  0  0  0  0  0  0  0
    1.5274   -2.4873    0.4372 H   0  0  0  0  0  0  0  0  0  0  0  0
    1.1895   -2.1229   -2.3753 H   0  0  0  0  0  0  0  0  0  0  0  0
    3.1050   -0.9350   -2.3106 H   0  0  0  0  0  0  0  0  0  0  0  0
    5.0160   -2.0485   -1.8385 H   0  0  0  0  0  0  0  0  0  0  0  0
    3.6313   -3.4552    0.1909 H   0  0  0  0  0  0  0  0  0  0  0  0
    4.5236   -1.4075    1.1322 H   0  0  0  0  0  0  0  0  0  0  0  0
    5.7879   -0.0421   -1.1349 H   0  0  0  0  0  0  0  0  0  0  0  0
    5.3799    0.5412    0.5487 H   0  0  0  0  0  0  0  0  0  0  0  0
    7.8702    0.3702   -0.5166 H   0  0  0  0  0  0  0  0  0  0  0  0
    9.0366   -1.3115    0.9164 H   0  0  0  0  0  0  0  0  0  0  0  0
    8.2615   -1.3787   -1.5658 H   0  0  0  0  0  0  0  0  0  0  0  0
    7.1372   -2.0572    2.2733 H   0  0  0  0  0  0  0  0  0  0  0  0
    7.8898   -3.4213    1.2742 H   0  0  0  0  0  0  0  0  0  0  0  0
    5.3770   -3.4885    1.0931 H   0  0  0  0  0  0  0  0  0  0  0  0
    6.2931   -3.2292   -0.4466 H   0  0  0  0  0  0  0  0  0  0  0  0
    8.7269    0.4439    1.8380 H   0  0  0  0  0  0  0  0  0  0  0  0
    7.0815    0.1181    2.3957 H   0  0  0  0  0  0  0  0  0  0  0  0
    7.6230    2.4911    2.4819 H   0  0  0  0  0  0  0  0  0  0  0  0
    6.1767    2.1307    1.4539 H   0  0  0  0  0  0  0  0  0  0  0  0
    7.5952    2.4225   -0.5807 H   0  0  0  0  0  0  0  0  0  0  0  0
    6.3464    4.2492    0.2300 H   0  0  0  0  0  0  0  0  0  0  0  0
    7.9608    4.8736   -0.2354 H   0  0  0  0  0  0  0  0  0  0  0  0
    7.5673    4.6269    1.5274 H   0  0  0  0  0  0  0  0  0  0  0  0
    9.8610    2.6971   -0.4544 H   0  0  0  0  0  0  0  0  0  0  0  0
    9.7934    2.0958    1.2601 H   0  0  0  0  0  0  0  0  0  0  0  0
    9.7795    3.8318    0.9064 H   0  0  0  0  0  0  0  0  0  0  0  0
   -9.3628   -0.7175    2.8557 H   0  0  0  0  0  0  0  0  0  0  0  0
  -10.8552    0.0282    2.1052 H   0  0  0  0  0  0  0  0  0  0  0  0
   -9.4090    1.0378    2.5221 H   0  0  0  0  0  0  0  0  0  0  0  0
  -10.1028    3.8807   -0.0691 H   0  0  0  0  0  0  0  0  0  0  0  0
  -10.4701    3.0330   -1.5341 H   0  0  0  0  0  0  0  0  0  0  0  0
   -8.4741    2.1441   -1.7356 H   0  0  0  0  0  0  0  0  0  0  0  0
   -8.1512    4.2264   -2.1255 H   0  0  0  0  0  0  0  0  0  0  0  0
   -7.5006    0.0692    1.8643 H   0  0  0  0  0  0  0  0  0  0  0  0
   -7.5561    0.7986   -1.1090 H   0  0  0  0  0  0  0  0  0  0  0  0
   -5.3843    1.7486   -0.5602 H   0  0  0  0  0  0  0  0  0  0  0  0
   -6.3947    1.8743    1.8890 H   0  0  0  0  0  0  0  0  0  0  0  0
   -4.8732   -0.6721    1.0238 H   0  0  0  0  0  0  0  0  0  0  0  0
   -7.9670   -2.5070    2.0823 H   0  0  0  0  0  0  0  0  0  0  0  0
   -7.0495   -3.4340    0.8723 H   0  0  0  0  0  0  0  0  0  0  0  0
   -6.1371   -2.2771    1.8847 H   0  0  0  0  0  0  0  0  0  0  0  0
   -8.4530   -1.3783   -1.5671 H   0  0  0  0  0  0  0  0  0  0  0  0
   -9.3912   -2.0612   -0.1270 H   0  0  0  0  0  0  0  0  0  0  0  0
   -8.0505   -2.9946   -0.9438 H   0  0  0  0  0  0  0  0  0  0  0  0
   -3.1688   -0.9145    0.8226 H   0  0  0  0  0  0  0  0  0  0  0  0
   -2.3574    1.2479    0.3176 H   0  0  0  0  0  0  0  0  0  0  0  0
   -1.3343    1.7550   -1.9429 H   0  0  0  0  0  0  0  0  0  0  0  0
   -3.0890    1.9006   -1.7432 H   0  0  0  0  0  0  0  0  0  0  0  0
   -2.4349    0.4324   -2.5825 H   0  0  0  0  0  0  0  0  0  0  0  0
   -0.2273    0.8884    0.5067 H   0  0  0  0  0  0  0  0  0  0  0  0
   -0.9876   -1.4675    1.1457 H   0  0  0  0  0  0  0  0  0  0  0  0
   -0.8436   -3.2017   -0.6079 H   0  0  0  0  0  0  0  0  0  0  0  0
   -0.6933   -1.9012   -1.8721 H   0  0  0  0  0  0  0  0  0  0  0  0
   -2.9608   -1.9446   -1.9777 H   0  0  0  0  0  0  0  0  0  0  0  0
   -3.0557   -2.7868   -0.4213 H   0  0  0  0  0  0  0  0  0  0  0  0
    1.7278    1.4002   -1.2169 H   0  0  0  0  0  0  0  0  0  0  0  0
    2.2896    0.5175   -3.0807 H   0  0  0  0  0  0  0  0  0  0  0  0
    1.6336    0.3668    0.8039 H   0  0  0  0  0  0  0  0  0  0  0  0
    1.2146   -1.7944    1.3941 H   0  0  0  0  0  0  0  0  0  0  0  0
    1.0084   -2.8083   -1.2871 H   0  0  0  0  0  0  0  0  0  0  0  0
    3.7536   -0.0671    0.8288 H   0  0  0  0  0  0  0  0  0  0  0  0
    4.2596   -0.5157   -1.8009 H   0  0  0  0  0  0  0  0  0  0  0  0
    4.3195   -3.1133   -1.0360 H   0  0  0  0  0  0  0  0  0  0  0  0
    6.1353   -1.8606   -1.0590 H   0  0  0  0  0  0  0  0  0  0  0  0
    6.0417    0.6622   -0.9490 H   0  0  0  0  0  0  0  0  0  0  0  0
    5.7116    0.4980    0.8534 H   0  0  0  0  0  0  0  0  0  0  0  0
    8.2057    0.1148   -0.6354 H   0  0  0  0  0  0  0  0  0  0  0  0
    8.0900   -2.2163   -0.6026 H   0  0  0  0  0  0  0  0  0  0  0  0
    9.8813   -1.5405    0.3756 H   0  0  0  0  0  0  0  0  0  0  0  0
    7.0727   -3.5483    1.0357 H   0  0  0  0  0  0  0  0  0  0  0  0
    7.2075   -2.2512    2.3215 H   0  0  0  0  0  0  0  0  0  0  0  0
    4.8604   -3.0009    0.9238 H   0  0  0  0  0  0  0  0  0  0  0  0
    5.1847   -1.4142    1.7859 H   0  0  0  0  0  0  0  0  0  0  0  0
    9.1986    0.2538    1.5042 H   0  0  0  0  0  0  0  0  0  0  0  0
    7.6589    0.0628    2.3540 H   0  0  0  0  0  0  0  0  0  0  0  0
    8.4402    2.3802    2.2809 H   0  0  0  0  0  0  0  0  0  0  0  0
    6.9494    2.3308    1.3083 H   0  0  0  0  0  0  0  0  0  0  0  0
    8.3259    2.1465   -0.7569 H   0  0  0  0  0  0  0  0  0  0  0  0
    7.5186    4.2914   -0.0715 H   0  0  0  0  0  0  0  0  0  0  0  0
    9.2685    4.5592   -0.4609 H   0  0  0  0  0  0  0  0  0  0  0  0
    8.7193    4.3797    1.2686 H   0  0  0  0  0  0  0  0  0  0  0  0
   10.5253    1.4704   -0.4286 H   0  0  0  0  0  0  0  0  0  0  0  0
   10.5613    2.0559    1.3176 H   0  0  0  0  0  0  0  0  0  0  0  0
   10.7875    3.1858   -0.0395 H   0  0  0  0  0  0  0  0  0  0  0  0
   -8.3319   -2.6138    1.8283 H   0  0  0  0  0  0  0  0  0  0  0  0
   -9.1025   -1.1508    2.5252 H   0  0  0  0  0  0  0  0  0  0  0  0
  -10.0963   -2.2853    1.4977 H   0  0  0  0  0  0  0  0  0  0  0  0
  -11.4915    2.2851   -0.1949 H   0  0  0  0  0  0  0  0  0  0  0  0
  -10.7945    1.1322    0.9113 H   0  0  0  0  0  0  0  0  0  0  0  0
   -9.0675    1.7561   -1.2427 H   0  0  0  0  0  0  0  0  0  0  0  0
   -9.4437    3.8199   -1.2070 H   0  0  0  0  0  0  0  0  0  0  0  0
   -7.1354   -0.7720    1.5926 H   0  0  0  0  0  0  0  0  0  0  0  0
   -7.6567    0.9148   -0.9092 H   0  0  0  0  0  0  0  0  0  0  0  0
   -6.0699    2.4191   -0.0361 H   0  0  0  0  0  0  0  0  0  0  0  0
   -6.7530    2.2109    2.2220 H   0  0  0  0  0  0  0  0  0  0  0  0
   -4.7202   -0.2050    0.7500 H   0  0  0  0  0  0  0  0  0  0  0  0
   -4.6991   -2.2449   -0.1547 H   0  0  0  0  0  0  0  0  0  0  0  0
   -6.2123   -3.2736    0.0594 H   0  0  0  0  0  0  0  0  0  0  0  0
   -5.6433   -2.0882    1.3648 H   0  0  0  0  0  0  0  0  0  0  0  0
   -7.1941   -1.3911   -2.4957 H   0  0  0  0  0  0  0  0  0  0  0  0
   -8.4914   -1.8365   -1.2787 H   0  0  0  0  0  0  0  0  0  0  0  0
   -7.0939   -2.9324   -1.6199 H   0  0  0  0  0  0  0  0  0  0  0  0
   -2.9410   -0.0914    0.6360 H   0  0  0  0  0  0  0  0  0  0  0  0
   -2.3714   -1.1231   -1.2424 H   0  0  0  0  0  0  0  0  0  0  0  0
   -2.9638    1.4476   -2.7608 H   0  0  0  0  0  0  0  0  0  0  0  0
   -2.0318   -0.0027   -3.4573 H   0  0  0  0  0  0  0  0  0  0  0  0
   -3.6653   -0.1877   -2.8200 H   0  0  0  0  0  0  0  0  0  0  0  0
   -0.3705    1.1886   -1.3801 H   0  0  0  0  0  0  0  0  0  0  0  0
   -1.0963   -0.9757    0.5713 H   0  0  0  0  0  0  0  0  0  0  0  0
   -0.8009    0.9395    2.0808 H   0  0  0  0  0  0  0  0  0  0  0  0
    0.1246    1.7927    0.8284 H   0  0  0  0  0  0  0  0  0  0  0  0
   -1.6044    2.4911   -0.3964 H   0  0  0  0  0  0  0  0  0  0  0  0
   -2.4503    2.3508    1.1495 H   0  0  0  0  0  0  0  0  0  0  0  0
    1.6659   -0.1022   -2.8367 H   0  0  0  0  0  0  0  0  0  0  0  0
    1.9709   -2.1473   -3.1906 H   0  0  0  0  0  0  0  0  0  0  0  0
    1.6147    0.9387   -0.8552 H   0  0  0  0  0  0  0  0  0  0  0  0
    1.4655   -0.1433    1.3953 H   0  0  0  0  0  0  0  0  0  0  0  0
    0.3337   -2.4319    0.1273 H   0  0  0  0  0  0  0  0  0  0  0  0
    3.7224    0.5723   -0.2248 H   0  0  0  0  0  0  0  0  0  0  0  0
    4.3183   -1.7472   -1.6502 H   0  0  0  0  0  0  0  0  0  0  0  0
    3.6736   -3.4347   -0.5451 H   0  0  0  0  0  0  0  0  0  0  0  0
    5.6823   -2.4148    0.0266 H   0  0  0  0  0  0  0  0  0  0  0  0
    6.3961   -0.5313   -1.3137 H   0  0  0  0  0  0  0  0  0  0  0  0
    5.7826    0.6530   -0.1352 H   0  0  0  0  0  0  0  0  0  0  0  0
    8.3250   -0.7479   -0.1032 H   0  0  0  0  0  0  0  0  0  0  0  0
    7.4694   -2.7664    0.8861 H   0  0  0  0  0  0  0  0  0  0  0  0
    9.2594   -2.3109    1.8698 H   0  0  0  0  0  0  0  0  0  0  0  0
    5.9635   -2.8034    2.7105 H   0  0  0  0  0  0  0  0  0  0  0  0
    6.4022   -1.1667    3.2679 H   0  0  0  0  0  0  0  0  0  0  0  0
    4.0406   -1.8168    1.9415 H   0  0  0  0  0  0  0  0  0  0  0  0
    4.8652   -0.1744    1.9668 H   0  0  0  0  0  0  0  0  0  0  0  0
    8.7992    0.3224    1.9028 H   0  0  0  0  0  0  0  0  0  0  0  0
    7.0930    0.6765    2.3112 H   0  0  0  0  0  0  0  0  0  0  0  0
    8.2528    2.6197    1.5192 H   0  0  0  0  0  0  0  0  0  0  0  0
    7.0066    2.2539    0.3147 H   0  0  0  0  0  0  0  0  0  0  0  0
    8.7905    1.1105   -1.1040 H   0  0  0  0  0  0  0  0  0  0  0  0
    8.0235    3.4331   -1.3601 H   0  0  0  0  0  0  0  0  0  0  0  0
    9.8579    3.3979   -1.5959 H   0  0  0  0  0  0  0  0  0  0  0  0
    9.1196    3.9660   -0.0776 H   0  0  0  0  0  0  0  0  0  0  0  0
   10.8844    0.7471   -0.1752 H   0  0  0  0  0  0  0  0  0  0  0  0
   10.3332    1.5812    1.3701 H   0  0  0  0  0  0  0  0  0  0  0  0
   11.0931    2.4955    0.0307 H   0  0  0  0  0  0  0  0  0  0  0  0
  1  2  1  0
  3  4  1  0
  4  5  1  0
  4  6  1  0
  2  7  1  0
  6  8  1  0
  7  8  1  0
  8  9  1  0
  9 10  1  0
  9 11  1  0
 11 12  1  0
  7 13  1  0
 12 13  1  0
 13 14  1  0
 13 15  1  0
 11 16  1  0
 16 17  1  0
 17 18  1  0
 18 19  1  0
 18 20  1  0
 20 21  1  0
 21 22  1  0
 17 23  1  0
 22 23  1  0
 20 24  1  0
 24 25  1  0
 25 26  1  0
 25 27  1  0
 21 28  1  0
 27 28  1  0
 28 29  1  0
 27 30  1  0
 30 31  1  0
 31 32  1  0
 31 33  1  0
 33 34  1  0
 34 35  1  0
 35 36  1  0
 36 37  1  0
 36 38  1  0
 33 39  1  0
 38 39  1  0
 35 40  1  0
 40 41  1  0
 41 42  1  0
 42 43  1  0
 42 44  1  0
 45 46  1  0
 47 48  1  0
 48 49  1  0
 48 50  1  0
 46 51  1  0
 50 52  1  0
 51 52  1  0
 52 53  1  0
 53 54  1  0
 53 55  1  0
 55 56  1  0
 51 57  1  0
 56 57  1  0
 57 58  1  0
 57 59  1  0
 55 60  1  0
 60 61  1  0
 61 62  1  0
 62 63  1  0
 62 64  1  0
 64 65  1  0
 65 66  1  0
 61 67  1  0
 66 67  1  0
 64 68  1  0
 68 69  1  0
 69 70  1  0
 69 71  1  0
 65 72  1  0
 71 72  1  0
 72 73  1  0
 71 74  1  0
 74 75  1  0
 75 76  1  0
 75 77  1  0
 77 78  1  0
 78 79  1  0
 79 80  1  0
 80 81  1  0
 80 82  1  0
 77 83  1  0
 82 83  1  0
 79 84  1  0
 84 85  1  0
 85 86  1  0
 86 87  1  0
 86 88  1  0
 89 90  1  0
 91 92  1  0
 92 93  1  0
 92 94  1  0
 90 95  1  0
 94 96  1  0
 95 96  1  0
 96 97  1  0
 97 98  1  0
 97 99  1  0
 99100  1  0
 95101  1  0
100101  1  0
101102  1  0
101103  1  0
 99104  1  0
104105  1  0
105106  1  0
106107  1  0
106108  1  0
108109  1  0
109110  1  0
105111  1  0
110111  1  0
108112  1  0
112113  1  0
113114  1  0
113115  1  0
109116  1  0
115116  1  0
116117  1  0
115118  1  0
118119  1  0
119120  1  0
119121  1  0
121122  1  0
122123  1  0
123124  1  0
124125  1  0
124126  1  0
121127  1  0
126127  1  0
123128  1  0
128129  1  0
129130  1  0
130131  1  0
130132  1  0
133134  1  0
135136  1  0
136137  1  0
136138  1  0
134139  1  0
138140  1  0
139140  1  0
140141  1  0
141142  1  0
141143  1  0
143144  1  0
139145  1  0
144145  1  0
145146  1  0
145147  1  0
143148  1  0
148149  1  0
149150  1  0
150151  1  0
150152  1  0
152153  1  0
153154  1  0
149155  1  0
154155  1  0
152156  1  0
156157  1  0
157158  1  0
157159  1  0
153160  1  0
159160  1  0
160161  1  0
159162  1  0
162163  1  0
163164  1  0
163165  1  0
165166  1  0
166167  1  0
167168  1  0
168169  1  0
168170  1  0
165171  1  0
170171  1  0
167172  1  0
172173  1  0
173174  1  0
174175  1  0
174176  1  0
  1177  1  0
  1178  1  0
  1179  1  0
  3180  1  0
  3181  1  0
  4182  1  0
  5183  1  0
  7184  1  1
  8185  1  6
  9186  1  6
 10187  1  0
 11188  1  1
 14189  1  0
 14190  1  0
 14191  1  0
 15192  1  0
 15193  1  0
 15194  1  0
 17195  1  0
 18196  1  6
 19197  1  0
 19198  1  0
 19199  1  0
 20200  1  0
 21201  1  0
 22202  1  0
 22203  1  0
 23204  1  0
 23205  1  0
 25206  1  0
 26207  1  0
 27208  1  6
 28209  1  0
 29210  1  0
 30211  1  0
 31212  1  0
 32213  1  0
 33214  1  1
 34215  1  0
 34216  1  0
 35217  1  0
 36218  1  6
 37219  1  0
 38220  1  0
 38221  1  0
 39222  1  0
 39223  1  0
 40224  1  0
 40225  1  0
 41226  1  0
 41227  1  0
 42228  1  0
 43229  1  0
 43230  1  0
 43231  1  0
 44232  1  0
 44233  1  0
 44234  1  0
 45235  1  0
 45236  1  0
 45237  1  0
 47238  1  0
 47239  1  0
 48240  1  0
 49241  1  0
 51242  1  1
 52243  1  6
 53244  1  6
 54245  1  0
 55246  1  1
 58247  1  0
 58248  1  0
 58249  1  0
 59250  1  0
 59251  1  0
 59252  1  0
 61253  1  0
 62254  1  0
 63255  1  0
 63256  1  0
 63257  1  0
 64258  1  0
 65259  1  0
 66260  1  0
 66261  1  0
 67262  1  0
 67263  1  0
 69264  1  0
 70265  1  0
 71266  1  1
 72267  1  0
 73268  1  0
 74269  1  0
 75270  1  0
 76271  1  0
 77272  1  0
 78273  1  0
 78274  1  0
 79275  1  0
 80276  1  0
 81277  1  0
 82278  1  0
 82279  1  0
 83280  1  0
 83281  1  0
 84282  1  0
 84283  1  0
 85284  1  0
 85285  1  0
 86286  1  0
 87287  1  0
 87288  1  0
 87289  1  0
 88290  1  0
 88291  1  0
 88292  1  0
 89293  1  0
 89294  1  0
 89295  1  0
 91296  1  0
 91297  1  0
 92298  1  0
 93299  1  0
 95300  1  1
 96301  1  6
 97302  1  6
 98303  1  0
 99304  1  1
102305  1  0
102306  1  0
102307  1  0
103308  1  0
103309  1  0
103310  1  0
105311  1  0
106312  1  0
107313  1  0
107314  1  0
107315  1  0
108316  1  0
109317  1  0
110318  1  0
110319  1  0
111320  1  0
111321  1  0
113322  1  0
114323  1  0
115324  1  1
116325  1  0
117326  1  0
118327  1  0
119328  1  0
120329  1  0
121330  1  6
122331  1  0
122332  1  0
123333  1  6
124334  1  0
125335  1  0
126336  1  0
126337  1  0
127338  1  0
127339  1  0
128340  1  0
128341  1  0
129342  1  0
129343  1  0
130344  1  0
131345  1  0
131346  1  0
131347  1  0
132348  1  0
132349  1  0
132350  1  0
133351  1  0
133352  1  0
133353  1  0
135354  1  0
135355  1  0
136356  1  0
137357  1  0
139358  1  1
140359  1  6
141360  1  6
142361  1  0
143362  1  1
146363  1  0
146364  1  0
146365  1  0
147366  1  0
147367  1  0
147368  1  0
149369  1  0
150370  1  1
151371  1  0
151372  1  0
151373  1  0
152374  1  0
153375  1  0
154376  1  0
154377  1  0
155378  1  0
155379  1  0
157380  1  0
158381  1  0
159382  1  6
160383  1  0
161384  1  0
162385  1  0
163386  1  6
164387  1  0
165388  1  1
166389  1  0
166390  1  0
167391  1  0
168392  1  0
169393  1  0
170394  1  0
170395  1  0
171396  1  0
171397  1  0
172398  1  0
172399  1  0
173400  1  0
173401  1  0
174402  1  0
175403  1  0
175404  1  0
175405  1  0
176406  1  0
176407  1  0
176408  1  0
M  END
>  <PDBID>  (1) 
4URO

>  <PDB ID>  (1) 
4URO

>  <Generic Name>  (1) 
Novobiocin

>  <Brand Name>  (1) 
Albamycin

>  <DrugBank ID>  (1) 
DB01051

>  <ATC Codes>  (1) 
nan

>  <Ligand ID>  (1) 
NOV

>  <Target Name>  (1) 
DNA gyrase subunit B

>  <UniProt ID>  (1) 
P0A0K8

>  <PDB ID.1>  (1) 
4URO

>  <Seq. Identity>  (1) 
84%

$$$$
