PDB_DB01092_05
     RDKit          3D

178188  0  0  0  0  0  0  0  0999 V2000
    0.6417    0.7146   -1.7879 C   0  0  2  0  0  0  0  0  0  0  0  0
    2.1515    0.8228   -1.8355 C   0  0  0  0  0  0  0  0  0  0  0  0
    2.8014    0.8956   -0.4818 C   0  0  1  0  0  0  0  0  0  0  0  0
    1.7555    0.4962    0.5055 C   0  0  0  0  0  0  0  0  0  0  0  0
    1.1458   -0.8113   -0.0296 C   0  0  1  0  0  0  0  0  0  0  0  0
    0.6589   -1.5144    1.1921 C   0  0  0  0  0  0  0  0  0  0  0  0
   -0.7844   -1.1006    1.5382 C   0  0  0  0  0  0  0  0  0  0  0  0
   -1.5929   -1.5258    0.3722 C   0  0  2  0  0  0  0  0  0  0  0  0
   -1.2442   -0.5191   -0.7274 C   0  0  1  0  0  0  0  0  0  0  0  0
    0.1935   -0.5972   -1.1467 C   0  0  1  0  0  0  0  0  0  0  0  0
   -2.2902   -0.6390   -1.7369 C   0  0  1  0  0  0  0  0  0  0  0  0
   -3.5333    0.0316   -1.1143 C   0  0  0  0  0  0  0  0  0  0  0  0
   -3.9793   -0.6632    0.1430 C   0  0  1  0  0  0  0  0  0  0  0  0
   -3.0193   -1.7785    0.5636 C   0  0  2  0  0  0  0  0  0  0  0  0
   -3.4848   -2.0364    1.9664 C   0  0  0  0  0  0  0  0  0  0  0  0
   -4.0695   -0.7646    2.5090 C   0  0  0  0  0  0  0  0  0  0  0  0
   -4.0145    0.1935    1.3373 C   0  0  2  0  0  0  0  0  0  0  0  0
   -5.2862   -1.3549   -0.2023 C   0  0  0  0  0  0  0  0  0  0  0  0
    0.3951   -1.6262   -2.2673 C   0  0  0  0  0  0  0  0  0  0  0  0
   -5.0120    1.2455    1.5007 C   0  0  1  0  0  0  0  0  0  0  0  0
   -5.0565    2.3042    0.4392 C   0  0  0  0  0  0  0  0  0  0  0  0
   -6.4210    0.9122    1.7619 C   0  0  0  0  0  0  0  0  0  0  0  0
   -7.1578    2.1125    1.1509 C   0  0  0  0  0  0  0  0  0  0  0  0
    5.0784    0.4496   -0.2793 C   0  0  2  0  0  0  0  0  0  0  0  0
    5.7607   -0.1088    0.9309 C   0  0  1  0  0  0  0  0  0  0  0  0
    7.1565    0.4212    1.0361 C   0  0  1  0  0  0  0  0  0  0  0  0
    7.8360    0.5698   -0.2861 C   0  0  2  0  0  0  0  0  0  0  0  0
    6.9188    1.1320   -1.3509 C   0  0  2  0  0  0  0  0  0  0  0  0
    6.5643    2.5717   -1.0933 C   0  0  0  0  0  0  0  0  0  0  0  0
    0.3011    0.7742   -3.1594 O   0  0  0  0  0  0  0  0  0  0  0  0
    3.8158   -0.0744   -0.4917 O   0  0  0  0  0  0  0  0  0  0  0  0
    2.2338   -1.5547   -0.5282 O   0  0  0  0  0  0  0  0  0  0  0  0
   -2.1450   -0.0474   -2.9540 O   0  0  0  0  0  0  0  0  0  0  0  0
   -3.4100   -2.9329   -0.1685 O   0  0  0  0  0  0  0  0  0  0  0  0
    0.0551   -2.9015   -1.9284 O   0  0  0  0  0  0  0  0  0  0  0  0
   -6.1698    3.0577    0.8868 O   0  0  0  0  0  0  0  0  0  0  0  0
   -7.7624    1.7817   -0.0423 O   0  0  0  0  0  0  0  0  0  0  0  0
    5.0588    0.3533    2.0617 O   0  0  0  0  0  0  0  0  0  0  0  0
    7.2257    1.5844    1.8176 O   0  0  0  0  0  0  0  0  0  0  0  0
    8.1982   -0.7261   -0.7214 O   0  0  0  0  0  0  0  0  0  0  0  0
    5.8353    0.2941   -1.4420 O   0  0  0  0  0  0  0  0  0  0  0  0
    0.8970   -0.3552   -1.8292 C   0  0  2  0  0  0  0  0  0  0  0  0
    1.4165    0.9699   -1.3939 C   0  0  0  0  0  0  0  0  0  0  0  0
    2.3837    0.8989   -0.2422 C   0  0  1  0  0  0  0  0  0  0  0  0
    1.5314    0.3064    0.8744 C   0  0  0  0  0  0  0  0  0  0  0  0
    1.2392   -1.1166    0.4553 C   0  0  1  0  0  0  0  0  0  0  0  0
    0.6580   -1.7327    1.7032 C   0  0  0  0  0  0  0  0  0  0  0  0
   -0.7720   -1.1923    1.9267 C   0  0  0  0  0  0  0  0  0  0  0  0
   -1.5607   -1.7281    0.8035 C   0  0  2  0  0  0  0  0  0  0  0  0
   -1.0650   -1.0960   -0.4722 C   0  0  1  0  0  0  0  0  0  0  0  0
    0.3820   -1.2803   -0.7487 C   0  0  1  0  0  0  0  0  0  0  0  0
   -2.0072   -1.5755   -1.5193 C   0  0  1  0  0  0  0  0  0  0  0  0
   -3.2757   -0.7505   -1.3308 C   0  0  0  0  0  0  0  0  0  0  0  0
   -3.8377   -0.8877    0.0272 C   0  0  1  0  0  0  0  0  0  0  0  0
   -3.0433   -1.7531    0.9635 C   0  0  2  0  0  0  0  0  0  0  0  0
   -3.6015   -1.4269    2.2998 C   0  0  0  0  0  0  0  0  0  0  0  0
   -4.3591   -0.1138    2.1448 C   0  0  0  0  0  0  0  0  0  0  0  0
   -3.9632    0.4038    0.7883 C   0  0  2  0  0  0  0  0  0  0  0  0
   -5.2272   -1.5180   -0.1359 C   0  0  0  0  0  0  0  0  0  0  0  0
    0.6559   -2.6695   -1.3879 C   0  0  0  0  0  0  0  0  0  0  0  0
   -4.7601    1.4550    0.1814 C   0  0  0  0  0  0  0  0  0  0  0  0
   -6.1941    1.2554   -0.1124 C   0  0  0  0  0  0  0  0  0  0  0  0
   -4.8030    2.7415    1.0272 C   0  0  0  0  0  0  0  0  0  0  0  0
   -6.1760    3.2728    0.6792 C   0  0  0  0  0  0  0  0  0  0  0  0
    4.6834    0.6441   -0.5003 C   0  0  2  0  0  0  0  0  0  0  0  0
    5.5625   -0.0874    0.4755 C   0  0  1  0  0  0  0  0  0  0  0  0
    6.8925    0.6372    0.5438 C   0  0  1  0  0  0  0  0  0  0  0  0
    7.3727    1.1020   -0.8013 C   0  0  2  0  0  0  0  0  0  0  0  0
    6.2894    1.6693   -1.6556 C   0  0  2  0  0  0  0  0  0  0  0  0
    5.8207    3.0296   -1.1773 C   0  0  0  0  0  0  0  0  0  0  0  0
    2.0615   -0.9233   -2.4361 O   0  0  0  0  0  0  0  0  0  0  0  0
    3.4230    0.0718   -0.6118 O   0  0  0  0  0  0  0  0  0  0  0  0
    2.4520   -1.7595    0.2239 O   0  0  0  0  0  0  0  0  0  0  0  0
   -1.6838   -1.4531   -2.8236 O   0  0  0  0  0  0  0  0  0  0  0  0
   -3.4748   -3.0872    0.6901 O   0  0  0  0  0  0  0  0  0  0  0  0
    0.2884   -3.7186   -0.6123 O   0  0  0  0  0  0  0  0  0  0  0  0
   -6.5618    2.5909   -0.4861 O   0  0  0  0  0  0  0  0  0  0  0  0
   -6.1779    4.6482    0.5132 O   0  0  0  0  0  0  0  0  0  0  0  0
    5.0042   -0.0153    1.7394 O   0  0  0  0  0  0  0  0  0  0  0  0
    6.8790    1.6704    1.4806 O   0  0  0  0  0  0  0  0  0  0  0  0
    7.9103   -0.0139   -1.4582 O   0  0  0  0  0  0  0  0  0  0  0  0
    5.2720    0.7590   -1.7580 O   0  0  0  0  0  0  0  0  0  0  0  0
    0.1761    1.5851   -1.2904 H   0  0  0  0  0  0  0  0  0  0  0  0
    2.3604    1.8009   -2.3663 H   0  0  0  0  0  0  0  0  0  0  0  0
    2.5547    0.0337   -2.4843 H   0  0  0  0  0  0  0  0  0  0  0  0
    3.2234    1.9028   -0.2999 H   0  0  0  0  0  0  0  0  0  0  0  0
    2.2688    0.2638    1.4597 H   0  0  0  0  0  0  0  0  0  0  0  0
    1.0011    1.2507    0.7114 H   0  0  0  0  0  0  0  0  0  0  0  0
    1.2603   -1.2765    2.0639 H   0  0  0  0  0  0  0  0  0  0  0  0
    0.6105   -2.6055    1.0039 H   0  0  0  0  0  0  0  0  0  0  0  0
   -0.9857   -1.5268    2.5045 H   0  0  0  0  0  0  0  0  0  0  0  0
   -0.7118    0.0229    1.6398 H   0  0  0  0  0  0  0  0  0  0  0  0
   -1.1382   -2.4979    0.0025 H   0  0  0  0  0  0  0  0  0  0  0  0
   -1.3284    0.5135   -0.2655 H   0  0  0  0  0  0  0  0  0  0  0  0
   -2.6226   -1.6944   -1.9514 H   0  0  0  0  0  0  0  0  0  0  0  0
   -4.2804    0.0946   -1.9068 H   0  0  0  0  0  0  0  0  0  0  0  0
   -3.1424    1.0458   -0.8135 H   0  0  0  0  0  0  0  0  0  0  0  0
   -4.3434   -2.7789    1.9698 H   0  0  0  0  0  0  0  0  0  0  0  0
   -2.7421   -2.5139    2.6299 H   0  0  0  0  0  0  0  0  0  0  0  0
   -3.4782   -0.3804    3.3706 H   0  0  0  0  0  0  0  0  0  0  0  0
   -5.1253   -0.8601    2.8431 H   0  0  0  0  0  0  0  0  0  0  0  0
   -3.0012    0.6797    1.4222 H   0  0  0  0  0  0  0  0  0  0  0  0
   -4.9810   -2.1470   -0.9585 H   0  0  0  0  0  0  0  0  0  0  0  0
   -5.7099   -1.9320    0.6220 H   0  0  0  0  0  0  0  0  0  0  0  0
   -5.9819   -0.7222   -0.7679 H   0  0  0  0  0  0  0  0  0  0  0  0
    1.4404   -1.6339   -2.6114 H   0  0  0  0  0  0  0  0  0  0  0  0
   -0.2077   -1.3355   -3.1641 H   0  0  0  0  0  0  0  0  0  0  0  0
   -4.6728    1.8344    2.4226 H   0  0  0  0  0  0  0  0  0  0  0  0
   -4.1986    3.0028    0.4483 H   0  0  0  0  0  0  0  0  0  0  0  0
   -5.3376    1.9515   -0.5554 H   0  0  0  0  0  0  0  0  0  0  0  0
   -6.6413    0.8555    2.8623 H   0  0  0  0  0  0  0  0  0  0  0  0
   -6.8574    0.0353    1.3153 H   0  0  0  0  0  0  0  0  0  0  0  0
   -7.8956    2.4502    1.8923 H   0  0  0  0  0  0  0  0  0  0  0  0
    4.9665    1.5443   -0.1394 H   0  0  0  0  0  0  0  0  0  0  0  0
    5.7434   -1.2206    0.9629 H   0  0  0  0  0  0  0  0  0  0  0  0
    7.7488   -0.3485    1.6129 H   0  0  0  0  0  0  0  0  0  0  0  0
    8.7293    1.2069   -0.1978 H   0  0  0  0  0  0  0  0  0  0  0  0
    7.4687    1.0882   -2.3126 H   0  0  0  0  0  0  0  0  0  0  0  0
    6.5460    2.8545   -0.0371 H   0  0  0  0  0  0  0  0  0  0  0  0
    7.3358    3.2300   -1.5896 H   0  0  0  0  0  0  0  0  0  0  0  0
    5.6048    2.8598   -1.5623 H   0  0  0  0  0  0  0  0  0  0  0  0
    0.4020    1.7278   -3.3997 H   0  0  0  0  0  0  0  0  0  0  0  0
    2.6252   -2.1414    0.1508 H   0  0  0  0  0  0  0  0  0  0  0  0
   -2.8024   -0.4063   -3.5887 H   0  0  0  0  0  0  0  0  0  0  0  0
   -3.5768   -3.6994    0.4001 H   0  0  0  0  0  0  0  0  0  0  0  0
    0.7542   -3.5729   -2.0716 H   0  0  0  0  0  0  0  0  0  0  0  0
   -8.3083    0.9680   -0.0032 H   0  0  0  0  0  0  0  0  0  0  0  0
    5.5989    0.3235    2.8681 H   0  0  0  0  0  0  0  0  0  0  0  0
    7.3609    1.3888    2.7728 H   0  0  0  0  0  0  0  0  0  0  0  0
    8.9418   -0.6626   -1.3410 H   0  0  0  0  0  0  0  0  0  0  0  0
    0.1809   -0.2102   -2.6684 H   0  0  0  0  0  0  0  0  0  0  0  0
    0.5211    1.5370   -0.9928 H   0  0  0  0  0  0  0  0  0  0  0  0
    1.7712    1.5880   -2.2381 H   0  0  0  0  0  0  0  0  0  0  0  0
    2.8016    1.8740    0.0640 H   0  0  0  0  0  0  0  0  0  0  0  0
    2.0736    0.3289    1.8133 H   0  0  0  0  0  0  0  0  0  0  0  0
    0.6368    0.9561    0.9213 H   0  0  0  0  0  0  0  0  0  0  0  0
    1.2298   -1.4870    2.5828 H   0  0  0  0  0  0  0  0  0  0  0  0
    0.5528   -2.8236    1.5950 H   0  0  0  0  0  0  0  0  0  0  0  0
   -1.0191   -1.5957    2.9311 H   0  0  0  0  0  0  0  0  0  0  0  0
   -0.6695   -0.0952    1.9755 H   0  0  0  0  0  0  0  0  0  0  0  0
   -1.2649   -2.8353    0.7369 H   0  0  0  0  0  0  0  0  0  0  0  0
   -1.2055    0.0226   -0.3910 H   0  0  0  0  0  0  0  0  0  0  0  0
   -2.2337   -2.6710   -1.3343 H   0  0  0  0  0  0  0  0  0  0  0  0
   -3.9645   -1.0710   -2.1431 H   0  0  0  0  0  0  0  0  0  0  0  0
   -2.9975    0.3062   -1.5665 H   0  0  0  0  0  0  0  0  0  0  0  0
   -4.3791   -2.2058    2.6107 H   0  0  0  0  0  0  0  0  0  0  0  0
   -2.9226   -1.4137    3.1516 H   0  0  0  0  0  0  0  0  0  0  0  0
   -4.0124    0.5503    2.9650 H   0  0  0  0  0  0  0  0  0  0  0  0
   -5.4186   -0.2720    2.3025 H   0  0  0  0  0  0  0  0  0  0  0  0
   -2.9136    0.8077    0.9269 H   0  0  0  0  0  0  0  0  0  0  0  0
   -5.1161   -2.5978    0.0976 H   0  0  0  0  0  0  0  0  0  0  0  0
   -5.9716   -1.1060    0.5463 H   0  0  0  0  0  0  0  0  0  0  0  0
   -5.5362   -1.5135   -1.2152 H   0  0  0  0  0  0  0  0  0  0  0  0
    1.7805   -2.7388   -1.5080 H   0  0  0  0  0  0  0  0  0  0  0  0
    0.2717   -2.6365   -2.4079 H   0  0  0  0  0  0  0  0  0  0  0  0
   -4.2773    1.7954   -0.7724 H   0  0  0  0  0  0  0  0  0  0  0  0
   -6.4606    0.6241   -0.9632 H   0  0  0  0  0  0  0  0  0  0  0  0
   -6.8281    1.1027    0.8022 H   0  0  0  0  0  0  0  0  0  0  0  0
   -4.0008    3.4418    0.7491 H   0  0  0  0  0  0  0  0  0  0  0  0
   -4.7884    2.5199    2.1098 H   0  0  0  0  0  0  0  0  0  0  0  0
   -6.9323    3.0041    1.4354 H   0  0  0  0  0  0  0  0  0  0  0  0
    4.5485    1.6753   -0.1214 H   0  0  0  0  0  0  0  0  0  0  0  0
    5.7172   -1.1512    0.2006 H   0  0  0  0  0  0  0  0  0  0  0  0
    7.6553   -0.1075    0.9093 H   0  0  0  0  0  0  0  0  0  0  0  0
    8.1953    1.8407   -0.6221 H   0  0  0  0  0  0  0  0  0  0  0  0
    6.7226    1.8301   -2.6710 H   0  0  0  0  0  0  0  0  0  0  0  0
    5.9570    3.1783   -0.0901 H   0  0  0  0  0  0  0  0  0  0  0  0
    6.4143    3.8353   -1.6648 H   0  0  0  0  0  0  0  0  0  0  0  0
    4.7671    3.2246   -1.4908 H   0  0  0  0  0  0  0  0  0  0  0  0
    2.3362   -0.2452   -3.1156 H   0  0  0  0  0  0  0  0  0  0  0  0
    2.9448   -1.8371    1.0852 H   0  0  0  0  0  0  0  0  0  0  0  0
   -2.4902   -1.3398   -3.3712 H   0  0  0  0  0  0  0  0  0  0  0  0
   -3.5779   -3.5906    1.5285 H   0  0  0  0  0  0  0  0  0  0  0  0
    0.9576   -4.4418   -0.5167 H   0  0  0  0  0  0  0  0  0  0  0  0
   -6.4036    4.9445   -0.4057 H   0  0  0  0  0  0  0  0  0  0  0  0
    5.5783   -0.3752    2.4550 H   0  0  0  0  0  0  0  0  0  0  0  0
    7.1756    1.3317    2.3570 H   0  0  0  0  0  0  0  0  0  0  0  0
    8.0631    0.1703   -2.4194 H   0  0  0  0  0  0  0  0  0  0  0  0
  1  2  1  0
  2  3  1  0
  3  4  1  0
  4  5  1  0
  5  6  1  0
  6  7  1  0
  7  8  1  0
  8  9  1  0
  1 10  1  0
  5 10  1  0
  9 10  1  0
  9 11  1  0
 11 12  1  0
 12 13  1  0
  8 14  1  0
 13 14  1  0
 14 15  1  0
 15 16  1  0
 13 17  1  0
 16 17  1  0
 13 18  1  6
 10 19  1  6
 17 20  1  0
 20 21  1  0
 20 22  1  0
 22 23  1  0
 24 25  1  0
 25 26  1  0
 26 27  1  0
 27 28  1  0
 28 29  1  0
  1 30  1  0
  3 31  1  0
 24 31  1  0
  5 32  1  6
 11 33  1  0
 14 34  1  6
 19 35  1  0
 21 36  1  0
 23 36  1  0
 23 37  1  0
 25 38  1  0
 26 39  1  0
 27 40  1  0
 24 41  1  0
 28 41  1  0
 42 43  1  0
 43 44  1  0
 44 45  1  0
 45 46  1  0
 46 47  1  0
 47 48  1  0
 48 49  1  0
 49 50  1  0
 42 51  1  0
 46 51  1  0
 50 51  1  0
 50 52  1  0
 52 53  1  0
 53 54  1  0
 49 55  1  0
 54 55  1  0
 55 56  1  0
 56 57  1  0
 54 58  1  0
 57 58  1  0
 54 59  1  6
 51 60  1  6
 58 61  1  0
 61 62  1  0
 61 63  1  0
 63 64  1  0
 65 66  1  0
 66 67  1  0
 67 68  1  0
 68 69  1  0
 69 70  1  0
 42 71  1  0
 44 72  1  0
 65 72  1  0
 46 73  1  6
 52 74  1  0
 55 75  1  6
 60 76  1  0
 62 77  1  0
 64 77  1  0
 64 78  1  0
 66 79  1  0
 67 80  1  0
 68 81  1  0
 65 82  1  0
 69 82  1  0
  1 83  1  1
  2 84  1  0
  2 85  1  0
  3 86  1  1
  4 87  1  0
  4 88  1  0
  6 89  1  0
  6 90  1  0
  7 91  1  0
  7 92  1  0
  8 93  1  6
  9 94  1  1
 11 95  1  6
 12 96  1  0
 12 97  1  0
 15 98  1  0
 15 99  1  0
 16100  1  0
 16101  1  0
 17102  1  1
 18103  1  0
 18104  1  0
 18105  1  0
 19106  1  0
 19107  1  0
 20108  1  1
 21109  1  0
 21110  1  0
 22111  1  0
 22112  1  0
 23113  1  0
 24114  1  1
 25115  1  6
 26116  1  1
 27117  1  1
 28118  1  6
 29119  1  0
 29120  1  0
 29121  1  0
 30122  1  0
 32123  1  0
 33124  1  0
 34125  1  0
 35126  1  0
 37127  1  0
 38128  1  0
 39129  1  0
 40130  1  0
 42131  1  6
 43132  1  0
 43133  1  0
 44134  1  1
 45135  1  0
 45136  1  0
 47137  1  0
 47138  1  0
 48139  1  0
 48140  1  0
 49141  1  6
 50142  1  1
 52143  1  1
 53144  1  0
 53145  1  0
 56146  1  0
 56147  1  0
 57148  1  0
 57149  1  0
 58150  1  1
 59151  1  0
 59152  1  0
 59153  1  0
 60154  1  0
 60155  1  0
 61156  1  0
 62157  1  0
 62158  1  0
 63159  1  0
 63160  1  0
 64161  1  0
 65162  1  1
 66163  1  6
 67164  1  1
 68165  1  1
 69166  1  6
 70167  1  0
 70168  1  0
 70169  1  0
 71170  1  0
 73171  1  0
 74172  1  0
 75173  1  0
 76174  1  0
 78175  1  0
 79176  1  0
 80177  1  0
 81178  1  0
M  END
>  <PDBID>  (1) 
3N23

>  <PDB ID>  (1) 
3N23

>  <Generic Name>  (1) 
Ouabain

>  <Brand Name>  (1) 
Strodival

>  <DrugBank ID>  (1) 
DB01092

>  <ATC Codes>  (1) 
C01AC01

>  <Ligand ID>  (1) 
OBN

>  <Target Name>  (1) 
Sodium/potassium-transporting ATPase subunit alpha-1

>  <UniProt ID>  (1) 
P05023

>  <PDB ID.1>  (1) 
3N23

>  <Seq. Identity>  (1) 
95%

$$$$
