PDB_DB01051_02
     RDKit          3D

408420  0  0  0  0  0  0  0  0999 V2000
   -9.1037    1.8987    1.9136 C   0  0  0  0  0  0  0  0  0  0  0  0
   -8.7003    0.6512    1.4459 O   0  0  0  0  0  0  0  0  0  0  0  0
  -10.5973    0.8900   -1.0786 N   0  0  0  0  0  0  0  0  0  0  0  0
   -9.3975    0.3748   -1.7431 C   0  0  0  0  0  0  0  0  0  0  0  0
   -9.5525    0.5354   -3.1004 O   0  0  0  0  0  0  0  0  0  0  0  0
   -8.2860    1.0330   -1.2369 O   0  0  0  0  0  0  0  0  0  0  0  0
   -7.3983    0.6812    0.9494 C   0  0  2  0  0  0  0  0  0  0  0  0
   -7.4599    0.2010   -0.4917 C   0  0  2  0  0  0  0  0  0  0  0  0
   -6.0617    0.1661   -1.0844 C   0  0  1  0  0  0  0  0  0  0  0  0
   -5.8696    1.3316   -1.8394 O   0  0  0  0  0  0  0  0  0  0  0  0
   -5.0147    0.0647    0.0033 C   0  0  1  0  0  0  0  0  0  0  0  0
   -5.5227   -0.8270    0.9688 O   0  0  0  0  0  0  0  0  0  0  0  0
   -6.5251   -0.2813    1.7239 C   0  0  0  0  0  0  0  0  0  0  0  0
   -5.9606    0.3326    2.9726 C   0  0  0  0  0  0  0  0  0  0  0  0
   -7.4444   -1.4282    2.1644 C   0  0  0  0  0  0  0  0  0  0  0  0
   -3.8671   -0.4552   -0.5373 O   0  0  0  0  0  0  0  0  0  0  0  0
   -2.7602    0.4276   -0.4663 C   0  0  0  0  0  0  0  0  0  0  0  0
   -1.7621   -0.1828    0.4180 C   0  0  1  0  0  0  0  0  0  0  0  0
   -2.3565   -1.3779    1.1715 C   0  0  0  0  0  0  0  0  0  0  0  0
   -0.4629   -0.6356   -0.1739 C   0  0  0  0  0  0  0  0  0  0  0  0
   -0.0946    0.0332   -1.4450 C   0  0  0  0  0  0  0  0  0  0  0  0
   -1.2851   -0.1847   -2.3964 C   0  0  0  0  0  0  0  0  0  0  0  0
   -2.3616    0.7423   -1.8516 C   0  0  0  0  0  0  0  0  0  0  0  0
    0.5762   -0.4589    0.7240 O   0  0  0  0  0  0  0  0  0  0  0  0
    1.8493   -0.6925    0.1981 C   0  0  0  0  0  0  0  0  0  0  0  0
    2.5685   -1.5023    1.1064 O   0  0  0  0  0  0  0  0  0  0  0  0
    1.8614   -1.4239   -1.1034 C   0  0  1  0  0  0  0  0  0  0  0  0
    1.1181   -0.5029   -2.0953 C   0  0  0  0  0  0  0  0  0  0  0  0
    1.9373    0.5509   -2.4912 O   0  0  0  0  0  0  0  0  0  0  0  0
    3.1020   -1.7910   -1.5623 N   0  0  0  0  0  0  0  0  0  0  0  0
    4.1645   -1.1184   -2.0452 C   0  0  0  0  0  0  0  0  0  0  0  0
    5.1778   -2.0566   -2.4902 O   0  0  0  0  0  0  0  0  0  0  0  0
    4.9159   -0.1540   -1.1837 C   0  0  1  0  0  0  0  0  0  0  0  0
    5.5270   -0.7069    0.0526 C   0  0  0  0  0  0  0  0  0  0  0  0
    6.9540   -0.1319    0.2846 C   0  0  0  0  0  0  0  0  0  0  0  0
    7.7974   -0.7459   -0.8131 C   0  0  1  0  0  0  0  0  0  0  0  0
    7.7147   -2.1577   -0.7964 O   0  0  0  0  0  0  0  0  0  0  0  0
    7.2692   -0.2459   -2.1137 C   0  0  0  0  0  0  0  0  0  0  0  0
    6.0058    0.5362   -2.0389 C   0  0  0  0  0  0  0  0  0  0  0  0
    7.3368   -0.5924    1.6410 C   0  0  0  0  0  0  0  0  0  0  0  0
    8.6514   -0.2042    2.1822 C   0  0  0  0  0  0  0  0  0  0  0  0
    8.9335    1.2338    2.4016 C   0  0  0  0  0  0  0  0  0  0  0  0
    8.8848    2.1334    1.2038 C   0  0  0  0  0  0  0  0  0  0  0  0
    8.1213    1.8117    3.5553 C   0  0  0  0  0  0  0  0  0  0  0  0
   -9.1309    1.8672    0.9557 C   0  0  0  0  0  0  0  0  0  0  0  0
   -8.6182    0.7605    1.6293 O   0  0  0  0  0  0  0  0  0  0  0  0
   -9.7307   -0.5390   -1.6696 N   0  0  0  0  0  0  0  0  0  0  0  0
   -8.7184   -1.4432   -1.1387 C   0  0  0  0  0  0  0  0  0  0  0  0
   -8.3924   -2.3027   -2.2056 O   0  0  0  0  0  0  0  0  0  0  0  0
   -7.5942   -0.7654   -0.7349 O   0  0  0  0  0  0  0  0  0  0  0  0
   -7.3079    0.4841    1.2452 C   0  0  2  0  0  0  0  0  0  0  0  0
   -7.3205   -0.9035    0.6104 C   0  0  2  0  0  0  0  0  0  0  0  0
   -5.9385   -1.5237    0.7831 C   0  0  1  0  0  0  0  0  0  0  0  0
   -5.6136   -2.2443   -0.3557 O   0  0  0  0  0  0  0  0  0  0  0  0
   -4.9163   -0.4238    0.9544 C   0  0  1  0  0  0  0  0  0  0  0  0
   -5.1200    0.0871    2.2359 O   0  0  0  0  0  0  0  0  0  0  0  0
   -6.3835    0.5696    2.4105 C   0  0  0  0  0  0  0  0  0  0  0  0
   -6.3543    2.0374    2.8490 C   0  0  0  0  0  0  0  0  0  0  0  0
   -7.0579   -0.1887    3.5643 C   0  0  0  0  0  0  0  0  0  0  0  0
   -3.6709   -0.9246    0.7576 O   0  0  0  0  0  0  0  0  0  0  0  0
   -2.9361   -0.3696   -0.2897 C   0  0  0  0  0  0  0  0  0  0  0  0
   -1.7496    0.3832    0.1696 C   0  0  0  0  0  0  0  0  0  0  0  0
   -1.9613    1.8698   -0.1316 C   0  0  0  0  0  0  0  0  0  0  0  0
   -0.4085   -0.0799   -0.2415 C   0  0  0  0  0  0  0  0  0  0  0  0
   -0.3046   -0.5713   -1.6583 C   0  0  0  0  0  0  0  0  0  0  0  0
   -1.6543   -0.6117   -2.3354 C   0  0  0  0  0  0  0  0  0  0  0  0
   -2.5924   -1.3402   -1.3610 C   0  0  0  0  0  0  0  0  0  0  0  0
    0.4355    1.0638   -0.2044 O   0  0  0  0  0  0  0  0  0  0  0  0
    1.7441    0.6856   -0.2885 C   0  0  0  0  0  0  0  0  0  0  0  0
    1.9743   -0.3601    0.6370 O   0  0  0  0  0  0  0  0  0  0  0  0
    2.0671    0.2235   -1.6922 C   0  0  1  0  0  0  0  0  0  0  0  0
    0.6988    0.2236   -2.4536 C   0  0  0  0  0  0  0  0  0  0  0  0
    0.2986    1.4947   -2.7648 O   0  0  0  0  0  0  0  0  0  0  0  0
    2.8909    1.0882   -2.4078 N   0  0  0  0  0  0  0  0  0  0  0  0
    4.1611    1.4913   -2.0683 C   0  0  0  0  0  0  0  0  0  0  0  0
    4.5463    2.4510   -3.0852 O   0  0  0  0  0  0  0  0  0  0  0  0
    5.3156    0.5893   -1.9466 C   0  0  0  0  0  0  0  0  0  0  0  0
    5.3253   -0.4988   -0.9546 C   0  0  0  0  0  0  0  0  0  0  0  0
    5.6491   -0.1085    0.4603 C   0  0  0  0  0  0  0  0  0  0  0  0
    6.0246    1.3306    0.6529 C   0  0  0  0  0  0  0  0  0  0  0  0
    6.8765    1.3452    1.7921 O   0  0  0  0  0  0  0  0  0  0  0  0
    6.7631    1.9792   -0.4495 C   0  0  0  0  0  0  0  0  0  0  0  0
    6.6321    1.3549   -1.8049 C   0  0  0  0  0  0  0  0  0  0  0  0
    6.6146   -1.0314    1.1563 C   0  0  0  0  0  0  0  0  0  0  0  0
    7.9578   -1.1515    0.5383 C   0  0  0  0  0  0  0  0  0  0  0  0
    8.8666   -2.0957    1.3078 C   0  0  0  0  0  0  0  0  0  0  0  0
   10.2196   -2.1793    0.6345 C   0  0  0  0  0  0  0  0  0  0  0  0
    9.0742   -1.6495    2.7238 C   0  0  0  0  0  0  0  0  0  0  0  0
   -8.7371    1.4047    2.0400 C   0  0  0  0  0  0  0  0  0  0  0  0
   -8.0820    0.1965    2.1788 O   0  0  0  0  0  0  0  0  0  0  0  0
   -9.6530    0.1218   -1.3150 N   0  0  0  0  0  0  0  0  0  0  0  0
   -8.5621   -0.8381   -1.2370 C   0  0  0  0  0  0  0  0  0  0  0  0
   -8.3963   -1.3305   -2.5343 O   0  0  0  0  0  0  0  0  0  0  0  0
   -7.4153   -0.2686   -0.7429 O   0  0  0  0  0  0  0  0  0  0  0  0
   -6.8611    0.1722    1.4929 C   0  0  2  0  0  0  0  0  0  0  0  0
   -6.9466   -0.8819    0.4268 C   0  0  2  0  0  0  0  0  0  0  0  0
   -5.5415   -1.3649    0.1141 C   0  0  1  0  0  0  0  0  0  0  0  0
   -5.3837   -1.5864   -1.2307 O   0  0  0  0  0  0  0  0  0  0  0  0
   -4.5366   -0.3325    0.5780 C   0  0  1  0  0  0  0  0  0  0  0  0
   -4.5491   -0.3980    1.9705 O   0  0  0  0  0  0  0  0  0  0  0  0
   -5.7702   -0.0502    2.4857 C   0  0  0  0  0  0  0  0  0  0  0  0
   -5.6716    1.2189    3.3437 C   0  0  0  0  0  0  0  0  0  0  0  0
   -6.2240   -1.1850    3.4133 C   0  0  0  0  0  0  0  0  0  0  0  0
   -3.3213   -0.6135    0.0216 O   0  0  0  0  0  0  0  0  0  0  0  0
   -2.8254    0.3903   -0.8339 C   0  0  0  0  0  0  0  0  0  0  0  0
   -1.6331    1.0581   -0.2728 C   0  0  0  0  0  0  0  0  0  0  0  0
   -1.7196    2.5559   -0.6216 C   0  0  0  0  0  0  0  0  0  0  0  0
   -0.3319    0.5614   -0.7525 C   0  0  0  0  0  0  0  0  0  0  0  0
   -0.4462   -0.3196   -1.9841 C   0  0  0  0  0  0  0  0  0  0  0  0
   -1.4871    0.2269   -2.9115 C   0  0  0  0  0  0  0  0  0  0  0  0
   -2.8175   -0.0475   -2.2523 C   0  0  0  0  0  0  0  0  0  0  0  0
    0.3037   -0.1987    0.2147 O   0  0  0  0  0  0  0  0  0  0  0  0
    1.6842   -0.2658   -0.1962 C   0  0  0  0  0  0  0  0  0  0  0  0
    2.2807   -0.9237    0.8921 O   0  0  0  0  0  0  0  0  0  0  0  0
    1.7396   -1.1455   -1.3782 C   0  0  1  0  0  0  0  0  0  0  0  0
    0.9140   -0.4992   -2.5347 C   0  0  0  0  0  0  0  0  0  0  0  0
    1.5295    0.6207   -3.0285 O   0  0  0  0  0  0  0  0  0  0  0  0
    2.9298   -1.6726   -1.8575 N   0  0  0  0  0  0  0  0  0  0  0  0
    3.9778   -0.9572   -2.3954 C   0  0  0  0  0  0  0  0  0  0  0  0
    4.9268   -1.8409   -2.9974 O   0  0  0  0  0  0  0  0  0  0  0  0
    4.7391   -0.0578   -1.4968 C   0  0  1  0  0  0  0  0  0  0  0  0
    5.4073   -0.8216   -0.3437 C   0  0  0  0  0  0  0  0  0  0  0  0
    5.6897    0.1887    0.7184 C   0  0  2  0  0  0  0  0  0  0  0  0
    6.2004    1.4548    0.1342 C   0  0  0  0  0  0  0  0  0  0  0  0
    7.1181    2.1036    0.9450 O   0  0  0  0  0  0  0  0  0  0  0  0
    6.7300    1.3801   -1.2627 C   0  0  0  0  0  0  0  0  0  0  0  0
    5.8858    0.6217   -2.2353 C   0  0  0  0  0  0  0  0  0  0  0  0
    6.1106   -0.2632    2.0311 C   0  0  0  0  0  0  0  0  0  0  0  0
    7.2545   -1.0734    2.3694 C   0  0  0  0  0  0  0  0  0  0  0  0
    8.6512   -0.6482    2.1177 C   0  0  0  0  0  0  0  0  0  0  0  0
    9.0958   -0.4054    0.7324 C   0  0  0  0  0  0  0  0  0  0  0  0
    9.0380    0.5501    3.0047 C   0  0  0  0  0  0  0  0  0  0  0  0
   -9.0262    1.3509    2.3259 C   0  0  0  0  0  0  0  0  0  0  0  0
   -8.6956    0.1934    1.5838 O   0  0  0  0  0  0  0  0  0  0  0  0
  -10.5231    1.2879   -0.9185 N   0  0  0  0  0  0  0  0  0  0  0  0
   -9.3175    0.8135   -1.5779 C   0  0  0  0  0  0  0  0  0  0  0  0
   -9.3877    1.1911   -2.9094 O   0  0  0  0  0  0  0  0  0  0  0  0
   -8.1750    1.2651   -0.9457 O   0  0  0  0  0  0  0  0  0  0  0  0
   -7.4307    0.3078    1.0702 C   0  0  2  0  0  0  0  0  0  0  0  0
   -7.3994    0.2284   -0.4375 C   0  0  2  0  0  0  0  0  0  0  0  0
   -6.0168    0.1635   -0.9907 C   0  0  1  0  0  0  0  0  0  0  0  0
   -5.7975    1.3685   -1.6878 O   0  0  0  0  0  0  0  0  0  0  0  0
   -4.9259   -0.0309   -0.0225 C   0  0  1  0  0  0  0  0  0  0  0  0
   -5.2219   -0.4057    1.2477 O   0  0  0  0  0  0  0  0  0  0  0  0
   -6.4898   -0.7967    1.5417 C   0  0  0  0  0  0  0  0  0  0  0  0
   -6.5903   -0.9084    3.0686 C   0  0  0  0  0  0  0  0  0  0  0  0
   -6.8866   -2.1408    0.9853 C   0  0  0  0  0  0  0  0  0  0  0  0
   -4.0305   -0.9846   -0.5321 O   0  0  0  0  0  0  0  0  0  0  0  0
   -2.7431   -0.4910   -0.7269 C   0  0  0  0  0  0  0  0  0  0  0  0
   -1.7598   -1.2279    0.1248 C   0  0  1  0  0  0  0  0  0  0  0  0
   -2.2219   -2.6670    0.2460 C   0  0  0  0  0  0  0  0  0  0  0  0
   -0.3391   -1.1580   -0.3303 C   0  0  0  0  0  0  0  0  0  0  0  0
   -0.1644   -0.3383   -1.5780 C   0  0  0  0  0  0  0  0  0  0  0  0
   -1.1102   -0.9735   -2.5961 C   0  0  0  0  0  0  0  0  0  0  0  0
   -2.4793   -0.4851   -2.1855 C   0  0  0  0  0  0  0  0  0  0  0  0
    0.4823   -0.6523    0.6475 O   0  0  0  0  0  0  0  0  0  0  0  0
    1.7390   -0.2493    0.2752 C   0  0  0  0  0  0  0  0  0  0  0  0
    2.5883   -0.7234    1.3178 O   0  0  0  0  0  0  0  0  0  0  0  0
    2.1756   -0.8328   -1.0331 C   0  0  1  0  0  0  0  0  0  0  0  0
    1.2332   -0.3294   -2.0986 C   0  0  0  0  0  0  0  0  0  0  0  0
    1.5189    0.9265   -2.5556 O   0  0  0  0  0  0  0  0  0  0  0  0
    3.5206   -0.8172   -1.3735 N   0  0  0  0  0  0  0  0  0  0  0  0
    4.3369    0.2461   -1.6131 C   0  0  2  0  0  0  0  0  0  0  0  0
    5.5880   -0.2777   -2.0664 O   0  0  0  0  0  0  0  0  0  0  0  0
    4.7170    1.2285   -0.5435 C   0  0  1  0  0  0  0  0  0  0  0  0
    5.4562    0.5131    0.5582 C   0  0  0  0  0  0  0  0  0  0  0  0
    6.7891    1.1902    0.8496 C   0  0  0  0  0  0  0  0  0  0  0  0
    6.4203    2.6767    1.0500 C   0  0  0  0  0  0  0  0  0  0  0  0
    7.3981    3.3393    1.7683 O   0  0  0  0  0  0  0  0  0  0  0  0
    6.2117    3.2515   -0.3214 C   0  0  0  0  0  0  0  0  0  0  0  0
    5.6734    2.2153   -1.2397 C   0  0  0  0  0  0  0  0  0  0  0  0
    7.4161    0.6391    2.0737 C   0  0  0  0  0  0  0  0  0  0  0  0
    7.7799   -0.7896    2.0988 C   0  0  0  0  0  0  0  0  0  0  0  0
    8.8398   -1.2778    1.1884 C   0  0  0  0  0  0  0  0  0  0  0  0
    8.6696   -1.1391   -0.2710 C   0  0  0  0  0  0  0  0  0  0  0  0
   10.2092   -0.6892    1.5441 C   0  0  0  0  0  0  0  0  0  0  0  0
   -9.0851    2.6671    1.1296 H   0  0  0  0  0  0  0  0  0  0  0  0
  -10.1510    1.7993    2.2690 H   0  0  0  0  0  0  0  0  0  0  0  0
   -8.4974    2.1712    2.7984 H   0  0  0  0  0  0  0  0  0  0  0  0
  -11.4062    0.8203   -1.7167 H   0  0  0  0  0  0  0  0  0  0  0  0
  -10.4590    1.8095   -0.6472 H   0  0  0  0  0  0  0  0  0  0  0  0
   -9.3124   -0.6919   -1.4123 H   0  0  0  0  0  0  0  0  0  0  0  0
   -9.9392   -0.2435   -3.5707 H   0  0  0  0  0  0  0  0  0  0  0  0
   -6.9519    1.6958    1.0295 H   0  0  0  0  0  0  0  0  0  0  0  0
   -7.9192   -0.8093   -0.4864 H   0  0  0  0  0  0  0  0  0  0  0  0
   -6.0315   -0.6856   -1.7873 H   0  0  0  0  0  0  0  0  0  0  0  0
   -6.1587    1.2322   -2.7818 H   0  0  0  0  0  0  0  0  0  0  0  0
   -4.8625    1.0877    0.4095 H   0  0  0  0  0  0  0  0  0  0  0  0
   -6.5238    0.0033    3.8826 H   0  0  0  0  0  0  0  0  0  0  0  0
   -5.9136    1.4401    2.9161 H   0  0  0  0  0  0  0  0  0  0  0  0
   -4.9282   -0.0441    3.1232 H   0  0  0  0  0  0  0  0  0  0  0  0
   -8.4433   -1.0525    2.4647 H   0  0  0  0  0  0  0  0  0  0  0  0
   -7.6270   -2.1472    1.3320 H   0  0  0  0  0  0  0  0  0  0  0  0
   -6.9443   -2.0120    2.9813 H   0  0  0  0  0  0  0  0  0  0  0  0
   -3.1938    1.3597    0.0079 H   0  0  0  0  0  0  0  0  0  0  0  0
   -1.5043    0.5511    1.2295 H   0  0  0  0  0  0  0  0  0  0  0  0
   -2.9085   -1.0844    2.0598 H   0  0  0  0  0  0  0  0  0  0  0  0
   -1.5371   -2.0696    1.4930 H   0  0  0  0  0  0  0  0  0  0  0  0
   -3.0139   -1.9684    0.4988 H   0  0  0  0  0  0  0  0  0  0  0  0
   -0.5329   -1.7351   -0.3730 H   0  0  0  0  0  0  0  0  0  0  0  0
   -0.0109    1.1314   -1.2458 H   0  0  0  0  0  0  0  0  0  0  0  0
   -1.6262   -1.2310   -2.2903 H   0  0  0  0  0  0  0  0  0  0  0  0
   -1.0606    0.1247   -3.4174 H   0  0  0  0  0  0  0  0  0  0  0  0
   -3.2252    0.6690   -2.5768 H   0  0  0  0  0  0  0  0  0  0  0  0
   -1.9700    1.7731   -1.9756 H   0  0  0  0  0  0  0  0  0  0  0  0
    2.3083    0.2912    0.0901 H   0  0  0  0  0  0  0  0  0  0  0  0
    2.6658   -1.0034    1.9498 H   0  0  0  0  0  0  0  0  0  0  0  0
    1.2241   -2.3654   -1.0444 H   0  0  0  0  0  0  0  0  0  0  0  0
    0.8710   -1.1146   -2.9902 H   0  0  0  0  0  0  0  0  0  0  0  0
    1.6918    1.3404   -1.9505 H   0  0  0  0  0  0  0  0  0  0  0  0
    3.2870   -2.8188   -1.4378 H   0  0  0  0  0  0  0  0  0  0  0  0
    3.9618   -0.5957   -3.0623 H   0  0  0  0  0  0  0  0  0  0  0  0
    4.7583   -2.7844   -2.9818 H   0  0  0  0  0  0  0  0  0  0  0  0
    4.2439    0.6836   -0.9170 H   0  0  0  0  0  0  0  0  0  0  0  0
    5.6521   -1.8020    0.0884 H   0  0  0  0  0  0  0  0  0  0  0  0
    4.9304   -0.4358    0.9785 H   0  0  0  0  0  0  0  0  0  0  0  0
    6.8577    0.9305    0.1162 H   0  0  0  0  0  0  0  0  0  0  0  0
    8.8707   -0.5322   -0.7341 H   0  0  0  0  0  0  0  0  0  0  0  0
    8.0937   -2.5492    0.0097 H   0  0  0  0  0  0  0  0  0  0  0  0
    8.0408    0.4652   -2.5459 H   0  0  0  0  0  0  0  0  0  0  0  0
    7.2245   -1.0552   -2.8897 H   0  0  0  0  0  0  0  0  0  0  0  0
    5.5788    0.6236   -3.0512 H   0  0  0  0  0  0  0  0  0  0  0  0
    6.1244    1.5503   -1.6399 H   0  0  0  0  0  0  0  0  0  0  0  0
    7.2587   -1.7044    1.6566 H   0  0  0  0  0  0  0  0  0  0  0  0
    6.5517   -0.2190    2.3464 H   0  0  0  0  0  0  0  0  0  0  0  0
    9.5147   -0.6557    1.6284 H   0  0  0  0  0  0  0  0  0  0  0  0
    8.7322   -0.7002    3.2011 H   0  0  0  0  0  0  0  0  0  0  0  0
   10.0048    1.2970    2.7735 H   0  0  0  0  0  0  0  0  0  0  0  0
    9.6958    2.9293    1.2644 H   0  0  0  0  0  0  0  0  0  0  0  0
    9.1315    1.5767    0.2880 H   0  0  0  0  0  0  0  0  0  0  0  0
    7.9473    2.7312    1.1432 H   0  0  0  0  0  0  0  0  0  0  0  0
    8.6904    2.6809    3.9435 H   0  0  0  0  0  0  0  0  0  0  0  0
    7.1512    2.2138    3.1953 H   0  0  0  0  0  0  0  0  0  0  0  0
    8.0517    1.0431    4.3251 H   0  0  0  0  0  0  0  0  0  0  0  0
   -9.1513    1.7408   -0.1318 H   0  0  0  0  0  0  0  0  0  0  0  0
  -10.1423    2.0765    1.3627 H   0  0  0  0  0  0  0  0  0  0  0  0
   -8.4687    2.7379    1.2044 H   0  0  0  0  0  0  0  0  0  0  0  0
  -10.6406   -0.9991   -1.7866 H   0  0  0  0  0  0  0  0  0  0  0  0
   -9.4064   -0.0071   -2.5001 H   0  0  0  0  0  0  0  0  0  0  0  0
   -9.1752   -1.9700   -0.2911 H   0  0  0  0  0  0  0  0  0  0  0  0
   -8.0361   -3.1622   -1.8937 H   0  0  0  0  0  0  0  0  0  0  0  0
   -7.0265    1.2534    0.4774 H   0  0  0  0  0  0  0  0  0  0  0  0
   -8.0474   -1.5304    1.1556 H   0  0  0  0  0  0  0  0  0  0  0  0
   -5.8838   -2.1851    1.6532 H   0  0  0  0  0  0  0  0  0  0  0  0
   -5.7461   -1.6691   -1.1599 H   0  0  0  0  0  0  0  0  0  0  0  0
   -5.2091    0.3780    0.2134 H   0  0  0  0  0  0  0  0  0  0  0  0
   -5.4858    2.1534    3.5482 H   0  0  0  0  0  0  0  0  0  0  0  0
   -7.3057    2.3153    3.3489 H   0  0  0  0  0  0  0  0  0  0  0  0
   -6.1715    2.6471    1.9532 H   0  0  0  0  0  0  0  0  0  0  0  0
   -8.1094   -0.4050    3.3569 H   0  0  0  0  0  0  0  0  0  0  0  0
   -6.5262   -1.1613    3.7299 H   0  0  0  0  0  0  0  0  0  0  0  0
   -6.9878    0.4032    4.5148 H   0  0  0  0  0  0  0  0  0  0  0  0
   -3.6606    0.3790   -0.7373 H   0  0  0  0  0  0  0  0  0  0  0  0
   -1.7540    0.3287    1.3077 H   0  0  0  0  0  0  0  0  0  0  0  0
   -1.0450    2.3260   -0.5222 H   0  0  0  0  0  0  0  0  0  0  0  0
   -2.8323    1.9867   -0.8103 H   0  0  0  0  0  0  0  0  0  0  0  0
   -2.2256    2.4282    0.7858 H   0  0  0  0  0  0  0  0  0  0  0  0
    0.0490   -0.7979    0.4655 H   0  0  0  0  0  0  0  0  0  0  0  0
    0.0636   -1.6159   -1.6349 H   0  0  0  0  0  0  0  0  0  0  0  0
   -1.6348   -1.1859   -3.2788 H   0  0  0  0  0  0  0  0  0  0  0  0
   -2.0496    0.3934   -2.4841 H   0  0  0  0  0  0  0  0  0  0  0  0
   -3.4629   -1.7478   -1.9096 H   0  0  0  0  0  0  0  0  0  0  0  0
   -1.9643   -2.1783   -0.9378 H   0  0  0  0  0  0  0  0  0  0  0  0
    2.3793    1.5247    0.0376 H   0  0  0  0  0  0  0  0  0  0  0  0
    1.6753    0.0071    1.5192 H   0  0  0  0  0  0  0  0  0  0  0  0
    2.3196   -0.8501   -1.6629 H   0  0  0  0  0  0  0  0  0  0  0  0
    0.8982   -0.3434   -3.3980 H   0  0  0  0  0  0  0  0  0  0  0  0
    0.9073    2.1811   -2.3931 H   0  0  0  0  0  0  0  0  0  0  0  0
    2.7556    0.9809   -3.4377 H   0  0  0  0  0  0  0  0  0  0  0  0
    4.1961    2.1586   -1.1416 H   0  0  0  0  0  0  0  0  0  0  0  0
    4.9447    1.8661   -3.7992 H   0  0  0  0  0  0  0  0  0  0  0  0
    5.4297    0.0844   -2.9655 H   0  0  0  0  0  0  0  0  0  0  0  0
    6.1193   -1.2457   -1.3006 H   0  0  0  0  0  0  0  0  0  0  0  0
    4.4021   -1.0943   -1.0099 H   0  0  0  0  0  0  0  0  0  0  0  0
    4.6807   -0.2316    1.0385 H   0  0  0  0  0  0  0  0  0  0  0  0
    5.1581    1.9678    1.0027 H   0  0  0  0  0  0  0  0  0  0  0  0
    6.3045    1.2671    2.6055 H   0  0  0  0  0  0  0  0  0  0  0  0
    6.3677    3.0340   -0.5614 H   0  0  0  0  0  0  0  0  0  0  0  0
    7.8417    2.1446   -0.1838 H   0  0  0  0  0  0  0  0  0  0  0  0
    7.4402    0.6034   -1.9166 H   0  0  0  0  0  0  0  0  0  0  0  0
    6.7564    2.0874   -2.6267 H   0  0  0  0  0  0  0  0  0  0  0  0
    6.1321   -2.0490    1.2258 H   0  0  0  0  0  0  0  0  0  0  0  0
    6.6886   -0.6956    2.2132 H   0  0  0  0  0  0  0  0  0  0  0  0
    8.5086   -0.2043    0.4528 H   0  0  0  0  0  0  0  0  0  0  0  0
    7.8784   -1.5828   -0.4745 H   0  0  0  0  0  0  0  0  0  0  0  0
    8.4467   -3.1326    1.3495 H   0  0  0  0  0  0  0  0  0  0  0  0
   11.0468   -2.1767    1.3572 H   0  0  0  0  0  0  0  0  0  0  0  0
   10.2365   -3.0439   -0.0644 H   0  0  0  0  0  0  0  0  0  0  0  0
   10.3293   -1.2553    0.0150 H   0  0  0  0  0  0  0  0  0  0  0  0
    9.9991   -2.1453    3.0966 H   0  0  0  0  0  0  0  0  0  0  0  0
    9.2694   -0.5502    2.7880 H   0  0  0  0  0  0  0  0  0  0  0  0
    8.2633   -1.9588    3.4095 H   0  0  0  0  0  0  0  0  0  0  0  0
   -8.1670    2.2737    2.4216 H   0  0  0  0  0  0  0  0  0  0  0  0
   -8.9258    1.5962    0.9439 H   0  0  0  0  0  0  0  0  0  0  0  0
   -9.7375    1.3038    2.5037 H   0  0  0  0  0  0  0  0  0  0  0  0
  -10.5126   -0.3067   -1.7067 H   0  0  0  0  0  0  0  0  0  0  0  0
   -9.3674    0.9869   -1.8389 H   0  0  0  0  0  0  0  0  0  0  0  0
   -8.8682   -1.6652   -0.5962 H   0  0  0  0  0  0  0  0  0  0  0  0
   -9.2638   -1.4170   -3.0024 H   0  0  0  0  0  0  0  0  0  0  0  0
   -6.7645    1.1895    1.0109 H   0  0  0  0  0  0  0  0  0  0  0  0
   -7.5681   -1.7107    0.7710 H   0  0  0  0  0  0  0  0  0  0  0  0
   -5.3314   -2.2969    0.6795 H   0  0  0  0  0  0  0  0  0  0  0  0
   -5.8649   -2.4112   -1.4724 H   0  0  0  0  0  0  0  0  0  0  0  0
   -4.9531    0.6519    0.2624 H   0  0  0  0  0  0  0  0  0  0  0  0
   -4.7612    1.1991    3.9691 H   0  0  0  0  0  0  0  0  0  0  0  0
   -6.5938    1.2263    3.9670 H   0  0  0  0  0  0  0  0  0  0  0  0
   -5.7286    2.1108    2.6865 H   0  0  0  0  0  0  0  0  0  0  0  0
   -7.3209   -1.1058    3.6057 H   0  0  0  0  0  0  0  0  0  0  0  0
   -6.0513   -2.1797    2.9556 H   0  0  0  0  0  0  0  0  0  0  0  0
   -5.6995   -1.0907    4.3689 H   0  0  0  0  0  0  0  0  0  0  0  0
   -3.6617    1.1783   -0.7755 H   0  0  0  0  0  0  0  0  0  0  0  0
   -1.6083    1.0047    0.8533 H   0  0  0  0  0  0  0  0  0  0  0  0
   -1.4197    3.1475    0.2788 H   0  0  0  0  0  0  0  0  0  0  0  0
   -0.9536    2.7980   -1.3828 H   0  0  0  0  0  0  0  0  0  0  0  0
   -2.6940    2.8353   -1.0146 H   0  0  0  0  0  0  0  0  0  0  0  0
    0.3553    1.4299   -0.9553 H   0  0  0  0  0  0  0  0  0  0  0  0
   -0.8057   -1.3111   -1.6297 H   0  0  0  0  0  0  0  0  0  0  0  0
   -1.4362   -0.3670   -3.8525 H   0  0  0  0  0  0  0  0  0  0  0  0
   -1.3893    1.2823   -3.1666 H   0  0  0  0  0  0  0  0  0  0  0  0
   -3.6566    0.4186   -2.8288 H   0  0  0  0  0  0  0  0  0  0  0  0
   -2.9375   -1.1745   -2.3447 H   0  0  0  0  0  0  0  0  0  0  0  0
    1.9608    0.7757   -0.3080 H   0  0  0  0  0  0  0  0  0  0  0  0
    1.8644   -1.8147    0.9605 H   0  0  0  0  0  0  0  0  0  0  0  0
    1.0660   -2.0404   -1.1205 H   0  0  0  0  0  0  0  0  0  0  0  0
    0.8796   -1.2867   -3.3170 H   0  0  0  0  0  0  0  0  0  0  0  0
    0.9162    1.3745   -3.2135 H   0  0  0  0  0  0  0  0  0  0  0  0
    2.7448   -2.5730   -2.3777 H   0  0  0  0  0  0  0  0  0  0  0  0
    3.6870   -0.3073   -3.2842 H   0  0  0  0  0  0  0  0  0  0  0  0
    4.5673   -2.7481   -2.9123 H   0  0  0  0  0  0  0  0  0  0  0  0
    4.1170    0.7477   -1.1108 H   0  0  0  0  0  0  0  0  0  0  0  0
    6.3003   -1.2780   -0.8133 H   0  0  0  0  0  0  0  0  0  0  0  0
    4.7335   -1.6333    0.0177 H   0  0  0  0  0  0  0  0  0  0  0  0
    4.5402    0.5243    0.9539 H   0  0  0  0  0  0  0  0  0  0  0  0
    5.3484    2.2380    0.0529 H   0  0  0  0  0  0  0  0  0  0  0  0
    6.6739    2.7005    1.6270 H   0  0  0  0  0  0  0  0  0  0  0  0
    6.7727    2.4680   -1.6160 H   0  0  0  0  0  0  0  0  0  0  0  0
    7.8026    1.0861   -1.3016 H   0  0  0  0  0  0  0  0  0  0  0  0
    6.5306   -0.1531   -2.7417 H   0  0  0  0  0  0  0  0  0  0  0  0
    5.4886    1.2581   -3.0569 H   0  0  0  0  0  0  0  0  0  0  0  0
    5.1997   -0.7260    2.6022 H   0  0  0  0  0  0  0  0  0  0  0  0
    6.1972    0.7080    2.6704 H   0  0  0  0  0  0  0  0  0  0  0  0
    7.1674   -2.1537    1.9943 H   0  0  0  0  0  0  0  0  0  0  0  0
    7.2392   -1.2904    3.5118 H   0  0  0  0  0  0  0  0  0  0  0  0
    9.3468   -1.4710    2.5258 H   0  0  0  0  0  0  0  0  0  0  0  0
    9.3316    0.6702    0.4954 H   0  0  0  0  0  0  0  0  0  0  0  0
   10.0733   -0.9415    0.5283 H   0  0  0  0  0  0  0  0  0  0  0  0
    8.3627   -0.7761    0.0289 H   0  0  0  0  0  0  0  0  0  0  0  0
    9.9116    0.3307    3.6468 H   0  0  0  0  0  0  0  0  0  0  0  0
    9.3661    1.4016    2.3531 H   0  0  0  0  0  0  0  0  0  0  0  0
    8.2029    0.8304    3.6839 H   0  0  0  0  0  0  0  0  0  0  0  0
   -8.3320    1.5016    3.1598 H   0  0  0  0  0  0  0  0  0  0  0  0
   -8.9160    2.2568    1.6623 H   0  0  0  0  0  0  0  0  0  0  0  0
  -10.0512    1.3356    2.6940 H   0  0  0  0  0  0  0  0  0  0  0  0
  -11.3652    1.1620   -1.4877 H   0  0  0  0  0  0  0  0  0  0  0  0
  -10.4093    2.2045   -0.4633 H   0  0  0  0  0  0  0  0  0  0  0  0
   -9.3324   -0.2877   -1.5184 H   0  0  0  0  0  0  0  0  0  0  0  0
   -9.1497    0.4325   -3.5231 H   0  0  0  0  0  0  0  0  0  0  0  0
   -6.9497    1.2738    1.3485 H   0  0  0  0  0  0  0  0  0  0  0  0
   -7.9393   -0.7247   -0.6955 H   0  0  0  0  0  0  0  0  0  0  0  0
   -5.9787   -0.6246   -1.8003 H   0  0  0  0  0  0  0  0  0  0  0  0
   -6.4690    1.5208   -2.3820 H   0  0  0  0  0  0  0  0  0  0  0  0
   -4.3135    0.9188    0.0760 H   0  0  0  0  0  0  0  0  0  0  0  0
   -7.6041   -1.1702    3.3894 H   0  0  0  0  0  0  0  0  0  0  0  0
   -6.1823   -0.0010    3.5566 H   0  0  0  0  0  0  0  0  0  0  0  0
   -5.9172   -1.7418    3.3525 H   0  0  0  0  0  0  0  0  0  0  0  0
   -7.9967   -2.2044    0.9687 H   0  0  0  0  0  0  0  0  0  0  0  0
   -6.4271   -2.3566    0.0121 H   0  0  0  0  0  0  0  0  0  0  0  0
   -6.5604   -2.9730    1.6757 H   0  0  0  0  0  0  0  0  0  0  0  0
   -2.7692    0.5888   -0.3932 H   0  0  0  0  0  0  0  0  0  0  0  0
   -1.8096   -0.8154    1.1527 H   0  0  0  0  0  0  0  0  0  0  0  0
   -2.8075   -2.8389    1.1805 H   0  0  0  0  0  0  0  0  0  0  0  0
   -1.3416   -3.3253    0.2913 H   0  0  0  0  0  0  0  0  0  0  0  0
   -2.9125   -2.9440   -0.5854 H   0  0  0  0  0  0  0  0  0  0  0  0
   -0.0173   -2.1882   -0.5692 H   0  0  0  0  0  0  0  0  0  0  0  0
   -0.5298    0.6978   -1.4074 H   0  0  0  0  0  0  0  0  0  0  0  0
   -1.1105   -2.0800   -2.5170 H   0  0  0  0  0  0  0  0  0  0  0  0
   -0.9038   -0.6256   -3.6186 H   0  0  0  0  0  0  0  0  0  0  0  0
   -3.2860   -1.0114   -2.7525 H   0  0  0  0  0  0  0  0  0  0  0  0
   -2.5351    0.5702   -2.5889 H   0  0  0  0  0  0  0  0  0  0  0  0
    1.7381    0.8594    0.3065 H   0  0  0  0  0  0  0  0  0  0  0  0
    2.0965   -0.5911    2.1816 H   0  0  0  0  0  0  0  0  0  0  0  0
    1.9225   -1.9421   -0.9506 H   0  0  0  0  0  0  0  0  0  0  0  0
    1.2895   -1.0481   -2.9560 H   0  0  0  0  0  0  0  0  0  0  0  0
    1.7036    1.5922   -1.8679 H   0  0  0  0  0  0  0  0  0  0  0  0
    4.0568   -1.7023   -1.1440 H   0  0  0  0  0  0  0  0  0  0  0  0
    4.0541    0.8398   -2.5735 H   0  0  0  0  0  0  0  0  0  0  0  0
    5.6347   -1.2417   -1.9879 H   0  0  0  0  0  0  0  0  0  0  0  0
    3.8574    1.7916   -0.1316 H   0  0  0  0  0  0  0  0  0  0  0  0
    5.6294   -0.5424    0.3939 H   0  0  0  0  0  0  0  0  0  0  0  0
    4.8506    0.6498    1.5027 H   0  0  0  0  0  0  0  0  0  0  0  0
    7.4420    1.1183   -0.0127 H   0  0  0  0  0  0  0  0  0  0  0  0
    5.4468    2.6996    1.5857 H   0  0  0  0  0  0  0  0  0  0  0  0
    7.1176    3.3377    2.7252 H   0  0  0  0  0  0  0  0  0  0  0  0
    5.6258    4.1936   -0.3082 H   0  0  0  0  0  0  0  0  0  0  0  0
    7.2363    3.5585   -0.6848 H   0  0  0  0  0  0  0  0  0  0  0  0
    6.4548    1.5990   -1.7172 H   0  0  0  0  0  0  0  0  0  0  0  0
    5.0900    2.6976   -2.0519 H   0  0  0  0  0  0  0  0  0  0  0  0
    8.3130    1.2600    2.3558 H   0  0  0  0  0  0  0  0  0  0  0  0
    6.7038    0.8070    2.9410 H   0  0  0  0  0  0  0  0  0  0  0  0
    6.8384   -1.4124    1.9249 H   0  0  0  0  0  0  0  0  0  0  0  0
    8.0634   -1.0981    3.1585 H   0  0  0  0  0  0  0  0  0  0  0  0
    8.9842   -2.3890    1.3904 H   0  0  0  0  0  0  0  0  0  0  0  0
    9.2049   -2.0023   -0.7954 H   0  0  0  0  0  0  0  0  0  0  0  0
    7.6283   -1.1936   -0.5736 H   0  0  0  0  0  0  0  0  0  0  0  0
    9.2121   -0.2429   -0.6973 H   0  0  0  0  0  0  0  0  0  0  0  0
   10.9450   -1.3502    1.0116 H   0  0  0  0  0  0  0  0  0  0  0  0
   10.3175    0.3251    1.1310 H   0  0  0  0  0  0  0  0  0  0  0  0
   10.4286   -0.7811    2.6152 H   0  0  0  0  0  0  0  0  0  0  0  0
  1  2  1  0
  3  4  1  0
  4  5  1  0
  4  6  1  0
  2  7  1  0
  6  8  1  0
  7  8  1  0
  8  9  1  0
  9 10  1  0
  9 11  1  0
 11 12  1  0
  7 13  1  0
 12 13  1  0
 13 14  1  0
 13 15  1  0
 11 16  1  0
 16 17  1  0
 17 18  1  0
 18 19  1  0
 18 20  1  0
 20 21  1  0
 21 22  1  0
 17 23  1  0
 22 23  1  0
 20 24  1  0
 24 25  1  0
 25 26  1  0
 25 27  1  0
 21 28  1  0
 27 28  1  0
 28 29  1  0
 27 30  1  0
 30 31  1  0
 31 32  1  0
 31 33  1  0
 33 34  1  0
 34 35  1  0
 35 36  1  0
 36 37  1  0
 36 38  1  0
 33 39  1  0
 38 39  1  0
 35 40  1  0
 40 41  1  0
 41 42  1  0
 42 43  1  0
 42 44  1  0
 45 46  1  0
 47 48  1  0
 48 49  1  0
 48 50  1  0
 46 51  1  0
 50 52  1  0
 51 52  1  0
 52 53  1  0
 53 54  1  0
 53 55  1  0
 55 56  1  0
 51 57  1  0
 56 57  1  0
 57 58  1  0
 57 59  1  0
 55 60  1  0
 60 61  1  0
 61 62  1  0
 62 63  1  0
 62 64  1  0
 64 65  1  0
 65 66  1  0
 61 67  1  0
 66 67  1  0
 64 68  1  0
 68 69  1  0
 69 70  1  0
 69 71  1  0
 65 72  1  0
 71 72  1  0
 72 73  1  0
 71 74  1  0
 74 75  1  0
 75 76  1  0
 75 77  1  0
 77 78  1  0
 78 79  1  0
 79 80  1  0
 80 81  1  0
 80 82  1  0
 77 83  1  0
 82 83  1  0
 79 84  1  0
 84 85  1  0
 85 86  1  0
 86 87  1  0
 86 88  1  0
 89 90  1  0
 91 92  1  0
 92 93  1  0
 92 94  1  0
 90 95  1  0
 94 96  1  0
 95 96  1  0
 96 97  1  0
 97 98  1  0
 97 99  1  0
 99100  1  0
 95101  1  0
100101  1  0
101102  1  0
101103  1  0
 99104  1  0
104105  1  0
105106  1  0
106107  1  0
106108  1  0
108109  1  0
109110  1  0
105111  1  0
110111  1  0
108112  1  0
112113  1  0
113114  1  0
113115  1  0
109116  1  0
115116  1  0
116117  1  0
115118  1  0
118119  1  0
119120  1  0
119121  1  0
121122  1  0
122123  1  0
123124  1  0
124125  1  0
124126  1  0
121127  1  0
126127  1  0
123128  1  0
128129  1  0
129130  1  0
130131  1  0
130132  1  0
133134  1  0
135136  1  0
136137  1  0
136138  1  0
134139  1  0
138140  1  0
139140  1  0
140141  1  0
141142  1  0
141143  1  0
143144  1  0
139145  1  0
144145  1  0
145146  1  0
145147  1  0
143148  1  0
148149  1  0
149150  1  0
150151  1  0
150152  1  0
152153  1  0
153154  1  0
149155  1  0
154155  1  0
152156  1  0
156157  1  0
157158  1  0
157159  1  0
153160  1  0
159160  1  0
160161  1  0
159162  1  0
162163  1  0
163164  1  0
163165  1  0
165166  1  0
166167  1  0
167168  1  0
168169  1  0
168170  1  0
165171  1  0
170171  1  0
167172  1  0
172173  1  0
173174  1  0
174175  1  0
174176  1  0
  1177  1  0
  1178  1  0
  1179  1  0
  3180  1  0
  3181  1  0
  4182  1  0
  5183  1  0
  7184  1  6
  8185  1  1
  9186  1  6
 10187  1  0
 11188  1  1
 14189  1  0
 14190  1  0
 14191  1  0
 15192  1  0
 15193  1  0
 15194  1  0
 17195  1  0
 18196  1  1
 19197  1  0
 19198  1  0
 19199  1  0
 20200  1  0
 21201  1  0
 22202  1  0
 22203  1  0
 23204  1  0
 23205  1  0
 25206  1  0
 26207  1  0
 27208  1  1
 28209  1  0
 29210  1  0
 30211  1  0
 31212  1  0
 32213  1  0
 33214  1  1
 34215  1  0
 34216  1  0
 35217  1  0
 36218  1  1
 37219  1  0
 38220  1  0
 38221  1  0
 39222  1  0
 39223  1  0
 40224  1  0
 40225  1  0
 41226  1  0
 41227  1  0
 42228  1  0
 43229  1  0
 43230  1  0
 43231  1  0
 44232  1  0
 44233  1  0
 44234  1  0
 45235  1  0
 45236  1  0
 45237  1  0
 47238  1  0
 47239  1  0
 48240  1  0
 49241  1  0
 51242  1  6
 52243  1  1
 53244  1  1
 54245  1  0
 55246  1  6
 58247  1  0
 58248  1  0
 58249  1  0
 59250  1  0
 59251  1  0
 59252  1  0
 61253  1  0
 62254  1  0
 63255  1  0
 63256  1  0
 63257  1  0
 64258  1  0
 65259  1  0
 66260  1  0
 66261  1  0
 67262  1  0
 67263  1  0
 69264  1  0
 70265  1  0
 71266  1  1
 72267  1  0
 73268  1  0
 74269  1  0
 75270  1  0
 76271  1  0
 77272  1  0
 78273  1  0
 78274  1  0
 79275  1  0
 80276  1  0
 81277  1  0
 82278  1  0
 82279  1  0
 83280  1  0
 83281  1  0
 84282  1  0
 84283  1  0
 85284  1  0
 85285  1  0
 86286  1  0
 87287  1  0
 87288  1  0
 87289  1  0
 88290  1  0
 88291  1  0
 88292  1  0
 89293  1  0
 89294  1  0
 89295  1  0
 91296  1  0
 91297  1  0
 92298  1  0
 93299  1  0
 95300  1  6
 96301  1  1
 97302  1  1
 98303  1  0
 99304  1  1
102305  1  0
102306  1  0
102307  1  0
103308  1  0
103309  1  0
103310  1  0
105311  1  0
106312  1  0
107313  1  0
107314  1  0
107315  1  0
108316  1  0
109317  1  0
110318  1  0
110319  1  0
111320  1  0
111321  1  0
113322  1  0
114323  1  0
115324  1  1
116325  1  0
117326  1  0
118327  1  0
119328  1  0
120329  1  0
121330  1  1
122331  1  0
122332  1  0
123333  1  1
124334  1  0
125335  1  0
126336  1  0
126337  1  0
127338  1  0
127339  1  0
128340  1  0
128341  1  0
129342  1  0
129343  1  0
130344  1  0
131345  1  0
131346  1  0
131347  1  0
132348  1  0
132349  1  0
132350  1  0
133351  1  0
133352  1  0
133353  1  0
135354  1  0
135355  1  0
136356  1  0
137357  1  0
139358  1  6
140359  1  1
141360  1  6
142361  1  0
143362  1  1
146363  1  0
146364  1  0
146365  1  0
147366  1  0
147367  1  0
147368  1  0
149369  1  0
150370  1  1
151371  1  0
151372  1  0
151373  1  0
152374  1  0
153375  1  0
154376  1  0
154377  1  0
155378  1  0
155379  1  0
157380  1  0
158381  1  0
159382  1  1
160383  1  0
161384  1  0
162385  1  0
163386  1  6
164387  1  0
165388  1  1
166389  1  0
166390  1  0
167391  1  0
168392  1  0
169393  1  0
170394  1  0
170395  1  0
171396  1  0
171397  1  0
172398  1  0
172399  1  0
173400  1  0
173401  1  0
174402  1  0
175403  1  0
175404  1  0
175405  1  0
176406  1  0
176407  1  0
176408  1  0
M  END
>  <PDBID>  (1) 
4URO

>  <PDB ID>  (1) 
4URO

>  <Generic Name>  (1) 
Novobiocin

>  <Brand Name>  (1) 
Albamycin

>  <DrugBank ID>  (1) 
DB01051

>  <ATC Codes>  (1) 
nan

>  <Ligand ID>  (1) 
NOV

>  <Target Name>  (1) 
DNA gyrase subunit B

>  <UniProt ID>  (1) 
P0A0K8

>  <PDB ID.1>  (1) 
4URO

>  <Seq. Identity>  (1) 
84%

$$$$
