PDB_DB01010_00
     RDKit          3D

 34 34  0  0  0  0  0  0  0  0999 V2000
    0.8853    1.1346   -0.7763 C   0  0  0  0  0  0  0  0  0  0  0  0
    0.2851   -0.2513   -0.5803 C   0  0  0  0  0  0  0  0  0  0  0  0
    0.9757   -1.0510    0.4604 C   0  0  0  0  0  0  0  0  0  0  0  0
    1.9955   -0.3124    1.2616 C   0  0  2  0  0  0  0  0  0  0  0  0
    2.8914    0.5774    0.4816 C   0  0  0  0  0  0  0  0  0  0  0  0
    2.3982    0.9193   -0.8845 C   0  0  0  0  0  0  0  0  0  0  0  0
    2.8120   -1.2875    1.8840 O   0  0  0  0  0  0  0  0  0  0  0  0
   -1.1529   -0.1948   -0.4331 N   0  0  0  0  0  0  0  0  0  0  0  0
   -1.7665   -1.3175   -1.1601 C   0  0  0  0  0  0  0  0  0  0  0  0
   -1.7086    1.0139   -1.0505 C   0  0  0  0  0  0  0  0  0  0  0  0
   -1.6018   -0.2798    0.9192 C   0  0  0  0  0  0  0  0  0  0  0  0
   -2.9172    0.4044    1.1760 C   0  0  0  0  0  0  0  0  0  0  0  0
    0.5874    1.5196   -1.7890 H   0  0  0  0  0  0  0  0  0  0  0  0
    0.6656    1.8201    0.0362 H   0  0  0  0  0  0  0  0  0  0  0  0
    0.4593   -0.7694   -1.5710 H   0  0  0  0  0  0  0  0  0  0  0  0
    1.4939   -1.9627    0.0379 H   0  0  0  0  0  0  0  0  0  0  0  0
    0.2525   -1.4899    1.2102 H   0  0  0  0  0  0  0  0  0  0  0  0
    1.5203    0.2347    2.1273 H   0  0  0  0  0  0  0  0  0  0  0  0
    3.9422    0.2046    0.3889 H   0  0  0  0  0  0  0  0  0  0  0  0
    2.9956    1.5513    1.0445 H   0  0  0  0  0  0  0  0  0  0  0  0
    2.6457    0.1641   -1.6348 H   0  0  0  0  0  0  0  0  0  0  0  0
    2.8586    1.8775   -1.1960 H   0  0  0  0  0  0  0  0  0  0  0  0
    3.2387   -1.8298    1.1479 H   0  0  0  0  0  0  0  0  0  0  0  0
   -2.5154   -1.8410   -0.5503 H   0  0  0  0  0  0  0  0  0  0  0  0
   -2.2136   -0.9940   -2.1132 H   0  0  0  0  0  0  0  0  0  0  0  0
   -0.9657   -2.0488   -1.4267 H   0  0  0  0  0  0  0  0  0  0  0  0
   -1.4886    1.9183   -0.4894 H   0  0  0  0  0  0  0  0  0  0  0  0
   -2.8156    0.8022   -1.1299 H   0  0  0  0  0  0  0  0  0  0  0  0
   -1.3738    1.0646   -2.1260 H   0  0  0  0  0  0  0  0  0  0  0  0
   -1.7833   -1.3677    1.1673 H   0  0  0  0  0  0  0  0  0  0  0  0
   -0.8593    0.1728    1.6106 H   0  0  0  0  0  0  0  0  0  0  0  0
   -3.7342   -0.2693    0.8508 H   0  0  0  0  0  0  0  0  0  0  0  0
   -3.0231    0.4645    2.2990 H   0  0  0  0  0  0  0  0  0  0  0  0
   -2.9832    1.4230    0.8076 H   0  0  0  0  0  0  0  0  0  0  0  0
  1  2  1  0
  2  3  1  0
  3  4  1  0
  4  5  1  0
  1  6  1  0
  5  6  1  0
  4  7  1  0
  2  8  1  0
  8  9  1  0
  8 10  1  0
  8 11  1  0
 11 12  1  0
  1 13  1  0
  1 14  1  0
  2 15  1  0
  3 16  1  0
  3 17  1  0
  4 18  1  1
  5 19  1  0
  5 20  1  0
  6 21  1  0
  6 22  1  0
  7 23  1  0
  9 24  1  0
  9 25  1  0
  9 26  1  0
 10 27  1  0
 10 28  1  0
 10 29  1  0
 11 30  1  0
 11 31  1  0
 12 32  1  0
 12 33  1  0
 12 34  1  0
M  CHG  1   8   1
M  END
>  <PDBID>  (1) 
2ACK

>  <PDB ID>  (1) 
2ACK

>  <Generic Name>  (1) 
Edrophonium

>  <Brand Name>  (1) 
Enlon#Enlon 10mg/ml#Enlon Liq IV 10mg/ml#Enlon Plus#Tensilon#Antirex#Reversol

>  <DrugBank ID>  (1) 
DB01010

>  <ATC Codes>  (1) 
nan

>  <Ligand ID>  (1) 
EDR

>  <Target Name>  (1) 
Acetylcholinesterase

>  <UniProt ID>  (1) 
P22303

>  <PDB ID.1>  (1) 
2ACK

>  <Seq. Identity>  (1) 
57%

$$$$
