PDB_DB04743_08
     RDKit          3D

 96 98  0  0  0  0  0  0  0  0999 V2000
   -2.8964   -1.8837   -3.5318 O   0  0  0  0  0  0  0  0  0  0  0  0
   -1.8598   -2.5447   -3.0202 N   0  0  0  0  0  0  0  0  0  0  0  0
   -2.0240   -3.8708   -2.9574 O   0  0  0  0  0  0  0  0  0  0  0  0
   -1.3221   -1.9711   -1.8256 C   0  0  0  0  0  0  0  0  0  0  0  0
   -2.3944   -1.9410   -0.7700 C   0  0  0  0  0  0  0  0  0  0  0  0
   -2.5995   -0.5477   -0.2754 C   0  0  0  0  0  0  0  0  0  0  0  0
   -1.2906    0.0216    0.2262 C   0  0  0  0  0  0  0  0  0  0  0  0
   -1.5526    1.3120    0.7817 N   0  0  0  0  0  0  0  0  0  0  0  0
   -2.5679    1.4192    2.0077 S   0  0  0  0  0  0  0  0  0  0  0  0
   -4.1705    1.3772    1.5088 O   0  0  0  0  0  0  0  0  0  0  0  0
   -2.3978    0.4002    3.1769 O   0  0  0  0  0  0  0  0  0  0  0  0
   -2.3986    3.0358    2.6752 C   0  0  0  0  0  0  0  0  0  0  0  0
   -0.8384   -0.5792   -2.1159 C   0  0  0  0  0  0  0  0  0  0  0  0
   -0.2419    0.0679   -0.8719 C   0  0  0  0  0  0  0  0  0  0  0  0
    0.8290   -0.6291   -0.4718 O   0  0  0  0  0  0  0  0  0  0  0  0
    2.0496   -0.0831   -0.3786 C   0  0  0  0  0  0  0  0  0  0  0  0
    2.4448    0.0078    1.0953 C   0  0  0  0  0  0  0  0  0  0  0  0
    3.4763    1.1259    1.1824 C   0  0  0  0  0  0  0  0  0  0  0  0
    4.5671    0.9589    0.1716 C   0  0  0  0  0  0  0  0  0  0  0  0
    4.4756   -0.4404   -0.3864 C   0  0  0  0  0  0  0  0  0  0  0  0
    3.1700   -0.6457   -1.1523 C   0  0  0  0  0  0  0  0  0  0  0  0
   -2.8964   -1.8837   -3.5318 O   0  0  0  0  0  0  0  0  0  0  0  0
   -1.8598   -2.5447   -3.0202 N   0  0  0  0  0  0  0  0  0  0  0  0
   -2.0240   -3.8708   -2.9574 O   0  0  0  0  0  0  0  0  0  0  0  0
   -1.3221   -1.9711   -1.8256 C   0  0  0  0  0  0  0  0  0  0  0  0
   -2.3944   -1.9410   -0.7700 C   0  0  0  0  0  0  0  0  0  0  0  0
   -2.5995   -0.5477   -0.2754 C   0  0  0  0  0  0  0  0  0  0  0  0
   -1.2906    0.0216    0.2262 C   0  0  0  0  0  0  0  0  0  0  0  0
   -1.5526    1.3120    0.7817 N   0  0  0  0  0  0  0  0  0  0  0  0
   -2.5679    1.4192    2.0077 S   0  0  0  0  0  0  0  0  0  0  0  0
   -4.1705    1.3772    1.5088 O   0  0  0  0  0  0  0  0  0  0  0  0
   -2.3978    0.4002    3.1769 O   0  0  0  0  0  0  0  0  0  0  0  0
   -2.3986    3.0358    2.6752 C   0  0  0  0  0  0  0  0  0  0  0  0
   -0.8384   -0.5792   -2.1159 C   0  0  0  0  0  0  0  0  0  0  0  0
   -0.2419    0.0679   -0.8719 C   0  0  0  0  0  0  0  0  0  0  0  0
    0.8290   -0.6291   -0.4718 O   0  0  0  0  0  0  0  0  0  0  0  0
    2.0496   -0.0831   -0.3786 C   0  0  0  0  0  0  0  0  0  0  0  0
    2.4448    0.0078    1.0953 C   0  0  0  0  0  0  0  0  0  0  0  0
    3.4763    1.1259    1.1824 C   0  0  0  0  0  0  0  0  0  0  0  0
    4.5671    0.9589    0.1716 C   0  0  0  0  0  0  0  0  0  0  0  0
    4.4756   -0.4404   -0.3864 C   0  0  0  0  0  0  0  0  0  0  0  0
    3.1700   -0.6457   -1.1523 C   0  0  0  0  0  0  0  0  0  0  0  0
   -2.1351   -4.1284   -2.0100 H   0  0  0  0  0  0  0  0  0  0  0  0
   -0.4478   -2.5722   -1.5103 H   0  0  0  0  0  0  0  0  0  0  0  0
   -3.3763   -2.2939   -1.1885 H   0  0  0  0  0  0  0  0  0  0  0  0
   -2.1130   -2.6011    0.0550 H   0  0  0  0  0  0  0  0  0  0  0  0
   -3.2855   -0.5835    0.5858 H   0  0  0  0  0  0  0  0  0  0  0  0
   -3.0378    0.1188   -1.0273 H   0  0  0  0  0  0  0  0  0  0  0  0
   -0.9669   -0.6543    1.0666 H   0  0  0  0  0  0  0  0  0  0  0  0
   -0.6840    1.8778    0.8856 H   0  0  0  0  0  0  0  0  0  0  0  0
   -4.3319    2.0125    0.7673 H   0  0  0  0  0  0  0  0  0  0  0  0
   -2.7257    0.6258    4.0632 H   0  0  0  0  0  0  0  0  0  0  0  0
   -3.3720    3.4341    3.0431 H   0  0  0  0  0  0  0  0  0  0  0  0
   -1.7114    3.0219    3.5492 H   0  0  0  0  0  0  0  0  0  0  0  0
   -1.9962    3.7349    1.9078 H   0  0  0  0  0  0  0  0  0  0  0  0
   -0.0487   -0.6054   -2.8790 H   0  0  0  0  0  0  0  0  0  0  0  0
   -1.6566    0.0534   -2.5275 H   0  0  0  0  0  0  0  0  0  0  0  0
   -0.1018    1.1259   -1.1305 H   0  0  0  0  0  0  0  0  0  0  0  0
    1.9492    0.9955   -0.6903 H   0  0  0  0  0  0  0  0  0  0  0  0
    1.5694    0.3626    1.7064 H   0  0  0  0  0  0  0  0  0  0  0  0
    2.8198   -0.9413    1.4826 H   0  0  0  0  0  0  0  0  0  0  0  0
    3.8380    1.2776    2.2169 H   0  0  0  0  0  0  0  0  0  0  0  0
    2.9253    2.0694    0.9155 H   0  0  0  0  0  0  0  0  0  0  0  0
    5.5819    1.0762    0.5881 H   0  0  0  0  0  0  0  0  0  0  0  0
    4.4831    1.6518   -0.6960 H   0  0  0  0  0  0  0  0  0  0  0  0
    5.2930   -0.5592   -1.1259 H   0  0  0  0  0  0  0  0  0  0  0  0
    4.6270   -1.2239    0.3802 H   0  0  0  0  0  0  0  0  0  0  0  0
    3.1275   -1.7248   -1.3663 H   0  0  0  0  0  0  0  0  0  0  0  0
    3.3186   -0.1400   -2.1306 H   0  0  0  0  0  0  0  0  0  0  0  0
   -2.1351   -4.1284   -2.0100 H   0  0  0  0  0  0  0  0  0  0  0  0
   -0.4478   -2.5722   -1.5103 H   0  0  0  0  0  0  0  0  0  0  0  0
   -3.3763   -2.2939   -1.1885 H   0  0  0  0  0  0  0  0  0  0  0  0
   -2.1130   -2.6011    0.0550 H   0  0  0  0  0  0  0  0  0  0  0  0
   -3.2855   -0.5835    0.5858 H   0  0  0  0  0  0  0  0  0  0  0  0
   -3.0378    0.1188   -1.0273 H   0  0  0  0  0  0  0  0  0  0  0  0
   -0.9669   -0.6543    1.0666 H   0  0  0  0  0  0  0  0  0  0  0  0
   -0.6840    1.8778    0.8856 H   0  0  0  0  0  0  0  0  0  0  0  0
   -4.3319    2.0125    0.7673 H   0  0  0  0  0  0  0  0  0  0  0  0
   -2.7257    0.6258    4.0632 H   0  0  0  0  0  0  0  0  0  0  0  0
   -3.3720    3.4341    3.0431 H   0  0  0  0  0  0  0  0  0  0  0  0
   -1.7114    3.0219    3.5492 H   0  0  0  0  0  0  0  0  0  0  0  0
   -1.9962    3.7349    1.9078 H   0  0  0  0  0  0  0  0  0  0  0  0
   -0.0487   -0.6054   -2.8790 H   0  0  0  0  0  0  0  0  0  0  0  0
   -1.6566    0.0534   -2.5275 H   0  0  0  0  0  0  0  0  0  0  0  0
   -0.1018    1.1259   -1.1305 H   0  0  0  0  0  0  0  0  0  0  0  0
    1.9492    0.9955   -0.6903 H   0  0  0  0  0  0  0  0  0  0  0  0
    1.5694    0.3626    1.7064 H   0  0  0  0  0  0  0  0  0  0  0  0
    2.8198   -0.9413    1.4826 H   0  0  0  0  0  0  0  0  0  0  0  0
    3.8380    1.2776    2.2169 H   0  0  0  0  0  0  0  0  0  0  0  0
    2.9253    2.0694    0.9155 H   0  0  0  0  0  0  0  0  0  0  0  0
    5.5819    1.0762    0.5881 H   0  0  0  0  0  0  0  0  0  0  0  0
    4.4831    1.6518   -0.6960 H   0  0  0  0  0  0  0  0  0  0  0  0
    5.2930   -0.5592   -1.1259 H   0  0  0  0  0  0  0  0  0  0  0  0
    4.6270   -1.2239    0.3802 H   0  0  0  0  0  0  0  0  0  0  0  0
    3.1275   -1.7248   -1.3663 H   0  0  0  0  0  0  0  0  0  0  0  0
    3.3186   -0.1400   -2.1306 H   0  0  0  0  0  0  0  0  0  0  0  0
  1  2  1  0
  2  3  1  0
  2  4  1  0
  4  5  1  0
  5  6  1  0
  6  7  1  0
  7  8  1  0
  8  9  1  0
  9 10  1  0
  9 11  1  0
  9 12  1  0
  4 13  1  0
  7 14  1  0
 13 14  1  0
 14 15  1  0
 15 16  1  0
 16 17  1  0
 17 18  1  0
 18 19  1  0
 19 20  1  0
 16 21  1  0
 20 21  1  0
 22 23  1  0
 23 24  1  0
 23 25  1  0
 25 26  1  0
 26 27  1  0
 27 28  1  0
 28 29  1  0
 29 30  1  0
 30 31  1  0
 30 32  1  0
 30 33  1  0
 25 34  1  0
 28 35  1  0
 34 35  1  0
 35 36  1  0
 36 37  1  0
 37 38  1  0
 38 39  1  0
 39 40  1  0
 40 41  1  0
 37 42  1  0
 41 42  1  0
  3 43  1  0
  4 44  1  0
  5 45  1  0
  5 46  1  0
  6 47  1  0
  6 48  1  0
  7 49  1  0
  8 50  1  0
 10 51  1  0
 11 52  1  0
 12 53  1  0
 12 54  1  0
 12 55  1  0
 13 56  1  0
 13 57  1  0
 14 58  1  0
 16 59  1  0
 17 60  1  0
 17 61  1  0
 18 62  1  0
 18 63  1  0
 19 64  1  0
 19 65  1  0
 20 66  1  0
 20 67  1  0
 21 68  1  0
 21 69  1  0
 24 70  1  0
 25 71  1  0
 26 72  1  0
 26 73  1  0
 27 74  1  0
 27 75  1  0
 28 76  1  0
 29 77  1  0
 31 78  1  0
 32 79  1  0
 33 80  1  0
 33 81  1  0
 33 82  1  0
 34 83  1  0
 34 84  1  0
 35 85  1  0
 37 86  1  0
 38 87  1  0
 38 88  1  0
 39 89  1  0
 39 90  1  0
 40 91  1  0
 40 92  1  0
 41 93  1  0
 41 94  1  0
 42 95  1  0
 42 96  1  0
M  CHG  2   1  -1  22  -1
M  END
>  <PDBID>  (1) 
3N8X

>  <PDB ID>  (1) 
3N8X

>  <Generic Name>  (1) 
Nimesulide

>  <Brand Name>  (1) 
Ainex#Aulin#Coxtal#Eskaflam#Mesulid#Nilsid#Nimalox#Nimside#Nise#Octaprin#Sintalgin#Sulide

>  <DrugBank ID>  (1) 
DB04743

>  <ATC Codes>  (1) 
M02AA26#M01AX17

>  <Ligand ID>  (1) 
NIM

>  <Target Name>  (1) 
Prostaglandin G/H synthase 2

>  <UniProt ID>  (1) 
P35354

>  <PDB ID.1>  (1) 
3N8X

>  <Seq. Identity>  (1) 
61%

$$$$
