PDB_DB01201_04
     RDKit          3D

302312  0  0  0  0  0  0  0  0999 V2000
    2.3427   -0.0496    2.5676 C   0  0  0  0  0  0  0  0  0  0  0  0
    2.6167   -0.8995    1.3136 C   0  0  0  0  0  0  0  0  0  0  0  0
    3.2860    0.0252    0.3608 C   0  0  2  0  0  0  0  0  0  0  0  0
    2.2121    0.9311   -0.2062 C   0  0  0  0  0  0  0  0  0  0  0  0
    0.3407    2.4011    0.5771 C   0  0  0  0  0  0  0  0  0  0  0  0
    0.1865    3.5110    1.6251 C   0  0  0  0  0  0  0  0  0  0  0  0
   -0.1139    2.8654    2.9219 C   0  0  0  0  0  0  0  0  0  0  0  0
    1.0462    1.9326    3.2695 C   0  0  0  0  0  0  0  0  0  0  0  0
    1.3379    0.9552    2.1717 C   0  0  0  0  0  0  0  0  0  0  0  0
    1.6390    1.7295    0.9067 C   0  0  1  0  0  0  0  0  0  0  0  0
    0.3534    3.2736   -0.6528 C   0  0  2  0  0  0  0  0  0  0  0  0
   -0.8556    4.1493   -0.2743 C   0  0  2  0  0  0  0  0  0  0  0  0
   -0.8680    5.4227   -1.0464 C   0  0  0  0  0  0  0  0  0  0  0  0
   -1.4380    2.1881    3.0291 C   0  0  0  0  0  0  0  0  0  0  0  0
    2.3759   -3.2582    1.7093 C   0  0  0  0  0  0  0  0  0  0  0  0
    1.6378   -3.6586    0.4791 C   0  0  0  0  0  0  0  0  0  0  0  0
    0.4312   -4.5238    0.8647 C   0  0  0  0  0  0  0  0  0  0  0  0
   -0.7880   -4.1577    0.0417 C   0  0  0  0  0  0  0  0  0  0  0  0
   -2.0043   -4.4101    0.9035 C   0  0  0  0  0  0  0  0  0  0  0  0
   -3.2964   -4.1929    0.1309 C   0  0  1  0  0  0  0  0  0  0  0  0
   -3.3675   -2.7468   -0.2273 C   0  0  1  0  0  0  0  0  0  0  0  0
   -4.8053   -2.2085   -0.2153 C   0  0  2  0  0  0  0  0  0  0  0  0
   -4.7075   -0.7237   -0.2741 C   0  0  2  0  0  0  0  0  0  0  0  0
   -5.8704   -0.0069   -0.8534 C   0  0  2  0  0  0  0  0  0  0  0  0
   -6.2929    1.0704    0.1304 C   0  0  1  0  0  0  0  0  0  0  0  0
   -5.2304    2.1484    0.2478 C   0  0  1  0  0  0  0  0  0  0  0  0
   -5.2012    3.0185   -0.9657 C   0  0  2  0  0  0  0  0  0  0  0  0
   -4.1464    4.0950   -0.7879 C   0  0  0  0  0  0  0  0  0  0  0  0
   -2.8248    3.6751   -1.4365 C   0  0  0  0  0  0  0  0  0  0  0  0
    2.5511   -4.4449   -0.4698 C   0  0  0  0  0  0  0  0  0  0  0  0
   -3.3391   -5.1085   -1.0841 C   0  0  0  0  0  0  0  0  0  0  0  0
   -5.3956   -2.6761    1.1218 C   0  0  0  0  0  0  0  0  0  0  0  0
   -7.0769   -0.8768   -1.1150 C   0  0  0  0  0  0  0  0  0  0  0  0
   -5.5538    2.9228    1.5092 C   0  0  0  0  0  0  0  0  0  0  0  0
   -8.4519    1.3138    0.9000 C   0  0  0  0  0  0  0  0  0  0  0  0
   -9.7146    0.6632    0.4195 C   0  0  0  0  0  0  0  0  0  0  0  0
   -6.8845    3.2632   -2.5508 C   0  0  0  0  0  0  0  0  0  0  0  0
    8.8406   -0.7964   -0.7558 C   0  0  0  0  0  0  0  0  0  0  0  0
    7.8197    0.2227   -2.7021 C   0  0  0  0  0  0  0  0  0  0  0  0
    6.4511    0.7217   -3.1131 C   0  0  0  0  0  0  0  0  0  0  0  0
    5.7556   -1.5378   -2.6458 C   0  0  0  0  0  0  0  0  0  0  0  0
    7.0394   -1.8518   -1.9367 C   0  0  0  0  0  0  0  0  0  0  0  0
    4.0809   -0.6590   -0.7160 C   0  0  0  0  0  0  0  0  0  0  0  0
    9.4239    0.4391   -0.1646 C   0  0  0  0  0  0  0  0  0  0  0  0
    9.9804   -1.4009   -1.5228 C   0  0  0  0  0  0  0  0  0  0  0  0
   10.7922   -0.0499    0.3270 C   0  0  0  0  0  0  0  0  0  0  0  0
   11.1568   -1.1984   -0.5920 C   0  0  0  0  0  0  0  0  0  0  0  0
    3.2299   -2.1316    1.5898 N   0  0  0  0  0  0  0  0  0  0  0  0
    4.6934    0.3069   -1.5921 N   0  0  0  0  0  0  0  0  0  0  0  0
    5.4340   -0.1556   -2.6223 N   0  0  0  0  0  0  0  0  0  0  0  0
    7.6480   -0.6021   -1.5300 N   0  0  0  0  0  0  0  0  0  0  0  0
    1.8237   -0.8439    3.5671 O   0  0  0  0  0  0  0  0  0  0  0  0
    2.1478    2.6187    3.7223 O   0  0  0  0  0  0  0  0  0  0  0  0
   -0.7291    4.3646    1.1112 O   0  0  0  0  0  0  0  0  0  0  0  0
    0.1105    2.5513   -1.8025 O   0  0  0  0  0  0  0  0  0  0  0  0
   -1.9686    3.3525   -0.4256 O   0  0  0  0  0  0  0  0  0  0  0  0
   -6.4108    3.5695   -1.2998 O   0  0  0  0  0  0  0  0  0  0  0  0
   -7.5409    1.5891   -0.1128 O   0  0  0  0  0  0  0  0  0  0  0  0
   -8.7998    2.5644    1.4547 O   0  0  0  0  0  0  0  0  0  0  0  0
   -3.5784   -0.3925   -1.0585 O   0  0  0  0  0  0  0  0  0  0  0  0
   -2.5600   -1.9367    0.5466 O   0  0  0  0  0  0  0  0  0  0  0  0
    3.1343   -4.3609    2.1339 O   0  0  0  0  0  0  0  0  0  0  0  0
    1.2654    0.1076   -0.8213 O   0  0  0  0  0  0  0  0  0  0  0  0
    1.2608    0.0685    1.5599 C   0  0  0  0  0  0  0  0  0  0  0  0
    2.2748   -0.6430    0.6536 C   0  0  0  0  0  0  0  0  0  0  0  0
    3.2908    0.3841    0.3099 C   0  0  2  0  0  0  0  0  0  0  0  0
    2.6200    1.3256   -0.6983 C   0  0  0  0  0  0  0  0  0  0  0  0
    0.8167    3.0932   -0.7451 C   0  0  0  0  0  0  0  0  0  0  0  0
    0.0420    3.9792    0.1688 C   0  0  0  0  0  0  0  0  0  0  0  0
    0.1070    3.6187    1.6184 C   0  0  0  0  0  0  0  0  0  0  0  0
    0.1178    2.1784    1.9594 C   0  0  0  0  0  0  0  0  0  0  0  0
    0.6356    1.2540    0.8816 C   0  0  0  0  0  0  0  0  0  0  0  0
    1.5696    2.0606    0.0492 C   0  0  0  0  0  0  0  0  0  0  0  0
   -0.1181    2.6364   -1.7750 C   0  0  2  0  0  0  0  0  0  0  0  0
   -1.4246    3.3113   -1.4262 C   0  0  2  0  0  0  0  0  0  0  0  0
   -1.8262    4.3403   -2.4946 C   0  0  0  0  0  0  0  0  0  0  0  0
   -1.0085    4.2723    2.4277 C   0  0  0  0  0  0  0  0  0  0  0  0
    1.9451   -2.9608    1.2889 C   0  0  0  0  0  0  0  0  0  0  0  0
    1.2134   -3.2701    0.0307 C   0  0  0  0  0  0  0  0  0  0  0  0
    0.3475   -4.5105    0.2950 C   0  0  0  0  0  0  0  0  0  0  0  0
   -1.0784   -4.2945   -0.1432 C   0  0  0  0  0  0  0  0  0  0  0  0
   -1.9858   -4.5730    1.0320 C   0  0  0  0  0  0  0  0  0  0  0  0
   -3.4552   -4.3799    0.6329 C   0  0  1  0  0  0  0  0  0  0  0  0
   -3.6008   -2.9838    0.1504 C   0  0  1  0  0  0  0  0  0  0  0  0
   -5.0649   -2.5179    0.1043 C   0  0  2  0  0  0  0  0  0  0  0  0
   -5.0256   -1.0305   -0.0127 C   0  0  2  0  0  0  0  0  0  0  0  0
   -6.2376   -0.3403   -0.4749 C   0  0  2  0  0  0  0  0  0  0  0  0
   -6.7558    0.7283    0.4885 C   0  0  1  0  0  0  0  0  0  0  0  0
   -5.7515    1.8065    0.7676 C   0  0  1  0  0  0  0  0  0  0  0  0
   -5.7874    2.9218   -0.2305 C   0  0  2  0  0  0  0  0  0  0  0  0
   -4.3940    3.4790   -0.4879 C   0  0  0  0  0  0  0  0  0  0  0  0
   -3.7094    2.7937   -1.6482 C   0  0  0  0  0  0  0  0  0  0  0  0
    2.1542   -3.6404   -1.1085 C   0  0  0  0  0  0  0  0  0  0  0  0
   -3.7736   -5.4126   -0.4312 C   0  0  0  0  0  0  0  0  0  0  0  0
   -5.6785   -2.9210    1.4136 C   0  0  0  0  0  0  0  0  0  0  0  0
   -7.4121   -1.2111   -0.8129 C   0  0  0  0  0  0  0  0  0  0  0  0
   -5.9733    2.4053    2.1519 C   0  0  0  0  0  0  0  0  0  0  0  0
   -9.0312    1.1183    0.7858 C   0  0  0  0  0  0  0  0  0  0  0  0
  -10.1990    0.4522    0.1687 C   0  0  0  0  0  0  0  0  0  0  0  0
   -7.4742    4.5184   -0.4597 C   0  0  0  0  0  0  0  0  0  0  0  0
   10.5675   -0.8723   -0.6843 C   0  0  0  0  0  0  0  0  0  0  0  0
    9.1173    0.9605   -1.1366 C   0  0  0  0  0  0  0  0  0  0  0  0
    7.8194    1.2781   -0.4761 C   0  0  0  0  0  0  0  0  0  0  0  0
    6.9340   -0.6903   -1.4322 C   0  0  0  0  0  0  0  0  0  0  0  0
    8.1855   -1.2041   -0.7139 C   0  0  0  0  0  0  0  0  0  0  0  0
    4.5747   -0.1725   -0.2521 C   0  0  0  0  0  0  0  0  0  0  0  0
   11.7424   -0.2947   -1.4033 C   0  0  0  0  0  0  0  0  0  0  0  0
   10.8028   -2.3572   -0.7986 C   0  0  0  0  0  0  0  0  0  0  0  0
   12.8941   -1.1379   -0.8452 C   0  0  0  0  0  0  0  0  0  0  0  0
   12.2798   -2.4630   -0.4808 C   0  0  0  0  0  0  0  0  0  0  0  0
    2.7355   -1.7934    1.3122 N   0  0  0  0  0  0  0  0  0  0  0  0
    5.4690    0.9149   -0.5414 N   0  0  0  0  0  0  0  0  0  0  0  0
    6.6820    0.6553   -1.0497 N   0  0  0  0  0  0  0  0  0  0  0  0
    9.3031   -0.4638   -1.2348 N   0  0  0  0  0  0  0  0  0  0  0  0
    0.2785   -0.8724    1.8616 O   0  0  0  0  0  0  0  0  0  0  0  0
    0.8894    1.9616    3.1123 O   0  0  0  0  0  0  0  0  0  0  0  0
   -1.2465    4.0182   -0.2700 O   0  0  0  0  0  0  0  0  0  0  0  0
   -0.2738    1.2707   -1.9477 O   0  0  0  0  0  0  0  0  0  0  0  0
   -2.4630    2.4561   -1.2533 O   0  0  0  0  0  0  0  0  0  0  0  0
   -6.4869    3.9911    0.3195 O   0  0  0  0  0  0  0  0  0  0  0  0
   -7.9090    1.2789    0.0212 O   0  0  0  0  0  0  0  0  0  0  0  0
   -9.4098    2.3720    1.2918 O   0  0  0  0  0  0  0  0  0  0  0  0
   -3.9119   -0.7236   -0.8319 O   0  0  0  0  0  0  0  0  0  0  0  0
   -2.8324   -2.0640    0.8485 O   0  0  0  0  0  0  0  0  0  0  0  0
    2.8092   -4.0543    1.5389 O   0  0  0  0  0  0  0  0  0  0  0  0
    2.2126    0.5323   -1.7336 O   0  0  0  0  0  0  0  0  0  0  0  0
    3.3077    0.4244    2.8208 H   0  0  0  0  0  0  0  0  0  0  0  0
    1.5784   -1.1126    0.9175 H   0  0  0  0  0  0  0  0  0  0  0  0
    3.9929    0.6967    0.9100 H   0  0  0  0  0  0  0  0  0  0  0  0
    2.6428    1.6372   -0.9455 H   0  0  0  0  0  0  0  0  0  0  0  0
   -0.5125    1.7256    0.5712 H   0  0  0  0  0  0  0  0  0  0  0  0
    1.1640    4.0289    1.7210 H   0  0  0  0  0  0  0  0  0  0  0  0
   -0.0905    3.6581    3.7116 H   0  0  0  0  0  0  0  0  0  0  0  0
    0.6657    1.3277    4.1421 H   0  0  0  0  0  0  0  0  0  0  0  0
    0.3716    0.4174    1.9638 H   0  0  0  0  0  0  0  0  0  0  0  0
    2.3688    2.5547    1.1513 H   0  0  0  0  0  0  0  0  0  0  0  0
    1.2664    3.8723   -0.6774 H   0  0  0  0  0  0  0  0  0  0  0  0
   -0.6170    5.2044   -2.1124 H   0  0  0  0  0  0  0  0  0  0  0  0
   -0.0895    6.1397   -0.7096 H   0  0  0  0  0  0  0  0  0  0  0  0
   -1.8599    5.9198   -1.0306 H   0  0  0  0  0  0  0  0  0  0  0  0
   -2.1930    2.9301    3.3619 H   0  0  0  0  0  0  0  0  0  0  0  0
   -1.3616    1.4577    3.8864 H   0  0  0  0  0  0  0  0  0  0  0  0
   -1.7587    1.6026    2.1697 H   0  0  0  0  0  0  0  0  0  0  0  0
    1.6090   -3.0456    2.5027 H   0  0  0  0  0  0  0  0  0  0  0  0
    1.2320   -2.8302   -0.1193 H   0  0  0  0  0  0  0  0  0  0  0  0
    0.6935   -5.5702    0.6100 H   0  0  0  0  0  0  0  0  0  0  0  0
    0.2335   -4.4063    1.9502 H   0  0  0  0  0  0  0  0  0  0  0  0
   -0.8912   -4.8018   -0.8650 H   0  0  0  0  0  0  0  0  0  0  0  0
   -0.7449   -3.1207   -0.3280 H   0  0  0  0  0  0  0  0  0  0  0  0
   -1.9800   -3.6828    1.7310 H   0  0  0  0  0  0  0  0  0  0  0  0
   -1.9302   -5.4314    1.3034 H   0  0  0  0  0  0  0  0  0  0  0  0
   -4.1136   -4.5286    0.7942 H   0  0  0  0  0  0  0  0  0  0  0  0
   -3.0338   -2.6310   -1.2964 H   0  0  0  0  0  0  0  0  0  0  0  0
   -5.3135   -2.6855   -1.0529 H   0  0  0  0  0  0  0  0  0  0  0  0
   -4.4465   -0.3657    0.7598 H   0  0  0  0  0  0  0  0  0  0  0  0
   -5.6300    0.5085   -1.8095 H   0  0  0  0  0  0  0  0  0  0  0  0
   -6.3418    0.5347    1.1264 H   0  0  0  0  0  0  0  0  0  0  0  0
   -4.2353    1.7036    0.3947 H   0  0  0  0  0  0  0  0  0  0  0  0
   -4.8640    2.4040   -1.8295 H   0  0  0  0  0  0  0  0  0  0  0  0
   -4.0289    4.2482    0.3081 H   0  0  0  0  0  0  0  0  0  0  0  0
   -4.4247    5.0579   -1.2189 H   0  0  0  0  0  0  0  0  0  0  0  0
   -3.0396    2.7174   -1.9958 H   0  0  0  0  0  0  0  0  0  0  0  0
   -2.4767    4.3759   -2.1903 H   0  0  0  0  0  0  0  0  0  0  0  0
    3.1048   -3.6848   -1.0581 H   0  0  0  0  0  0  0  0  0  0  0  0
    3.2092   -5.1291    0.0924 H   0  0  0  0  0  0  0  0  0  0  0  0
    1.8757   -4.9625   -1.1832 H   0  0  0  0  0  0  0  0  0  0  0  0
   -3.0531   -4.6085   -2.0090 H   0  0  0  0  0  0  0  0  0  0  0  0
   -4.3943   -5.4837   -1.2286 H   0  0  0  0  0  0  0  0  0  0  0  0
   -2.7491   -6.0071   -0.8342 H   0  0  0  0  0  0  0  0  0  0  0  0
   -6.0340   -1.8780    1.5621 H   0  0  0  0  0  0  0  0  0  0  0  0
   -5.9295   -3.6073    0.9300 H   0  0  0  0  0  0  0  0  0  0  0  0
   -4.5964   -2.8637    1.8685 H   0  0  0  0  0  0  0  0  0  0  0  0
   -7.8335   -0.2000   -1.6120 H   0  0  0  0  0  0  0  0  0  0  0  0
   -7.5576   -1.2454   -0.1980 H   0  0  0  0  0  0  0  0  0  0  0  0
   -6.8783   -1.6667   -1.8713 H   0  0  0  0  0  0  0  0  0  0  0  0
   -4.6196    3.2263    2.0349 H   0  0  0  0  0  0  0  0  0  0  0  0
   -6.1537    3.8172    1.3272 H   0  0  0  0  0  0  0  0  0  0  0  0
   -6.0743    2.2393    2.2383 H   0  0  0  0  0  0  0  0  0  0  0  0
   -8.0263    0.7303    1.7195 H   0  0  0  0  0  0  0  0  0  0  0  0
  -10.5759    1.0718    1.0021 H   0  0  0  0  0  0  0  0  0  0  0  0
   -9.8701    0.9480   -0.6569 H   0  0  0  0  0  0  0  0  0  0  0  0
   -9.7077   -0.4442    0.5284 H   0  0  0  0  0  0  0  0  0  0  0  0
   -7.0499    2.1855   -2.7472 H   0  0  0  0  0  0  0  0  0  0  0  0
   -6.2968    3.7342   -3.3698 H   0  0  0  0  0  0  0  0  0  0  0  0
   -7.9076    3.7310   -2.6258 H   0  0  0  0  0  0  0  0  0  0  0  0
    8.5695   -1.4722    0.0942 H   0  0  0  0  0  0  0  0  0  0  0  0
    8.3207   -0.3269   -3.5306 H   0  0  0  0  0  0  0  0  0  0  0  0
    8.4460    1.0876   -2.4834 H   0  0  0  0  0  0  0  0  0  0  0  0
    6.3054    1.6983   -2.5681 H   0  0  0  0  0  0  0  0  0  0  0  0
    6.3948    0.8829   -4.2137 H   0  0  0  0  0  0  0  0  0  0  0  0
    4.9384   -2.1241   -2.1801 H   0  0  0  0  0  0  0  0  0  0  0  0
    5.8167   -1.9483   -3.6919 H   0  0  0  0  0  0  0  0  0  0  0  0
    6.8341   -2.4405   -1.0331 H   0  0  0  0  0  0  0  0  0  0  0  0
    7.7026   -2.4369   -2.6092 H   0  0  0  0  0  0  0  0  0  0  0  0
    4.8471   -1.3283   -0.3391 H   0  0  0  0  0  0  0  0  0  0  0  0
    3.3429   -1.2512   -1.3112 H   0  0  0  0  0  0  0  0  0  0  0  0
    9.6321    1.2573   -0.8507 H   0  0  0  0  0  0  0  0  0  0  0  0
    8.8864    0.7585    0.7598 H   0  0  0  0  0  0  0  0  0  0  0  0
   10.1662   -0.8367   -2.4499 H   0  0  0  0  0  0  0  0  0  0  0  0
    9.8464   -2.4875   -1.7066 H   0  0  0  0  0  0  0  0  0  0  0  0
   11.5626    0.7537    0.1967 H   0  0  0  0  0  0  0  0  0  0  0  0
   10.7376   -0.3657    1.3857 H   0  0  0  0  0  0  0  0  0  0  0  0
   12.0966   -0.9824   -1.1410 H   0  0  0  0  0  0  0  0  0  0  0  0
   11.2521   -2.1302    0.0171 H   0  0  0  0  0  0  0  0  0  0  0  0
    4.1992   -2.2882    1.3343 H   0  0  0  0  0  0  0  0  0  0  0  0
    5.1216    1.0572   -1.0038 H   0  0  0  0  0  0  0  0  0  0  0  0
    2.3506   -0.7664    4.3807 H   0  0  0  0  0  0  0  0  0  0  0  0
    2.4254    3.3818    3.1896 H   0  0  0  0  0  0  0  0  0  0  0  0
   -0.5636    2.9448   -2.3854 H   0  0  0  0  0  0  0  0  0  0  0  0
   -9.4077    2.9859    0.7803 H   0  0  0  0  0  0  0  0  0  0  0  0
   -3.7838   -0.7200   -1.9758 H   0  0  0  0  0  0  0  0  0  0  0  0
   -2.8686   -1.8151    1.4604 H   0  0  0  0  0  0  0  0  0  0  0  0
    3.8625   -3.9833    2.7070 H   0  0  0  0  0  0  0  0  0  0  0  0
    1.5647   -0.0447   -1.7668 H   0  0  0  0  0  0  0  0  0  0  0  0
    1.7862    0.3637    2.4941 H   0  0  0  0  0  0  0  0  0  0  0  0
    1.6933   -0.8592   -0.2896 H   0  0  0  0  0  0  0  0  0  0  0  0
    3.5188    0.9854    1.1958 H   0  0  0  0  0  0  0  0  0  0  0  0
    3.3756    2.0697   -1.0331 H   0  0  0  0  0  0  0  0  0  0  0  0
    1.6270    3.6941   -1.2502 H   0  0  0  0  0  0  0  0  0  0  0  0
    0.4451    5.0127    0.0800 H   0  0  0  0  0  0  0  0  0  0  0  0
    1.0465    4.0590    2.0451 H   0  0  0  0  0  0  0  0  0  0  0  0
   -0.9139    1.8396    2.2123 H   0  0  0  0  0  0  0  0  0  0  0  0
   -0.2457    0.8670    0.3383 H   0  0  0  0  0  0  0  0  0  0  0  0
    2.1612    2.6894    0.7965 H   0  0  0  0  0  0  0  0  0  0  0  0
    0.1538    3.0232   -2.8039 H   0  0  0  0  0  0  0  0  0  0  0  0
   -0.8860    4.9527   -2.6398 H   0  0  0  0  0  0  0  0  0  0  0  0
   -2.6090    4.9842   -2.0883 H   0  0  0  0  0  0  0  0  0  0  0  0
   -2.0204    3.8841   -3.4616 H   0  0  0  0  0  0  0  0  0  0  0  0
   -0.9462    5.3700    2.3923 H   0  0  0  0  0  0  0  0  0  0  0  0
   -0.8122    3.9856    3.4892 H   0  0  0  0  0  0  0  0  0  0  0  0
   -1.9959    3.8659    2.1785 H   0  0  0  0  0  0  0  0  0  0  0  0
    1.2120   -2.9939    2.1233 H   0  0  0  0  0  0  0  0  0  0  0  0
    0.5250   -2.5084   -0.3299 H   0  0  0  0  0  0  0  0  0  0  0  0
    0.7212   -5.3907   -0.2678 H   0  0  0  0  0  0  0  0  0  0  0  0
    0.3936   -4.8094    1.3694 H   0  0  0  0  0  0  0  0  0  0  0  0
   -1.3914   -4.9668   -0.9681 H   0  0  0  0  0  0  0  0  0  0  0  0
   -1.2573   -3.2543   -0.4910 H   0  0  0  0  0  0  0  0  0  0  0  0
   -1.7237   -3.8482    1.8300 H   0  0  0  0  0  0  0  0  0  0  0  0
   -1.8537   -5.6027    1.3820 H   0  0  0  0  0  0  0  0  0  0  0  0
   -4.0483   -4.6399    1.5247 H   0  0  0  0  0  0  0  0  0  0  0  0
   -3.2289   -2.9581   -0.9158 H   0  0  0  0  0  0  0  0  0  0  0  0
   -5.4885   -3.0485   -0.7638 H   0  0  0  0  0  0  0  0  0  0  0  0
   -4.7178   -0.6500    1.0060 H   0  0  0  0  0  0  0  0  0  0  0  0
   -6.0000    0.2188   -1.4183 H   0  0  0  0  0  0  0  0  0  0  0  0
   -6.8862    0.1836    1.4588 H   0  0  0  0  0  0  0  0  0  0  0  0
   -4.7320    1.3626    0.6907 H   0  0  0  0  0  0  0  0  0  0  0  0
   -6.2079    2.6578   -1.2149 H   0  0  0  0  0  0  0  0  0  0  0  0
   -3.8172    3.2546    0.4304 H   0  0  0  0  0  0  0  0  0  0  0  0
   -4.4886    4.5485   -0.6674 H   0  0  0  0  0  0  0  0  0  0  0  0
   -3.7838    3.4008   -2.5725 H   0  0  0  0  0  0  0  0  0  0  0  0
   -4.2774    1.8230   -1.7841 H   0  0  0  0  0  0  0  0  0  0  0  0
    2.4690   -2.7472   -1.6740 H   0  0  0  0  0  0  0  0  0  0  0  0
    3.0123   -4.1701   -0.6457 H   0  0  0  0  0  0  0  0  0  0  0  0
    1.6175   -4.3686   -1.7597 H   0  0  0  0  0  0  0  0  0  0  0  0
   -3.5313   -5.0838   -1.4460 H   0  0  0  0  0  0  0  0  0  0  0  0
   -4.8526   -5.6929   -0.3151 H   0  0  0  0  0  0  0  0  0  0  0  0
   -3.1981   -6.3342   -0.1297 H   0  0  0  0  0  0  0  0  0  0  0  0
   -6.4824   -2.2259    1.7564 H   0  0  0  0  0  0  0  0  0  0  0  0
   -6.1392   -3.9270    1.3736 H   0  0  0  0  0  0  0  0  0  0  0  0
   -4.8836   -2.8455    2.1950 H   0  0  0  0  0  0  0  0  0  0  0  0
   -8.0959   -0.6218   -1.4931 H   0  0  0  0  0  0  0  0  0  0  0  0
   -8.0321   -1.4650    0.0701 H   0  0  0  0  0  0  0  0  0  0  0  0
   -7.1959   -2.1303   -1.3445 H   0  0  0  0  0  0  0  0  0  0  0  0
   -5.0983    2.2815    2.8057 H   0  0  0  0  0  0  0  0  0  0  0  0
   -6.2469    3.4659    2.1323 H   0  0  0  0  0  0  0  0  0  0  0  0
   -6.8237    1.8705    2.6667 H   0  0  0  0  0  0  0  0  0  0  0  0
   -8.7256    0.5247    1.6970 H   0  0  0  0  0  0  0  0  0  0  0  0
  -10.3473   -0.5797    0.6063 H   0  0  0  0  0  0  0  0  0  0  0  0
  -11.1217    1.0029    0.4462 H   0  0  0  0  0  0  0  0  0  0  0  0
  -10.1899    0.4086   -0.9400 H   0  0  0  0  0  0  0  0  0  0  0  0
   -8.2665    3.8338   -0.7351 H   0  0  0  0  0  0  0  0  0  0  0  0
   -7.0283    4.9866   -1.3861 H   0  0  0  0  0  0  0  0  0  0  0  0
   -7.8816    5.4064    0.1108 H   0  0  0  0  0  0  0  0  0  0  0  0
   10.6162   -0.5918    0.3683 H   0  0  0  0  0  0  0  0  0  0  0  0
    9.1915    1.4903   -2.0981 H   0  0  0  0  0  0  0  0  0  0  0  0
    9.9286    1.3593   -0.4883 H   0  0  0  0  0  0  0  0  0  0  0  0
    7.9322    1.0462    0.6197 H   0  0  0  0  0  0  0  0  0  0  0  0
    7.6838    2.3971   -0.6050 H   0  0  0  0  0  0  0  0  0  0  0  0
    7.1165   -0.7566   -2.5563 H   0  0  0  0  0  0  0  0  0  0  0  0
    6.0952   -1.4048   -1.2827 H   0  0  0  0  0  0  0  0  0  0  0  0
    8.0614   -0.9557    0.3562 H   0  0  0  0  0  0  0  0  0  0  0  0
    8.2859   -2.2829   -0.7920 H   0  0  0  0  0  0  0  0  0  0  0  0
    4.9854   -0.9898    0.3336 H   0  0  0  0  0  0  0  0  0  0  0  0
    4.2720   -0.6101   -1.2520 H   0  0  0  0  0  0  0  0  0  0  0  0
   11.7401   -0.4647   -2.4937 H   0  0  0  0  0  0  0  0  0  0  0  0
   11.9713    0.7504   -1.1132 H   0  0  0  0  0  0  0  0  0  0  0  0
   10.6858   -2.7130   -1.8530 H   0  0  0  0  0  0  0  0  0  0  0  0
   10.2491   -2.9463   -0.0676 H   0  0  0  0  0  0  0  0  0  0  0  0
   13.6612   -1.3072   -1.6290 H   0  0  0  0  0  0  0  0  0  0  0  0
   13.3928   -0.6396   -0.0081 H   0  0  0  0  0  0  0  0  0  0  0  0
   12.7488   -3.2936   -1.0595 H   0  0  0  0  0  0  0  0  0  0  0  0
   12.4509   -2.7210    0.5909 H   0  0  0  0  0  0  0  0  0  0  0  0
    3.6594   -1.8173    1.7247 H   0  0  0  0  0  0  0  0  0  0  0  0
    5.5846    1.4496    0.3719 H   0  0  0  0  0  0  0  0  0  0  0  0
   -0.0982   -0.7530    2.7617 H   0  0  0  0  0  0  0  0  0  0  0  0
    1.7545    2.3845    2.9797 H   0  0  0  0  0  0  0  0  0  0  0  0
   -0.2897    0.9785   -2.8937 H   0  0  0  0  0  0  0  0  0  0  0  0
   -9.9803    2.7866    0.5830 H   0  0  0  0  0  0  0  0  0  0  0  0
   -4.1434   -0.8551   -1.7954 H   0  0  0  0  0  0  0  0  0  0  0  0
   -3.0526   -2.0280    1.8072 H   0  0  0  0  0  0  0  0  0  0  0  0
    3.1492   -4.0251    2.4555 H   0  0  0  0  0  0  0  0  0  0  0  0
    2.6698    0.7756   -2.5617 H   0  0  0  0  0  0  0  0  0  0  0  0
  1  2  1  0
  2  3  1  0
  3  4  1  0
  5  6  1  0
  6  7  1  0
  7  8  1  0
  1  9  1  0
  8  9  1  0
  4 10  1  0
  5 10  1  0
  9 10  1  0
  5 11  1  0
 11 12  1  0
 12 13  1  6
  7 14  1  0
 15 16  1  0
 16 17  1  0
 17 18  1  0
 18 19  1  0
 19 20  1  0
 20 21  1  0
 21 22  1  0
 22 23  1  0
 23 24  1  0
 24 25  1  0
 25 26  1  0
 26 27  1  0
 27 28  1  0
 28 29  1  0
 16 30  1  0
 20 31  1  0
 22 32  1  0
 24 33  1  0
 26 34  1  0
 35 36  1  0
 39 40  1  0
 41 42  1  0
  3 43  1  0
 38 44  1  0
 38 45  1  0
 44 46  1  0
 45 47  1  0
 46 47  1  0
  2 48  1  0
 15 48  1  0
 43 49  1  0
 40 50  1  0
 41 50  1  0
 49 50  1  0
 38 51  1  0
 39 51  1  0
 42 51  1  0
  1 52  1  0
  8 53  1  0
  6 54  1  0
 12 54  1  0
 11 55  1  0
 12 56  1  0
 29 56  1  0
 27 57  1  0
 37 57  1  0
 25 58  1  0
 35 58  1  0
 35 59  1  0
 23 60  1  0
 21 61  1  0
 15 62  1  0
  4 63  1  0
 64 65  1  0
 65 66  1  0
 66 67  1  0
 68 69  1  0
 69 70  1  0
 70 71  1  0
 64 72  1  0
 71 72  1  0
 67 73  1  0
 68 73  1  0
 72 73  1  0
 68 74  1  0
 74 75  1  0
 75 76  1  6
 70 77  1  0
 78 79  1  0
 79 80  1  0
 80 81  1  0
 81 82  1  0
 82 83  1  0
 83 84  1  0
 84 85  1  0
 85 86  1  0
 86 87  1  0
 87 88  1  0
 88 89  1  0
 89 90  1  0
 90 91  1  0
 91 92  1  0
 79 93  1  0
 83 94  1  0
 85 95  1  0
 87 96  1  0
 89 97  1  0
 98 99  1  0
102103  1  0
104105  1  0
 66106  1  0
101107  1  0
101108  1  0
107109  1  0
108110  1  0
109110  1  0
 65111  1  0
 78111  1  0
106112  1  0
103113  1  0
104113  1  0
112113  1  0
101114  1  0
102114  1  0
105114  1  0
 64115  1  0
 71116  1  0
 69117  1  0
 75117  1  0
 74118  1  0
 75119  1  0
 92119  1  0
 90120  1  0
100120  1  0
 88121  1  0
 98121  1  0
 98122  1  0
 86123  1  0
 84124  1  0
 78125  1  0
 67126  1  0
  1127  1  0
  2128  1  0
  3129  1  1
  4130  1  0
  5131  1  0
  6132  1  0
  7133  1  0
  8134  1  0
  9135  1  0
 10136  1  1
 11137  1  6
 13138  1  0
 13139  1  0
 13140  1  0
 14141  1  0
 14142  1  0
 14143  1  0
 15144  1  0
 16145  1  0
 17146  1  0
 17147  1  0
 18148  1  0
 18149  1  0
 19150  1  0
 19151  1  0
 20152  1  1
 21153  1  6
 22154  1  6
 23155  1  1
 24156  1  6
 25157  1  1
 26158  1  1
 27159  1  6
 28160  1  0
 28161  1  0
 29162  1  0
 29163  1  0
 30164  1  0
 30165  1  0
 30166  1  0
 31167  1  0
 31168  1  0
 31169  1  0
 32170  1  0
 32171  1  0
 32172  1  0
 33173  1  0
 33174  1  0
 33175  1  0
 34176  1  0
 34177  1  0
 34178  1  0
 35179  1  0
 36180  1  0
 36181  1  0
 36182  1  0
 37183  1  0
 37184  1  0
 37185  1  0
 38186  1  0
 39187  1  0
 39188  1  0
 40189  1  0
 40190  1  0
 41191  1  0
 41192  1  0
 42193  1  0
 42194  1  0
 43195  1  0
 43196  1  0
 44197  1  0
 44198  1  0
 45199  1  0
 45200  1  0
 46201  1  0
 46202  1  0
 47203  1  0
 47204  1  0
 48205  1  0
 49206  1  0
 52207  1  0
 53208  1  0
 55209  1  0
 59210  1  0
 60211  1  0
 61212  1  0
 62213  1  0
 63214  1  0
 64215  1  0
 65216  1  0
 66217  1  1
 67218  1  0
 68219  1  0
 69220  1  0
 70221  1  0
 71222  1  0
 72223  1  0
 73224  1  0
 74225  1  6
 76226  1  0
 76227  1  0
 76228  1  0
 77229  1  0
 77230  1  0
 77231  1  0
 78232  1  0
 79233  1  0
 80234  1  0
 80235  1  0
 81236  1  0
 81237  1  0
 82238  1  0
 82239  1  0
 83240  1  1
 84241  1  6
 85242  1  6
 86243  1  1
 87244  1  6
 88245  1  1
 89246  1  1
 90247  1  6
 91248  1  0
 91249  1  0
 92250  1  0
 92251  1  0
 93252  1  0
 93253  1  0
 93254  1  0
 94255  1  0
 94256  1  0
 94257  1  0
 95258  1  0
 95259  1  0
 95260  1  0
 96261  1  0
 96262  1  0
 96263  1  0
 97264  1  0
 97265  1  0
 97266  1  0
 98267  1  0
 99268  1  0
 99269  1  0
 99270  1  0
100271  1  0
100272  1  0
100273  1  0
101274  1  0
102275  1  0
102276  1  0
103277  1  0
103278  1  0
104279  1  0
104280  1  0
105281  1  0
105282  1  0
106283  1  0
106284  1  0
107285  1  0
107286  1  0
108287  1  0
108288  1  0
109289  1  0
109290  1  0
110291  1  0
110292  1  0
111293  1  0
112294  1  0
115295  1  0
116296  1  0
118297  1  0
122298  1  0
123299  1  0
124300  1  0
125301  1  0
126302  1  0
M  END
>  <PDBID>  (1) 
2A69

>  <PDB ID>  (1) 
2A69

>  <Generic Name>  (1) 
Rifapentine

>  <Brand Name>  (1) 
Priftin

>  <DrugBank ID>  (1) 
DB01201

>  <ATC Codes>  (1) 
J04AB05

>  <Ligand ID>  (1) 
RPT

>  <Target Name>  (1) 
DNA-directed RNA polymerase subunit beta'

>  <UniProt ID>  (1) 
P0A674

>  <PDB ID.1>  (1) 
2A69

>  <Seq. Identity>  (1) 
50%

$$$$
