PDB_DB04573_03
     RDKit          3D

102108  0  0  0  0  0  0  0  0999 V2000
   -0.3342   -0.3721   -0.3347 C   0  0  1  0  0  0  0  0  0  0  0  0
    0.3813   -0.9958   -1.4654 C   0  0  0  0  0  0  0  0  0  0  0  0
    1.8443   -1.0488   -1.4398 C   0  0  0  0  0  0  0  0  0  0  0  0
    2.5637   -0.2053   -0.4520 C   0  0  2  0  0  0  0  0  0  0  0  0
    3.0423    1.1081   -0.9956 C   0  0  0  0  0  0  0  0  0  0  0  0
    3.7663   -0.8881    0.1790 C   0  0  1  0  0  0  0  0  0  0  0  0
    4.9631   -0.4586   -0.4158 O   0  0  0  0  0  0  0  0  0  0  0  0
    3.7868   -0.4195    1.6241 C   0  0  2  0  0  0  0  0  0  0  0  0
    3.5292   -1.5494    2.4193 O   0  0  0  0  0  0  0  0  0  0  0  0
    2.6156    0.5542    1.7393 C   0  0  0  0  0  0  0  0  0  0  0  0
    1.6960   -0.0599    0.7760 C   0  0  1  0  0  0  0  0  0  0  0  0
    0.4811    0.6979    0.3725 C   0  0  2  0  0  0  0  0  0  0  0  0
   -0.2436    1.3246    1.5015 C   0  0  0  0  0  0  0  0  0  0  0  0
   -1.6652    0.8625    1.6694 C   0  0  0  0  0  0  0  0  0  0  0  0
   -2.3345    0.9983    0.3064 C   0  0  0  0  0  0  0  0  0  0  0  0
   -3.7990    0.7937    0.5105 C   0  0  0  0  0  0  0  0  0  0  0  0
   -4.5181    0.3703   -0.7495 C   0  0  0  0  0  0  0  0  0  0  0  0
   -5.8502    0.1471   -0.4161 O   0  0  0  0  0  0  0  0  0  0  0  0
   -3.9432   -0.8835   -1.3213 C   0  0  0  0  0  0  0  0  0  0  0  0
   -2.5474   -1.1794   -0.8655 C   0  0  0  0  0  0  0  0  0  0  0  0
   -1.7145    0.1005   -0.7046 C   0  0  2  0  0  0  0  0  0  0  0  0
   -0.3309   -0.7879    0.1342 C   0  0  1  0  0  0  0  0  0  0  0  0
    0.3440   -1.4392   -1.0096 C   0  0  0  0  0  0  0  0  0  0  0  0
    1.8227   -1.3892   -1.0262 C   0  0  0  0  0  0  0  0  0  0  0  0
    2.4193   -0.1244   -0.5105 C   0  0  2  0  0  0  0  0  0  0  0  0
    2.3591    1.0115   -1.4856 C   0  0  0  0  0  0  0  0  0  0  0  0
    3.8545   -0.2755   -0.0551 C   0  0  1  0  0  0  0  0  0  0  0  0
    4.6954   -0.0935   -1.1283 O   0  0  0  0  0  0  0  0  0  0  0  0
    4.0107    0.8910    0.8925 C   0  0  2  0  0  0  0  0  0  0  0  0
    4.8102    0.4952    1.9575 O   0  0  0  0  0  0  0  0  0  0  0  0
    2.6176    1.2776    1.3522 C   0  0  0  0  0  0  0  0  0  0  0  0
    1.7635    0.2013    0.8087 C   0  0  1  0  0  0  0  0  0  0  0  0
    0.3440    0.5104    0.5808 C   0  0  2  0  0  0  0  0  0  0  0  0
   -0.3910    0.9599    1.8253 C   0  0  0  0  0  0  0  0  0  0  0  0
   -1.7833    1.3827    1.3699 C   0  0  0  0  0  0  0  0  0  0  0  0
   -2.5006    0.1264    0.9279 C   0  0  1  0  0  0  0  0  0  0  0  0
   -3.9333    0.3576    0.5895 C   0  0  0  0  0  0  0  0  0  0  0  0
   -4.2953   -0.1091   -0.8063 C   0  0  0  0  0  0  0  0  0  0  0  0
   -5.6766   -0.0491   -0.9442 O   0  0  0  0  0  0  0  0  0  0  0  0
   -3.8896   -1.5548   -0.9134 C   0  0  0  0  0  0  0  0  0  0  0  0
   -2.3897   -1.6675   -0.8223 C   0  0  0  0  0  0  0  0  0  0  0  0
   -1.7440   -0.4226   -0.2618 C   0  0  2  0  0  0  0  0  0  0  0  0
   -0.4886   -1.1639    0.4568 H   0  0  0  0  0  0  0  0  0  0  0  0
    0.0094   -0.4854   -2.4056 H   0  0  0  0  0  0  0  0  0  0  0  0
   -0.0120   -2.0503   -1.5858 H   0  0  0  0  0  0  0  0  0  0  0  0
    2.2457   -0.7601   -2.4538 H   0  0  0  0  0  0  0  0  0  0  0  0
    2.2236   -2.1056   -1.3024 H   0  0  0  0  0  0  0  0  0  0  0  0
    2.7561    1.1431   -2.0792 H   0  0  0  0  0  0  0  0  0  0  0  0
    2.6721    1.9872   -0.4753 H   0  0  0  0  0  0  0  0  0  0  0  0
    4.1647    1.1916   -1.0035 H   0  0  0  0  0  0  0  0  0  0  0  0
    3.6746   -1.9933    0.1011 H   0  0  0  0  0  0  0  0  0  0  0  0
    5.6662   -0.2842    0.2580 H   0  0  0  0  0  0  0  0  0  0  0  0
    4.7435    0.0603    1.8951 H   0  0  0  0  0  0  0  0  0  0  0  0
    3.2057   -2.3150    1.8911 H   0  0  0  0  0  0  0  0  0  0  0  0
    2.9381    1.5718    1.5040 H   0  0  0  0  0  0  0  0  0  0  0  0
    2.2077    0.4784    2.7692 H   0  0  0  0  0  0  0  0  0  0  0  0
    1.4669   -1.1013    1.1179 H   0  0  0  0  0  0  0  0  0  0  0  0
    0.7005    1.4713   -0.3853 H   0  0  0  0  0  0  0  0  0  0  0  0
    0.2959    1.1119    2.4446 H   0  0  0  0  0  0  0  0  0  0  0  0
   -0.2870    2.4454    1.4233 H   0  0  0  0  0  0  0  0  0  0  0  0
   -2.1829    1.6016    2.3310 H   0  0  0  0  0  0  0  0  0  0  0  0
   -1.7045   -0.1553    2.0554 H   0  0  0  0  0  0  0  0  0  0  0  0
   -2.1806    2.0469   -0.0212 H   0  0  0  0  0  0  0  0  0  0  0  0
   -3.9894    0.0766    1.3264 H   0  0  0  0  0  0  0  0  0  0  0  0
   -4.2574    1.7650    0.8294 H   0  0  0  0  0  0  0  0  0  0  0  0
   -4.4696    1.1648   -1.5089 H   0  0  0  0  0  0  0  0  0  0  0  0
   -6.3036    0.9535   -0.0911 H   0  0  0  0  0  0  0  0  0  0  0  0
   -3.9287   -0.8717   -2.4491 H   0  0  0  0  0  0  0  0  0  0  0  0
   -4.5673   -1.7785   -1.0614 H   0  0  0  0  0  0  0  0  0  0  0  0
   -2.5651   -1.6524    0.1532 H   0  0  0  0  0  0  0  0  0  0  0  0
   -2.0387   -1.8217   -1.6117 H   0  0  0  0  0  0  0  0  0  0  0  0
   -1.7155    0.5724   -1.7155 H   0  0  0  0  0  0  0  0  0  0  0  0
   -0.3823   -1.4323    1.0531 H   0  0  0  0  0  0  0  0  0  0  0  0
   -0.0685   -1.0361   -1.9806 H   0  0  0  0  0  0  0  0  0  0  0  0
    0.0363   -2.5207   -1.0184 H   0  0  0  0  0  0  0  0  0  0  0  0
    2.1568   -1.4955   -2.0988 H   0  0  0  0  0  0  0  0  0  0  0  0
    2.2756   -2.2853   -0.5148 H   0  0  0  0  0  0  0  0  0  0  0  0
    2.9494    0.7088   -2.3801 H   0  0  0  0  0  0  0  0  0  0  0  0
    1.3540    1.2570   -1.8380 H   0  0  0  0  0  0  0  0  0  0  0  0
    2.9104    1.8738   -1.0455 H   0  0  0  0  0  0  0  0  0  0  0  0
    4.0016   -1.2497    0.4546 H   0  0  0  0  0  0  0  0  0  0  0  0
    5.5981    0.2016   -0.8721 H   0  0  0  0  0  0  0  0  0  0  0  0
    4.5149    1.7358    0.3777 H   0  0  0  0  0  0  0  0  0  0  0  0
    5.4934    1.1897    2.1526 H   0  0  0  0  0  0  0  0  0  0  0  0
    2.5796    1.2404    2.4631 H   0  0  0  0  0  0  0  0  0  0  0  0
    2.3420    2.2967    1.0142 H   0  0  0  0  0  0  0  0  0  0  0  0
    1.8528   -0.6916    1.4468 H   0  0  0  0  0  0  0  0  0  0  0  0
    0.1369    1.2583   -0.2009 H   0  0  0  0  0  0  0  0  0  0  0  0
   -0.4777    0.1049    2.5339 H   0  0  0  0  0  0  0  0  0  0  0  0
    0.0971    1.8296    2.2965 H   0  0  0  0  0  0  0  0  0  0  0  0
   -1.6196    2.0021    0.4523 H   0  0  0  0  0  0  0  0  0  0  0  0
   -2.3246    1.9336    2.1537 H   0  0  0  0  0  0  0  0  0  0  0  0
   -2.4195   -0.6298    1.7504 H   0  0  0  0  0  0  0  0  0  0  0  0
   -4.5922   -0.2312    1.2875 H   0  0  0  0  0  0  0  0  0  0  0  0
   -4.2209    1.4084    0.7196 H   0  0  0  0  0  0  0  0  0  0  0  0
   -3.8501    0.5120   -1.5960 H   0  0  0  0  0  0  0  0  0  0  0  0
   -5.9853    0.8311   -0.6141 H   0  0  0  0  0  0  0  0  0  0  0  0
   -4.2626   -1.9586   -1.8772 H   0  0  0  0  0  0  0  0  0  0  0  0
   -4.3831   -2.1259   -0.1164 H   0  0  0  0  0  0  0  0  0  0  0  0
   -2.1134   -2.5740   -0.2469 H   0  0  0  0  0  0  0  0  0  0  0  0
   -2.0066   -1.8034   -1.8471 H   0  0  0  0  0  0  0  0  0  0  0  0
   -1.6992    0.3498   -1.0397 H   0  0  0  0  0  0  0  0  0  0  0  0
  1  2  1  0
  2  3  1  0
  3  4  1  0
  4  5  1  6
  4  6  1  0
  6  7  1  0
  6  8  1  0
  8  9  1  0
  8 10  1  0
  4 11  1  0
 10 11  1  0
  1 12  1  0
 11 12  1  0
 12 13  1  0
 13 14  1  0
 14 15  1  0
 15 16  1  0
 16 17  1  0
 17 18  1  0
 17 19  1  0
 19 20  1  0
  1 21  1  0
 15 21  1  0
 20 21  1  0
 22 23  1  0
 23 24  1  0
 24 25  1  0
 25 26  1  6
 25 27  1  0
 27 28  1  0
 27 29  1  0
 29 30  1  0
 29 31  1  0
 25 32  1  0
 31 32  1  0
 22 33  1  0
 32 33  1  0
 33 34  1  0
 34 35  1  0
 35 36  1  0
 36 37  1  0
 37 38  1  0
 38 39  1  0
 38 40  1  0
 40 41  1  0
 22 42  1  0
 36 42  1  0
 41 42  1  0
  1 43  1  1
  2 44  1  0
  2 45  1  0
  3 46  1  0
  3 47  1  0
  5 48  1  0
  5 49  1  0
  5 50  1  0
  6 51  1  1
  7 52  1  0
  8 53  1  1
  9 54  1  0
 10 55  1  0
 10 56  1  0
 11 57  1  1
 12 58  1  6
 13 59  1  0
 13 60  1  0
 14 61  1  0
 14 62  1  0
 15 63  1  0
 16 64  1  0
 16 65  1  0
 17 66  1  0
 18 67  1  0
 19 68  1  0
 19 69  1  0
 20 70  1  0
 20 71  1  0
 21 72  1  6
 22 73  1  1
 23 74  1  0
 23 75  1  0
 24 76  1  0
 24 77  1  0
 26 78  1  0
 26 79  1  0
 26 80  1  0
 27 81  1  1
 28 82  1  0
 29 83  1  6
 30 84  1  0
 31 85  1  0
 31 86  1  0
 32 87  1  1
 33 88  1  6
 34 89  1  0
 34 90  1  0
 35 91  1  0
 35 92  1  0
 36 93  1  1
 37 94  1  0
 37 95  1  0
 38 96  1  0
 39 97  1  0
 40 98  1  0
 40 99  1  0
 41100  1  0
 41101  1  0
 42102  1  6
M  END
>  <PDBID>  (1) 
3Q95

>  <PDB ID>  (1) 
3Q95

>  <Generic Name>  (1) 
Estriol

>  <Brand Name>  (1) 
Aacifemine#Colpoestriol#Ovestin#Synapause E

>  <DrugBank ID>  (1) 
DB04573

>  <ATC Codes>  (1) 
G03CC06#G03CA04

>  <Ligand ID>  (1) 
ESL

>  <Target Name>  (1) 
Estrogen receptor

>  <UniProt ID>  (1) 
P03372

>  <PDB ID.1>  (1) 
3Q95

>  <Seq. Identity>  (1) 
93%

$$$$
