PDB_DB01394_09
     RDKit          3D

 70 72  0  0  0  0  0  0  0  0999 V2000
    3.5920    3.2077   -2.3158 O   0  0  0  0  0  0  0  0  0  0  0  0
    3.3243    2.3117   -1.2375 C   0  0  0  0  0  0  0  0  0  0  0  0
    4.3849    2.5850   -0.1819 C   0  0  0  0  0  0  0  0  0  0  0  0
    2.0142    2.6234   -0.7995 N   0  0  0  0  0  0  0  0  0  0  0  0
    1.5040    1.8938    0.3287 C   0  0  2  0  0  0  0  0  0  0  0  0
    1.3417    0.4416    0.1317 C   0  0  0  0  0  0  0  0  0  0  0  0
    1.8020   -0.4418    1.2637 C   0  0  0  0  0  0  0  0  0  0  0  0
    0.3112    2.6390    0.8132 C   0  0  0  0  0  0  0  0  0  0  0  0
   -0.5605    1.8529    1.7437 C   0  0  0  0  0  0  0  0  0  0  0  0
   -1.5433    1.1044    0.9331 C   0  0  2  0  0  0  0  0  0  0  0  0
   -2.7791    0.9499    1.7926 C   0  0  0  0  0  0  0  0  0  0  0  0
   -3.8614    0.6996    0.7204 C   0  0  0  0  0  0  0  0  0  0  0  0
   -3.5881   -0.6992    0.2908 C   0  0  0  0  0  0  0  0  0  0  0  0
   -2.2009   -0.9331   -0.3077 C   0  0  0  0  0  0  0  0  0  0  0  0
   -2.1346   -2.3267   -0.2708 O   0  0  0  0  0  0  0  0  0  0  0  0
   -2.4272   -2.9673   -1.4468 C   0  0  0  0  0  0  0  0  0  0  0  0
   -3.7395   -1.5005    1.4154 O   0  0  0  0  0  0  0  0  0  0  0  0
   -4.7748   -2.4184    1.3088 C   0  0  0  0  0  0  0  0  0  0  0  0
   -3.6945    1.6632   -0.2386 O   0  0  0  0  0  0  0  0  0  0  0  0
   -4.7763    2.5156   -0.3786 C   0  0  0  0  0  0  0  0  0  0  0  0
   -1.1087   -0.2130    0.3582 C   0  0  1  0  0  0  0  0  0  0  0  0
    0.0795   -0.0238   -0.5350 C   0  0  0  0  0  0  0  0  0  0  0  0
    0.4159   -1.2964   -1.2501 C   0  0  0  0  0  0  0  0  0  0  0  0
    1.8538   -1.4421   -1.6964 C   0  0  0  0  0  0  0  0  0  0  0  0
    2.8362   -1.7492   -0.6291 C   0  0  1  0  0  0  0  0  0  0  0  0
    2.2977   -1.7906    0.7592 C   0  0  0  0  0  0  0  0  0  0  0  0
    3.3806   -2.1283    1.6070 O   0  0  0  0  0  0  0  0  0  0  0  0
    3.4828   -2.9920   -0.8287 O   0  0  0  0  0  0  0  0  0  0  0  0
    4.8401   -2.9095   -0.9248 C   0  0  0  0  0  0  0  0  0  0  0  0
    3.2492    4.1100   -2.0906 H   0  0  0  0  0  0  0  0  0  0  0  0
    3.4007    1.3170   -1.6700 H   0  0  0  0  0  0  0  0  0  0  0  0
    4.0684    3.4425    0.4168 H   0  0  0  0  0  0  0  0  0  0  0  0
    5.3090    2.8622   -0.7270 H   0  0  0  0  0  0  0  0  0  0  0  0
    4.5881    1.6657    0.4022 H   0  0  0  0  0  0  0  0  0  0  0  0
    1.8358    3.6311   -0.7705 H   0  0  0  0  0  0  0  0  0  0  0  0
    2.2923    2.0179    1.1340 H   0  0  0  0  0  0  0  0  0  0  0  0
    2.1318    0.2264   -0.6551 H   0  0  0  0  0  0  0  0  0  0  0  0
    1.0626   -0.6771    2.0201 H   0  0  0  0  0  0  0  0  0  0  0  0
    2.6326    0.1127    1.7698 H   0  0  0  0  0  0  0  0  0  0  0  0
    0.6502    3.5587    1.3147 H   0  0  0  0  0  0  0  0  0  0  0  0
   -0.2987    2.9437   -0.0615 H   0  0  0  0  0  0  0  0  0  0  0  0
   -1.1674    2.6488    2.2901 H   0  0  0  0  0  0  0  0  0  0  0  0
   -0.0514    1.3282    2.5455 H   0  0  0  0  0  0  0  0  0  0  0  0
   -1.7976    1.7540    0.0429 H   0  0  0  0  0  0  0  0  0  0  0  0
   -2.6244    0.0228    2.4028 H   0  0  0  0  0  0  0  0  0  0  0  0
   -2.9952    1.8297    2.3938 H   0  0  0  0  0  0  0  0  0  0  0  0
   -4.8167    0.7195    1.2539 H   0  0  0  0  0  0  0  0  0  0  0  0
   -4.3336   -1.0064   -0.4504 H   0  0  0  0  0  0  0  0  0  0  0  0
   -2.3233   -0.6361   -1.3655 H   0  0  0  0  0  0  0  0  0  0  0  0
   -2.3232   -4.0754   -1.2090 H   0  0  0  0  0  0  0  0  0  0  0  0
   -1.8309   -2.7242   -2.3165 H   0  0  0  0  0  0  0  0  0  0  0  0
   -3.5272   -2.8532   -1.6507 H   0  0  0  0  0  0  0  0  0  0  0  0
   -5.7104   -1.8402    1.1521 H   0  0  0  0  0  0  0  0  0  0  0  0
   -4.8224   -2.9916    2.2656 H   0  0  0  0  0  0  0  0  0  0  0  0
   -4.6205   -3.0677    0.4396 H   0  0  0  0  0  0  0  0  0  0  0  0
   -4.5183    3.2450   -1.1794 H   0  0  0  0  0  0  0  0  0  0  0  0
   -4.9804    3.1048    0.5297 H   0  0  0  0  0  0  0  0  0  0  0  0
   -5.6601    1.9592   -0.7427 H   0  0  0  0  0  0  0  0  0  0  0  0
   -0.7936   -0.8385    1.2422 H   0  0  0  0  0  0  0  0  0  0  0  0
   -0.1889    0.7730   -1.2664 H   0  0  0  0  0  0  0  0  0  0  0  0
    0.1809   -2.1999   -0.6993 H   0  0  0  0  0  0  0  0  0  0  0  0
   -0.1499   -1.2366   -2.2315 H   0  0  0  0  0  0  0  0  0  0  0  0
    2.1686   -0.6727   -2.4414 H   0  0  0  0  0  0  0  0  0  0  0  0
    1.8085   -2.3740   -2.3521 H   0  0  0  0  0  0  0  0  0  0  0  0
    3.7106   -1.0318   -0.6112 H   0  0  0  0  0  0  0  0  0  0  0  0
    1.5475   -2.5908    0.9263 H   0  0  0  0  0  0  0  0  0  0  0  0
    2.9688   -2.3216    2.4895 H   0  0  0  0  0  0  0  0  0  0  0  0
    5.2243   -3.9376   -1.0781 H   0  0  0  0  0  0  0  0  0  0  0  0
    5.3446   -2.5034   -0.0339 H   0  0  0  0  0  0  0  0  0  0  0  0
    5.0873   -2.3502   -1.8540 H   0  0  0  0  0  0  0  0  0  0  0  0
  1  2  1  0
  2  3  1  0
  2  4  1  0
  4  5  1  0
  5  6  1  0
  6  7  1  0
  5  8  1  0
  8  9  1  0
  9 10  1  0
 10 11  1  0
 11 12  1  0
 12 13  1  0
 13 14  1  0
 14 15  1  0
 15 16  1  0
 13 17  1  0
 17 18  1  0
 12 19  1  0
 19 20  1  0
 10 21  1  0
 14 21  1  0
  6 22  1  0
 21 22  1  0
 22 23  1  0
 23 24  1  0
 24 25  1  0
  7 26  1  0
 25 26  1  0
 26 27  1  0
 25 28  1  0
 28 29  1  0
  1 30  1  0
  2 31  1  0
  3 32  1  0
  3 33  1  0
  3 34  1  0
  4 35  1  0
  5 36  1  1
  6 37  1  0
  7 38  1  0
  7 39  1  0
  8 40  1  0
  8 41  1  0
  9 42  1  0
  9 43  1  0
 10 44  1  6
 11 45  1  0
 11 46  1  0
 12 47  1  0
 13 48  1  0
 14 49  1  0
 16 50  1  0
 16 51  1  0
 16 52  1  0
 18 53  1  0
 18 54  1  0
 18 55  1  0
 20 56  1  0
 20 57  1  0
 20 58  1  0
 21 59  1  1
 22 60  1  0
 23 61  1  0
 23 62  1  0
 24 63  1  0
 24 64  1  0
 25 65  1  1
 26 66  1  0
 27 67  1  0
 29 68  1  0
 29 69  1  0
 29 70  1  0
M  END
>  <PDBID>  (1) 
5EYP

>  <PDB ID>  (1) 
5EYP

>  <Generic Name>  (1) 
Colchicine

>  <Brand Name>  (1) 
Colchicine#Colchicine Tab 0.6mg#Colchicine Tab 1mg#Colcrys#Euro-colchicine#Jamp-colchicine#Mitigare#PMS-colchicine#Probenecid and Colchicine#Verban Ont

>  <DrugBank ID>  (1) 
DB01394

>  <ATC Codes>  (1) 
M04AC01

>  <Ligand ID>  (1) 
LOC

>  <Target Name>  (1) 
Tubulin beta-1 chain

>  <UniProt ID>  (1) 
Q9H4B7

>  <PDB ID.1>  (1) 
5EYP

>  <Seq. Identity>  (1) 
78%

$$$$
