PDB_DB01601_09
     RDKit          3D

118121  0  0  0  0  0  0  0  0999 V2000
   -6.3075   -0.4121   -3.6764 C   0  0  0  0  0  0  0  0  0  0  0  0
   -4.0836    0.2926   -2.7571 C   0  0  0  0  0  0  0  0  0  0  0  0
   -4.0221   -0.9771   -2.0595 N   0  0  0  0  0  0  0  0  0  0  0  0
   -4.6263   -1.9156   -2.9938 C   0  0  0  0  0  0  0  0  0  0  0  0
   -6.0425   -1.6663   -3.0001 N   0  0  0  0  0  0  0  0  0  0  0  0
    1.9940    2.9213   -0.4501 C   0  0  0  0  0  0  0  0  0  0  0  0
    0.6673    3.5524   -0.6547 C   0  0  0  0  0  0  0  0  0  0  0  0
    0.7667    5.0987   -0.5427 C   0  0  0  0  0  0  0  0  0  0  0  0
    1.9179    5.5217   -1.4080 C   0  0  0  0  0  0  0  0  0  0  0  0
    3.1799    5.1158   -0.6522 C   0  0  0  0  0  0  0  0  0  0  0  0
    2.8898    3.9590    0.2737 C   0  0  0  0  0  0  0  0  0  0  0  0
   -4.2783   -3.2194   -2.8343 O   0  0  0  0  0  0  0  0  0  0  0  0
   -4.7696   -0.9512   -0.8456 C   0  0  2  0  0  0  0  0  0  0  0  0
   -4.2777    0.0242    0.1802 C   0  0  0  0  0  0  0  0  0  0  0  0
   -2.8887   -0.2779    0.5310 N   0  0  0  0  0  0  0  0  0  0  0  0
   -2.1773    0.8005    1.0507 C   0  0  1  0  0  0  0  0  0  0  0  0
   -5.1122   -2.2834   -0.2613 C   0  0  0  0  0  0  0  0  0  0  0  0
   -3.9813   -3.1645    0.1175 C   0  0  0  0  0  0  0  0  0  0  0  0
   -5.9722   -2.0423    0.9821 C   0  0  0  0  0  0  0  0  0  0  0  0
   -4.3608    1.3595   -0.2433 O   0  0  0  0  0  0  0  0  0  0  0  0
   -2.8466    0.4102    6.0339 C   0  0  0  0  0  0  0  0  0  0  0  0
   -3.8587   -0.6846    5.8151 C   0  0  0  0  0  0  0  0  0  0  0  0
   -3.2903   -1.5854    4.7081 C   0  0  0  0  0  0  0  0  0  0  0  0
   -3.3581   -0.7162    3.4539 C   0  0  0  0  0  0  0  0  0  0  0  0
   -2.4774    0.4723    3.5585 C   0  0  0  0  0  0  0  0  0  0  0  0
   -2.7519    1.2911    4.8097 C   0  0  0  0  0  0  0  0  0  0  0  0
   -2.5679    1.3731    2.3751 C   0  0  0  0  0  0  0  0  0  0  0  0
   -0.6842    0.6440    1.0086 C   0  0  0  0  0  0  0  0  0  0  0  0
   -0.0817    0.5212   -0.3648 C   0  0  1  0  0  0  0  0  0  0  0  0
    1.4275    0.4163   -0.2934 C   0  0  1  0  0  0  0  0  0  0  0  0
    1.8608    0.2495   -1.6765 N   0  0  0  0  0  0  0  0  0  0  0  0
    3.1439   -0.3393   -1.8425 C   0  0  0  0  0  0  0  0  0  0  0  0
    3.2621   -1.7401   -1.3483 C   0  0  0  0  0  0  0  0  0  0  0  0
    4.5307   -2.2817   -1.5157 O   0  0  0  0  0  0  0  0  0  0  0  0
    5.5357   -1.6384   -0.8358 C   0  0  0  0  0  0  0  0  0  0  0  0
   -0.5598   -0.6820   -0.9663 O   0  0  0  0  0  0  0  0  0  0  0  0
    2.0855    1.6283    0.2436 C   0  0  0  0  0  0  0  0  0  0  0  0
    3.3488   -0.4097   -3.2496 O   0  0  0  0  0  0  0  0  0  0  0  0
    6.1617   -2.5388    0.2117 C   0  0  0  0  0  0  0  0  0  0  0  0
    7.1757   -3.4728   -0.3558 C   0  0  0  0  0  0  0  0  0  0  0  0
    8.2106   -2.7758   -1.2052 C   0  0  0  0  0  0  0  0  0  0  0  0
    7.4580   -2.1589   -2.3730 C   0  0  0  0  0  0  0  0  0  0  0  0
    6.5356   -1.0994   -1.8049 C   0  0  0  0  0  0  0  0  0  0  0  0
    7.3631    0.0398   -1.2503 C   0  0  0  0  0  0  0  0  0  0  0  0
    6.6767   -1.7905    1.4118 C   0  0  0  0  0  0  0  0  0  0  0  0
   -5.4622    0.7151   -3.1516 C   0  0  0  0  0  0  0  0  0  0  0  0
   -7.3715   -0.1543   -3.4873 H   0  0  0  0  0  0  0  0  0  0  0  0
   -6.2036   -0.5106   -4.7835 H   0  0  0  0  0  0  0  0  0  0  0  0
   -3.5618    0.0637   -3.7576 H   0  0  0  0  0  0  0  0  0  0  0  0
   -3.5155    1.1029   -2.3125 H   0  0  0  0  0  0  0  0  0  0  0  0
   -4.2666   -1.6162   -4.0248 H   0  0  0  0  0  0  0  0  0  0  0  0
   -6.4976   -2.4240   -3.5833 H   0  0  0  0  0  0  0  0  0  0  0  0
    2.5175    2.7765   -1.4594 H   0  0  0  0  0  0  0  0  0  0  0  0
   -0.1053    3.2910    0.0665 H   0  0  0  0  0  0  0  0  0  0  0  0
    0.3563    3.3623   -1.7371 H   0  0  0  0  0  0  0  0  0  0  0  0
   -0.2082    5.4657   -0.9352 H   0  0  0  0  0  0  0  0  0  0  0  0
    0.9239    5.3866    0.4974 H   0  0  0  0  0  0  0  0  0  0  0  0
    1.8437    5.0156   -2.3862 H   0  0  0  0  0  0  0  0  0  0  0  0
    1.9245    6.6364   -1.5134 H   0  0  0  0  0  0  0  0  0  0  0  0
    3.9865    4.7878   -1.3411 H   0  0  0  0  0  0  0  0  0  0  0  0
    3.5251    5.9599   -0.0521 H   0  0  0  0  0  0  0  0  0  0  0  0
    2.4493    4.3044    1.2075 H   0  0  0  0  0  0  0  0  0  0  0  0
    3.8595    3.4595    0.4888 H   0  0  0  0  0  0  0  0  0  0  0  0
   -3.3125   -3.3190   -2.9106 H   0  0  0  0  0  0  0  0  0  0  0  0
   -5.8000   -0.5206   -1.1495 H   0  0  0  0  0  0  0  0  0  0  0  0
   -4.8727   -0.0504    1.0926 H   0  0  0  0  0  0  0  0  0  0  0  0
   -2.5077   -0.8495   -0.1871 H   0  0  0  0  0  0  0  0  0  0  0  0
   -2.3334    1.7019    0.3034 H   0  0  0  0  0  0  0  0  0  0  0  0
   -5.8113   -2.8306   -0.9517 H   0  0  0  0  0  0  0  0  0  0  0  0
   -3.7801   -3.1299    1.2242 H   0  0  0  0  0  0  0  0  0  0  0  0
   -4.3473   -4.2314   -0.0240 H   0  0  0  0  0  0  0  0  0  0  0  0
   -3.0592   -3.0923   -0.4456 H   0  0  0  0  0  0  0  0  0  0  0  0
   -5.3883   -2.0889    1.8967 H   0  0  0  0  0  0  0  0  0  0  0  0
   -6.5605   -1.1173    0.9062 H   0  0  0  0  0  0  0  0  0  0  0  0
   -6.7547   -2.8583    1.0795 H   0  0  0  0  0  0  0  0  0  0  0  0
   -5.1518    1.8284    0.0993 H   0  0  0  0  0  0  0  0  0  0  0  0
   -1.8713   -0.0454    6.3055 H   0  0  0  0  0  0  0  0  0  0  0  0
   -3.1992    1.0499    6.8724 H   0  0  0  0  0  0  0  0  0  0  0  0
   -4.7541   -0.1814    5.3498 H   0  0  0  0  0  0  0  0  0  0  0  0
   -4.1140   -1.2335    6.7174 H   0  0  0  0  0  0  0  0  0  0  0  0
   -3.9966   -2.4026    4.5753 H   0  0  0  0  0  0  0  0  0  0  0  0
   -2.2811   -1.9184    4.9415 H   0  0  0  0  0  0  0  0  0  0  0  0
   -3.0553   -1.3422    2.6087 H   0  0  0  0  0  0  0  0  0  0  0  0
   -4.4339   -0.4609    3.3287 H   0  0  0  0  0  0  0  0  0  0  0  0
   -1.4246    0.0621    3.6823 H   0  0  0  0  0  0  0  0  0  0  0  0
   -3.6505    1.9055    4.7216 H   0  0  0  0  0  0  0  0  0  0  0  0
   -1.8822    1.9669    4.9575 H   0  0  0  0  0  0  0  0  0  0  0  0
   -3.5987    1.8324    2.3305 H   0  0  0  0  0  0  0  0  0  0  0  0
   -1.9103    2.2907    2.5016 H   0  0  0  0  0  0  0  0  0  0  0  0
   -0.4015   -0.3149    1.5609 H   0  0  0  0  0  0  0  0  0  0  0  0
   -0.1762    1.5013    1.5197 H   0  0  0  0  0  0  0  0  0  0  0  0
   -0.3507    1.3005   -1.0782 H   0  0  0  0  0  0  0  0  0  0  0  0
    1.7479   -0.4387    0.3365 H   0  0  0  0  0  0  0  0  0  0  0  0
    1.6716    1.0731   -2.2520 H   0  0  0  0  0  0  0  0  0  0  0  0
    3.8897    0.3613   -1.4120 H   0  0  0  0  0  0  0  0  0  0  0  0
    2.5886   -2.3834   -1.9892 H   0  0  0  0  0  0  0  0  0  0  0  0
    3.0154   -1.8729   -0.2748 H   0  0  0  0  0  0  0  0  0  0  0  0
    5.1067   -0.7805   -0.2697 H   0  0  0  0  0  0  0  0  0  0  0  0
   -0.1533   -0.7471   -1.8667 H   0  0  0  0  0  0  0  0  0  0  0  0
    1.8007    1.8180    1.3266 H   0  0  0  0  0  0  0  0  0  0  0  0
    3.2107    1.4160    0.3660 H   0  0  0  0  0  0  0  0  0  0  0  0
    2.5846   -0.9504   -3.5830 H   0  0  0  0  0  0  0  0  0  0  0  0
    5.3078   -3.1790    0.5877 H   0  0  0  0  0  0  0  0  0  0  0  0
    7.6931   -3.9739    0.4863 H   0  0  0  0  0  0  0  0  0  0  0  0
    6.7250   -4.2920   -0.9614 H   0  0  0  0  0  0  0  0  0  0  0  0
    8.7328   -1.9986   -0.6404 H   0  0  0  0  0  0  0  0  0  0  0  0
    8.9054   -3.5578   -1.5878 H   0  0  0  0  0  0  0  0  0  0  0  0
    6.9197   -2.9562   -2.8837 H   0  0  0  0  0  0  0  0  0  0  0  0
    8.1685   -1.6297   -3.0435 H   0  0  0  0  0  0  0  0  0  0  0  0
    5.9892   -0.6901   -2.6794 H   0  0  0  0  0  0  0  0  0  0  0  0
    8.4295   -0.1362   -1.4935 H   0  0  0  0  0  0  0  0  0  0  0  0
    7.1098    1.0154   -1.7456 H   0  0  0  0  0  0  0  0  0  0  0  0
    7.2518    0.1707   -0.1759 H   0  0  0  0  0  0  0  0  0  0  0  0
    6.0735   -0.9010    1.6154 H   0  0  0  0  0  0  0  0  0  0  0  0
    7.7691   -1.6006    1.3536 H   0  0  0  0  0  0  0  0  0  0  0  0
    6.5645   -2.4473    2.3259 H   0  0  0  0  0  0  0  0  0  0  0  0
   -5.9962    1.3082   -2.3893 H   0  0  0  0  0  0  0  0  0  0  0  0
   -5.3360    1.4300   -4.0176 H   0  0  0  0  0  0  0  0  0  0  0  0
  2  3  1  0
  3  4  1  0
  1  5  1  0
  4  5  1  0
  6  7  1  0
  7  8  1  0
  8  9  1  0
  9 10  1  0
  6 11  1  0
 10 11  1  0
  4 12  1  0
  3 13  1  0
 13 14  1  0
 14 15  1  0
 15 16  1  0
 13 17  1  0
 17 18  1  0
 17 19  1  0
 14 20  1  0
 21 22  1  0
 22 23  1  0
 23 24  1  0
 24 25  1  0
 21 26  1  0
 25 26  1  0
 16 27  1  0
 25 27  1  0
 16 28  1  0
 28 29  1  0
 29 30  1  0
 30 31  1  0
 31 32  1  0
 32 33  1  0
 33 34  1  0
 34 35  1  0
 29 36  1  0
  6 37  1  0
 30 37  1  0
 32 38  1  0
 35 39  1  0
 39 40  1  0
 40 41  1  0
 41 42  1  0
 35 43  1  0
 42 43  1  0
 43 44  1  0
 39 45  1  0
  1 46  1  0
  2 46  1  0
  1 47  1  0
  1 48  1  0
  2 49  1  0
  2 50  1  0
  4 51  1  0
  5 52  1  0
  6 53  1  0
  7 54  1  0
  7 55  1  0
  8 56  1  0
  8 57  1  0
  9 58  1  0
  9 59  1  0
 10 60  1  0
 10 61  1  0
 11 62  1  0
 11 63  1  0
 12 64  1  0
 13 65  1  6
 14 66  1  0
 15 67  1  0
 16 68  1  6
 17 69  1  0
 18 70  1  0
 18 71  1  0
 18 72  1  0
 19 73  1  0
 19 74  1  0
 19 75  1  0
 20 76  1  0
 21 77  1  0
 21 78  1  0
 22 79  1  0
 22 80  1  0
 23 81  1  0
 23 82  1  0
 24 83  1  0
 24 84  1  0
 25 85  1  0
 26 86  1  0
 26 87  1  0
 27 88  1  0
 27 89  1  0
 28 90  1  0
 28 91  1  0
 29 92  1  6
 30 93  1  1
 31 94  1  0
 32 95  1  0
 33 96  1  0
 33 97  1  0
 35 98  1  0
 36 99  1  0
 37100  1  0
 37101  1  0
 38102  1  0
 39103  1  0
 40104  1  0
 40105  1  0
 41106  1  0
 41107  1  0
 42108  1  0
 42109  1  0
 43110  1  0
 44111  1  0
 44112  1  0
 44113  1  0
 45114  1  0
 45115  1  0
 45116  1  0
 46117  1  0
 46118  1  0
M  END
>  <PDBID>  (1) 
1MUI

>  <PDB ID>  (1) 
1MUI

>  <Generic Name>  (1) 
Lopinavir

>  <Brand Name>  (1) 
Kaletra#Lopinavir-ritonavir#Aluviran#Koletra

>  <DrugBank ID>  (1) 
DB01601

>  <ATC Codes>  (1) 
J05AR10

>  <Ligand ID>  (1) 
AB1

>  <Target Name>  (1) 
Pol polyprotein

>  <UniProt ID>  (1) 
Q72874

>  <PDB ID.1>  (1) 
1MUI

>  <Seq. Identity>  (1) 
99%

$$$$
