PDB_DB01095_01
     RDKit          3D

296304  0  0  0  0  0  0  0  0999 V2000
   -3.0343   -0.5158    1.1073 C   0  0  0  0  0  0  0  0  0  0  0  0
   -2.1512   -1.7854    1.1985 C   0  0  0  0  0  0  0  0  0  0  0  0
   -2.8286   -3.0542    1.2407 C   0  0  0  0  0  0  0  0  0  0  0  0
   -4.2138   -3.2080    0.7378 C   0  0  0  0  0  0  0  0  0  0  0  0
   -4.9579   -1.9418    0.9956 C   0  0  0  0  0  0  0  0  0  0  0  0
   -4.1630   -0.8551    0.2224 C   0  0  0  0  0  0  0  0  0  0  0  0
   -2.0489    0.5387    0.6239 C   0  0  0  0  0  0  0  0  0  0  0  0
   -0.7717   -0.1757    0.7677 C   0  0  0  0  0  0  0  0  0  0  0  0
   -1.1320   -1.4746    0.3048 N   0  0  0  0  0  0  0  0  0  0  0  0
   -4.0050    3.3501   -0.8357 C   0  0  0  0  0  0  0  0  0  0  0  0
   -3.5974    2.3197    0.1545 C   0  0  0  0  0  0  0  0  0  0  0  0
   -2.5638    1.3190   -0.4355 C   0  0  0  0  0  0  0  0  0  0  0  0
   -1.8418    2.1409   -1.4089 C   0  0  0  0  0  0  0  0  0  0  0  0
   -1.5748    3.5755   -0.9239 C   0  0  0  0  0  0  0  0  0  0  0  0
   -2.8857    4.3643   -0.9984 C   0  0  0  0  0  0  0  0  0  0  0  0
   -2.9831    5.0445   -2.1763 F   0  0  0  0  0  0  0  0  0  0  0  0
    7.9645    0.8265   -1.1578 O   0  0  0  0  0  0  0  0  0  0  0  0
    7.8742    1.6643    0.9690 O   0  0  0  0  0  0  0  0  0  0  0  0
    5.4612    1.6490    0.8983 O   0  0  0  0  0  0  0  0  0  0  0  0
    7.9267    0.4939    0.2067 C   0  0  0  0  0  0  0  0  0  0  0  0
    6.6857   -0.3133    0.4700 C   0  0  0  0  0  0  0  0  0  0  0  0
    5.4617    0.4949    0.1085 C   0  0  1  0  0  0  0  0  0  0  0  0
    4.1997   -0.2757    0.5021 C   0  0  0  0  0  0  0  0  0  0  0  0
    2.9688    0.5358    0.2466 C   0  0  1  0  0  0  0  0  0  0  0  0
    1.7600   -0.3203    0.6734 C   0  0  0  0  0  0  0  0  0  0  0  0
    0.4835    0.4527    0.4358 C   0  0  0  0  0  0  0  0  0  0  0  0
   -0.5875   -2.1619   -0.6919 C   0  0  0  0  0  0  0  0  0  0  0  0
    0.1180   -3.4732   -0.4136 C   0  0  0  0  0  0  0  0  0  0  0  0
   -1.5764   -2.4902   -1.8251 C   0  0  0  0  0  0  0  0  0  0  0  0
    2.9186    1.7152    0.9696 O   0  0  0  0  0  0  0  0  0  0  0  0
   -3.0343   -0.5158    1.1073 C   0  0  0  0  0  0  0  0  0  0  0  0
   -2.1512   -1.7854    1.1985 C   0  0  0  0  0  0  0  0  0  0  0  0
   -2.8286   -3.0542    1.2407 C   0  0  0  0  0  0  0  0  0  0  0  0
   -4.2138   -3.2080    0.7378 C   0  0  0  0  0  0  0  0  0  0  0  0
   -4.9579   -1.9418    0.9956 C   0  0  0  0  0  0  0  0  0  0  0  0
   -4.1630   -0.8551    0.2224 C   0  0  0  0  0  0  0  0  0  0  0  0
   -2.0489    0.5387    0.6239 C   0  0  0  0  0  0  0  0  0  0  0  0
   -0.7717   -0.1757    0.7677 C   0  0  0  0  0  0  0  0  0  0  0  0
   -1.1320   -1.4746    0.3048 N   0  0  0  0  0  0  0  0  0  0  0  0
   -4.0050    3.3501   -0.8357 C   0  0  0  0  0  0  0  0  0  0  0  0
   -3.5974    2.3197    0.1545 C   0  0  0  0  0  0  0  0  0  0  0  0
   -2.5638    1.3190   -0.4355 C   0  0  0  0  0  0  0  0  0  0  0  0
   -1.8418    2.1409   -1.4089 C   0  0  0  0  0  0  0  0  0  0  0  0
   -1.5748    3.5755   -0.9239 C   0  0  0  0  0  0  0  0  0  0  0  0
   -2.8857    4.3643   -0.9984 C   0  0  0  0  0  0  0  0  0  0  0  0
   -2.9831    5.0445   -2.1763 F   0  0  0  0  0  0  0  0  0  0  0  0
    7.9645    0.8265   -1.1578 O   0  0  0  0  0  0  0  0  0  0  0  0
    7.8742    1.6643    0.9690 O   0  0  0  0  0  0  0  0  0  0  0  0
    5.4612    1.6490    0.8983 O   0  0  0  0  0  0  0  0  0  0  0  0
    7.9267    0.4939    0.2067 C   0  0  0  0  0  0  0  0  0  0  0  0
    6.6857   -0.3133    0.4700 C   0  0  0  0  0  0  0  0  0  0  0  0
    5.4617    0.4949    0.1085 C   0  0  1  0  0  0  0  0  0  0  0  0
    4.1997   -0.2757    0.5021 C   0  0  0  0  0  0  0  0  0  0  0  0
    2.9688    0.5358    0.2466 C   0  0  1  0  0  0  0  0  0  0  0  0
    1.7600   -0.3203    0.6734 C   0  0  0  0  0  0  0  0  0  0  0  0
    0.4835    0.4527    0.4358 C   0  0  0  0  0  0  0  0  0  0  0  0
   -0.5875   -2.1619   -0.6919 C   0  0  0  0  0  0  0  0  0  0  0  0
    0.1180   -3.4732   -0.4136 C   0  0  0  0  0  0  0  0  0  0  0  0
   -1.5764   -2.4902   -1.8251 C   0  0  0  0  0  0  0  0  0  0  0  0
    2.9186    1.7152    0.9696 O   0  0  0  0  0  0  0  0  0  0  0  0
   -3.0343   -0.5158    1.1073 C   0  0  0  0  0  0  0  0  0  0  0  0
   -2.1512   -1.7854    1.1985 C   0  0  0  0  0  0  0  0  0  0  0  0
   -2.8286   -3.0542    1.2407 C   0  0  0  0  0  0  0  0  0  0  0  0
   -4.2138   -3.2080    0.7378 C   0  0  0  0  0  0  0  0  0  0  0  0
   -4.9579   -1.9418    0.9956 C   0  0  0  0  0  0  0  0  0  0  0  0
   -4.1630   -0.8551    0.2224 C   0  0  0  0  0  0  0  0  0  0  0  0
   -2.0489    0.5387    0.6239 C   0  0  0  0  0  0  0  0  0  0  0  0
   -0.7717   -0.1757    0.7677 C   0  0  0  0  0  0  0  0  0  0  0  0
   -1.1320   -1.4746    0.3048 N   0  0  0  0  0  0  0  0  0  0  0  0
   -4.0050    3.3501   -0.8357 C   0  0  0  0  0  0  0  0  0  0  0  0
   -3.5974    2.3197    0.1545 C   0  0  0  0  0  0  0  0  0  0  0  0
   -2.5638    1.3190   -0.4355 C   0  0  0  0  0  0  0  0  0  0  0  0
   -1.8418    2.1409   -1.4089 C   0  0  0  0  0  0  0  0  0  0  0  0
   -1.5748    3.5755   -0.9239 C   0  0  0  0  0  0  0  0  0  0  0  0
   -2.8857    4.3643   -0.9984 C   0  0  0  0  0  0  0  0  0  0  0  0
   -2.9831    5.0445   -2.1763 F   0  0  0  0  0  0  0  0  0  0  0  0
    7.9645    0.8265   -1.1578 O   0  0  0  0  0  0  0  0  0  0  0  0
    7.8742    1.6643    0.9690 O   0  0  0  0  0  0  0  0  0  0  0  0
    5.4612    1.6490    0.8983 O   0  0  0  0  0  0  0  0  0  0  0  0
    7.9267    0.4939    0.2067 C   0  0  0  0  0  0  0  0  0  0  0  0
    6.6857   -0.3133    0.4700 C   0  0  0  0  0  0  0  0  0  0  0  0
    5.4617    0.4949    0.1085 C   0  0  1  0  0  0  0  0  0  0  0  0
    4.1997   -0.2757    0.5021 C   0  0  0  0  0  0  0  0  0  0  0  0
    2.9688    0.5358    0.2466 C   0  0  1  0  0  0  0  0  0  0  0  0
    1.7600   -0.3203    0.6734 C   0  0  0  0  0  0  0  0  0  0  0  0
    0.4835    0.4527    0.4358 C   0  0  0  0  0  0  0  0  0  0  0  0
   -0.5875   -2.1619   -0.6919 C   0  0  0  0  0  0  0  0  0  0  0  0
    0.1180   -3.4732   -0.4136 C   0  0  0  0  0  0  0  0  0  0  0  0
   -1.5764   -2.4902   -1.8251 C   0  0  0  0  0  0  0  0  0  0  0  0
    2.9186    1.7152    0.9696 O   0  0  0  0  0  0  0  0  0  0  0  0
   -3.0343   -0.5158    1.1073 C   0  0  0  0  0  0  0  0  0  0  0  0
   -2.1512   -1.7854    1.1985 C   0  0  0  0  0  0  0  0  0  0  0  0
   -2.8286   -3.0542    1.2407 C   0  0  0  0  0  0  0  0  0  0  0  0
   -4.2138   -3.2080    0.7378 C   0  0  0  0  0  0  0  0  0  0  0  0
   -4.9579   -1.9418    0.9956 C   0  0  0  0  0  0  0  0  0  0  0  0
   -4.1630   -0.8551    0.2224 C   0  0  0  0  0  0  0  0  0  0  0  0
   -2.0489    0.5387    0.6239 C   0  0  0  0  0  0  0  0  0  0  0  0
   -0.7717   -0.1757    0.7677 C   0  0  0  0  0  0  0  0  0  0  0  0
   -1.1320   -1.4746    0.3048 N   0  0  0  0  0  0  0  0  0  0  0  0
   -4.0050    3.3501   -0.8357 C   0  0  0  0  0  0  0  0  0  0  0  0
   -3.5974    2.3197    0.1545 C   0  0  0  0  0  0  0  0  0  0  0  0
   -2.5638    1.3190   -0.4355 C   0  0  0  0  0  0  0  0  0  0  0  0
   -1.8418    2.1409   -1.4089 C   0  0  0  0  0  0  0  0  0  0  0  0
   -1.5748    3.5755   -0.9239 C   0  0  0  0  0  0  0  0  0  0  0  0
   -2.8857    4.3643   -0.9984 C   0  0  0  0  0  0  0  0  0  0  0  0
   -2.9831    5.0445   -2.1763 F   0  0  0  0  0  0  0  0  0  0  0  0
    7.9645    0.8265   -1.1578 O   0  0  0  0  0  0  0  0  0  0  0  0
    7.8742    1.6643    0.9690 O   0  0  0  0  0  0  0  0  0  0  0  0
    5.4612    1.6490    0.8983 O   0  0  0  0  0  0  0  0  0  0  0  0
    7.9267    0.4939    0.2067 C   0  0  0  0  0  0  0  0  0  0  0  0
    6.6857   -0.3133    0.4700 C   0  0  0  0  0  0  0  0  0  0  0  0
    5.4617    0.4949    0.1085 C   0  0  1  0  0  0  0  0  0  0  0  0
    4.1997   -0.2757    0.5021 C   0  0  0  0  0  0  0  0  0  0  0  0
    2.9688    0.5358    0.2466 C   0  0  1  0  0  0  0  0  0  0  0  0
    1.7600   -0.3203    0.6734 C   0  0  0  0  0  0  0  0  0  0  0  0
    0.4835    0.4527    0.4358 C   0  0  0  0  0  0  0  0  0  0  0  0
   -0.5875   -2.1619   -0.6919 C   0  0  0  0  0  0  0  0  0  0  0  0
    0.1180   -3.4732   -0.4136 C   0  0  0  0  0  0  0  0  0  0  0  0
   -1.5764   -2.4902   -1.8251 C   0  0  0  0  0  0  0  0  0  0  0  0
    2.9186    1.7152    0.9696 O   0  0  0  0  0  0  0  0  0  0  0  0
   -3.4603   -0.2917    2.1115 H   0  0  0  0  0  0  0  0  0  0  0  0
   -1.6878   -1.6191    2.2534 H   0  0  0  0  0  0  0  0  0  0  0  0
   -2.8568   -3.4276    2.3186 H   0  0  0  0  0  0  0  0  0  0  0  0
   -2.2299   -3.8447    0.7392 H   0  0  0  0  0  0  0  0  0  0  0  0
   -4.2636   -3.4409   -0.3477 H   0  0  0  0  0  0  0  0  0  0  0  0
   -4.7294   -4.0093    1.3255 H   0  0  0  0  0  0  0  0  0  0  0  0
   -5.0593   -1.6800    2.0468 H   0  0  0  0  0  0  0  0  0  0  0  0
   -5.9462   -2.0527    0.4630 H   0  0  0  0  0  0  0  0  0  0  0  0
   -4.9710   -0.1083    0.0954 H   0  0  0  0  0  0  0  0  0  0  0  0
   -3.9159   -1.3558   -0.7353 H   0  0  0  0  0  0  0  0  0  0  0  0
   -2.0243    1.2638    1.5523 H   0  0  0  0  0  0  0  0  0  0  0  0
   -0.6503   -0.3746    1.9013 H   0  0  0  0  0  0  0  0  0  0  0  0
   -4.8307    3.9357   -0.3285 H   0  0  0  0  0  0  0  0  0  0  0  0
   -4.4427    2.9996   -1.7652 H   0  0  0  0  0  0  0  0  0  0  0  0
   -2.9187    2.8942    0.8877 H   0  0  0  0  0  0  0  0  0  0  0  0
   -4.3372    1.8942    0.7929 H   0  0  0  0  0  0  0  0  0  0  0  0
   -3.1741    0.6027   -1.1118 H   0  0  0  0  0  0  0  0  0  0  0  0
   -1.0297    1.7181   -1.9908 H   0  0  0  0  0  0  0  0  0  0  0  0
   -2.5855    2.3685   -2.2587 H   0  0  0  0  0  0  0  0  0  0  0  0
   -1.1722    3.5436    0.0848 H   0  0  0  0  0  0  0  0  0  0  0  0
   -0.8175    4.0014   -1.5970 H   0  0  0  0  0  0  0  0  0  0  0  0
   -2.8669    5.0577   -0.1337 H   0  0  0  0  0  0  0  0  0  0  0  0
    7.6082    1.7489   -1.2741 H   0  0  0  0  0  0  0  0  0  0  0  0
    7.9430    1.4075    1.9119 H   0  0  0  0  0  0  0  0  0  0  0  0
    5.1499    1.3953    1.7981 H   0  0  0  0  0  0  0  0  0  0  0  0
    8.7922   -0.1280    0.4649 H   0  0  0  0  0  0  0  0  0  0  0  0
    6.6725   -0.5891    1.5421 H   0  0  0  0  0  0  0  0  0  0  0  0
    6.7638   -1.2395   -0.1291 H   0  0  0  0  0  0  0  0  0  0  0  0
    5.4818    0.6987   -0.9665 H   0  0  0  0  0  0  0  0  0  0  0  0
    4.1609   -1.1511   -0.1904 H   0  0  0  0  0  0  0  0  0  0  0  0
    4.2639   -0.6668    1.5174 H   0  0  0  0  0  0  0  0  0  0  0  0
    2.8513    0.7591   -0.8188 H   0  0  0  0  0  0  0  0  0  0  0  0
    1.9557   -0.4405    1.7919 H   0  0  0  0  0  0  0  0  0  0  0  0
    1.8269   -1.3165    0.2934 H   0  0  0  0  0  0  0  0  0  0  0  0
    0.5558    0.7643   -0.6341 H   0  0  0  0  0  0  0  0  0  0  0  0
    0.5993    1.3591    1.1089 H   0  0  0  0  0  0  0  0  0  0  0  0
    0.1639   -1.4977   -1.2559 H   0  0  0  0  0  0  0  0  0  0  0  0
   -0.4597   -4.3612   -0.7824 H   0  0  0  0  0  0  0  0  0  0  0  0
    0.4229   -3.5790    0.6491 H   0  0  0  0  0  0  0  0  0  0  0  0
    1.0640   -3.5086   -0.9944 H   0  0  0  0  0  0  0  0  0  0  0  0
   -2.2549   -3.3134   -1.5753 H   0  0  0  0  0  0  0  0  0  0  0  0
   -1.0024   -2.8698   -2.7193 H   0  0  0  0  0  0  0  0  0  0  0  0
   -2.0778   -1.5784   -2.2045 H   0  0  0  0  0  0  0  0  0  0  0  0
    2.5834    1.5920    1.8900 H   0  0  0  0  0  0  0  0  0  0  0  0
   -3.4603   -0.2917    2.1115 H   0  0  0  0  0  0  0  0  0  0  0  0
   -1.6878   -1.6191    2.2534 H   0  0  0  0  0  0  0  0  0  0  0  0
   -2.8568   -3.4276    2.3186 H   0  0  0  0  0  0  0  0  0  0  0  0
   -2.2299   -3.8447    0.7392 H   0  0  0  0  0  0  0  0  0  0  0  0
   -4.2636   -3.4409   -0.3477 H   0  0  0  0  0  0  0  0  0  0  0  0
   -4.7294   -4.0093    1.3255 H   0  0  0  0  0  0  0  0  0  0  0  0
   -5.0593   -1.6800    2.0468 H   0  0  0  0  0  0  0  0  0  0  0  0
   -5.9462   -2.0527    0.4630 H   0  0  0  0  0  0  0  0  0  0  0  0
   -4.9710   -0.1083    0.0954 H   0  0  0  0  0  0  0  0  0  0  0  0
   -3.9159   -1.3558   -0.7353 H   0  0  0  0  0  0  0  0  0  0  0  0
   -2.0243    1.2638    1.5523 H   0  0  0  0  0  0  0  0  0  0  0  0
   -0.6503   -0.3746    1.9013 H   0  0  0  0  0  0  0  0  0  0  0  0
   -4.8307    3.9357   -0.3285 H   0  0  0  0  0  0  0  0  0  0  0  0
   -4.4427    2.9996   -1.7652 H   0  0  0  0  0  0  0  0  0  0  0  0
   -2.9187    2.8942    0.8877 H   0  0  0  0  0  0  0  0  0  0  0  0
   -4.3372    1.8942    0.7929 H   0  0  0  0  0  0  0  0  0  0  0  0
   -3.1741    0.6027   -1.1118 H   0  0  0  0  0  0  0  0  0  0  0  0
   -1.0297    1.7181   -1.9908 H   0  0  0  0  0  0  0  0  0  0  0  0
   -2.5855    2.3685   -2.2587 H   0  0  0  0  0  0  0  0  0  0  0  0
   -1.1722    3.5436    0.0848 H   0  0  0  0  0  0  0  0  0  0  0  0
   -0.8175    4.0014   -1.5970 H   0  0  0  0  0  0  0  0  0  0  0  0
   -2.8669    5.0577   -0.1337 H   0  0  0  0  0  0  0  0  0  0  0  0
    7.6082    1.7489   -1.2741 H   0  0  0  0  0  0  0  0  0  0  0  0
    7.9430    1.4075    1.9119 H   0  0  0  0  0  0  0  0  0  0  0  0
    5.1499    1.3953    1.7981 H   0  0  0  0  0  0  0  0  0  0  0  0
    8.7922   -0.1280    0.4649 H   0  0  0  0  0  0  0  0  0  0  0  0
    6.6725   -0.5891    1.5421 H   0  0  0  0  0  0  0  0  0  0  0  0
    6.7638   -1.2395   -0.1291 H   0  0  0  0  0  0  0  0  0  0  0  0
    5.4818    0.6987   -0.9665 H   0  0  0  0  0  0  0  0  0  0  0  0
    4.1609   -1.1511   -0.1904 H   0  0  0  0  0  0  0  0  0  0  0  0
    4.2639   -0.6668    1.5174 H   0  0  0  0  0  0  0  0  0  0  0  0
    2.8513    0.7591   -0.8188 H   0  0  0  0  0  0  0  0  0  0  0  0
    1.9557   -0.4405    1.7919 H   0  0  0  0  0  0  0  0  0  0  0  0
    1.8269   -1.3165    0.2934 H   0  0  0  0  0  0  0  0  0  0  0  0
    0.5558    0.7643   -0.6341 H   0  0  0  0  0  0  0  0  0  0  0  0
    0.5993    1.3591    1.1089 H   0  0  0  0  0  0  0  0  0  0  0  0
    0.1639   -1.4977   -1.2559 H   0  0  0  0  0  0  0  0  0  0  0  0
   -0.4597   -4.3612   -0.7824 H   0  0  0  0  0  0  0  0  0  0  0  0
    0.4229   -3.5790    0.6491 H   0  0  0  0  0  0  0  0  0  0  0  0
    1.0640   -3.5086   -0.9944 H   0  0  0  0  0  0  0  0  0  0  0  0
   -2.2549   -3.3134   -1.5753 H   0  0  0  0  0  0  0  0  0  0  0  0
   -1.0024   -2.8698   -2.7193 H   0  0  0  0  0  0  0  0  0  0  0  0
   -2.0778   -1.5784   -2.2045 H   0  0  0  0  0  0  0  0  0  0  0  0
    2.5834    1.5920    1.8900 H   0  0  0  0  0  0  0  0  0  0  0  0
   -3.4603   -0.2917    2.1115 H   0  0  0  0  0  0  0  0  0  0  0  0
   -1.6878   -1.6191    2.2534 H   0  0  0  0  0  0  0  0  0  0  0  0
   -2.8568   -3.4276    2.3186 H   0  0  0  0  0  0  0  0  0  0  0  0
   -2.2299   -3.8447    0.7392 H   0  0  0  0  0  0  0  0  0  0  0  0
   -4.2636   -3.4409   -0.3477 H   0  0  0  0  0  0  0  0  0  0  0  0
   -4.7294   -4.0093    1.3255 H   0  0  0  0  0  0  0  0  0  0  0  0
   -5.0593   -1.6800    2.0468 H   0  0  0  0  0  0  0  0  0  0  0  0
   -5.9462   -2.0527    0.4630 H   0  0  0  0  0  0  0  0  0  0  0  0
   -4.9710   -0.1083    0.0954 H   0  0  0  0  0  0  0  0  0  0  0  0
   -3.9159   -1.3558   -0.7353 H   0  0  0  0  0  0  0  0  0  0  0  0
   -2.0243    1.2638    1.5523 H   0  0  0  0  0  0  0  0  0  0  0  0
   -0.6503   -0.3746    1.9013 H   0  0  0  0  0  0  0  0  0  0  0  0
   -4.8307    3.9357   -0.3285 H   0  0  0  0  0  0  0  0  0  0  0  0
   -4.4427    2.9996   -1.7652 H   0  0  0  0  0  0  0  0  0  0  0  0
   -2.9187    2.8942    0.8877 H   0  0  0  0  0  0  0  0  0  0  0  0
   -4.3372    1.8942    0.7929 H   0  0  0  0  0  0  0  0  0  0  0  0
   -3.1741    0.6027   -1.1118 H   0  0  0  0  0  0  0  0  0  0  0  0
   -1.0297    1.7181   -1.9908 H   0  0  0  0  0  0  0  0  0  0  0  0
   -2.5855    2.3685   -2.2587 H   0  0  0  0  0  0  0  0  0  0  0  0
   -1.1722    3.5436    0.0848 H   0  0  0  0  0  0  0  0  0  0  0  0
   -0.8175    4.0014   -1.5970 H   0  0  0  0  0  0  0  0  0  0  0  0
   -2.8669    5.0577   -0.1337 H   0  0  0  0  0  0  0  0  0  0  0  0
    7.6082    1.7489   -1.2741 H   0  0  0  0  0  0  0  0  0  0  0  0
    7.9430    1.4075    1.9119 H   0  0  0  0  0  0  0  0  0  0  0  0
    5.1499    1.3953    1.7981 H   0  0  0  0  0  0  0  0  0  0  0  0
    8.7922   -0.1280    0.4649 H   0  0  0  0  0  0  0  0  0  0  0  0
    6.6725   -0.5891    1.5421 H   0  0  0  0  0  0  0  0  0  0  0  0
    6.7638   -1.2395   -0.1291 H   0  0  0  0  0  0  0  0  0  0  0  0
    5.4818    0.6987   -0.9665 H   0  0  0  0  0  0  0  0  0  0  0  0
    4.1609   -1.1511   -0.1904 H   0  0  0  0  0  0  0  0  0  0  0  0
    4.2639   -0.6668    1.5174 H   0  0  0  0  0  0  0  0  0  0  0  0
    2.8513    0.7591   -0.8188 H   0  0  0  0  0  0  0  0  0  0  0  0
    1.9557   -0.4405    1.7919 H   0  0  0  0  0  0  0  0  0  0  0  0
    1.8269   -1.3165    0.2934 H   0  0  0  0  0  0  0  0  0  0  0  0
    0.5558    0.7643   -0.6341 H   0  0  0  0  0  0  0  0  0  0  0  0
    0.5993    1.3591    1.1089 H   0  0  0  0  0  0  0  0  0  0  0  0
    0.1639   -1.4977   -1.2559 H   0  0  0  0  0  0  0  0  0  0  0  0
   -0.4597   -4.3612   -0.7824 H   0  0  0  0  0  0  0  0  0  0  0  0
    0.4229   -3.5790    0.6491 H   0  0  0  0  0  0  0  0  0  0  0  0
    1.0640   -3.5086   -0.9944 H   0  0  0  0  0  0  0  0  0  0  0  0
   -2.2549   -3.3134   -1.5753 H   0  0  0  0  0  0  0  0  0  0  0  0
   -1.0024   -2.8698   -2.7193 H   0  0  0  0  0  0  0  0  0  0  0  0
   -2.0778   -1.5784   -2.2045 H   0  0  0  0  0  0  0  0  0  0  0  0
    2.5834    1.5920    1.8900 H   0  0  0  0  0  0  0  0  0  0  0  0
   -3.4603   -0.2917    2.1115 H   0  0  0  0  0  0  0  0  0  0  0  0
   -1.6878   -1.6191    2.2534 H   0  0  0  0  0  0  0  0  0  0  0  0
   -2.8568   -3.4276    2.3186 H   0  0  0  0  0  0  0  0  0  0  0  0
   -2.2299   -3.8447    0.7392 H   0  0  0  0  0  0  0  0  0  0  0  0
   -4.2636   -3.4409   -0.3477 H   0  0  0  0  0  0  0  0  0  0  0  0
   -4.7294   -4.0093    1.3255 H   0  0  0  0  0  0  0  0  0  0  0  0
   -5.0593   -1.6800    2.0468 H   0  0  0  0  0  0  0  0  0  0  0  0
   -5.9462   -2.0527    0.4630 H   0  0  0  0  0  0  0  0  0  0  0  0
   -4.9710   -0.1083    0.0954 H   0  0  0  0  0  0  0  0  0  0  0  0
   -3.9159   -1.3558   -0.7353 H   0  0  0  0  0  0  0  0  0  0  0  0
   -2.0243    1.2638    1.5523 H   0  0  0  0  0  0  0  0  0  0  0  0
   -0.6503   -0.3746    1.9013 H   0  0  0  0  0  0  0  0  0  0  0  0
   -4.8307    3.9357   -0.3285 H   0  0  0  0  0  0  0  0  0  0  0  0
   -4.4427    2.9996   -1.7652 H   0  0  0  0  0  0  0  0  0  0  0  0
   -2.9187    2.8942    0.8877 H   0  0  0  0  0  0  0  0  0  0  0  0
   -4.3372    1.8942    0.7929 H   0  0  0  0  0  0  0  0  0  0  0  0
   -3.1741    0.6027   -1.1118 H   0  0  0  0  0  0  0  0  0  0  0  0
   -1.0297    1.7181   -1.9908 H   0  0  0  0  0  0  0  0  0  0  0  0
   -2.5855    2.3685   -2.2587 H   0  0  0  0  0  0  0  0  0  0  0  0
   -1.1722    3.5436    0.0848 H   0  0  0  0  0  0  0  0  0  0  0  0
   -0.8175    4.0014   -1.5970 H   0  0  0  0  0  0  0  0  0  0  0  0
   -2.8669    5.0577   -0.1337 H   0  0  0  0  0  0  0  0  0  0  0  0
    7.6082    1.7489   -1.2741 H   0  0  0  0  0  0  0  0  0  0  0  0
    7.9430    1.4075    1.9119 H   0  0  0  0  0  0  0  0  0  0  0  0
    5.1499    1.3953    1.7981 H   0  0  0  0  0  0  0  0  0  0  0  0
    8.7922   -0.1280    0.4649 H   0  0  0  0  0  0  0  0  0  0  0  0
    6.6725   -0.5891    1.5421 H   0  0  0  0  0  0  0  0  0  0  0  0
    6.7638   -1.2395   -0.1291 H   0  0  0  0  0  0  0  0  0  0  0  0
    5.4818    0.6987   -0.9665 H   0  0  0  0  0  0  0  0  0  0  0  0
    4.1609   -1.1511   -0.1904 H   0  0  0  0  0  0  0  0  0  0  0  0
    4.2639   -0.6668    1.5174 H   0  0  0  0  0  0  0  0  0  0  0  0
    2.8513    0.7591   -0.8188 H   0  0  0  0  0  0  0  0  0  0  0  0
    1.9557   -0.4405    1.7919 H   0  0  0  0  0  0  0  0  0  0  0  0
    1.8269   -1.3165    0.2934 H   0  0  0  0  0  0  0  0  0  0  0  0
    0.5558    0.7643   -0.6341 H   0  0  0  0  0  0  0  0  0  0  0  0
    0.5993    1.3591    1.1089 H   0  0  0  0  0  0  0  0  0  0  0  0
    0.1639   -1.4977   -1.2559 H   0  0  0  0  0  0  0  0  0  0  0  0
   -0.4597   -4.3612   -0.7824 H   0  0  0  0  0  0  0  0  0  0  0  0
    0.4229   -3.5790    0.6491 H   0  0  0  0  0  0  0  0  0  0  0  0
    1.0640   -3.5086   -0.9944 H   0  0  0  0  0  0  0  0  0  0  0  0
   -2.2549   -3.3134   -1.5753 H   0  0  0  0  0  0  0  0  0  0  0  0
   -1.0024   -2.8698   -2.7193 H   0  0  0  0  0  0  0  0  0  0  0  0
   -2.0778   -1.5784   -2.2045 H   0  0  0  0  0  0  0  0  0  0  0  0
    2.5834    1.5920    1.8900 H   0  0  0  0  0  0  0  0  0  0  0  0
  1  2  1  0
  2  3  1  0
  3  4  1  0
  4  5  1  0
  1  6  1  0
  5  6  1  0
  1  7  1  0
  7  8  1  0
  2  9  1  0
  8  9  1  0
 10 11  1  0
  7 12  1  0
 11 12  1  0
 12 13  1  0
 13 14  1  0
 10 15  1  0
 14 15  1  0
 15 16  1  0
 17 20  1  0
 18 20  1  0
 20 21  1  0
 19 22  1  0
 21 22  1  0
 22 23  1  0
 23 24  1  0
 24 25  1  0
  8 26  1  0
 25 26  1  0
  9 27  1  0
 27 28  1  0
 27 29  1  0
 24 30  1  0
 31 32  1  0
 32 33  1  0
 33 34  1  0
 34 35  1  0
 31 36  1  0
 35 36  1  0
 31 37  1  0
 37 38  1  0
 32 39  1  0
 38 39  1  0
 40 41  1  0
 37 42  1  0
 41 42  1  0
 42 43  1  0
 43 44  1  0
 40 45  1  0
 44 45  1  0
 45 46  1  0
 47 50  1  0
 48 50  1  0
 50 51  1  0
 49 52  1  0
 51 52  1  0
 52 53  1  0
 53 54  1  0
 54 55  1  0
 38 56  1  0
 55 56  1  0
 39 57  1  0
 57 58  1  0
 57 59  1  0
 54 60  1  0
 61 62  1  0
 62 63  1  0
 63 64  1  0
 64 65  1  0
 61 66  1  0
 65 66  1  0
 61 67  1  0
 67 68  1  0
 62 69  1  0
 68 69  1  0
 70 71  1  0
 67 72  1  0
 71 72  1  0
 72 73  1  0
 73 74  1  0
 70 75  1  0
 74 75  1  0
 75 76  1  0
 77 80  1  0
 78 80  1  0
 80 81  1  0
 79 82  1  0
 81 82  1  0
 82 83  1  0
 83 84  1  0
 84 85  1  0
 68 86  1  0
 85 86  1  0
 69 87  1  0
 87 88  1  0
 87 89  1  0
 84 90  1  0
 91 92  1  0
 92 93  1  0
 93 94  1  0
 94 95  1  0
 91 96  1  0
 95 96  1  0
 91 97  1  0
 97 98  1  0
 92 99  1  0
 98 99  1  0
100101  1  0
 97102  1  0
101102  1  0
102103  1  0
103104  1  0
100105  1  0
104105  1  0
105106  1  0
107110  1  0
108110  1  0
110111  1  0
109112  1  0
111112  1  0
112113  1  0
113114  1  0
114115  1  0
 98116  1  0
115116  1  0
 99117  1  0
117118  1  0
117119  1  0
114120  1  0
  1121  1  0
  2122  1  0
  3123  1  0
  3124  1  0
  4125  1  0
  4126  1  0
  5127  1  0
  5128  1  0
  6129  1  0
  6130  1  0
  7131  1  0
  8132  1  0
 10133  1  0
 10134  1  0
 11135  1  0
 11136  1  0
 12137  1  0
 13138  1  0
 13139  1  0
 14140  1  0
 14141  1  0
 15142  1  0
 17143  1  0
 18144  1  0
 19145  1  0
 20146  1  0
 21147  1  0
 21148  1  0
 22149  1  6
 23150  1  0
 23151  1  0
 24152  1  6
 25153  1  0
 25154  1  0
 26155  1  0
 26156  1  0
 27157  1  0
 28158  1  0
 28159  1  0
 28160  1  0
 29161  1  0
 29162  1  0
 29163  1  0
 30164  1  0
 31165  1  0
 32166  1  0
 33167  1  0
 33168  1  0
 34169  1  0
 34170  1  0
 35171  1  0
 35172  1  0
 36173  1  0
 36174  1  0
 37175  1  0
 38176  1  0
 40177  1  0
 40178  1  0
 41179  1  0
 41180  1  0
 42181  1  0
 43182  1  0
 43183  1  0
 44184  1  0
 44185  1  0
 45186  1  0
 47187  1  0
 48188  1  0
 49189  1  0
 50190  1  0
 51191  1  0
 51192  1  0
 52193  1  6
 53194  1  0
 53195  1  0
 54196  1  6
 55197  1  0
 55198  1  0
 56199  1  0
 56200  1  0
 57201  1  0
 58202  1  0
 58203  1  0
 58204  1  0
 59205  1  0
 59206  1  0
 59207  1  0
 60208  1  0
 61209  1  0
 62210  1  0
 63211  1  0
 63212  1  0
 64213  1  0
 64214  1  0
 65215  1  0
 65216  1  0
 66217  1  0
 66218  1  0
 67219  1  0
 68220  1  0
 70221  1  0
 70222  1  0
 71223  1  0
 71224  1  0
 72225  1  0
 73226  1  0
 73227  1  0
 74228  1  0
 74229  1  0
 75230  1  0
 77231  1  0
 78232  1  0
 79233  1  0
 80234  1  0
 81235  1  0
 81236  1  0
 82237  1  6
 83238  1  0
 83239  1  0
 84240  1  6
 85241  1  0
 85242  1  0
 86243  1  0
 86244  1  0
 87245  1  0
 88246  1  0
 88247  1  0
 88248  1  0
 89249  1  0
 89250  1  0
 89251  1  0
 90252  1  0
 91253  1  0
 92254  1  0
 93255  1  0
 93256  1  0
 94257  1  0
 94258  1  0
 95259  1  0
 95260  1  0
 96261  1  0
 96262  1  0
 97263  1  0
 98264  1  0
100265  1  0
100266  1  0
101267  1  0
101268  1  0
102269  1  0
103270  1  0
103271  1  0
104272  1  0
104273  1  0
105274  1  0
107275  1  0
108276  1  0
109277  1  0
110278  1  0
111279  1  0
111280  1  0
112281  1  6
113282  1  0
113283  1  0
114284  1  6
115285  1  0
115286  1  0
116287  1  0
116288  1  0
117289  1  0
118290  1  0
118291  1  0
118292  1  0
119293  1  0
119294  1  0
119295  1  0
120296  1  0
M  END
>  <PDBID>  (1) 
1HWI

>  <PDB ID>  (1) 
1HWI

>  <Generic Name>  (1) 
Fluvastatin

>  <Brand Name>  (1) 
Fluvastatin#Fluvastatin Sodium#Fluvastatin Sodium ER#Lescol#Lescol 20mg#Lescol 40mg#Lescol XL#Sandoz Fluvastatin#Teva-fluvastatin#Canef#Cranoc

>  <DrugBank ID>  (1) 
DB01095

>  <ATC Codes>  (1) 
C10AA04

>  <Ligand ID>  (1) 
115

>  <Target Name>  (1) 
3-hydroxy-3-methylglutaryl-coenzyme A reductase

>  <UniProt ID>  (1) 
P04035

>  <PDB ID.1>  (1) 
1HWI

>  <Seq. Identity>  (1) 
97%

$$$$
