PDB_DB01263_07
     RDKit          3D

119125  0  0  0  0  0  0  0  0999 V2000
   10.6753   -2.2914    2.2202 C   0  0  0  0  0  0  0  0  0  0  0  0
   11.9584   -1.1832   -0.2773 C   0  0  0  0  0  0  0  0  0  0  0  0
    9.7353    0.8111   -1.2250 O   0  0  0  0  0  0  0  0  0  0  0  0
   13.2448   -0.1838    1.4320 O   0  0  0  0  0  0  0  0  0  0  0  0
   -8.8872   -2.4044    2.5886 F   0  0  0  0  0  0  0  0  0  0  0  0
  -10.3485    1.4245    4.8551 F   0  0  0  0  0  0  0  0  0  0  0  0
   -9.8689   -0.6171    3.7618 C   0  0  0  0  0  0  0  0  0  0  0  0
   -1.7790   -1.5059   -0.6035 C   0  0  0  0  0  0  0  0  0  0  0  0
   -2.8518    0.6908   -0.8778 C   0  0  0  0  0  0  0  0  0  0  0  0
   -0.7038   -1.0257   -1.5896 C   0  0  0  0  0  0  0  0  0  0  0  0
   -1.4387    1.0703   -0.4677 C   0  0  0  0  0  0  0  0  0  0  0  0
    4.7519    2.0006   -0.4137 C   0  0  0  0  0  0  0  0  0  0  0  0
    5.8750    0.5753   -1.9995 C   0  0  0  0  0  0  0  0  0  0  0  0
    5.9961    2.2366    0.4269 C   0  0  0  0  0  0  0  0  0  0  0  0
    7.0010    1.5617   -1.6522 C   0  0  0  0  0  0  0  0  0  0  0  0
  -10.0208    0.8921    3.6249 C   0  0  0  0  0  0  0  0  0  0  0  0
  -11.3011   -0.2385   -3.0507 C   0  0  0  0  0  0  0  0  0  0  0  0
   -8.8998   -0.3020    1.5640 C   0  0  1  0  0  0  0  0  0  0  0  0
  -10.9299    0.1531   -0.8194 C   0  0  0  0  0  0  0  0  0  0  0  0
    8.4399    2.0141    1.7702 C   0  0  0  0  0  0  0  0  0  0  0  0
   10.8829   -0.8928    2.6797 C   0  0  0  0  0  0  0  0  0  0  0  0
   -6.7307   -0.9570    0.7182 C   0  0  0  0  0  0  0  0  0  0  0  0
    1.5186    0.4924   -2.6332 C   0  0  0  0  0  0  0  0  0  0  0  0
    1.4331    0.3618   -0.2398 C   0  0  0  0  0  0  0  0  0  0  0  0
    3.0140    0.5935   -2.5050 C   0  0  0  0  0  0  0  0  0  0  0  0
    2.6802   -0.4260   -0.3983 C   0  0  0  0  0  0  0  0  0  0  0  0
   -5.1344   -1.8191   -0.9169 C   0  0  0  0  0  0  0  0  0  0  0  0
   -8.4994   -0.2300   -0.8725 C   0  0  0  0  0  0  0  0  0  0  0  0
  -11.8288    0.5482   -1.9395 N   0  0  0  0  0  0  0  0  0  0  0  0
   -9.8710   -0.1144   -2.7864 N   0  0  0  0  0  0  0  0  0  0  0  0
    8.7438    0.6232    1.9833 N   0  0  0  0  0  0  0  0  0  0  0  0
   -4.1255   -1.2185   -0.1666 O   0  0  0  0  0  0  0  0  0  0  0  0
   -8.4825   -2.2988    0.2423 O   0  0  0  0  0  0  0  0  0  0  0  0
   -8.7049   -1.0741    2.8713 C   0  0  0  0  0  0  0  0  0  0  0  0
   -8.4175    1.1293    1.7518 C   0  0  0  0  0  0  0  0  0  0  0  0
   -3.0468   -0.7960   -0.9392 C   0  0  0  0  0  0  0  0  0  0  0  0
   -0.5315    0.4664   -1.5162 C   0  0  0  0  0  0  0  0  0  0  0  0
    4.8094    0.5944   -0.8945 C   0  0  0  0  0  0  0  0  0  0  0  0
    7.2038    1.4753   -0.1711 C   0  0  0  0  0  0  0  0  0  0  0  0
   -8.7205    1.5395    3.1700 C   0  0  0  0  0  0  0  0  0  0  0  0
    9.6214    1.3651    0.0108 C   0  0  0  0  0  0  0  0  0  0  0  0
   12.0653   -0.0451    0.6677 C   0  0  2  0  0  0  0  0  0  0  0  0
   10.9501    0.1514    1.6304 C   0  0  1  0  0  0  0  0  0  0  0  0
    0.8382    0.8863   -1.4245 N   0  0  0  0  0  0  0  0  0  0  0  0
    3.5945    0.0293   -1.3634 N   0  0  0  0  0  0  0  0  0  0  0  0
   -9.7946   -0.4061   -1.4123 N   0  0  0  0  0  0  0  0  0  0  0  0
    8.4218    2.1087    0.2923 N   0  0  0  0  0  0  0  0  0  0  0  0
    9.6467    0.2840    1.0018 N   0  0  0  0  0  0  0  0  0  0  0  0
   -8.2357   -0.9401    0.4035 C   0  0  2  0  0  0  0  0  0  0  0  0
   -7.4680   -2.7362   -0.6070 C   0  0  0  0  0  0  0  0  0  0  0  0
   -6.2254   -2.1955    0.0337 C   0  0  2  0  0  0  0  0  0  0  0  0
   11.5258   -2.7650    1.7081 H   0  0  0  0  0  0  0  0  0  0  0  0
    9.7786   -2.3874    1.5591 H   0  0  0  0  0  0  0  0  0  0  0  0
   10.4378   -2.9325    3.1071 H   0  0  0  0  0  0  0  0  0  0  0  0
   10.9830   -1.6609   -0.3374 H   0  0  0  0  0  0  0  0  0  0  0  0
   12.7891   -1.9346   -0.1195 H   0  0  0  0  0  0  0  0  0  0  0  0
   12.1615   -0.7839   -1.3092 H   0  0  0  0  0  0  0  0  0  0  0  0
    9.4698   -0.1129   -1.3351 H   0  0  0  0  0  0  0  0  0  0  0  0
   13.2074    0.3915    2.2133 H   0  0  0  0  0  0  0  0  0  0  0  0
  -10.8154   -1.0590    3.3759 H   0  0  0  0  0  0  0  0  0  0  0  0
   -9.7121   -0.8574    4.8101 H   0  0  0  0  0  0  0  0  0  0  0  0
   -1.4072   -1.3064    0.4001 H   0  0  0  0  0  0  0  0  0  0  0  0
   -1.9300   -2.5912   -0.7936 H   0  0  0  0  0  0  0  0  0  0  0  0
   -3.1254    1.1679   -1.8323 H   0  0  0  0  0  0  0  0  0  0  0  0
   -3.5457    1.1003   -0.1155 H   0  0  0  0  0  0  0  0  0  0  0  0
    0.2091   -1.6059   -1.4671 H   0  0  0  0  0  0  0  0  0  0  0  0
   -1.1303   -1.3242   -2.5947 H   0  0  0  0  0  0  0  0  0  0  0  0
   -1.2727    0.7189    0.5472 H   0  0  0  0  0  0  0  0  0  0  0  0
   -1.3503    2.1703   -0.5920 H   0  0  0  0  0  0  0  0  0  0  0  0
    4.7622    2.7291   -1.2328 H   0  0  0  0  0  0  0  0  0  0  0  0
    3.8988    2.2035    0.2737 H   0  0  0  0  0  0  0  0  0  0  0  0
    5.4781    0.8962   -2.9666 H   0  0  0  0  0  0  0  0  0  0  0  0
    6.3710   -0.4226   -2.0409 H   0  0  0  0  0  0  0  0  0  0  0  0
    5.7774    1.7604    1.4254 H   0  0  0  0  0  0  0  0  0  0  0  0
    6.2293    3.2990    0.4888 H   0  0  0  0  0  0  0  0  0  0  0  0
    6.6681    2.6049   -1.8717 H   0  0  0  0  0  0  0  0  0  0  0  0
    7.8636    1.3831   -2.2813 H   0  0  0  0  0  0  0  0  0  0  0  0
  -10.8121    1.1799    2.9123 H   0  0  0  0  0  0  0  0  0  0  0  0
  -11.5313    0.2487   -4.0025 H   0  0  0  0  0  0  0  0  0  0  0  0
  -11.6532   -1.2710   -3.0557 H   0  0  0  0  0  0  0  0  0  0  0  0
   -9.9853   -0.2698    1.4154 H   0  0  0  0  0  0  0  0  0  0  0  0
  -10.8001    1.1088   -0.2582 H   0  0  0  0  0  0  0  0  0  0  0  0
  -11.5719   -0.5827   -0.2530 H   0  0  0  0  0  0  0  0  0  0  0  0
    7.5183    2.3609    2.2302 H   0  0  0  0  0  0  0  0  0  0  0  0
    9.3052    2.6196    2.1253 H   0  0  0  0  0  0  0  0  0  0  0  0
   10.0567   -0.6440    3.3908 H   0  0  0  0  0  0  0  0  0  0  0  0
   11.8187   -0.8830    3.2928 H   0  0  0  0  0  0  0  0  0  0  0  0
   -6.6426   -1.1375    1.8036 H   0  0  0  0  0  0  0  0  0  0  0  0
   -6.2504   -0.0227    0.3748 H   0  0  0  0  0  0  0  0  0  0  0  0
    1.2043    1.1946   -3.4297 H   0  0  0  0  0  0  0  0  0  0  0  0
    1.1853   -0.5158   -2.9471 H   0  0  0  0  0  0  0  0  0  0  0  0
    1.6700    1.2384    0.4380 H   0  0  0  0  0  0  0  0  0  0  0  0
    0.7193   -0.2488    0.3585 H   0  0  0  0  0  0  0  0  0  0  0  0
    3.4519    0.0837   -3.4121 H   0  0  0  0  0  0  0  0  0  0  0  0
    3.3494    1.6633   -2.6147 H   0  0  0  0  0  0  0  0  0  0  0  0
    3.1468   -0.5533    0.6284 H   0  0  0  0  0  0  0  0  0  0  0  0
    2.4083   -1.4697   -0.6654 H   0  0  0  0  0  0  0  0  0  0  0  0
   -5.4293   -1.0764   -1.6813 H   0  0  0  0  0  0  0  0  0  0  0  0
   -4.7924   -2.7081   -1.4569 H   0  0  0  0  0  0  0  0  0  0  0  0
   -7.7170   -0.4896   -1.6586 H   0  0  0  0  0  0  0  0  0  0  0  0
   -8.3195    0.8722   -0.6969 H   0  0  0  0  0  0  0  0  0  0  0  0
  -12.7979    0.2654   -1.7834 H   0  0  0  0  0  0  0  0  0  0  0  0
   -9.4052   -0.8892   -3.3022 H   0  0  0  0  0  0  0  0  0  0  0  0
    7.9436   -0.0087    2.0410 H   0  0  0  0  0  0  0  0  0  0  0  0
   -7.7853   -0.8222    3.3968 H   0  0  0  0  0  0  0  0  0  0  0  0
   -8.9313    1.7588    1.0106 H   0  0  0  0  0  0  0  0  0  0  0  0
   -7.3373    1.2251    1.5598 H   0  0  0  0  0  0  0  0  0  0  0  0
   -3.3101   -1.0685   -1.9894 H   0  0  0  0  0  0  0  0  0  0  0  0
   -0.9052    0.9034   -2.4917 H   0  0  0  0  0  0  0  0  0  0  0  0
    5.2083   -0.0423   -0.0840 H   0  0  0  0  0  0  0  0  0  0  0  0
    7.2283    0.4241    0.1959 H   0  0  0  0  0  0  0  0  0  0  0  0
   -7.8781    1.2686    3.8374 H   0  0  0  0  0  0  0  0  0  0  0  0
   -8.8863    2.6302    3.1861 H   0  0  0  0  0  0  0  0  0  0  0  0
   10.4866    2.0272    0.2716 H   0  0  0  0  0  0  0  0  0  0  0  0
   12.1958    0.9282    0.1176 H   0  0  0  0  0  0  0  0  0  0  0  0
   11.1519    1.1337    2.1614 H   0  0  0  0  0  0  0  0  0  0  0  0
   -7.4548   -3.8650   -0.5882 H   0  0  0  0  0  0  0  0  0  0  0  0
   -7.6045   -2.4795   -1.6578 H   0  0  0  0  0  0  0  0  0  0  0  0
   -5.8234   -2.9452    0.7511 H   0  0  0  0  0  0  0  0  0  0  0  0
  8 10  1  0
  9 11  1  0
 12 14  1  0
 13 15  1  0
  6 16  1  0
  7 16  1  0
  1 21  1  0
 23 25  1  0
 24 26  1  0
 17 29  1  0
 19 29  1  0
 17 30  1  0
 20 31  1  0
 27 32  1  0
  5 34  1  0
  7 34  1  0
 18 34  1  0
 18 35  1  0
  8 36  1  0
  9 36  1  0
 32 36  1  0
 10 37  1  0
 11 37  1  0
 12 38  1  0
 13 38  1  0
 14 39  1  0
 15 39  1  0
 16 40  1  0
 35 40  1  0
  3 41  1  0
  2 42  1  0
  4 42  1  0
 21 43  1  0
 42 43  1  0
 23 44  1  0
 24 44  1  0
 37 44  1  0
 25 45  1  0
 26 45  1  0
 38 45  1  0
 19 46  1  0
 28 46  1  0
 30 46  1  0
 20 47  1  0
 39 47  1  0
 41 47  1  0
 31 48  1  0
 41 48  1  0
 43 48  1  0
 18 49  1  0
 22 49  1  0
 49 28  1  6
 33 49  1  0
 33 50  1  0
 22 51  1  0
 27 51  1  0
 50 51  1  0
  1 52  1  0
  1 53  1  0
  1 54  1  0
  2 55  1  0
  2 56  1  0
  2 57  1  0
  3 58  1  0
  4 59  1  0
  7 60  1  0
  7 61  1  0
  8 62  1  0
  8 63  1  0
  9 64  1  0
  9 65  1  0
 10 66  1  0
 10 67  1  0
 11 68  1  0
 11 69  1  0
 12 70  1  0
 12 71  1  0
 13 72  1  0
 13 73  1  0
 14 74  1  0
 14 75  1  0
 15 76  1  0
 15 77  1  0
 16 78  1  0
 17 79  1  0
 17 80  1  0
 18 81  1  6
 19 82  1  0
 19 83  1  0
 20 84  1  0
 20 85  1  0
 21 86  1  0
 21 87  1  0
 22 88  1  0
 22 89  1  0
 23 90  1  0
 23 91  1  0
 24 92  1  0
 24 93  1  0
 25 94  1  0
 25 95  1  0
 26 96  1  0
 26 97  1  0
 27 98  1  0
 27 99  1  0
 28100  1  0
 28101  1  0
 29102  1  0
 30103  1  0
 31104  1  0
 34105  1  0
 35106  1  0
 35107  1  0
 36108  1  0
 37109  1  0
 38110  1  0
 39111  1  0
 40112  1  0
 40113  1  0
 41114  1  0
 42115  1  6
 43116  1  1
 50117  1  0
 50118  1  0
 51119  1  1
M  END
>  <PDBID>  (1) 
4ZE1

>  <PDB ID>  (1) 
4ZE1

>  <Generic Name>  (1) 
Posaconazole

>  <Brand Name>  (1) 
Noxafil#Posanol

>  <DrugBank ID>  (1) 
DB01263

>  <ATC Codes>  (1) 
J02AC04

>  <Ligand ID>  (1) 
X2N

>  <Target Name>  (1) 
Lanosterol 14-alpha demethylase

>  <UniProt ID>  (1) 
P10613

>  <PDB ID.1>  (1) 
4ZE1

>  <Seq. Identity>  (1) 
65%

$$$$
