PDB_DB00513_05
     RDKit          3D

 25 24  0  0  0  0  0  0  0  0999 V2000
    3.0090   -0.0125    0.6490 C   0  0  0  0  0  0  0  0  0  0  0  0
    3.8104   -0.3678   -0.4239 O   0  0  0  0  0  0  0  0  0  0  0  0
    3.5905    1.0310    1.3927 O   0  0  0  0  0  0  0  0  0  0  0  0
    1.6106    0.4020    0.1780 C   0  0  0  0  0  0  0  0  0  0  0  0
    1.0126   -0.7702   -0.5332 C   0  0  0  0  0  0  0  0  0  0  0  0
   -0.3653   -0.5195   -1.0569 C   0  0  0  0  0  0  0  0  0  0  0  0
   -1.3301   -0.1710    0.0337 C   0  0  0  0  0  0  0  0  0  0  0  0
   -2.7046    0.0687   -0.5754 C   0  0  0  0  0  0  0  0  0  0  0  0
   -3.6420    0.4039    0.4549 N   0  0  0  0  0  0  0  0  0  0  0  0
    1.0198    0.7906    1.0035 H   0  0  0  0  0  0  0  0  0  0  0  0
    1.7817    1.2607   -0.5261 H   0  0  0  0  0  0  0  0  0  0  0  0
    1.6878   -1.0975   -1.3321 H   0  0  0  0  0  0  0  0  0  0  0  0
    0.9440   -1.6078    0.1957 H   0  0  0  0  0  0  0  0  0  0  0  0
   -0.7268   -1.4529   -1.5368 H   0  0  0  0  0  0  0  0  0  0  0  0
   -0.4084    0.2751   -1.8275 H   0  0  0  0  0  0  0  0  0  0  0  0
   -1.4552   -1.0196    0.7442 H   0  0  0  0  0  0  0  0  0  0  0  0
   -0.9735    0.7101    0.5790 H   0  0  0  0  0  0  0  0  0  0  0  0
   -3.0167   -0.9029   -1.0430 H   0  0  0  0  0  0  0  0  0  0  0  0
   -2.6816    0.8716   -1.3118 H   0  0  0  0  0  0  0  0  0  0  0  0
   -4.0653   -0.4757    0.8475 H   0  0  0  0  0  0  0  0  0  0  0  0
   -3.1083    0.8643    1.2469 H   0  0  0  0  0  0  0  0  0  0  0  0
   -4.3454    1.0528    0.0707 H   0  0  0  0  0  0  0  0  0  0  0  0
    2.9578   -0.8805    1.3384 H   0  0  0  0  0  0  0  0  0  0  0  0
    4.4584    0.3193   -0.6874 H   0  0  0  0  0  0  0  0  0  0  0  0
    2.9408    1.2277    2.1199 H   0  0  0  0  0  0  0  0  0  0  0  0
  1  2  1  0
  1  3  1  0
  1  4  1  0
  4  5  1  0
  5  6  1  0
  6  7  1  0
  7  8  1  0
  8  9  1  0
  4 10  1  0
  4 11  1  0
  5 12  1  0
  5 13  1  0
  6 14  1  0
  6 15  1  0
  7 16  1  0
  7 17  1  0
  8 18  1  0
  8 19  1  0
  9 20  1  0
  9 21  1  0
 22  9  1  0
  1 23  1  0
  2 24  1  0
  3 25  1  0
M  CHG  1   9   1
M  END
>  <PDBID>  (1) 
1HPK

>  <PDB ID>  (1) 
1HPK

>  <Generic Name>  (1) 
Aminocaproic Acid

>  <Brand Name>  (1) 
Amicar#Aminocaproic Acid#Exoden White Tooth#Acepramin#Amocap#Caproamin#Caprocat#Caprolisin#E-Capro#Epsicaprom#Hemocid#Inselon#Ipron#Ipsilon#Kai Nai Yin#Minocap#Plaslloid#Resplamin

>  <DrugBank ID>  (1) 
DB00513

>  <ATC Codes>  (1) 
B02AA01

>  <Ligand ID>  (1) 
ACA

>  <Target Name>  (1) 
Plasminogen

>  <UniProt ID>  (1) 
P00747

>  <PDB ID.1>  (1) 
1HPK

>  <Seq. Identity>  (1) 
100%

$$$$
