PDB_DB00421_07
     RDKit          3D

138146  0  0  0  0  0  0  0  0999 V2000
    3.4086    0.3611   -1.2768 C   0  0  0  0  0  0  0  0  0  0  0  0
    1.4023   -1.0618    1.5042 C   0  0  0  0  0  0  0  0  0  0  0  0
    1.9501   -0.7717    0.1471 C   0  0  1  0  0  0  0  0  0  0  0  0
   -2.1259   -1.2444    0.0503 C   0  0  1  0  0  0  0  0  0  0  0  0
    1.2103    0.4598   -0.3655 C   0  0  1  0  0  0  0  0  0  0  0  0
   -2.7440   -2.1224    1.0969 C   0  0  0  0  0  0  0  0  0  0  0  0
    0.0087   -1.6307    1.2604 C   0  0  0  0  0  0  0  0  0  0  0  0
    1.9651    0.6948   -1.6382 C   0  0  0  0  0  0  0  0  0  0  0  0
    3.3548   -0.2684    0.1112 C   0  0  2  0  0  0  0  0  0  0  0  0
    1.8106   -1.9517   -0.7666 C   0  0  0  0  0  0  0  0  0  0  0  0
   -1.8022   -2.0671   -1.1678 C   0  0  0  0  0  0  0  0  0  0  0  0
   -4.1031   -2.6055    0.6638 C   0  0  0  0  0  0  0  0  0  0  0  0
    3.6792    0.7206    1.1961 C   0  0  0  0  0  0  0  0  0  0  0  0
    5.2025    0.6712    1.1638 C   0  0  0  0  0  0  0  0  0  0  0  0
    5.4576   -0.7403    0.7338 C   0  0  0  0  0  0  0  0  0  0  0  0
   -0.8581    4.0393    0.6346 C   0  0  0  0  0  0  0  0  0  0  0  0
   -1.4985    4.5991   -0.6096 C   0  0  0  0  0  0  0  0  0  0  0  0
   -4.9918   -1.4966    0.1621 C   0  0  0  0  0  0  0  0  0  0  0  0
   -4.3021   -0.6412   -0.8861 C   0  0  0  0  0  0  0  0  0  0  0  0
   -3.0548   -0.0882   -0.2570 C   0  0  2  0  0  0  0  0  0  0  0  0
   -2.4408    0.9324   -1.1677 C   0  0  0  0  0  0  0  0  0  0  0  0
   -1.0706    1.3789   -0.7412 C   0  0  2  0  0  0  0  0  0  0  0  0
   -0.2293    0.1205   -0.5474 C   0  0  2  0  0  0  0  0  0  0  0  0
   -0.8513   -0.6135    0.5958 C   0  0  1  0  0  0  0  0  0  0  0  0
    6.5592   -0.7475   -0.1057 O   0  0  0  0  0  0  0  0  0  0  0  0
    4.3163   -1.2518    0.1675 O   0  0  0  0  0  0  0  0  0  0  0  0
    0.5101    4.2941    0.5938 O   0  0  0  0  0  0  0  0  0  0  0  0
   -5.3618   -0.7390    1.2787 O   0  0  0  0  0  0  0  0  0  0  0  0
   -1.2281    2.2823    0.8319 S   0  0  0  0  0  0  0  0  0  0  0  0
    3.4086    0.3611   -1.2768 C   0  0  0  0  0  0  0  0  0  0  0  0
    1.4023   -1.0618    1.5042 C   0  0  0  0  0  0  0  0  0  0  0  0
    1.9501   -0.7717    0.1471 C   0  0  1  0  0  0  0  0  0  0  0  0
   -2.1259   -1.2444    0.0503 C   0  0  1  0  0  0  0  0  0  0  0  0
    1.2103    0.4598   -0.3655 C   0  0  1  0  0  0  0  0  0  0  0  0
   -2.7440   -2.1224    1.0969 C   0  0  0  0  0  0  0  0  0  0  0  0
    0.0087   -1.6307    1.2604 C   0  0  0  0  0  0  0  0  0  0  0  0
    1.9651    0.6948   -1.6382 C   0  0  0  0  0  0  0  0  0  0  0  0
    3.3548   -0.2684    0.1112 C   0  0  2  0  0  0  0  0  0  0  0  0
    1.8106   -1.9517   -0.7666 C   0  0  0  0  0  0  0  0  0  0  0  0
   -1.8022   -2.0671   -1.1678 C   0  0  0  0  0  0  0  0  0  0  0  0
   -4.1031   -2.6055    0.6638 C   0  0  0  0  0  0  0  0  0  0  0  0
    3.6792    0.7206    1.1961 C   0  0  0  0  0  0  0  0  0  0  0  0
    5.2025    0.6712    1.1638 C   0  0  0  0  0  0  0  0  0  0  0  0
    5.4576   -0.7403    0.7338 C   0  0  0  0  0  0  0  0  0  0  0  0
   -0.8581    4.0393    0.6346 C   0  0  0  0  0  0  0  0  0  0  0  0
   -1.4985    4.5991   -0.6096 C   0  0  0  0  0  0  0  0  0  0  0  0
   -4.9918   -1.4966    0.1621 C   0  0  0  0  0  0  0  0  0  0  0  0
   -4.3021   -0.6412   -0.8861 C   0  0  0  0  0  0  0  0  0  0  0  0
   -3.0548   -0.0882   -0.2570 C   0  0  2  0  0  0  0  0  0  0  0  0
   -2.4408    0.9324   -1.1677 C   0  0  0  0  0  0  0  0  0  0  0  0
   -1.0706    1.3789   -0.7412 C   0  0  2  0  0  0  0  0  0  0  0  0
   -0.2293    0.1205   -0.5474 C   0  0  2  0  0  0  0  0  0  0  0  0
   -0.8513   -0.6135    0.5958 C   0  0  1  0  0  0  0  0  0  0  0  0
    6.5592   -0.7475   -0.1057 O   0  0  0  0  0  0  0  0  0  0  0  0
    4.3163   -1.2518    0.1675 O   0  0  0  0  0  0  0  0  0  0  0  0
    0.5101    4.2941    0.5938 O   0  0  0  0  0  0  0  0  0  0  0  0
   -5.3618   -0.7390    1.2787 O   0  0  0  0  0  0  0  0  0  0  0  0
   -1.2281    2.2823    0.8319 S   0  0  0  0  0  0  0  0  0  0  0  0
    3.8329   -0.3894   -1.9861 H   0  0  0  0  0  0  0  0  0  0  0  0
    4.0697    1.2362   -1.3194 H   0  0  0  0  0  0  0  0  0  0  0  0
    2.0246   -1.7182    2.1267 H   0  0  0  0  0  0  0  0  0  0  0  0
    1.2346   -0.0789    2.0129 H   0  0  0  0  0  0  0  0  0  0  0  0
    1.4037    1.2728    0.3522 H   0  0  0  0  0  0  0  0  0  0  0  0
   -2.1087   -3.0370    1.2102 H   0  0  0  0  0  0  0  0  0  0  0  0
   -2.8435   -1.6439    2.0816 H   0  0  0  0  0  0  0  0  0  0  0  0
   -0.4590   -1.8694    2.2492 H   0  0  0  0  0  0  0  0  0  0  0  0
    0.0932   -2.5909    0.7301 H   0  0  0  0  0  0  0  0  0  0  0  0
    1.8767    1.7138   -2.0403 H   0  0  0  0  0  0  0  0  0  0  0  0
    1.6251   -0.0824   -2.3684 H   0  0  0  0  0  0  0  0  0  0  0  0
    2.0495   -2.8647   -0.1650 H   0  0  0  0  0  0  0  0  0  0  0  0
    2.5029   -1.9319   -1.6295 H   0  0  0  0  0  0  0  0  0  0  0  0
    0.7776   -2.1108   -1.1369 H   0  0  0  0  0  0  0  0  0  0  0  0
   -0.7493   -2.4449   -1.1209 H   0  0  0  0  0  0  0  0  0  0  0  0
   -1.9928   -1.5177   -2.1241 H   0  0  0  0  0  0  0  0  0  0  0  0
   -2.4295   -2.9914   -1.2430 H   0  0  0  0  0  0  0  0  0  0  0  0
   -4.0461   -3.4537   -0.0535 H   0  0  0  0  0  0  0  0  0  0  0  0
   -4.5948   -3.0219    1.5793 H   0  0  0  0  0  0  0  0  0  0  0  0
    3.3295    0.3003    2.1578 H   0  0  0  0  0  0  0  0  0  0  0  0
    3.2935    1.7380    0.9997 H   0  0  0  0  0  0  0  0  0  0  0  0
    5.5139    1.3949    0.3792 H   0  0  0  0  0  0  0  0  0  0  0  0
    5.6442    0.9110    2.1560 H   0  0  0  0  0  0  0  0  0  0  0  0
    5.6578   -1.3336    1.6614 H   0  0  0  0  0  0  0  0  0  0  0  0
   -1.2796    4.5899    1.5022 H   0  0  0  0  0  0  0  0  0  0  0  0
   -1.6665    5.6876   -0.4318 H   0  0  0  0  0  0  0  0  0  0  0  0
   -0.8233    4.5261   -1.4950 H   0  0  0  0  0  0  0  0  0  0  0  0
   -2.4875    4.1309   -0.8270 H   0  0  0  0  0  0  0  0  0  0  0  0
   -5.8754   -1.9602   -0.3073 H   0  0  0  0  0  0  0  0  0  0  0  0
   -4.1156   -1.2855   -1.7606 H   0  0  0  0  0  0  0  0  0  0  0  0
   -4.9867    0.1831   -1.1400 H   0  0  0  0  0  0  0  0  0  0  0  0
   -3.3349    0.3634    0.7052 H   0  0  0  0  0  0  0  0  0  0  0  0
   -2.4498    0.5819   -2.2272 H   0  0  0  0  0  0  0  0  0  0  0  0
   -3.1061    1.8318   -1.1367 H   0  0  0  0  0  0  0  0  0  0  0  0
   -0.6637    2.0376   -1.5201 H   0  0  0  0  0  0  0  0  0  0  0  0
   -0.3382   -0.4470   -1.5059 H   0  0  0  0  0  0  0  0  0  0  0  0
   -1.1799    0.1357    1.3566 H   0  0  0  0  0  0  0  0  0  0  0  0
    6.9391    0.1671   -0.2328 H   0  0  0  0  0  0  0  0  0  0  0  0
    0.7572    4.7204   -0.2746 H   0  0  0  0  0  0  0  0  0  0  0  0
   -5.2672   -1.2612    2.1234 H   0  0  0  0  0  0  0  0  0  0  0  0
    3.8329   -0.3894   -1.9861 H   0  0  0  0  0  0  0  0  0  0  0  0
    4.0697    1.2362   -1.3194 H   0  0  0  0  0  0  0  0  0  0  0  0
    2.0246   -1.7182    2.1267 H   0  0  0  0  0  0  0  0  0  0  0  0
    1.2346   -0.0789    2.0129 H   0  0  0  0  0  0  0  0  0  0  0  0
    1.4037    1.2728    0.3522 H   0  0  0  0  0  0  0  0  0  0  0  0
   -2.1087   -3.0370    1.2102 H   0  0  0  0  0  0  0  0  0  0  0  0
   -2.8435   -1.6439    2.0816 H   0  0  0  0  0  0  0  0  0  0  0  0
   -0.4590   -1.8694    2.2492 H   0  0  0  0  0  0  0  0  0  0  0  0
    0.0932   -2.5909    0.7301 H   0  0  0  0  0  0  0  0  0  0  0  0
    1.8767    1.7138   -2.0403 H   0  0  0  0  0  0  0  0  0  0  0  0
    1.6251   -0.0824   -2.3684 H   0  0  0  0  0  0  0  0  0  0  0  0
    2.0495   -2.8647   -0.1650 H   0  0  0  0  0  0  0  0  0  0  0  0
    2.5029   -1.9319   -1.6295 H   0  0  0  0  0  0  0  0  0  0  0  0
    0.7776   -2.1108   -1.1369 H   0  0  0  0  0  0  0  0  0  0  0  0
   -0.7493   -2.4449   -1.1209 H   0  0  0  0  0  0  0  0  0  0  0  0
   -1.9928   -1.5177   -2.1241 H   0  0  0  0  0  0  0  0  0  0  0  0
   -2.4295   -2.9914   -1.2430 H   0  0  0  0  0  0  0  0  0  0  0  0
   -4.0461   -3.4537   -0.0535 H   0  0  0  0  0  0  0  0  0  0  0  0
   -4.5948   -3.0219    1.5793 H   0  0  0  0  0  0  0  0  0  0  0  0
    3.3295    0.3003    2.1578 H   0  0  0  0  0  0  0  0  0  0  0  0
    3.2935    1.7380    0.9997 H   0  0  0  0  0  0  0  0  0  0  0  0
    5.5139    1.3949    0.3792 H   0  0  0  0  0  0  0  0  0  0  0  0
    5.6442    0.9110    2.1560 H   0  0  0  0  0  0  0  0  0  0  0  0
    5.6578   -1.3336    1.6614 H   0  0  0  0  0  0  0  0  0  0  0  0
   -1.2796    4.5899    1.5022 H   0  0  0  0  0  0  0  0  0  0  0  0
   -1.6665    5.6876   -0.4318 H   0  0  0  0  0  0  0  0  0  0  0  0
   -0.8233    4.5261   -1.4950 H   0  0  0  0  0  0  0  0  0  0  0  0
   -2.4875    4.1309   -0.8270 H   0  0  0  0  0  0  0  0  0  0  0  0
   -5.8754   -1.9602   -0.3073 H   0  0  0  0  0  0  0  0  0  0  0  0
   -4.1156   -1.2855   -1.7606 H   0  0  0  0  0  0  0  0  0  0  0  0
   -4.9867    0.1831   -1.1400 H   0  0  0  0  0  0  0  0  0  0  0  0
   -3.3349    0.3634    0.7052 H   0  0  0  0  0  0  0  0  0  0  0  0
   -2.4498    0.5819   -2.2272 H   0  0  0  0  0  0  0  0  0  0  0  0
   -3.1061    1.8318   -1.1367 H   0  0  0  0  0  0  0  0  0  0  0  0
   -0.6637    2.0376   -1.5201 H   0  0  0  0  0  0  0  0  0  0  0  0
   -0.3382   -0.4470   -1.5059 H   0  0  0  0  0  0  0  0  0  0  0  0
   -1.1799    0.1357    1.3566 H   0  0  0  0  0  0  0  0  0  0  0  0
    6.9391    0.1671   -0.2328 H   0  0  0  0  0  0  0  0  0  0  0  0
    0.7572    4.7204   -0.2746 H   0  0  0  0  0  0  0  0  0  0  0  0
   -5.2672   -1.2612    2.1234 H   0  0  0  0  0  0  0  0  0  0  0  0
  2  3  1  0
  3  5  1  0
  4  6  1  0
  2  7  1  0
  1  8  1  0
  5  8  1  0
  1  9  1  0
  3  9  1  0
  3 10  1  6
  4 11  1  6
  6 12  1  0
  9 13  1  0
 13 14  1  0
 14 15  1  0
 16 17  1  0
 12 18  1  0
 18 19  1  0
  4 20  1  0
 19 20  1  0
 20 21  1  0
 21 22  1  0
  5 23  1  0
 22 23  1  0
  4 24  1  0
  7 24  1  0
 23 24  1  0
 15 25  1  0
  9 26  1  6
 15 26  1  0
 16 27  1  0
 18 28  1  0
 16 29  1  0
 22 29  1  0
 31 32  1  0
 32 34  1  0
 33 35  1  0
 31 36  1  0
 30 37  1  0
 34 37  1  0
 30 38  1  0
 32 38  1  0
 32 39  1  6
 33 40  1  6
 35 41  1  0
 38 42  1  0
 42 43  1  0
 43 44  1  0
 45 46  1  0
 41 47  1  0
 47 48  1  0
 33 49  1  0
 48 49  1  0
 49 50  1  0
 50 51  1  0
 34 52  1  0
 51 52  1  0
 33 53  1  0
 36 53  1  0
 52 53  1  0
 44 54  1  0
 38 55  1  6
 44 55  1  0
 45 56  1  0
 47 57  1  0
 45 58  1  0
 51 58  1  0
  1 59  1  0
  1 60  1  0
  2 61  1  0
  2 62  1  0
  5 63  1  1
  6 64  1  0
  6 65  1  0
  7 66  1  0
  7 67  1  0
  8 68  1  0
  8 69  1  0
 10 70  1  0
 10 71  1  0
 10 72  1  0
 11 73  1  0
 11 74  1  0
 11 75  1  0
 12 76  1  0
 12 77  1  0
 13 78  1  0
 13 79  1  0
 14 80  1  0
 14 81  1  0
 15 82  1  0
 16 83  1  0
 17 84  1  0
 17 85  1  0
 17 86  1  0
 18 87  1  0
 19 88  1  0
 19 89  1  0
 20 90  1  1
 21 91  1  0
 21 92  1  0
 22 93  1  6
 23 94  1  6
 24 95  1  1
 25 96  1  0
 27 97  1  0
 28 98  1  0
 30 99  1  0
 30100  1  0
 31101  1  0
 31102  1  0
 34103  1  1
 35104  1  0
 35105  1  0
 36106  1  0
 36107  1  0
 37108  1  0
 37109  1  0
 39110  1  0
 39111  1  0
 39112  1  0
 40113  1  0
 40114  1  0
 40115  1  0
 41116  1  0
 41117  1  0
 42118  1  0
 42119  1  0
 43120  1  0
 43121  1  0
 44122  1  0
 45123  1  0
 46124  1  0
 46125  1  0
 46126  1  0
 47127  1  0
 48128  1  0
 48129  1  0
 49130  1  1
 50131  1  0
 50132  1  0
 51133  1  6
 52134  1  6
 53135  1  1
 54136  1  0
 56137  1  0
 57138  1  0
M  END
>  <PDBID>  (1) 
2AB2

>  <PDB ID>  (1) 
2AB2

>  <Generic Name>  (1) 
Spironolactone

>  <Brand Name>  (1) 
Aldactazide#Aldactazide 25#Aldactazide 50#Aldactone#Aldactone 100 mg#Aldactone 25 mg#Apo-spirozide Tab#Ntp-spironolactone#Spironolactone#Spironolactone and Hydrochlorothiazide#Teva-spironolactone#Teva-spironolactone/hctz#Osyrol#Spiresis#Spiretic#Spiroctan#Uractone#Verospiron#Xenalon

>  <DrugBank ID>  (1) 
DB00421

>  <ATC Codes>  (1) 
C03DA01

>  <Ligand ID>  (1) 
SNL

>  <Target Name>  (1) 
Mineralocorticoid receptor

>  <UniProt ID>  (1) 
P08235

>  <PDB ID.1>  (1) 
2AB2

>  <Seq. Identity>  (1) 
99%

$$$$
