PDB_DB00373_01
     RDKit          3D

 49 50  0  0  0  0  0  0  0  0999 V2000
   -4.3674    0.8899   -0.2187 C   0  0  0  0  0  0  0  0  0  0  0  0
   -5.3738    1.0078   -1.3725 C   0  0  0  0  0  0  0  0  0  0  0  0
   -6.3610    0.0626   -1.1565 O   0  0  0  0  0  0  0  0  0  0  0  0
   -5.8175   -1.2186   -1.2261 C   0  0  0  0  0  0  0  0  0  0  0  0
   -4.6506   -1.4218   -0.3225 C   0  0  0  0  0  0  0  0  0  0  0  0
   -3.6580   -0.3409   -0.3950 N   0  0  0  0  0  0  0  0  0  0  0  0
   -2.6865   -0.6422    0.6012 C   0  0  0  0  0  0  0  0  0  0  0  0
   -3.2132   -0.8025    1.9387 N   0  0  0  0  0  0  0  0  0  0  0  0
   -3.1339    0.8772    2.5355 S   0  0  0  0  0  0  0  0  0  0  0  0
   -2.0346    1.5468    1.2956 N   0  0  0  0  0  0  0  0  0  0  0  0
   -1.5412    0.2961    0.7320 C   0  0  0  0  0  0  0  0  0  0  0  0
   -0.7996    0.4718   -0.3989 O   0  0  0  0  0  0  0  0  0  0  0  0
    0.5199    0.0716   -0.1684 C   0  0  0  0  0  0  0  0  0  0  0  0
    1.3869    0.2387   -1.3708 C   0  0  1  0  0  0  0  0  0  0  0  0
    1.4427    1.5867   -1.7793 O   0  0  0  0  0  0  0  0  0  0  0  0
    2.7770   -0.2661   -1.0810 C   0  0  0  0  0  0  0  0  0  0  0  0
    3.3793    0.5045   -0.0471 N   0  0  0  0  0  0  0  0  0  0  0  0
    4.7272    0.1155    0.2769 C   0  0  0  0  0  0  0  0  0  0  0  0
    4.8058   -1.3029    0.8083 C   0  0  0  0  0  0  0  0  0  0  0  0
    5.6763    0.2146   -0.8760 C   0  0  0  0  0  0  0  0  0  0  0  0
    5.2257    1.0329    1.3834 C   0  0  0  0  0  0  0  0  0  0  0  0
   -3.7360    1.7984   -0.3235 H   0  0  0  0  0  0  0  0  0  0  0  0
   -4.9513    0.8625    0.7046 H   0  0  0  0  0  0  0  0  0  0  0  0
   -4.8236    0.8326   -2.3111 H   0  0  0  0  0  0  0  0  0  0  0  0
   -5.8441    2.0140   -1.3297 H   0  0  0  0  0  0  0  0  0  0  0  0
   -6.6330   -1.9013   -0.8500 H   0  0  0  0  0  0  0  0  0  0  0  0
   -5.5669   -1.5335   -2.2456 H   0  0  0  0  0  0  0  0  0  0  0  0
   -4.2012   -2.4020   -0.5522 H   0  0  0  0  0  0  0  0  0  0  0  0
   -5.0294   -1.3939    0.7365 H   0  0  0  0  0  0  0  0  0  0  0  0
   -2.2439   -1.6339    0.3299 H   0  0  0  0  0  0  0  0  0  0  0  0
   -2.4607   -1.3124    2.4886 H   0  0  0  0  0  0  0  0  0  0  0  0
   -1.2595    2.0732    1.7290 H   0  0  0  0  0  0  0  0  0  0  0  0
   -0.8935   -0.1288    1.5566 H   0  0  0  0  0  0  0  0  0  0  0  0
    0.8857    0.7894    0.6247 H   0  0  0  0  0  0  0  0  0  0  0  0
    0.5081   -0.9644    0.1666 H   0  0  0  0  0  0  0  0  0  0  0  0
    0.9592   -0.3173   -2.2486 H   0  0  0  0  0  0  0  0  0  0  0  0
    1.5141    2.2094   -1.0140 H   0  0  0  0  0  0  0  0  0  0  0  0
    3.3280   -0.2363   -2.0436 H   0  0  0  0  0  0  0  0  0  0  0  0
    2.6473   -1.3527   -0.8172 H   0  0  0  0  0  0  0  0  0  0  0  0
    2.8237    0.2994    0.8402 H   0  0  0  0  0  0  0  0  0  0  0  0
    5.8787   -1.6009    0.9321 H   0  0  0  0  0  0  0  0  0  0  0  0
    4.3745   -1.3511    1.8493 H   0  0  0  0  0  0  0  0  0  0  0  0
    4.3300   -2.0175    0.1171 H   0  0  0  0  0  0  0  0  0  0  0  0
    5.6430   -0.7186   -1.4977 H   0  0  0  0  0  0  0  0  0  0  0  0
    5.5680    1.1209   -1.4765 H   0  0  0  0  0  0  0  0  0  0  0  0
    6.7138    0.2417   -0.4473 H   0  0  0  0  0  0  0  0  0  0  0  0
    5.7628    1.8986    0.9574 H   0  0  0  0  0  0  0  0  0  0  0  0
    4.4209    1.3166    2.0832 H   0  0  0  0  0  0  0  0  0  0  0  0
    5.9817    0.4861    2.0069 H   0  0  0  0  0  0  0  0  0  0  0  0
  1  2  1  0
  2  3  1  0
  3  4  1  0
  4  5  1  0
  1  6  1  0
  5  6  1  0
  6  7  1  0
  7  8  1  0
  8  9  1  0
  9 10  1  0
  7 11  1  0
 10 11  1  0
 11 12  1  0
 12 13  1  0
 13 14  1  0
 14 15  1  0
 14 16  1  0
 16 17  1  0
 18 17  1  0
 18 19  1  0
 18 20  1  0
 18 21  1  0
  1 22  1  0
  1 23  1  0
  2 24  1  0
  2 25  1  0
  4 26  1  0
  4 27  1  0
  5 28  1  0
  5 29  1  0
  7 30  1  0
  8 31  1  0
 10 32  1  0
 11 33  1  0
 13 34  1  0
 13 35  1  0
 14 36  1  6
 15 37  1  0
 16 38  1  0
 16 39  1  0
 17 40  1  0
 19 41  1  0
 19 42  1  0
 19 43  1  0
 20 44  1  0
 20 45  1  0
 20 46  1  0
 21 47  1  0
 21 48  1  0
 21 49  1  0
M  END
>  <PDBID>  (1) 
3D4S

>  <PDB ID>  (1) 
3D4S

>  <Generic Name>  (1) 
Timolol

>  <Brand Name>  (1) 
Act Dorzotimolol#Act Latanoprost/timolol#Apo-brimonidine-timop#Apo-dorzo-timop#Apo-latanoprost-timop#Apo-timol Tablets 10mg#Apo-timol Tablets 20mg#Apo-timol Tablets 5mg#Apo-timop Gel#Apo-timop Liq 0.5%#Apo-timop Oph Soln 0.25%#Apo-travoprost-timop#Azarga#Beta-tim - 0.25% Liq#Beta-tim - 0.5% Liq#Betimol#Blocadren Tab 10mg#Blocadren Tab 20mg#Blocadren Tab 5mg#Combigan#Cosopt#Cosopt PF#Dom-timolol#Dorzolamide HCl /timolol Maleate#Dorzolamide HCl and Timolol Maleate#Dorzolamide Hydrochloride and Timolol Maleate#Dorzolamide Hydrochloride and Timolol Maleate Ophthalmic Solution#Dorzolamide Hydrochloride-timolol Maleate#Dorzolamide Hydrochloride-timolol Maleate Ophthalmic Solution Sterile Ophthalmic Solution#Duotrav Pq#Gd-latanoprost/timolol#Istalol#Jamp-dorzolamide/timolol#Jamp-latanoprost/timolol#Jamp-timolol#Med Timolol Liq Oph 0.25%#Med Timolol Liq Oph 0.5%#Med-dorzolamide-timolol#Med-latanoprost-timolol#Mint-dorzolamide/timolol#Mint-latanoprost/timolol#Mylan-dorzolamide/timolol#Mylan-latanoprost/timolol#Mylan-timolol#Novo-timol Liq 0.25%#Novo-timol Liq 0.5%#Nu-timolol Tab 10mg#Nu-timolol Tab 20mg#Nu-timolol Tab 5mg#Odan-timolol#PMS-dorzolamide-timolol#PMS-latanoprost-timolol#PMS-timolol#Ratio-timolol Maleate 0.25%#Ratio-timolol Maleate 0.5%#Rhoxal-timolol 0.25%#Rhoxal-timolol 0.5%#Riva-dorzolamide/timolol#Riva-latanoprost/timolol#Sandoz Dorzolamide/timolol#Sandoz Latanoprost/timolol#Sandoz Timolol#Sandoz Travoprost / Timolol Pq#T-LO  - Liq Oph 0.25%#T-LO - Liq Oph 0.5%#Teva-dorzotimol#Teva-latanoprost/timolol#Teva-timolol#Timolide Tab#Timolol Gfs#Timolol Maleate#Timolol Maleate-EX#Timolol Solution - 0.25%#Timolol Solution - 0.5%#Timolol-10 Tab 10mg#Timolol-20 Tab 20mg#Timolol-5 Tab 5mg#Timoptic#Timoptic-XE#Timpilo 2#Timpilo 4#Van-dorzolamide-timolol#Xalacom#Blocadren#Proflax#Tenopt#Timacar Depot#Timacor#Timoptol

>  <DrugBank ID>  (1) 
DB00373

>  <ATC Codes>  (1) 
S01ED51#S01ED01#C07DA06#C07BA06#C07AA06

>  <Ligand ID>  (1) 
TIM

>  <Target Name>  (1) 
Beta-1 adrenergic receptor

>  <UniProt ID>  (1) 
P08588

>  <PDB ID.1>  (1) 
3D4S

>  <Seq. Identity>  (1) 
67%

$$$$
