PDB_DB00302_06
     RDKit          3D

 56 56  0  0  0  0  0  0  0  0999 V2000
   -1.3473    0.0962   -0.4418 C   0  0  0  0  0  0  0  0  0  0  0  0
   -0.5705    1.1595    0.2181 C   0  0  0  0  0  0  0  0  0  0  0  0
    0.8794    0.9524    0.3924 C   0  0  0  0  0  0  0  0  0  0  0  0
    1.4543   -0.2173   -0.3526 C   0  0  0  0  0  0  0  0  0  0  0  0
    0.6212   -1.4243   -0.0321 C   0  0  0  0  0  0  0  0  0  0  0  0
   -0.8192   -1.2766   -0.4207 C   0  0  0  0  0  0  0  0  0  0  0  0
    2.8507   -0.4841    0.2207 C   0  0  0  0  0  0  0  0  0  0  0  0
   -2.7583    0.0683    0.1697 C   0  0  0  0  0  0  0  0  0  0  0  0
    3.6279    0.7040    0.0165 N   0  0  0  0  0  0  0  0  0  0  0  0
   -3.4401   -0.9557   -0.4957 O   0  0  0  0  0  0  0  0  0  0  0  0
   -3.3936    1.2814    0.0225 O   0  0  0  0  0  0  0  0  0  0  0  0
   -1.3473    0.0962   -0.4418 C   0  0  0  0  0  0  0  0  0  0  0  0
   -0.5705    1.1595    0.2181 C   0  0  0  0  0  0  0  0  0  0  0  0
    0.8794    0.9524    0.3924 C   0  0  0  0  0  0  0  0  0  0  0  0
    1.4543   -0.2173   -0.3526 C   0  0  0  0  0  0  0  0  0  0  0  0
    0.6212   -1.4243   -0.0321 C   0  0  0  0  0  0  0  0  0  0  0  0
   -0.8192   -1.2766   -0.4207 C   0  0  0  0  0  0  0  0  0  0  0  0
    2.8507   -0.4841    0.2207 C   0  0  0  0  0  0  0  0  0  0  0  0
   -2.7583    0.0683    0.1697 C   0  0  0  0  0  0  0  0  0  0  0  0
    3.6279    0.7040    0.0165 N   0  0  0  0  0  0  0  0  0  0  0  0
   -3.4401   -0.9557   -0.4957 O   0  0  0  0  0  0  0  0  0  0  0  0
   -3.3936    1.2814    0.0225 O   0  0  0  0  0  0  0  0  0  0  0  0
   -1.5314    0.3941   -1.5064 H   0  0  0  0  0  0  0  0  0  0  0  0
   -1.0078    1.3618    1.2296 H   0  0  0  0  0  0  0  0  0  0  0  0
   -0.7241    2.1389   -0.3284 H   0  0  0  0  0  0  0  0  0  0  0  0
    1.4770    1.8554    0.0681 H   0  0  0  0  0  0  0  0  0  0  0  0
    1.1664    0.8167    1.4697 H   0  0  0  0  0  0  0  0  0  0  0  0
    1.5201   -0.0207   -1.4210 H   0  0  0  0  0  0  0  0  0  0  0  0
    0.6933   -1.6025    1.0626 H   0  0  0  0  0  0  0  0  0  0  0  0
    1.0897   -2.2966   -0.5364 H   0  0  0  0  0  0  0  0  0  0  0  0
   -1.3930   -1.9509    0.2688 H   0  0  0  0  0  0  0  0  0  0  0  0
   -0.9255   -1.7895   -1.4239 H   0  0  0  0  0  0  0  0  0  0  0  0
    3.3152   -1.3111   -0.3768 H   0  0  0  0  0  0  0  0  0  0  0  0
    2.8059   -0.7744    1.2690 H   0  0  0  0  0  0  0  0  0  0  0  0
   -2.6973   -0.2661    1.2440 H   0  0  0  0  0  0  0  0  0  0  0  0
    3.3642    1.4127    0.7058 H   0  0  0  0  0  0  0  0  0  0  0  0
    3.4423    1.0796   -0.9371 H   0  0  0  0  0  0  0  0  0  0  0  0
   -3.8893   -0.5071   -1.2752 H   0  0  0  0  0  0  0  0  0  0  0  0
   -3.8101    1.5561    0.8936 H   0  0  0  0  0  0  0  0  0  0  0  0
   -1.5314    0.3941   -1.5064 H   0  0  0  0  0  0  0  0  0  0  0  0
   -1.0078    1.3618    1.2296 H   0  0  0  0  0  0  0  0  0  0  0  0
   -0.7241    2.1389   -0.3284 H   0  0  0  0  0  0  0  0  0  0  0  0
    1.4770    1.8554    0.0681 H   0  0  0  0  0  0  0  0  0  0  0  0
    1.1664    0.8167    1.4697 H   0  0  0  0  0  0  0  0  0  0  0  0
    1.5201   -0.0207   -1.4210 H   0  0  0  0  0  0  0  0  0  0  0  0
    0.6933   -1.6025    1.0626 H   0  0  0  0  0  0  0  0  0  0  0  0
    1.0897   -2.2966   -0.5364 H   0  0  0  0  0  0  0  0  0  0  0  0
   -1.3930   -1.9509    0.2688 H   0  0  0  0  0  0  0  0  0  0  0  0
   -0.9255   -1.7895   -1.4239 H   0  0  0  0  0  0  0  0  0  0  0  0
    3.3152   -1.3111   -0.3768 H   0  0  0  0  0  0  0  0  0  0  0  0
    2.8059   -0.7744    1.2690 H   0  0  0  0  0  0  0  0  0  0  0  0
   -2.6973   -0.2661    1.2440 H   0  0  0  0  0  0  0  0  0  0  0  0
    3.3642    1.4127    0.7058 H   0  0  0  0  0  0  0  0  0  0  0  0
    3.4423    1.0796   -0.9371 H   0  0  0  0  0  0  0  0  0  0  0  0
   -3.8893   -0.5071   -1.2752 H   0  0  0  0  0  0  0  0  0  0  0  0
   -3.8101    1.5561    0.8936 H   0  0  0  0  0  0  0  0  0  0  0  0
  1  2  1  0
  2  3  1  0
  3  4  1  0
  4  5  1  0
  1  6  1  0
  5  6  1  0
  4  7  1  0
  1  8  1  0
  7  9  1  0
  8 10  1  0
  8 11  1  0
 12 13  1  0
 13 14  1  0
 14 15  1  0
 15 16  1  0
 12 17  1  0
 16 17  1  0
 15 18  1  0
 12 19  1  0
 18 20  1  0
 19 21  1  0
 19 22  1  0
  1 23  1  0
  2 24  1  0
  2 25  1  0
  3 26  1  0
  3 27  1  0
  4 28  1  0
  5 29  1  0
  5 30  1  0
  6 31  1  0
  6 32  1  0
  7 33  1  0
  7 34  1  0
  8 35  1  0
  9 36  1  0
  9 37  1  0
 10 38  1  0
 11 39  1  0
 12 40  1  0
 13 41  1  0
 13 42  1  0
 14 43  1  0
 14 44  1  0
 15 45  1  0
 16 46  1  0
 16 47  1  0
 17 48  1  0
 17 49  1  0
 18 50  1  0
 18 51  1  0
 19 52  1  0
 20 53  1  0
 20 54  1  0
 21 55  1  0
 22 56  1  0
M  END
>  <PDBID>  (1) 
1CEB

>  <PDB ID>  (1) 
1CEB

>  <Generic Name>  (1) 
Tranexamic Acid

>  <Brand Name>  (1) 
Cyklokapron#Cyklokapron 100 mg/ml#Cyklokapron 500 mg#Erfa-tranexamic#Gd-tranexamic Acid#Lysteda#Pure Whitenol Serum#Tranexamic Acid#Tranexamic Acid Injection#Tranexamic Acid Injection BP#Tranexamic Acid Tablets#Tranexamic Acid Tranexamic Acid#Cyclo-F#Espercil#Femstrual#Rikavarin#Transamin#Transcam#Traxyl

>  <DrugBank ID>  (1) 
DB00302

>  <ATC Codes>  (1) 
B02AA02

>  <Ligand ID>  (1) 
AMH

>  <Target Name>  (1) 
Plasminogen

>  <UniProt ID>  (1) 
P00747

>  <PDB ID.1>  (1) 
1CEB

>  <Seq. Identity>  (1) 
100%

$$$$
