PDB_DB01394_06
     RDKit          3D

 70 72  0  0  0  0  0  0  0  0999 V2000
   -3.0183    4.4105    0.8210 O   0  0  0  0  0  0  0  0  0  0  0  0
   -2.1333    3.8985   -0.1474 C   0  0  0  0  0  0  0  0  0  0  0  0
   -2.6716    4.3099   -1.4949 C   0  0  0  0  0  0  0  0  0  0  0  0
   -2.1393    2.4944   -0.0270 N   0  0  0  0  0  0  0  0  0  0  0  0
   -1.3062    1.7715   -0.9544 C   0  0  2  0  0  0  0  0  0  0  0  0
   -1.4419    0.3304   -0.7142 C   0  0  0  0  0  0  0  0  0  0  0  0
   -2.8699    0.1201   -0.1885 C   0  0  0  0  0  0  0  0  0  0  0  0
    0.0784    2.3275   -1.0592 C   0  0  0  0  0  0  0  0  0  0  0  0
    0.6548    2.3312    0.3299 C   0  0  0  0  0  0  0  0  0  0  0  0
    1.4996    1.1327    0.4627 C   0  0  2  0  0  0  0  0  0  0  0  0
    2.7699    1.4095   -0.3571 C   0  0  0  0  0  0  0  0  0  0  0  0
    3.7970    0.4017    0.1062 C   0  0  0  0  0  0  0  0  0  0  0  0
    3.2954   -0.9986    0.0739 C   0  0  0  0  0  0  0  0  0  0  0  0
    1.8705   -1.1738    0.5650 C   0  0  0  0  0  0  0  0  0  0  0  0
    1.8470   -0.8940    1.9196 O   0  0  0  0  0  0  0  0  0  0  0  0
    1.5783   -1.9287    2.7549 C   0  0  0  0  0  0  0  0  0  0  0  0
    3.5217   -1.5208   -1.1725 O   0  0  0  0  0  0  0  0  0  0  0  0
    4.4238   -2.5702   -1.2039 C   0  0  0  0  0  0  0  0  0  0  0  0
    4.9998    0.5774   -0.5474 O   0  0  0  0  0  0  0  0  0  0  0  0
    6.0225    0.9869    0.3166 C   0  0  0  0  0  0  0  0  0  0  0  0
    0.9352   -0.1627   -0.0716 C   0  0  1  0  0  0  0  0  0  0  0  0
   -0.5024   -0.3698    0.2134 C   0  0  0  0  0  0  0  0  0  0  0  0
   -0.9403   -1.8147    0.1387 C   0  0  0  0  0  0  0  0  0  0  0  0
   -2.1469   -2.1242    1.0037 C   0  0  0  0  0  0  0  0  0  0  0  0
   -3.4241   -2.2034    0.1869 C   0  0  1  0  0  0  0  0  0  0  0  0
   -3.5556   -1.0632   -0.7768 C   0  0  0  0  0  0  0  0  0  0  0  0
   -3.1442   -1.3446   -2.0611 O   0  0  0  0  0  0  0  0  0  0  0  0
   -3.4553   -3.4277   -0.4844 O   0  0  0  0  0  0  0  0  0  0  0  0
   -4.5098   -4.2200   -0.0317 C   0  0  0  0  0  0  0  0  0  0  0  0
   -2.5841    4.4840    1.7067 H   0  0  0  0  0  0  0  0  0  0  0  0
   -1.1438    4.3777   -0.0021 H   0  0  0  0  0  0  0  0  0  0  0  0
   -3.4483    3.6110   -1.8647 H   0  0  0  0  0  0  0  0  0  0  0  0
   -1.8944    4.5253   -2.2449 H   0  0  0  0  0  0  0  0  0  0  0  0
   -3.2171    5.2908   -1.3623 H   0  0  0  0  0  0  0  0  0  0  0  0
   -2.1681    2.1018    0.9255 H   0  0  0  0  0  0  0  0  0  0  0  0
   -1.7730    1.9751   -1.9691 H   0  0  0  0  0  0  0  0  0  0  0  0
   -1.4243   -0.2385   -1.6882 H   0  0  0  0  0  0  0  0  0  0  0  0
   -2.8092    0.1597    0.8973 H   0  0  0  0  0  0  0  0  0  0  0  0
   -3.5205    1.0105   -0.4558 H   0  0  0  0  0  0  0  0  0  0  0  0
    0.0288    3.3594   -1.4279 H   0  0  0  0  0  0  0  0  0  0  0  0
    0.6445    1.7172   -1.7732 H   0  0  0  0  0  0  0  0  0  0  0  0
    1.2954    3.2317    0.4309 H   0  0  0  0  0  0  0  0  0  0  0  0
   -0.0996    2.3746    1.1220 H   0  0  0  0  0  0  0  0  0  0  0  0
    1.8317    1.0463    1.5247 H   0  0  0  0  0  0  0  0  0  0  0  0
    3.0766    2.4419   -0.1821 H   0  0  0  0  0  0  0  0  0  0  0  0
    2.6055    1.2509   -1.4249 H   0  0  0  0  0  0  0  0  0  0  0  0
    3.9877    0.6492    1.1925 H   0  0  0  0  0  0  0  0  0  0  0  0
    3.9361   -1.5889    0.7945 H   0  0  0  0  0  0  0  0  0  0  0  0
    1.6579   -2.2220    0.2975 H   0  0  0  0  0  0  0  0  0  0  0  0
    1.5930   -1.5841    3.8325 H   0  0  0  0  0  0  0  0  0  0  0  0
    0.5150   -2.2312    2.6138 H   0  0  0  0  0  0  0  0  0  0  0  0
    2.1746   -2.8435    2.6041 H   0  0  0  0  0  0  0  0  0  0  0  0
    4.5052   -2.8857   -2.2722 H   0  0  0  0  0  0  0  0  0  0  0  0
    5.4528   -2.2810   -0.9030 H   0  0  0  0  0  0  0  0  0  0  0  0
    4.0607   -3.4713   -0.6622 H   0  0  0  0  0  0  0  0  0  0  0  0
    6.1146    0.1646    1.0847 H   0  0  0  0  0  0  0  0  0  0  0  0
    5.7473    1.8961    0.8964 H   0  0  0  0  0  0  0  0  0  0  0  0
    6.9910    1.0474   -0.1770 H   0  0  0  0  0  0  0  0  0  0  0  0
    1.1141   -0.2302   -1.1707 H   0  0  0  0  0  0  0  0  0  0  0  0
   -0.7402   -0.0342    1.2482 H   0  0  0  0  0  0  0  0  0  0  0  0
   -1.2358   -2.0468   -0.9326 H   0  0  0  0  0  0  0  0  0  0  0  0
   -0.2139   -2.5689    0.3770 H   0  0  0  0  0  0  0  0  0  0  0  0
   -2.2262   -1.4908    1.9019 H   0  0  0  0  0  0  0  0  0  0  0  0
   -2.0577   -3.1700    1.4356 H   0  0  0  0  0  0  0  0  0  0  0  0
   -4.2607   -2.1916    0.9123 H   0  0  0  0  0  0  0  0  0  0  0  0
   -4.6683   -0.8705   -0.8650 H   0  0  0  0  0  0  0  0  0  0  0  0
   -3.5079   -2.2246   -2.3199 H   0  0  0  0  0  0  0  0  0  0  0  0
   -4.4816   -5.1708   -0.5988 H   0  0  0  0  0  0  0  0  0  0  0  0
   -5.4483   -3.6463   -0.1767 H   0  0  0  0  0  0  0  0  0  0  0  0
   -4.4443   -4.4102    1.0749 H   0  0  0  0  0  0  0  0  0  0  0  0
  1  2  1  0
  2  3  1  0
  2  4  1  0
  4  5  1  0
  5  6  1  0
  6  7  1  0
  5  8  1  0
  8  9  1  0
  9 10  1  0
 10 11  1  0
 11 12  1  0
 12 13  1  0
 13 14  1  0
 14 15  1  0
 15 16  1  0
 13 17  1  0
 17 18  1  0
 12 19  1  0
 19 20  1  0
 10 21  1  0
 14 21  1  0
  6 22  1  0
 21 22  1  0
 22 23  1  0
 23 24  1  0
 24 25  1  0
  7 26  1  0
 25 26  1  0
 26 27  1  0
 25 28  1  0
 28 29  1  0
  1 30  1  0
  2 31  1  0
  3 32  1  0
  3 33  1  0
  3 34  1  0
  4 35  1  0
  5 36  1  6
  6 37  1  0
  7 38  1  0
  7 39  1  0
  8 40  1  0
  8 41  1  0
  9 42  1  0
  9 43  1  0
 10 44  1  1
 11 45  1  0
 11 46  1  0
 12 47  1  0
 13 48  1  0
 14 49  1  0
 16 50  1  0
 16 51  1  0
 16 52  1  0
 18 53  1  0
 18 54  1  0
 18 55  1  0
 20 56  1  0
 20 57  1  0
 20 58  1  0
 21 59  1  6
 22 60  1  0
 23 61  1  0
 23 62  1  0
 24 63  1  0
 24 64  1  0
 25 65  1  1
 26 66  1  0
 27 67  1  0
 29 68  1  0
 29 69  1  0
 29 70  1  0
M  END
>  <PDBID>  (1) 
5EYP

>  <PDB ID>  (1) 
5EYP

>  <Generic Name>  (1) 
Colchicine

>  <Brand Name>  (1) 
Colchicine#Colchicine Tab 0.6mg#Colchicine Tab 1mg#Colcrys#Euro-colchicine#Jamp-colchicine#Mitigare#PMS-colchicine#Probenecid and Colchicine#Verban Ont

>  <DrugBank ID>  (1) 
DB01394

>  <ATC Codes>  (1) 
M04AC01

>  <Ligand ID>  (1) 
LOC

>  <Target Name>  (1) 
Tubulin beta-1 chain

>  <UniProt ID>  (1) 
Q9H4B7

>  <PDB ID.1>  (1) 
5EYP

>  <Seq. Identity>  (1) 
78%

$$$$
