PDB_DB00869_07
     RDKit          3D

 43 44  0  0  0  0  0  0  0  0999 V2000
    1.9733    2.0486   -0.3650 S   0  0  0  0  0  0  0  0  0  0  0  0
    2.6655    0.4587    0.2616 C   0  0  0  0  0  0  0  0  0  0  0  0
    1.4415   -0.4000    0.0115 C   0  0  0  0  0  0  0  0  0  0  0  0
    0.2922    0.3170    0.6457 C   0  0  0  0  0  0  0  0  0  0  0  0
   -1.0024   -0.3494    0.3748 C   0  0  2  0  0  0  0  0  0  0  0  0
   -2.1047    0.5952    0.8922 C   0  0  0  0  0  0  0  0  0  0  0  0
   -2.4138    1.6376   -0.1199 C   0  0  1  0  0  0  0  0  0  0  0  0
   -0.8995    2.0212   -1.0077 S   0  0  0  0  0  0  0  0  0  0  0  0
    0.2754    1.7539    0.1843 C   0  0  2  0  0  0  0  0  0  0  0  0
    4.0534   -0.0110   -0.3978 S   0  0  0  0  0  0  0  0  0  0  0  0
    4.3038   -0.3223   -1.8231 O   0  0  0  0  0  0  0  0  0  0  0  0
    4.5523   -1.3847    0.5610 O   0  0  0  0  0  0  0  0  0  0  0  0
    5.2343    1.1373    0.2263 N   0  0  0  0  0  0  0  0  0  0  0  0
   -1.0822   -1.5884    1.1431 N   0  0  0  0  0  0  0  0  0  0  0  0
   -3.4832    1.1599   -1.0383 C   0  0  0  0  0  0  0  0  0  0  0  0
   -0.7334    1.1112   -2.5049 O   0  0  0  0  0  0  0  0  0  0  0  0
   -0.8572    3.8196   -1.4792 O   0  0  0  0  0  0  0  0  0  0  0  0
   -1.9266   -2.5158    0.3842 C   0  0  0  0  0  0  0  0  0  0  0  0
   -2.2633   -3.6761    1.2866 C   0  0  0  0  0  0  0  0  0  0  0  0
    2.7171    0.6089    1.3697 H   0  0  0  0  0  0  0  0  0  0  0  0
    1.3160   -0.5997   -1.0639 H   0  0  0  0  0  0  0  0  0  0  0  0
    1.5886   -1.3364    0.5971 H   0  0  0  0  0  0  0  0  0  0  0  0
    0.4807    0.3219    1.7428 H   0  0  0  0  0  0  0  0  0  0  0  0
   -1.2172   -0.5766   -0.6574 H   0  0  0  0  0  0  0  0  0  0  0  0
   -1.7165    0.9772    1.8648 H   0  0  0  0  0  0  0  0  0  0  0  0
   -3.0340    0.0144    1.1351 H   0  0  0  0  0  0  0  0  0  0  0  0
   -2.7529    2.5503    0.4147 H   0  0  0  0  0  0  0  0  0  0  0  0
    0.1013    2.4056    1.0531 H   0  0  0  0  0  0  0  0  0  0  0  0
    4.5872   -1.2213   -2.1232 H   0  0  0  0  0  0  0  0  0  0  0  0
    3.7886   -1.6627    1.1156 H   0  0  0  0  0  0  0  0  0  0  0  0
    6.1444    0.6631    0.2473 H   0  0  0  0  0  0  0  0  0  0  0  0
    5.1943    1.9907   -0.3337 H   0  0  0  0  0  0  0  0  0  0  0  0
   -1.5263   -1.3825    2.0790 H   0  0  0  0  0  0  0  0  0  0  0  0
   -4.0573    2.0206   -1.4924 H   0  0  0  0  0  0  0  0  0  0  0  0
   -3.0253    0.5020   -1.7989 H   0  0  0  0  0  0  0  0  0  0  0  0
   -4.1628    0.4803   -0.4458 H   0  0  0  0  0  0  0  0  0  0  0  0
   -1.4553    1.4837   -3.1059 H   0  0  0  0  0  0  0  0  0  0  0  0
    0.0591    3.8535   -1.8414 H   0  0  0  0  0  0  0  0  0  0  0  0
   -1.2263   -2.9516   -0.4136 H   0  0  0  0  0  0  0  0  0  0  0  0
   -2.7877   -2.0167   -0.0886 H   0  0  0  0  0  0  0  0  0  0  0  0
   -2.3137   -4.6133    0.6981 H   0  0  0  0  0  0  0  0  0  0  0  0
   -3.2630   -3.5607    1.7646 H   0  0  0  0  0  0  0  0  0  0  0  0
   -1.4647   -3.7633    2.0472 H   0  0  0  0  0  0  0  0  0  0  0  0
  1  2  1  0
  2  3  1  0
  3  4  1  0
  4  5  1  0
  5  6  1  0
  6  7  1  0
  7  8  1  0
  1  9  1  0
  4  9  1  0
  8  9  1  0
  2 10  1  0
 10 11  1  0
 10 12  1  0
 10 13  1  0
  5 14  1  0
  7 15  1  0
  8 16  1  0
  8 17  1  0
 14 18  1  0
 18 19  1  0
  2 20  1  0
  3 21  1  0
  3 22  1  0
  4 23  1  0
  5 24  1  6
  6 25  1  0
  6 26  1  0
  7 27  1  1
  9 28  1  1
 11 29  1  0
 12 30  1  0
 13 31  1  0
 13 32  1  0
 14 33  1  0
 15 34  1  0
 15 35  1  0
 15 36  1  0
 16 37  1  0
 17 38  1  0
 18 39  1  0
 18 40  1  0
 19 41  1  0
 19 42  1  0
 19 43  1  0
M  END
>  <PDBID>  (1) 
1CIL

>  <PDB ID>  (1) 
1CIL

>  <Generic Name>  (1) 
Dorzolamide

>  <Brand Name>  (1) 
Act Dorzotimolol#Apo-dorzo-timop#Apo-dorzolamide#Cosopt#Cosopt PF#Dorzolamide#Dorzolamide HCl#Dorzolamide HCl /timolol Maleate#Dorzolamide HCl and Timolol Maleate#Dorzolamide Hydrochloride#Dorzolamide Hydrochloride Ophthalmic Solution#Dorzolamide Hydrochloride Ophthalmic Solution 2%, 10ml Ophthalmic Solution 2%, 10ml#Dorzolamide Hydrochloride and Timolol Maleate#Dorzolamide Hydrochloride and Timolol Maleate Ophthalmic Solution#Dorzolamide Hydrochloride-timolol Maleate#Dorzolamide Hydrochloride-timolol Maleate Ophthalmic Solution Sterile Ophthalmic Solution#Jamp-dorzolamide#Jamp-dorzolamide/timolol#Med-dorzolamide#Med-dorzolamide-timolol#Mint-dorzolamide/timolol#Mylan-dorzolamide/timolol#PMS-dorzolamide-timolol#Riva-dorzolamide#Riva-dorzolamide/timolol#Sandoz Dorzolamide#Sandoz Dorzolamide/timolol#Teva-dorzotimol#Trusopt#Van-dorzolamide-timolol

>  <DrugBank ID>  (1) 
DB00869

>  <ATC Codes>  (1) 
S01EC03

>  <Ligand ID>  (1) 
ETS

>  <Target Name>  (1) 
Carbonic anhydrase 2

>  <UniProt ID>  (1) 
P00918

>  <PDB ID.1>  (1) 
1CIL

>  <Seq. Identity>  (1) 
100%

$$$$
