PDB_DB00203_02
     RDKit          3D

 79 82  0  0  0  0  0  0  0  0999 V2000
   -6.4050   -1.5449   -2.8105 C   0  0  0  0  0  0  0  0  0  0  0  0
   -5.8009   -2.4528   -1.7531 C   0  0  0  0  0  0  0  0  0  0  0  0
   -4.4534   -1.9482   -1.2846 C   0  0  0  0  0  0  0  0  0  0  0  0
   -4.6338   -0.5646   -0.6939 C   0  0  0  0  0  0  0  0  0  0  0  0
   -5.5555   -0.6764    0.4180 N   0  0  0  0  0  0  0  0  0  0  0  0
   -4.8621   -0.4238    1.5845 N   0  0  0  0  0  0  0  0  0  0  0  0
   -5.3995   -1.1176    2.7354 C   0  0  0  0  0  0  0  0  0  0  0  0
   -3.5062   -0.7382    1.3026 C   0  0  0  0  0  0  0  0  0  0  0  0
   -2.4882   -0.0797    2.1749 C   0  0  0  0  0  0  0  0  0  0  0  0
   -3.0578    1.0434    2.7703 O   0  0  0  0  0  0  0  0  0  0  0  0
   -1.2872    0.2857    1.4903 N   0  0  0  0  0  0  0  0  0  0  0  0
   -1.0621   -0.3271    0.2336 C   0  0  0  0  0  0  0  0  0  0  0  0
   -2.1674   -0.5127   -0.6239 N   0  0  0  0  0  0  0  0  0  0  0  0
   -3.3726   -0.0437   -0.0651 C   0  0  0  0  0  0  0  0  0  0  0  0
    0.0421    0.4110   -0.4800 C   0  0  0  0  0  0  0  0  0  0  0  0
    1.3533    0.3781    0.3192 C   0  0  0  0  0  0  0  0  0  0  0  0
    2.4430    0.9286   -0.5318 C   0  0  0  0  0  0  0  0  0  0  0  0
    2.1020    2.3820   -0.8782 C   0  0  0  0  0  0  0  0  0  0  0  0
    0.8061    2.3636   -1.6742 C   0  0  0  0  0  0  0  0  0  0  0  0
   -0.2664    1.8770   -0.6832 C   0  0  0  0  0  0  0  0  0  0  0  0
   -0.1566    2.6340    0.4630 O   0  0  0  0  0  0  0  0  0  0  0  0
   -1.2623    3.4383    0.7247 C   0  0  0  0  0  0  0  0  0  0  0  0
   -1.5041    4.4248   -0.4055 C   0  0  0  0  0  0  0  0  0  0  0  0
    3.9297    0.8912    0.2782 S   0  0  0  0  0  0  0  0  0  0  0  0
    4.8762    1.7325   -1.2416 O   0  0  0  0  0  0  0  0  0  0  0  0
    4.2049    1.9945    1.2779 O   0  0  0  0  0  0  0  0  0  0  0  0
    4.7283   -0.3977    0.3067 N   0  0  0  0  0  0  0  0  0  0  0  0
    4.4772   -1.5100   -0.5766 C   0  0  0  0  0  0  0  0  0  0  0  0
    5.2264   -2.7611   -0.1035 C   0  0  0  0  0  0  0  0  0  0  0  0
    6.6460   -2.5688   -0.1206 N   0  0  0  0  0  0  0  0  0  0  0  0
    7.2914   -2.9004    1.1155 C   0  0  0  0  0  0  0  0  0  0  0  0
    6.9315   -1.1834   -0.4322 C   0  0  0  0  0  0  0  0  0  0  0  0
    6.1605   -0.2783    0.4826 C   0  0  0  0  0  0  0  0  0  0  0  0
   -5.7128   -1.4277   -3.6710 H   0  0  0  0  0  0  0  0  0  0  0  0
   -7.3621   -2.0343   -3.1161 H   0  0  0  0  0  0  0  0  0  0  0  0
   -6.6650   -0.5604   -2.4217 H   0  0  0  0  0  0  0  0  0  0  0  0
   -5.6693   -3.4638   -2.2003 H   0  0  0  0  0  0  0  0  0  0  0  0
   -6.5255   -2.4884   -0.9129 H   0  0  0  0  0  0  0  0  0  0  0  0
   -4.1091   -2.6527   -0.5023 H   0  0  0  0  0  0  0  0  0  0  0  0
   -3.7434   -1.9886   -2.1099 H   0  0  0  0  0  0  0  0  0  0  0  0
   -5.0428    0.1469   -1.4089 H   0  0  0  0  0  0  0  0  0  0  0  0
   -6.3727   -0.0557    0.3385 H   0  0  0  0  0  0  0  0  0  0  0  0
   -5.7617   -0.3404    3.4424 H   0  0  0  0  0  0  0  0  0  0  0  0
   -6.2647   -1.7087    2.4201 H   0  0  0  0  0  0  0  0  0  0  0  0
   -4.6251   -1.7183    3.2603 H   0  0  0  0  0  0  0  0  0  0  0  0
   -3.2932   -1.8055    1.1703 H   0  0  0  0  0  0  0  0  0  0  0  0
   -2.2254   -0.7830    2.9915 H   0  0  0  0  0  0  0  0  0  0  0  0
   -3.1769    0.9386    3.7511 H   0  0  0  0  0  0  0  0  0  0  0  0
   -0.4678    0.1668    2.1152 H   0  0  0  0  0  0  0  0  0  0  0  0
   -0.6455   -1.3574    0.4519 H   0  0  0  0  0  0  0  0  0  0  0  0
   -1.9704   -0.1240   -1.5724 H   0  0  0  0  0  0  0  0  0  0  0  0
   -3.4722    1.0445    0.0221 H   0  0  0  0  0  0  0  0  0  0  0  0
    0.2677   -0.0328   -1.4714 H   0  0  0  0  0  0  0  0  0  0  0  0
    1.2441    0.9140    1.2869 H   0  0  0  0  0  0  0  0  0  0  0  0
    1.5410   -0.6824    0.5670 H   0  0  0  0  0  0  0  0  0  0  0  0
    2.4755    0.3507   -1.4766 H   0  0  0  0  0  0  0  0  0  0  0  0
    2.9337    2.8548   -1.4379 H   0  0  0  0  0  0  0  0  0  0  0  0
    1.8781    2.8881    0.0847 H   0  0  0  0  0  0  0  0  0  0  0  0
    0.9203    1.5455   -2.4237 H   0  0  0  0  0  0  0  0  0  0  0  0
    0.5591    3.3254   -2.1171 H   0  0  0  0  0  0  0  0  0  0  0  0
   -1.2445    2.0730   -1.1561 H   0  0  0  0  0  0  0  0  0  0  0  0
   -1.0236    4.0171    1.6444 H   0  0  0  0  0  0  0  0  0  0  0  0
   -2.1925    2.8642    0.9049 H   0  0  0  0  0  0  0  0  0  0  0  0
   -0.5289    4.9070   -0.6845 H   0  0  0  0  0  0  0  0  0  0  0  0
   -2.1500    5.2659   -0.0794 H   0  0  0  0  0  0  0  0  0  0  0  0
   -2.0103    3.9606   -1.2710 H   0  0  0  0  0  0  0  0  0  0  0  0
    4.6510    0.9755   -1.8507 H   0  0  0  0  0  0  0  0  0  0  0  0
    3.5297    2.4964    1.7848 H   0  0  0  0  0  0  0  0  0  0  0  0
    4.7781   -1.3201   -1.6219 H   0  0  0  0  0  0  0  0  0  0  0  0
    3.4054   -1.7831   -0.6013 H   0  0  0  0  0  0  0  0  0  0  0  0
    4.9750   -3.5839   -0.7974 H   0  0  0  0  0  0  0  0  0  0  0  0
    4.9376   -3.0140    0.9409 H   0  0  0  0  0  0  0  0  0  0  0  0
    8.2860   -2.4109    1.1150 H   0  0  0  0  0  0  0  0  0  0  0  0
    7.4784   -3.9864    1.2463 H   0  0  0  0  0  0  0  0  0  0  0  0
    6.6855   -2.4957    1.9766 H   0  0  0  0  0  0  0  0  0  0  0  0
    6.7811   -0.9465   -1.4996 H   0  0  0  0  0  0  0  0  0  0  0  0
    8.0134   -1.0250   -0.2048 H   0  0  0  0  0  0  0  0  0  0  0  0
    6.4456    0.7867    0.2580 H   0  0  0  0  0  0  0  0  0  0  0  0
    6.4917   -0.4874    1.5169 H   0  0  0  0  0  0  0  0  0  0  0  0
  1  2  1  0
  2  3  1  0
  3  4  1  0
  4  5  1  0
  5  6  1  0
  6  7  1  0
  6  8  1  0
  8  9  1  0
  9 10  1  0
  9 11  1  0
 11 12  1  0
 12 13  1  0
  4 14  1  0
  8 14  1  0
 13 14  1  0
 12 15  1  0
 15 16  1  0
 16 17  1  0
 17 18  1  0
 18 19  1  0
 15 20  1  0
 19 20  1  0
 20 21  1  0
 21 22  1  0
 22 23  1  0
 17 24  1  0
 24 25  1  0
 24 26  1  0
 24 27  1  0
 27 28  1  0
 28 29  1  0
 29 30  1  0
 30 31  1  0
 30 32  1  0
 27 33  1  0
 32 33  1  0
  1 34  1  0
  1 35  1  0
  1 36  1  0
  2 37  1  0
  2 38  1  0
  3 39  1  0
  3 40  1  0
  4 41  1  0
  5 42  1  0
  7 43  1  0
  7 44  1  0
  7 45  1  0
  8 46  1  0
  9 47  1  0
 10 48  1  0
 11 49  1  0
 12 50  1  0
 13 51  1  0
 14 52  1  0
 15 53  1  0
 16 54  1  0
 16 55  1  0
 17 56  1  0
 18 57  1  0
 18 58  1  0
 19 59  1  0
 19 60  1  0
 20 61  1  0
 22 62  1  0
 22 63  1  0
 23 64  1  0
 23 65  1  0
 23 66  1  0
 25 67  1  0
 26 68  1  0
 28 69  1  0
 28 70  1  0
 29 71  1  0
 29 72  1  0
 31 73  1  0
 31 74  1  0
 31 75  1  0
 32 76  1  0
 32 77  1  0
 33 78  1  0
 33 79  1  0
M  END
>  <PDBID>  (1) 
1UDT

>  <PDB ID>  (1) 
1UDT

>  <Generic Name>  (1) 
Sildenafil

>  <Brand Name>  (1) 
Act Sildenafil#Apo-sildenafil#Apo-sildenafil R#Auro-sildenafil#Dom-sildenafil#Gd-sildenafil#Ipg-sildenafil#Jamp-sildenafil#M-sildenafil#Mar-sildenafil#Mint-sildenafil#Myl-sildenafil#Mylan-sildenafil#PMS-sildenafil#PMS-sildenafil R#Pb-sildenafil#Priva-sildenafil#Ran-sildenafil#Ratio-sildenafil#Ratio-sildenafil R#Revatio#Riva-sildenafil#Sandoz Sildenafil#Sildenafil#Sildenafil Citrate#Sildenafil R#Sildenafil Tablets#Teva-sildenafil#Van-sildenafil#Viagra

>  <DrugBank ID>  (1) 
DB00203

>  <ATC Codes>  (1) 
G04BE03

>  <Ligand ID>  (1) 
VIA

>  <Target Name>  (1) 
cGMP-specific 3',5'-cyclic phosphodiesterase

>  <UniProt ID>  (1) 
O76074

>  <PDB ID.1>  (1) 
1UDT

>  <Seq. Identity>  (1) 
94%

$$$$
