PDB_DB00367_00
     RDKit          3D

118124  0  0  0  0  0  0  0  0999 V2000
    2.8537    0.5633    1.7624 C   0  0  0  0  0  0  0  0  0  0  0  0
    3.4610   -0.8010    1.5253 C   0  0  0  0  0  0  0  0  0  0  0  0
    4.5701   -0.5634    0.4963 C   0  0  1  0  0  0  0  0  0  0  0  0
    3.9597   -0.0631   -0.7425 C   0  0  0  0  0  0  0  0  0  0  0  0
    2.9729    1.0420   -0.6227 C   0  0  1  0  0  0  0  0  0  0  0  0
    2.2057    1.0469   -1.9282 C   0  0  0  0  0  0  0  0  0  0  0  0
    0.8125    1.4959   -1.8430 C   0  0  0  0  0  0  0  0  0  0  0  0
    0.0049    0.9737   -0.6905 C   0  0  2  0  0  0  0  0  0  0  0  0
    0.8872    0.1132    0.2483 C   0  0  1  0  0  0  0  0  0  0  0  0
    2.0614    0.9472    0.5767 C   0  0  1  0  0  0  0  0  0  0  0  0
    0.0725   -0.4194    1.3609 C   0  0  0  0  0  0  0  0  0  0  0  0
   -1.3848   -0.1162    1.3636 C   0  0  0  0  0  0  0  0  0  0  0  0
   -2.1091    0.0385    0.1158 C   0  0  1  0  0  0  0  0  0  0  0  0
   -1.1178    0.1292   -1.0241 C   0  0  1  0  0  0  0  0  0  0  0  0
   -1.9897    0.4101   -2.1715 C   0  0  0  0  0  0  0  0  0  0  0  0
   -3.0824   -0.6173   -1.9359 C   0  0  0  0  0  0  0  0  0  0  0  0
   -2.9322   -1.0649   -0.4578 C   0  0  1  0  0  0  0  0  0  0  0  0
   -3.1005    1.1909    0.1152 C   0  0  0  0  0  0  0  0  0  0  0  0
   -2.5996    2.5449    0.3470 C   0  0  0  0  0  0  0  0  0  0  0  0
   -2.5453   -2.4625   -0.3481 C   0  0  0  0  0  0  0  0  0  0  0  0
   -2.4632   -3.0399    1.0278 C   0  0  0  0  0  0  0  0  0  0  0  0
    5.4852    0.3255    1.0716 O   0  0  0  0  0  0  0  0  0  0  0  0
   -4.2798   -0.9418    0.0408 O   0  0  0  0  0  0  0  0  0  0  0  0
    2.8537    0.5633    1.7624 C   0  0  0  0  0  0  0  0  0  0  0  0
    3.4610   -0.8010    1.5253 C   0  0  0  0  0  0  0  0  0  0  0  0
    4.5701   -0.5634    0.4963 C   0  0  1  0  0  0  0  0  0  0  0  0
    3.9597   -0.0631   -0.7425 C   0  0  0  0  0  0  0  0  0  0  0  0
    2.9729    1.0420   -0.6227 C   0  0  1  0  0  0  0  0  0  0  0  0
    2.2057    1.0469   -1.9282 C   0  0  0  0  0  0  0  0  0  0  0  0
    0.8125    1.4959   -1.8430 C   0  0  0  0  0  0  0  0  0  0  0  0
    0.0049    0.9737   -0.6905 C   0  0  2  0  0  0  0  0  0  0  0  0
    0.8872    0.1132    0.2483 C   0  0  1  0  0  0  0  0  0  0  0  0
    2.0614    0.9472    0.5767 C   0  0  1  0  0  0  0  0  0  0  0  0
    0.0725   -0.4194    1.3609 C   0  0  0  0  0  0  0  0  0  0  0  0
   -1.3848   -0.1162    1.3636 C   0  0  0  0  0  0  0  0  0  0  0  0
   -2.1091    0.0385    0.1158 C   0  0  1  0  0  0  0  0  0  0  0  0
   -1.1178    0.1292   -1.0241 C   0  0  1  0  0  0  0  0  0  0  0  0
   -1.9897    0.4101   -2.1715 C   0  0  0  0  0  0  0  0  0  0  0  0
   -3.0824   -0.6173   -1.9359 C   0  0  0  0  0  0  0  0  0  0  0  0
   -2.9322   -1.0649   -0.4578 C   0  0  1  0  0  0  0  0  0  0  0  0
   -3.1005    1.1909    0.1152 C   0  0  0  0  0  0  0  0  0  0  0  0
   -2.5996    2.5449    0.3470 C   0  0  0  0  0  0  0  0  0  0  0  0
   -2.5453   -2.4625   -0.3481 C   0  0  0  0  0  0  0  0  0  0  0  0
   -2.4632   -3.0399    1.0278 C   0  0  0  0  0  0  0  0  0  0  0  0
    5.4852    0.3255    1.0716 O   0  0  0  0  0  0  0  0  0  0  0  0
   -4.2798   -0.9418    0.0408 O   0  0  0  0  0  0  0  0  0  0  0  0
    3.7298    1.2793    1.8136 H   0  0  0  0  0  0  0  0  0  0  0  0
    2.3623    0.6628    2.7376 H   0  0  0  0  0  0  0  0  0  0  0  0
    3.9470   -1.2140    2.4196 H   0  0  0  0  0  0  0  0  0  0  0  0
    2.7485   -1.5059    1.0499 H   0  0  0  0  0  0  0  0  0  0  0  0
    5.0884   -1.5068    0.3101 H   0  0  0  0  0  0  0  0  0  0  0  0
    4.7830    0.2978   -1.4235 H   0  0  0  0  0  0  0  0  0  0  0  0
    3.5189   -0.9380   -1.3003 H   0  0  0  0  0  0  0  0  0  0  0  0
    3.5412    1.9952   -0.5192 H   0  0  0  0  0  0  0  0  0  0  0  0
    2.2257    0.0351   -2.4261 H   0  0  0  0  0  0  0  0  0  0  0  0
    2.7614    1.7128   -2.6210 H   0  0  0  0  0  0  0  0  0  0  0  0
    0.2815    1.1412   -2.7767 H   0  0  0  0  0  0  0  0  0  0  0  0
    0.7796    2.6073   -1.9190 H   0  0  0  0  0  0  0  0  0  0  0  0
   -0.2221    1.8491   -0.0524 H   0  0  0  0  0  0  0  0  0  0  0  0
    1.2357   -0.7169   -0.4220 H   0  0  0  0  0  0  0  0  0  0  0  0
    1.6810    1.9989    0.7508 H   0  0  0  0  0  0  0  0  0  0  0  0
    0.4801    0.0145    2.3234 H   0  0  0  0  0  0  0  0  0  0  0  0
    0.2695   -1.4989    1.4571 H   0  0  0  0  0  0  0  0  0  0  0  0
   -1.9196   -0.7813    2.0545 H   0  0  0  0  0  0  0  0  0  0  0  0
   -1.5270    0.8994    1.9104 H   0  0  0  0  0  0  0  0  0  0  0  0
   -0.7420   -0.9286   -1.1794 H   0  0  0  0  0  0  0  0  0  0  0  0
   -2.3434    1.4153   -2.3259 H   0  0  0  0  0  0  0  0  0  0  0  0
   -1.4563    0.1020   -3.1148 H   0  0  0  0  0  0  0  0  0  0  0  0
   -4.0835   -0.2834   -2.1771 H   0  0  0  0  0  0  0  0  0  0  0  0
   -2.8959   -1.5398   -2.5562 H   0  0  0  0  0  0  0  0  0  0  0  0
   -3.8264    0.9302    0.9387 H   0  0  0  0  0  0  0  0  0  0  0  0
   -3.6834    1.1634   -0.8100 H   0  0  0  0  0  0  0  0  0  0  0  0
   -3.5189    3.1983    0.5336 H   0  0  0  0  0  0  0  0  0  0  0  0
   -1.9962    2.7387    1.2423 H   0  0  0  0  0  0  0  0  0  0  0  0
   -2.1952    3.0516   -0.5827 H   0  0  0  0  0  0  0  0  0  0  0  0
   -3.2979   -3.0803   -0.9172 H   0  0  0  0  0  0  0  0  0  0  0  0
   -1.5784   -2.7308   -0.8491 H   0  0  0  0  0  0  0  0  0  0  0  0
   -2.6740   -4.1624    0.9690 H   0  0  0  0  0  0  0  0  0  0  0  0
   -1.4957   -2.9937    1.5300 H   0  0  0  0  0  0  0  0  0  0  0  0
   -3.2354   -2.6264    1.7414 H   0  0  0  0  0  0  0  0  0  0  0  0
    6.4096    0.0109    1.0266 H   0  0  0  0  0  0  0  0  0  0  0  0
   -4.8940   -1.3280   -0.6499 H   0  0  0  0  0  0  0  0  0  0  0  0
    3.7298    1.2793    1.8136 H   0  0  0  0  0  0  0  0  0  0  0  0
    2.3623    0.6628    2.7376 H   0  0  0  0  0  0  0  0  0  0  0  0
    3.9470   -1.2140    2.4196 H   0  0  0  0  0  0  0  0  0  0  0  0
    2.7485   -1.5059    1.0499 H   0  0  0  0  0  0  0  0  0  0  0  0
    5.0884   -1.5068    0.3101 H   0  0  0  0  0  0  0  0  0  0  0  0
    4.7830    0.2978   -1.4235 H   0  0  0  0  0  0  0  0  0  0  0  0
    3.5189   -0.9380   -1.3003 H   0  0  0  0  0  0  0  0  0  0  0  0
    3.5412    1.9952   -0.5192 H   0  0  0  0  0  0  0  0  0  0  0  0
    2.2257    0.0351   -2.4261 H   0  0  0  0  0  0  0  0  0  0  0  0
    2.7614    1.7128   -2.6210 H   0  0  0  0  0  0  0  0  0  0  0  0
    0.2815    1.1412   -2.7767 H   0  0  0  0  0  0  0  0  0  0  0  0
    0.7796    2.6073   -1.9190 H   0  0  0  0  0  0  0  0  0  0  0  0
   -0.2221    1.8491   -0.0524 H   0  0  0  0  0  0  0  0  0  0  0  0
    1.2357   -0.7169   -0.4220 H   0  0  0  0  0  0  0  0  0  0  0  0
    1.6810    1.9989    0.7508 H   0  0  0  0  0  0  0  0  0  0  0  0
    0.4801    0.0145    2.3234 H   0  0  0  0  0  0  0  0  0  0  0  0
    0.2695   -1.4989    1.4571 H   0  0  0  0  0  0  0  0  0  0  0  0
   -1.9196   -0.7813    2.0545 H   0  0  0  0  0  0  0  0  0  0  0  0
   -1.5270    0.8994    1.9104 H   0  0  0  0  0  0  0  0  0  0  0  0
   -0.7420   -0.9286   -1.1794 H   0  0  0  0  0  0  0  0  0  0  0  0
   -2.3434    1.4153   -2.3259 H   0  0  0  0  0  0  0  0  0  0  0  0
   -1.4563    0.1020   -3.1148 H   0  0  0  0  0  0  0  0  0  0  0  0
   -4.0835   -0.2834   -2.1771 H   0  0  0  0  0  0  0  0  0  0  0  0
   -2.8959   -1.5398   -2.5562 H   0  0  0  0  0  0  0  0  0  0  0  0
   -3.8264    0.9302    0.9387 H   0  0  0  0  0  0  0  0  0  0  0  0
   -3.6834    1.1634   -0.8100 H   0  0  0  0  0  0  0  0  0  0  0  0
   -3.5189    3.1983    0.5336 H   0  0  0  0  0  0  0  0  0  0  0  0
   -1.9962    2.7387    1.2423 H   0  0  0  0  0  0  0  0  0  0  0  0
   -2.1952    3.0516   -0.5827 H   0  0  0  0  0  0  0  0  0  0  0  0
   -3.2979   -3.0803   -0.9172 H   0  0  0  0  0  0  0  0  0  0  0  0
   -1.5784   -2.7308   -0.8491 H   0  0  0  0  0  0  0  0  0  0  0  0
   -2.6740   -4.1624    0.9690 H   0  0  0  0  0  0  0  0  0  0  0  0
   -1.4957   -2.9937    1.5300 H   0  0  0  0  0  0  0  0  0  0  0  0
   -3.2354   -2.6264    1.7414 H   0  0  0  0  0  0  0  0  0  0  0  0
    6.4096    0.0109    1.0266 H   0  0  0  0  0  0  0  0  0  0  0  0
   -4.8940   -1.3280   -0.6499 H   0  0  0  0  0  0  0  0  0  0  0  0
  1  2  1  0
  2  3  1  0
  3  4  1  0
  4  5  1  0
  5  6  1  0
  6  7  1  0
  7  8  1  0
  8  9  1  0
  1 10  1  0
  5 10  1  0
  9 10  1  0
  9 11  1  0
 11 12  1  0
 12 13  1  0
  8 14  1  0
 13 14  1  0
 14 15  1  0
 15 16  1  0
 13 17  1  0
 16 17  1  0
 13 18  1  1
 18 19  1  0
 17 20  1  0
 20 21  1  0
  3 22  1  0
 17 23  1  1
 24 25  1  0
 25 26  1  0
 26 27  1  0
 27 28  1  0
 28 29  1  0
 29 30  1  0
 30 31  1  0
 31 32  1  0
 24 33  1  0
 28 33  1  0
 32 33  1  0
 32 34  1  0
 34 35  1  0
 35 36  1  0
 31 37  1  0
 36 37  1  0
 37 38  1  0
 38 39  1  0
 36 40  1  0
 39 40  1  0
 36 41  1  1
 41 42  1  0
 40 43  1  0
 43 44  1  0
 26 45  1  0
 40 46  1  1
  1 47  1  0
  1 48  1  0
  2 49  1  0
  2 50  1  0
  3 51  1  6
  4 52  1  0
  4 53  1  0
  5 54  1  1
  6 55  1  0
  6 56  1  0
  7 57  1  0
  7 58  1  0
  8 59  1  1
  9 60  1  6
 10 61  1  1
 11 62  1  0
 11 63  1  0
 12 64  1  0
 12 65  1  0
 14 66  1  6
 15 67  1  0
 15 68  1  0
 16 69  1  0
 16 70  1  0
 18 71  1  0
 18 72  1  0
 19 73  1  0
 19 74  1  0
 19 75  1  0
 20 76  1  0
 20 77  1  0
 21 78  1  0
 21 79  1  0
 21 80  1  0
 22 81  1  0
 23 82  1  0
 24 83  1  0
 24 84  1  0
 25 85  1  0
 25 86  1  0
 26 87  1  6
 27 88  1  0
 27 89  1  0
 28 90  1  1
 29 91  1  0
 29 92  1  0
 30 93  1  0
 30 94  1  0
 31 95  1  1
 32 96  1  6
 33 97  1  1
 34 98  1  0
 34 99  1  0
 35100  1  0
 35101  1  0
 37102  1  6
 38103  1  0
 38104  1  0
 39105  1  0
 39106  1  0
 41107  1  0
 41108  1  0
 42109  1  0
 42110  1  0
 42111  1  0
 43112  1  0
 43113  1  0
 44114  1  0
 44115  1  0
 44116  1  0
 45117  1  0
 46118  1  0
M  END
>  <PDBID>  (1) 
3D90

>  <PDB ID>  (1) 
3D90

>  <Generic Name>  (1) 
Levonorgestrel

>  <Brand Name>  (1) 
Afirmelle#Aftera#Afterpill#Alesse 21#Alesse 28#Altavera#Alysena 21#Alysena 28#Amethia#Amethyst#Athentia Next#Aubra#Aviane#Aviane 21#Aviane 28#Aviane 28 Day#Ayuna#Backup Plan#Backup Plan Onestep#Camrese#Camrese Lo#Chateal#Climara Pro#Contingency#Contingency One#Daysee#Delyla#Econtra Ez#Enpresse#Esme 21#Esme 28#Falessa#Fallback Solo#Falmina#Her Style#Indayo#Introvale#Jaydess#Jolessa#Kurvelo#Kyleena#Larissia#Lessina#Levonest#Levonorgestrel#Levonorgestrel Emergency Contraceptive#Levonorgestrel Tablets, 0.75mg#Levonorgestrel and Ethinyl Estradiol#Levonorgestrel and Ethinyl Estradiol Tablets, 0.1 Mg/0.02 mg#Levonorgestrel and Ethinyl Estradiol and Ethinyl Estradiol#Levora#Liletta#Lillow#Lutera#Lutera 21#Lutera 28#Marlissa#Min-ovral 21#Min-ovral 21 Tab#Min-ovral 28#Min-ovral 28 Tab#Mirena#Morning After#My Way#Myzilra#Next Choice#Next Choice One Dose#Norlevo#Norplant System Kit 36mg/implant#Opcicon One-step#Option 2#Orsythia#Ovima 21#Ovima 28#Plan B#Plan B One-step#Portia#Portia 21#Portia 28#Preven Emergency Contraceptive#Preven Tablets#Quasense#React#Seasonale#Seasonique#Setlakin#Skyla#Sronyx#Take Action#Teva-levonorgestrel#Triphasil 21#Triphasil 21 Tab#Triphasil 28#Triphasil 28 Tab#Triquilar 21#Triquilar 28#Trivora#Vienva Tm#Jadelle#Levonelle#Medonor#Microlut#Microval#Neogest#Norgeston#Norplant#Postinor

>  <DrugBank ID>  (1) 
DB00367

>  <ATC Codes>  (1) 
G03FA11#G03FB09#G03AC03#G03AB03#G03AA07#G03AD01

>  <Ligand ID>  (1) 
NOG

>  <Target Name>  (1) 
Estrogen receptor

>  <UniProt ID>  (1) 
P03372

>  <PDB ID.1>  (1) 
3D90

>  <Seq. Identity>  (1) 
31%

$$$$
