PDB_DB01229_02
     RDKit          3D

290302  0  0  0  0  0  0  0  0999 V2000
   -1.8375    0.0456    2.2794 O   0  0  0  0  0  0  0  0  0  0  0  0
   -1.9723   -0.6816    1.0434 C   0  0  1  0  0  0  0  0  0  0  0  0
   -3.3057   -0.1858    0.5697 C   0  0  1  0  0  0  0  0  0  0  0  0
   -3.1695    1.2273    0.4397 O   0  0  0  0  0  0  0  0  0  0  0  0
   -3.7596    2.1034    1.2109 C   0  0  0  0  0  0  0  0  0  0  0  0
   -4.7506    2.7948    0.3466 O   0  0  0  0  0  0  0  0  0  0  0  0
   -3.0448    3.3446    1.6969 C   0  0  0  0  0  0  0  0  0  0  0  0
   -1.8151    3.1609    2.4914 C   0  0  0  0  0  0  0  0  0  0  0  0
   -1.1703    4.4356    2.9604 C   0  0  0  0  0  0  0  0  0  0  0  0
   -2.0491    5.6438    2.8678 C   0  0  0  0  0  0  0  0  0  0  0  0
   -3.4057    5.1918    3.3942 C   0  0  0  0  0  0  0  0  0  0  0  0
   -4.0128    4.3310    2.3195 C   0  0  0  0  0  0  0  0  0  0  0  0
   -3.9361   -0.6844   -0.6496 C   0  0  2  0  0  0  0  0  0  0  0  0
   -5.4444   -0.4001   -0.5514 C   0  0  2  0  0  0  0  0  0  0  0  0
   -5.8693   -0.0193    0.6420 O   0  0  0  0  0  0  0  0  0  0  0  0
   -7.0853    0.2178    1.0803 C   0  0  0  0  0  0  0  0  0  0  0  0
   -7.1920    1.5322    1.5355 O   0  0  0  0  0  0  0  0  0  0  0  0
   -7.4521   -0.6027    2.3463 C   0  0  0  0  0  0  0  0  0  0  0  0
   -6.5175   -1.0859   -1.2434 C   0  0  0  0  0  0  0  0  0  0  0  0
   -6.9937    0.2081   -1.6429 O   0  0  0  0  0  0  0  0  0  0  0  0
   -5.6399    0.3792   -1.8323 C   0  0  2  0  0  0  0  0  0  0  0  0
   -4.9867   -0.3696   -2.9596 C   0  0  0  0  0  0  0  0  0  0  0  0
   -4.1680   -1.5442   -2.7835 C   0  0  2  0  0  0  0  0  0  0  0  0
   -4.4969   -2.6833   -3.5213 O   0  0  0  0  0  0  0  0  0  0  0  0
   -3.7897   -1.9583   -1.3062 C   0  0  2  0  0  0  0  0  0  0  0  0
   -4.8153   -2.9695   -0.8262 C   0  0  0  0  0  0  0  0  0  0  0  0
   -2.5502   -2.6921   -1.5026 C   0  0  0  0  0  0  0  0  0  0  0  0
   -2.8441   -3.6012   -2.5803 O   0  0  0  0  0  0  0  0  0  0  0  0
   -1.8232   -3.5385   -0.5967 C   0  0  2  0  0  0  0  0  0  0  0  0
   -2.3002   -4.8145   -0.3044 O   0  0  0  0  0  0  0  0  0  0  0  0
   -1.6072   -5.8675   -0.8129 C   0  0  0  0  0  0  0  0  0  0  0  0
   -1.1123   -6.7300    0.1852 O   0  0  0  0  0  0  0  0  0  0  0  0
   -2.5276   -6.7082   -1.6628 C   0  0  0  0  0  0  0  0  0  0  0  0
   -1.0766   -2.9567    0.5580 C   0  0  1  0  0  0  0  0  0  0  0  0
    0.2898   -2.3974    0.1369 C   0  0  0  0  0  0  0  0  0  0  0  0
    0.4308   -0.9474    0.2443 C   0  0  1  0  0  0  0  0  0  0  0  0
    1.2105   -0.4649   -0.8429 O   0  0  0  0  0  0  0  0  0  0  0  0
    2.4287    0.0887   -0.3702 C   0  0  0  0  0  0  0  0  0  0  0  0
    2.1328    1.5025   -0.4717 O   0  0  0  0  0  0  0  0  0  0  0  0
    3.5599   -0.1387   -1.2879 C   0  0  2  0  0  0  0  0  0  0  0  0
    3.7479   -1.5256   -1.5654 O   0  0  0  0  0  0  0  0  0  0  0  0
    4.9130    0.3196   -0.7841 C   0  0  1  0  0  0  0  0  0  0  0  0
    5.0218    1.6715   -0.3977 N   0  0  0  0  0  0  0  0  0  0  0  0
    4.9068    2.6772   -1.3770 C   0  0  0  0  0  0  0  0  0  0  0  0
    4.9385    3.9517   -0.7772 O   0  0  0  0  0  0  0  0  0  0  0  0
    6.0113    2.7074   -2.4220 C   0  0  0  0  0  0  0  0  0  0  0  0
    5.6300    3.8695   -3.3558 C   0  0  0  0  0  0  0  0  0  0  0  0
    6.8024    4.3111   -4.1986 C   0  0  0  0  0  0  0  0  0  0  0  0
    7.8792    4.9619   -3.3565 C   0  0  0  0  0  0  0  0  0  0  0  0
    7.6562    4.5457   -1.9272 C   0  0  0  0  0  0  0  0  0  0  0  0
    7.3585    3.0452   -1.8402 C   0  0  0  0  0  0  0  0  0  0  0  0
    5.6050   -0.6844    0.1020 C   0  0  0  0  0  0  0  0  0  0  0  0
    6.9453   -0.0490    0.5012 C   0  0  0  0  0  0  0  0  0  0  0  0
    7.9085   -1.0501    1.0635 C   0  0  0  0  0  0  0  0  0  0  0  0
    7.1075   -2.2417    1.5329 C   0  0  0  0  0  0  0  0  0  0  0  0
    5.8521   -1.8065    2.2626 C   0  0  0  0  0  0  0  0  0  0  0  0
    4.8956   -1.0447    1.3556 C   0  0  0  0  0  0  0  0  0  0  0  0
   -0.8253   -0.1517    0.2208 C   0  0  0  0  0  0  0  0  0  0  0  0
    1.4374   -3.1309    0.8332 C   0  0  0  0  0  0  0  0  0  0  0  0
   -1.8157   -2.0748    1.5096 C   0  0  0  0  0  0  0  0  0  0  0  0
   -0.9283   -2.1404    2.7999 C   0  0  0  0  0  0  0  0  0  0  0  0
   -3.0294   -2.7611    2.0283 C   0  0  0  0  0  0  0  0  0  0  0  0
   -1.8375    0.0456    2.2794 O   0  0  0  0  0  0  0  0  0  0  0  0
   -1.9723   -0.6816    1.0434 C   0  0  1  0  0  0  0  0  0  0  0  0
   -3.3057   -0.1858    0.5697 C   0  0  1  0  0  0  0  0  0  0  0  0
   -3.1695    1.2273    0.4397 O   0  0  0  0  0  0  0  0  0  0  0  0
   -3.7596    2.1034    1.2109 C   0  0  0  0  0  0  0  0  0  0  0  0
   -4.7506    2.7948    0.3466 O   0  0  0  0  0  0  0  0  0  0  0  0
   -3.0448    3.3446    1.6969 C   0  0  0  0  0  0  0  0  0  0  0  0
   -1.8151    3.1609    2.4914 C   0  0  0  0  0  0  0  0  0  0  0  0
   -1.1703    4.4356    2.9604 C   0  0  0  0  0  0  0  0  0  0  0  0
   -2.0491    5.6438    2.8678 C   0  0  0  0  0  0  0  0  0  0  0  0
   -3.4057    5.1918    3.3942 C   0  0  0  0  0  0  0  0  0  0  0  0
   -4.0128    4.3310    2.3195 C   0  0  0  0  0  0  0  0  0  0  0  0
   -3.9361   -0.6844   -0.6496 C   0  0  2  0  0  0  0  0  0  0  0  0
   -5.4444   -0.4001   -0.5514 C   0  0  2  0  0  0  0  0  0  0  0  0
   -5.8693   -0.0193    0.6420 O   0  0  0  0  0  0  0  0  0  0  0  0
   -7.0853    0.2178    1.0803 C   0  0  0  0  0  0  0  0  0  0  0  0
   -7.1920    1.5322    1.5355 O   0  0  0  0  0  0  0  0  0  0  0  0
   -7.4521   -0.6027    2.3463 C   0  0  0  0  0  0  0  0  0  0  0  0
   -6.5175   -1.0859   -1.2434 C   0  0  0  0  0  0  0  0  0  0  0  0
   -6.9937    0.2081   -1.6429 O   0  0  0  0  0  0  0  0  0  0  0  0
   -5.6399    0.3792   -1.8323 C   0  0  2  0  0  0  0  0  0  0  0  0
   -4.9867   -0.3696   -2.9596 C   0  0  0  0  0  0  0  0  0  0  0  0
   -4.1680   -1.5442   -2.7835 C   0  0  2  0  0  0  0  0  0  0  0  0
   -4.4969   -2.6833   -3.5213 O   0  0  0  0  0  0  0  0  0  0  0  0
   -3.7897   -1.9583   -1.3062 C   0  0  2  0  0  0  0  0  0  0  0  0
   -4.8153   -2.9695   -0.8262 C   0  0  0  0  0  0  0  0  0  0  0  0
   -2.5502   -2.6921   -1.5026 C   0  0  0  0  0  0  0  0  0  0  0  0
   -2.8441   -3.6012   -2.5803 O   0  0  0  0  0  0  0  0  0  0  0  0
   -1.8232   -3.5385   -0.5967 C   0  0  2  0  0  0  0  0  0  0  0  0
   -2.3002   -4.8145   -0.3044 O   0  0  0  0  0  0  0  0  0  0  0  0
   -1.6072   -5.8675   -0.8129 C   0  0  0  0  0  0  0  0  0  0  0  0
   -1.1123   -6.7300    0.1852 O   0  0  0  0  0  0  0  0  0  0  0  0
   -2.5276   -6.7082   -1.6628 C   0  0  0  0  0  0  0  0  0  0  0  0
   -1.0766   -2.9567    0.5580 C   0  0  1  0  0  0  0  0  0  0  0  0
    0.2898   -2.3974    0.1369 C   0  0  0  0  0  0  0  0  0  0  0  0
    0.4308   -0.9474    0.2443 C   0  0  1  0  0  0  0  0  0  0  0  0
    1.2105   -0.4649   -0.8429 O   0  0  0  0  0  0  0  0  0  0  0  0
    2.4287    0.0887   -0.3702 C   0  0  0  0  0  0  0  0  0  0  0  0
    2.1328    1.5025   -0.4717 O   0  0  0  0  0  0  0  0  0  0  0  0
    3.5599   -0.1387   -1.2879 C   0  0  2  0  0  0  0  0  0  0  0  0
    3.7479   -1.5256   -1.5654 O   0  0  0  0  0  0  0  0  0  0  0  0
    4.9130    0.3196   -0.7841 C   0  0  1  0  0  0  0  0  0  0  0  0
    5.0218    1.6715   -0.3977 N   0  0  0  0  0  0  0  0  0  0  0  0
    4.9068    2.6772   -1.3770 C   0  0  0  0  0  0  0  0  0  0  0  0
    4.9385    3.9517   -0.7772 O   0  0  0  0  0  0  0  0  0  0  0  0
    6.0113    2.7074   -2.4220 C   0  0  0  0  0  0  0  0  0  0  0  0
    5.6300    3.8695   -3.3558 C   0  0  0  0  0  0  0  0  0  0  0  0
    6.8024    4.3111   -4.1986 C   0  0  0  0  0  0  0  0  0  0  0  0
    7.8792    4.9619   -3.3565 C   0  0  0  0  0  0  0  0  0  0  0  0
    7.6562    4.5457   -1.9272 C   0  0  0  0  0  0  0  0  0  0  0  0
    7.3585    3.0452   -1.8402 C   0  0  0  0  0  0  0  0  0  0  0  0
    5.6050   -0.6844    0.1020 C   0  0  0  0  0  0  0  0  0  0  0  0
    6.9453   -0.0490    0.5012 C   0  0  0  0  0  0  0  0  0  0  0  0
    7.9085   -1.0501    1.0635 C   0  0  0  0  0  0  0  0  0  0  0  0
    7.1075   -2.2417    1.5329 C   0  0  0  0  0  0  0  0  0  0  0  0
    5.8521   -1.8065    2.2626 C   0  0  0  0  0  0  0  0  0  0  0  0
    4.8956   -1.0447    1.3556 C   0  0  0  0  0  0  0  0  0  0  0  0
   -0.8253   -0.1517    0.2208 C   0  0  0  0  0  0  0  0  0  0  0  0
    1.4374   -3.1309    0.8332 C   0  0  0  0  0  0  0  0  0  0  0  0
   -1.8157   -2.0748    1.5096 C   0  0  0  0  0  0  0  0  0  0  0  0
   -0.9283   -2.1404    2.7999 C   0  0  0  0  0  0  0  0  0  0  0  0
   -3.0294   -2.7611    2.0283 C   0  0  0  0  0  0  0  0  0  0  0  0
   -0.9259    0.3243    2.4410 H   0  0  0  0  0  0  0  0  0  0  0  0
   -3.9991   -0.2930    1.4090 H   0  0  0  0  0  0  0  0  0  0  0  0
   -4.3682    1.7392    2.0726 H   0  0  0  0  0  0  0  0  0  0  0  0
   -5.3097    3.3561    0.9148 H   0  0  0  0  0  0  0  0  0  0  0  0
   -2.7131    3.8750    0.7455 H   0  0  0  0  0  0  0  0  0  0  0  0
   -1.0097    2.6083    1.9483 H   0  0  0  0  0  0  0  0  0  0  0  0
   -2.0643    2.5536    3.3857 H   0  0  0  0  0  0  0  0  0  0  0  0
   -0.2737    4.6454    2.3383 H   0  0  0  0  0  0  0  0  0  0  0  0
   -0.8006    4.3583    4.0125 H   0  0  0  0  0  0  0  0  0  0  0  0
   -1.6145    6.4462    3.4978 H   0  0  0  0  0  0  0  0  0  0  0  0
   -2.1947    5.9584    1.8186 H   0  0  0  0  0  0  0  0  0  0  0  0
   -3.1964    4.6410    4.3249 H   0  0  0  0  0  0  0  0  0  0  0  0
   -4.0682    6.0599    3.5411 H   0  0  0  0  0  0  0  0  0  0  0  0
   -4.8428    3.7793    2.8036 H   0  0  0  0  0  0  0  0  0  0  0  0
   -4.4568    5.0208    1.5806 H   0  0  0  0  0  0  0  0  0  0  0  0
   -3.4558    0.0623   -1.4105 H   0  0  0  0  0  0  0  0  0  0  0  0
   -7.9473    0.1186    0.3608 H   0  0  0  0  0  0  0  0  0  0  0  0
   -8.0000    1.9992    1.2740 H   0  0  0  0  0  0  0  0  0  0  0  0
   -6.8467   -1.5398    2.3516 H   0  0  0  0  0  0  0  0  0  0  0  0
   -8.5423   -0.7860    2.3862 H   0  0  0  0  0  0  0  0  0  0  0  0
   -7.1805   -0.0554    3.2692 H   0  0  0  0  0  0  0  0  0  0  0  0
   -6.5275   -1.6207   -2.1543 H   0  0  0  0  0  0  0  0  0  0  0  0
   -7.3588   -1.5144   -0.6180 H   0  0  0  0  0  0  0  0  0  0  0  0
   -5.3660    1.4215   -1.7169 H   0  0  0  0  0  0  0  0  0  0  0  0
   -4.4654    0.4724   -3.5344 H   0  0  0  0  0  0  0  0  0  0  0  0
   -5.8093   -0.5983   -3.7078 H   0  0  0  0  0  0  0  0  0  0  0  0
   -3.1617   -1.2820   -3.2569 H   0  0  0  0  0  0  0  0  0  0  0  0
   -5.2957   -2.5299   -4.0965 H   0  0  0  0  0  0  0  0  0  0  0  0
   -5.4064   -2.6684    0.0475 H   0  0  0  0  0  0  0  0  0  0  0  0
   -4.3148   -3.8838   -0.3590 H   0  0  0  0  0  0  0  0  0  0  0  0
   -5.3650   -3.4777   -1.6436 H   0  0  0  0  0  0  0  0  0  0  0  0
   -1.8260   -1.9988   -2.0211 H   0  0  0  0  0  0  0  0  0  0  0  0
   -1.9880   -3.9231   -2.9354 H   0  0  0  0  0  0  0  0  0  0  0  0
   -0.9164   -3.8623   -1.2419 H   0  0  0  0  0  0  0  0  0  0  0  0
   -0.7336   -5.5364   -1.4123 H   0  0  0  0  0  0  0  0  0  0  0  0
   -1.5362   -6.5431    1.0543 H   0  0  0  0  0  0  0  0  0  0  0  0
   -2.7189   -7.7176   -1.2293 H   0  0  0  0  0  0  0  0  0  0  0  0
   -2.1579   -6.8267   -2.7009 H   0  0  0  0  0  0  0  0  0  0  0  0
   -3.5509   -6.2362   -1.7601 H   0  0  0  0  0  0  0  0  0  0  0  0
   -0.7958   -3.8622    1.1887 H   0  0  0  0  0  0  0  0  0  0  0  0
    0.3912   -2.7107   -0.9481 H   0  0  0  0  0  0  0  0  0  0  0  0
    1.0966   -0.6728    1.1182 H   0  0  0  0  0  0  0  0  0  0  0  0
    2.5662   -0.0424    0.6948 H   0  0  0  0  0  0  0  0  0  0  0  0
    1.6902    1.8196    0.3337 H   0  0  0  0  0  0  0  0  0  0  0  0
    3.3636    0.3292   -2.2710 H   0  0  0  0  0  0  0  0  0  0  0  0
    4.2539   -1.5607   -2.4119 H   0  0  0  0  0  0  0  0  0  0  0  0
    5.5546    0.2591   -1.7538 H   0  0  0  0  0  0  0  0  0  0  0  0
    4.7462    1.9210    0.5670 H   0  0  0  0  0  0  0  0  0  0  0  0
    3.9701    2.6375   -1.9549 H   0  0  0  0  0  0  0  0  0  0  0  0
    5.2513    3.8793    0.1648 H   0  0  0  0  0  0  0  0  0  0  0  0
    6.0891    1.8186   -3.0336 H   0  0  0  0  0  0  0  0  0  0  0  0
    4.8674    3.4440   -4.0427 H   0  0  0  0  0  0  0  0  0  0  0  0
    5.2272    4.7215   -2.7800 H   0  0  0  0  0  0  0  0  0  0  0  0
    6.4128    5.1148   -4.8765 H   0  0  0  0  0  0  0  0  0  0  0  0
    7.1981    3.5134   -4.8346 H   0  0  0  0  0  0  0  0  0  0  0  0
    8.8854    4.7391   -3.7333 H   0  0  0  0  0  0  0  0  0  0  0  0
    7.7831    6.0882   -3.3780 H   0  0  0  0  0  0  0  0  0  0  0  0
    6.8096    5.1335   -1.5195 H   0  0  0  0  0  0  0  0  0  0  0  0
    8.5945    4.7095   -1.3678 H   0  0  0  0  0  0  0  0  0  0  0  0
    8.1794    2.5369   -2.3861 H   0  0  0  0  0  0  0  0  0  0  0  0
    7.4615    2.7733   -0.7705 H   0  0  0  0  0  0  0  0  0  0  0  0
    5.8744   -1.5684   -0.5203 H   0  0  0  0  0  0  0  0  0  0  0  0
    7.4051    0.4448   -0.3821 H   0  0  0  0  0  0  0  0  0  0  0  0
    6.7475    0.7227    1.2680 H   0  0  0  0  0  0  0  0  0  0  0  0
    8.5278   -0.6283    1.9091 H   0  0  0  0  0  0  0  0  0  0  0  0
    8.6463   -1.3940    0.3010 H   0  0  0  0  0  0  0  0  0  0  0  0
    7.7288   -2.7925    2.2632 H   0  0  0  0  0  0  0  0  0  0  0  0
    6.9117   -2.9130    0.6767 H   0  0  0  0  0  0  0  0  0  0  0  0
    6.1926   -1.1877    3.1170 H   0  0  0  0  0  0  0  0  0  0  0  0
    5.3892   -2.7166    2.6839 H   0  0  0  0  0  0  0  0  0  0  0  0
    4.0909   -1.7691    1.1113 H   0  0  0  0  0  0  0  0  0  0  0  0
    4.5957   -0.1585    1.9069 H   0  0  0  0  0  0  0  0  0  0  0  0
   -0.5011    0.8716    0.5000 H   0  0  0  0  0  0  0  0  0  0  0  0
   -1.1128   -0.0374   -0.8650 H   0  0  0  0  0  0  0  0  0  0  0  0
    2.2412   -3.3934    0.1162 H   0  0  0  0  0  0  0  0  0  0  0  0
    1.8747   -2.5309    1.6383 H   0  0  0  0  0  0  0  0  0  0  0  0
    0.9951   -4.0569    1.2670 H   0  0  0  0  0  0  0  0  0  0  0  0
   -1.5960   -1.9096    3.6830 H   0  0  0  0  0  0  0  0  0  0  0  0
   -0.6746   -3.1993    2.9113 H   0  0  0  0  0  0  0  0  0  0  0  0
   -0.1366   -1.4434    2.8369 H   0  0  0  0  0  0  0  0  0  0  0  0
   -3.9767   -2.2573    1.8146 H   0  0  0  0  0  0  0  0  0  0  0  0
   -2.9773   -3.0194    3.1430 H   0  0  0  0  0  0  0  0  0  0  0  0
   -3.0829   -3.7651    1.5735 H   0  0  0  0  0  0  0  0  0  0  0  0
   -0.9259    0.3243    2.4410 H   0  0  0  0  0  0  0  0  0  0  0  0
   -3.9991   -0.2930    1.4090 H   0  0  0  0  0  0  0  0  0  0  0  0
   -4.3682    1.7392    2.0726 H   0  0  0  0  0  0  0  0  0  0  0  0
   -5.3097    3.3561    0.9148 H   0  0  0  0  0  0  0  0  0  0  0  0
   -2.7131    3.8750    0.7455 H   0  0  0  0  0  0  0  0  0  0  0  0
   -1.0097    2.6083    1.9483 H   0  0  0  0  0  0  0  0  0  0  0  0
   -2.0643    2.5536    3.3857 H   0  0  0  0  0  0  0  0  0  0  0  0
   -0.2737    4.6454    2.3383 H   0  0  0  0  0  0  0  0  0  0  0  0
   -0.8006    4.3583    4.0125 H   0  0  0  0  0  0  0  0  0  0  0  0
   -1.6145    6.4462    3.4978 H   0  0  0  0  0  0  0  0  0  0  0  0
   -2.1947    5.9584    1.8186 H   0  0  0  0  0  0  0  0  0  0  0  0
   -3.1964    4.6410    4.3249 H   0  0  0  0  0  0  0  0  0  0  0  0
   -4.0682    6.0599    3.5411 H   0  0  0  0  0  0  0  0  0  0  0  0
   -4.8428    3.7793    2.8036 H   0  0  0  0  0  0  0  0  0  0  0  0
   -4.4568    5.0208    1.5806 H   0  0  0  0  0  0  0  0  0  0  0  0
   -3.4558    0.0623   -1.4105 H   0  0  0  0  0  0  0  0  0  0  0  0
   -7.9473    0.1186    0.3608 H   0  0  0  0  0  0  0  0  0  0  0  0
   -8.0000    1.9992    1.2740 H   0  0  0  0  0  0  0  0  0  0  0  0
   -6.8467   -1.5398    2.3516 H   0  0  0  0  0  0  0  0  0  0  0  0
   -8.5423   -0.7860    2.3862 H   0  0  0  0  0  0  0  0  0  0  0  0
   -7.1805   -0.0554    3.2692 H   0  0  0  0  0  0  0  0  0  0  0  0
   -6.5275   -1.6207   -2.1543 H   0  0  0  0  0  0  0  0  0  0  0  0
   -7.3588   -1.5144   -0.6180 H   0  0  0  0  0  0  0  0  0  0  0  0
   -5.3660    1.4215   -1.7169 H   0  0  0  0  0  0  0  0  0  0  0  0
   -4.4654    0.4724   -3.5344 H   0  0  0  0  0  0  0  0  0  0  0  0
   -5.8093   -0.5983   -3.7078 H   0  0  0  0  0  0  0  0  0  0  0  0
   -3.1617   -1.2820   -3.2569 H   0  0  0  0  0  0  0  0  0  0  0  0
   -5.2957   -2.5299   -4.0965 H   0  0  0  0  0  0  0  0  0  0  0  0
   -5.4064   -2.6684    0.0475 H   0  0  0  0  0  0  0  0  0  0  0  0
   -4.3148   -3.8838   -0.3590 H   0  0  0  0  0  0  0  0  0  0  0  0
   -5.3650   -3.4777   -1.6436 H   0  0  0  0  0  0  0  0  0  0  0  0
   -1.8260   -1.9988   -2.0211 H   0  0  0  0  0  0  0  0  0  0  0  0
   -1.9880   -3.9231   -2.9354 H   0  0  0  0  0  0  0  0  0  0  0  0
   -0.9164   -3.8623   -1.2419 H   0  0  0  0  0  0  0  0  0  0  0  0
   -0.7336   -5.5364   -1.4123 H   0  0  0  0  0  0  0  0  0  0  0  0
   -1.5362   -6.5431    1.0543 H   0  0  0  0  0  0  0  0  0  0  0  0
   -2.7189   -7.7176   -1.2293 H   0  0  0  0  0  0  0  0  0  0  0  0
   -2.1579   -6.8267   -2.7009 H   0  0  0  0  0  0  0  0  0  0  0  0
   -3.5509   -6.2362   -1.7601 H   0  0  0  0  0  0  0  0  0  0  0  0
   -0.7958   -3.8622    1.1887 H   0  0  0  0  0  0  0  0  0  0  0  0
    0.3912   -2.7107   -0.9481 H   0  0  0  0  0  0  0  0  0  0  0  0
    1.0966   -0.6728    1.1182 H   0  0  0  0  0  0  0  0  0  0  0  0
    2.5662   -0.0424    0.6948 H   0  0  0  0  0  0  0  0  0  0  0  0
    1.6902    1.8196    0.3337 H   0  0  0  0  0  0  0  0  0  0  0  0
    3.3636    0.3292   -2.2710 H   0  0  0  0  0  0  0  0  0  0  0  0
    4.2539   -1.5607   -2.4119 H   0  0  0  0  0  0  0  0  0  0  0  0
    5.5546    0.2591   -1.7538 H   0  0  0  0  0  0  0  0  0  0  0  0
    4.7462    1.9210    0.5670 H   0  0  0  0  0  0  0  0  0  0  0  0
    3.9701    2.6375   -1.9549 H   0  0  0  0  0  0  0  0  0  0  0  0
    5.2513    3.8793    0.1648 H   0  0  0  0  0  0  0  0  0  0  0  0
    6.0891    1.8186   -3.0336 H   0  0  0  0  0  0  0  0  0  0  0  0
    4.8674    3.4440   -4.0427 H   0  0  0  0  0  0  0  0  0  0  0  0
    5.2272    4.7215   -2.7800 H   0  0  0  0  0  0  0  0  0  0  0  0
    6.4128    5.1148   -4.8765 H   0  0  0  0  0  0  0  0  0  0  0  0
    7.1981    3.5134   -4.8346 H   0  0  0  0  0  0  0  0  0  0  0  0
    8.8854    4.7391   -3.7333 H   0  0  0  0  0  0  0  0  0  0  0  0
    7.7831    6.0882   -3.3780 H   0  0  0  0  0  0  0  0  0  0  0  0
    6.8096    5.1335   -1.5195 H   0  0  0  0  0  0  0  0  0  0  0  0
    8.5945    4.7095   -1.3678 H   0  0  0  0  0  0  0  0  0  0  0  0
    8.1794    2.5369   -2.3861 H   0  0  0  0  0  0  0  0  0  0  0  0
    7.4615    2.7733   -0.7705 H   0  0  0  0  0  0  0  0  0  0  0  0
    5.8744   -1.5684   -0.5203 H   0  0  0  0  0  0  0  0  0  0  0  0
    7.4051    0.4448   -0.3821 H   0  0  0  0  0  0  0  0  0  0  0  0
    6.7475    0.7227    1.2680 H   0  0  0  0  0  0  0  0  0  0  0  0
    8.5278   -0.6283    1.9091 H   0  0  0  0  0  0  0  0  0  0  0  0
    8.6463   -1.3940    0.3010 H   0  0  0  0  0  0  0  0  0  0  0  0
    7.7288   -2.7925    2.2632 H   0  0  0  0  0  0  0  0  0  0  0  0
    6.9117   -2.9130    0.6767 H   0  0  0  0  0  0  0  0  0  0  0  0
    6.1926   -1.1877    3.1170 H   0  0  0  0  0  0  0  0  0  0  0  0
    5.3892   -2.7166    2.6839 H   0  0  0  0  0  0  0  0  0  0  0  0
    4.0909   -1.7691    1.1113 H   0  0  0  0  0  0  0  0  0  0  0  0
    4.5957   -0.1585    1.9069 H   0  0  0  0  0  0  0  0  0  0  0  0
   -0.5011    0.8716    0.5000 H   0  0  0  0  0  0  0  0  0  0  0  0
   -1.1128   -0.0374   -0.8650 H   0  0  0  0  0  0  0  0  0  0  0  0
    2.2412   -3.3934    0.1162 H   0  0  0  0  0  0  0  0  0  0  0  0
    1.8747   -2.5309    1.6383 H   0  0  0  0  0  0  0  0  0  0  0  0
    0.9951   -4.0569    1.2670 H   0  0  0  0  0  0  0  0  0  0  0  0
   -1.5960   -1.9096    3.6830 H   0  0  0  0  0  0  0  0  0  0  0  0
   -0.6746   -3.1993    2.9113 H   0  0  0  0  0  0  0  0  0  0  0  0
   -0.1366   -1.4434    2.8369 H   0  0  0  0  0  0  0  0  0  0  0  0
   -3.9767   -2.2573    1.8146 H   0  0  0  0  0  0  0  0  0  0  0  0
   -2.9773   -3.0194    3.1430 H   0  0  0  0  0  0  0  0  0  0  0  0
   -3.0829   -3.7651    1.5735 H   0  0  0  0  0  0  0  0  0  0  0  0
  2  1  1  1
  2  3  1  0
  3  4  1  0
  4  5  1  0
  5  6  1  0
  5  7  1  0
  7  8  1  0
  8  9  1  0
  9 10  1  0
 10 11  1  0
  7 12  1  0
 11 12  1  0
  3 13  1  0
 13 14  1  0
 14 15  1  1
 15 16  1  0
 16 17  1  0
 16 18  1  0
 14 19  1  0
 19 20  1  0
 14 21  1  0
 20 21  1  0
 21 22  1  0
 22 23  1  0
 23 24  1  0
 13 25  1  0
 23 25  1  0
 25 26  1  1
 25 27  1  0
 27 28  1  0
 27 29  1  0
 29 30  1  0
 30 31  1  0
 31 32  1  0
 31 33  1  0
 29 34  1  0
 34 35  1  0
 35 36  1  0
 36 37  1  0
 37 38  1  0
 38 39  1  0
 38 40  1  0
 40 41  1  0
 40 42  1  0
 42 43  1  0
 43 44  1  0
 44 45  1  0
 44 46  1  0
 46 47  1  0
 47 48  1  0
 48 49  1  0
 49 50  1  0
 46 51  1  0
 50 51  1  0
 42 52  1  0
 52 53  1  0
 53 54  1  0
 54 55  1  0
 55 56  1  0
 52 57  1  0
 56 57  1  0
  2 58  1  0
 36 58  1  0
 35 59  1  0
  2 60  1  0
 34 60  1  0
 60 61  1  0
 60 62  1  0
 64 63  1  1
 64 65  1  0
 65 66  1  0
 66 67  1  0
 67 68  1  0
 67 69  1  0
 69 70  1  0
 70 71  1  0
 71 72  1  0
 72 73  1  0
 69 74  1  0
 73 74  1  0
 65 75  1  0
 75 76  1  0
 76 77  1  1
 77 78  1  0
 78 79  1  0
 78 80  1  0
 76 81  1  0
 81 82  1  0
 76 83  1  0
 82 83  1  0
 83 84  1  0
 84 85  1  0
 85 86  1  0
 75 87  1  0
 85 87  1  0
 87 88  1  1
 87 89  1  0
 89 90  1  0
 89 91  1  0
 91 92  1  0
 92 93  1  0
 93 94  1  0
 93 95  1  0
 91 96  1  0
 96 97  1  0
 97 98  1  0
 98 99  1  0
 99100  1  0
100101  1  0
100102  1  0
102103  1  0
102104  1  0
104105  1  0
105106  1  0
106107  1  0
106108  1  0
108109  1  0
109110  1  0
110111  1  0
111112  1  0
108113  1  0
112113  1  0
104114  1  0
114115  1  0
115116  1  0
116117  1  0
117118  1  0
114119  1  0
118119  1  0
 64120  1  0
 98120  1  0
 97121  1  0
 64122  1  0
 96122  1  0
122123  1  0
122124  1  0
  1125  1  0
  3126  1  1
  5127  1  0
  6128  1  0
  7129  1  0
  8130  1  0
  8131  1  0
  9132  1  0
  9133  1  0
 10134  1  0
 10135  1  0
 11136  1  0
 11137  1  0
 12138  1  0
 12139  1  0
 13140  1  6
 16141  1  0
 17142  1  0
 18143  1  0
 18144  1  0
 18145  1  0
 19146  1  0
 19147  1  0
 21148  1  1
 22149  1  0
 22150  1  0
 23151  1  6
 24152  1  0
 26153  1  0
 26154  1  0
 26155  1  0
 27156  1  0
 28157  1  0
 29158  1  6
 31159  1  0
 32160  1  0
 33161  1  0
 33162  1  0
 33163  1  0
 34164  1  1
 35165  1  0
 36166  1  1
 38167  1  0
 39168  1  0
 40169  1  6
 41170  1  0
 42171  1  6
 43172  1  0
 44173  1  0
 45174  1  0
 46175  1  0
 47176  1  0
 47177  1  0
 48178  1  0
 48179  1  0
 49180  1  0
 49181  1  0
 50182  1  0
 50183  1  0
 51184  1  0
 51185  1  0
 52186  1  0
 53187  1  0
 53188  1  0
 54189  1  0
 54190  1  0
 55191  1  0
 55192  1  0
 56193  1  0
 56194  1  0
 57195  1  0
 57196  1  0
 58197  1  0
 58198  1  0
 59199  1  0
 59200  1  0
 59201  1  0
 61202  1  0
 61203  1  0
 61204  1  0
 62205  1  0
 62206  1  0
 62207  1  0
 63208  1  0
 65209  1  1
 67210  1  0
 68211  1  0
 69212  1  0
 70213  1  0
 70214  1  0
 71215  1  0
 71216  1  0
 72217  1  0
 72218  1  0
 73219  1  0
 73220  1  0
 74221  1  0
 74222  1  0
 75223  1  6
 78224  1  0
 79225  1  0
 80226  1  0
 80227  1  0
 80228  1  0
 81229  1  0
 81230  1  0
 83231  1  1
 84232  1  0
 84233  1  0
 85234  1  6
 86235  1  0
 88236  1  0
 88237  1  0
 88238  1  0
 89239  1  0
 90240  1  0
 91241  1  6
 93242  1  0
 94243  1  0
 95244  1  0
 95245  1  0
 95246  1  0
 96247  1  1
 97248  1  0
 98249  1  1
100250  1  0
101251  1  0
102252  1  6
103253  1  0
104254  1  6
105255  1  0
106256  1  0
107257  1  0
108258  1  0
109259  1  0
109260  1  0
110261  1  0
110262  1  0
111263  1  0
111264  1  0
112265  1  0
112266  1  0
113267  1  0
113268  1  0
114269  1  0
115270  1  0
115271  1  0
116272  1  0
116273  1  0
117274  1  0
117275  1  0
118276  1  0
118277  1  0
119278  1  0
119279  1  0
120280  1  0
120281  1  0
121282  1  0
121283  1  0
121284  1  0
123285  1  0
123286  1  0
123287  1  0
124288  1  0
124289  1  0
124290  1  0
M  END
>  <PDBID>  (1) 
5M50

>  <PDB ID>  (1) 
5M50

>  <Generic Name>  (1) 
Paclitaxel

>  <Brand Name>  (1) 
Abraxane#Abraxane for Injectable Suspension#Aj-paclitaxel#Apo-paclitaxel Injectable#Paclitaxel#Paclitaxel Injection#Paclitaxel Injection USP#Paclitaxel Injection, USP#Paclitaxel Paclitaxel#Paclitaxel for Injection#Paclitaxel for Injection USP#Paxene#Taxol#Teva-paclitaxel for Injection#Onxol#Paxceed

>  <DrugBank ID>  (1) 
DB01229

>  <ATC Codes>  (1) 
L01CD01

>  <Ligand ID>  (1) 
TA1

>  <Target Name>  (1) 
Tubulin beta-1 chain

>  <UniProt ID>  (1) 
Q9H4B7

>  <PDB ID.1>  (1) 
5M50

>  <Seq. Identity>  (1) 
78%

$$$$
