PDB_DB00655_03
     RDKit          3D

100106  0  0  0  0  0  0  0  0999 V2000
    0.2899    0.3936    0.1925 C   0  0  2  0  0  0  0  0  0  0  0  0
   -1.7092    1.6300    0.8292 C   0  0  0  0  0  0  0  0  0  0  0  0
   -2.5526    0.6455    0.1233 C   0  0  2  0  0  0  0  0  0  0  0  0
   -2.7172    0.9523   -1.3463 C   0  0  0  0  0  0  0  0  0  0  0  0
   -4.8337    1.3348    0.3567 O   0  0  0  0  0  0  0  0  0  0  0  0
    5.4283    0.5871   -0.7372 O   0  0  0  0  0  0  0  0  0  0  0  0
   -3.8985    0.3909    0.7039 C   0  0  1  0  0  0  0  0  0  0  0  0
   -4.2451   -0.9869    0.1268 C   0  0  0  0  0  0  0  0  0  0  0  0
   -2.9366   -1.5770   -0.3566 C   0  0  0  0  0  0  0  0  0  0  0  0
   -1.9172   -0.7382    0.3336 C   0  0  1  0  0  0  0  0  0  0  0  0
   -0.5568   -0.7760   -0.2398 C   0  0  2  0  0  0  0  0  0  0  0  0
   -0.3808    1.7147    0.0656 C   0  0  0  0  0  0  0  0  0  0  0  0
    0.1162   -2.0637    0.1906 C   0  0  0  0  0  0  0  0  0  0  0  0
    1.5522   -2.1425   -0.2180 C   0  0  0  0  0  0  0  0  0  0  0  0
    2.3265   -0.8996    0.1590 C   0  0  0  0  0  0  0  0  0  0  0  0
    1.5950    0.2722   -0.5130 C   0  0  0  0  0  0  0  0  0  0  0  0
    3.7351   -0.9749   -0.3029 C   0  0  0  0  0  0  0  0  0  0  0  0
    4.4762    0.2374    0.2109 C   0  0  0  0  0  0  0  0  0  0  0  0
    3.5521    1.3983    0.4986 C   0  0  0  0  0  0  0  0  0  0  0  0
    2.4392    1.4774   -0.5527 C   0  0  0  0  0  0  0  0  0  0  0  0
    0.2899    0.3936    0.1925 C   0  0  2  0  0  0  0  0  0  0  0  0
   -1.7092    1.6300    0.8292 C   0  0  0  0  0  0  0  0  0  0  0  0
   -2.5526    0.6455    0.1233 C   0  0  2  0  0  0  0  0  0  0  0  0
   -2.7172    0.9523   -1.3463 C   0  0  0  0  0  0  0  0  0  0  0  0
   -4.8337    1.3348    0.3567 O   0  0  0  0  0  0  0  0  0  0  0  0
    5.4283    0.5871   -0.7372 O   0  0  0  0  0  0  0  0  0  0  0  0
   -3.8985    0.3909    0.7039 C   0  0  1  0  0  0  0  0  0  0  0  0
   -4.2451   -0.9869    0.1268 C   0  0  0  0  0  0  0  0  0  0  0  0
   -2.9366   -1.5770   -0.3566 C   0  0  0  0  0  0  0  0  0  0  0  0
   -1.9172   -0.7382    0.3336 C   0  0  1  0  0  0  0  0  0  0  0  0
   -0.5568   -0.7760   -0.2398 C   0  0  2  0  0  0  0  0  0  0  0  0
   -0.3808    1.7147    0.0656 C   0  0  0  0  0  0  0  0  0  0  0  0
    0.1162   -2.0637    0.1906 C   0  0  0  0  0  0  0  0  0  0  0  0
    1.5522   -2.1425   -0.2180 C   0  0  0  0  0  0  0  0  0  0  0  0
    2.3265   -0.8996    0.1590 C   0  0  0  0  0  0  0  0  0  0  0  0
    1.5950    0.2722   -0.5130 C   0  0  0  0  0  0  0  0  0  0  0  0
    3.7351   -0.9749   -0.3029 C   0  0  0  0  0  0  0  0  0  0  0  0
    4.4762    0.2374    0.2109 C   0  0  0  0  0  0  0  0  0  0  0  0
    3.5521    1.3983    0.4986 C   0  0  0  0  0  0  0  0  0  0  0  0
    2.4392    1.4774   -0.5527 C   0  0  0  0  0  0  0  0  0  0  0  0
    0.4951    0.2323    1.2917 H   0  0  0  0  0  0  0  0  0  0  0  0
   -1.4642    1.2490    1.8418 H   0  0  0  0  0  0  0  0  0  0  0  0
   -2.1521    2.6387    0.8863 H   0  0  0  0  0  0  0  0  0  0  0  0
   -3.6380    0.4879   -1.7592 H   0  0  0  0  0  0  0  0  0  0  0  0
   -1.8586    0.6853   -1.9595 H   0  0  0  0  0  0  0  0  0  0  0  0
   -2.8124    2.0756   -1.4155 H   0  0  0  0  0  0  0  0  0  0  0  0
   -4.3945    2.0741   -0.1259 H   0  0  0  0  0  0  0  0  0  0  0  0
    5.9257   -0.1988   -1.0321 H   0  0  0  0  0  0  0  0  0  0  0  0
   -3.7952    0.3249    1.8069 H   0  0  0  0  0  0  0  0  0  0  0  0
   -4.9813   -0.8693   -0.6955 H   0  0  0  0  0  0  0  0  0  0  0  0
   -4.6540   -1.5792    0.9560 H   0  0  0  0  0  0  0  0  0  0  0  0
   -2.8463   -2.6573   -0.1329 H   0  0  0  0  0  0  0  0  0  0  0  0
   -2.8753   -1.3800   -1.4598 H   0  0  0  0  0  0  0  0  0  0  0  0
   -1.9640   -0.9545    1.4152 H   0  0  0  0  0  0  0  0  0  0  0  0
   -0.6228   -0.8178   -1.3494 H   0  0  0  0  0  0  0  0  0  0  0  0
    0.2212    2.4627    0.6210 H   0  0  0  0  0  0  0  0  0  0  0  0
   -0.5418    1.9555   -0.9858 H   0  0  0  0  0  0  0  0  0  0  0  0
   -0.0141   -2.2740    1.2703 H   0  0  0  0  0  0  0  0  0  0  0  0
   -0.4231   -2.8881   -0.3462 H   0  0  0  0  0  0  0  0  0  0  0  0
    2.0142   -2.9826    0.3512 H   0  0  0  0  0  0  0  0  0  0  0  0
    1.6908   -2.3894   -1.2871 H   0  0  0  0  0  0  0  0  0  0  0  0
    2.2912   -0.7472    1.2394 H   0  0  0  0  0  0  0  0  0  0  0  0
    1.3858   -0.0908   -1.5580 H   0  0  0  0  0  0  0  0  0  0  0  0
    3.8006   -1.0149   -1.4156 H   0  0  0  0  0  0  0  0  0  0  0  0
    4.2078   -1.8686    0.1326 H   0  0  0  0  0  0  0  0  0  0  0  0
    5.0197    0.0164    1.1541 H   0  0  0  0  0  0  0  0  0  0  0  0
    4.1500    2.3261    0.3812 H   0  0  0  0  0  0  0  0  0  0  0  0
    3.1364    1.3780    1.5085 H   0  0  0  0  0  0  0  0  0  0  0  0
    2.9925    1.4914   -1.5387 H   0  0  0  0  0  0  0  0  0  0  0  0
    1.9435    2.4394   -0.4712 H   0  0  0  0  0  0  0  0  0  0  0  0
    0.4951    0.2323    1.2917 H   0  0  0  0  0  0  0  0  0  0  0  0
   -1.4642    1.2490    1.8418 H   0  0  0  0  0  0  0  0  0  0  0  0
   -2.1521    2.6387    0.8863 H   0  0  0  0  0  0  0  0  0  0  0  0
   -3.6380    0.4879   -1.7592 H   0  0  0  0  0  0  0  0  0  0  0  0
   -1.8586    0.6853   -1.9595 H   0  0  0  0  0  0  0  0  0  0  0  0
   -2.8124    2.0756   -1.4155 H   0  0  0  0  0  0  0  0  0  0  0  0
   -4.3945    2.0741   -0.1259 H   0  0  0  0  0  0  0  0  0  0  0  0
    5.9257   -0.1988   -1.0321 H   0  0  0  0  0  0  0  0  0  0  0  0
   -3.7952    0.3249    1.8069 H   0  0  0  0  0  0  0  0  0  0  0  0
   -4.9813   -0.8693   -0.6955 H   0  0  0  0  0  0  0  0  0  0  0  0
   -4.6540   -1.5792    0.9560 H   0  0  0  0  0  0  0  0  0  0  0  0
   -2.8463   -2.6573   -0.1329 H   0  0  0  0  0  0  0  0  0  0  0  0
   -2.8753   -1.3800   -1.4598 H   0  0  0  0  0  0  0  0  0  0  0  0
   -1.9640   -0.9545    1.4152 H   0  0  0  0  0  0  0  0  0  0  0  0
   -0.6228   -0.8178   -1.3494 H   0  0  0  0  0  0  0  0  0  0  0  0
    0.2212    2.4627    0.6210 H   0  0  0  0  0  0  0  0  0  0  0  0
   -0.5418    1.9555   -0.9858 H   0  0  0  0  0  0  0  0  0  0  0  0
   -0.0141   -2.2740    1.2703 H   0  0  0  0  0  0  0  0  0  0  0  0
   -0.4231   -2.8881   -0.3462 H   0  0  0  0  0  0  0  0  0  0  0  0
    2.0142   -2.9826    0.3512 H   0  0  0  0  0  0  0  0  0  0  0  0
    1.6908   -2.3894   -1.2871 H   0  0  0  0  0  0  0  0  0  0  0  0
    2.2912   -0.7472    1.2394 H   0  0  0  0  0  0  0  0  0  0  0  0
    1.3858   -0.0908   -1.5580 H   0  0  0  0  0  0  0  0  0  0  0  0
    3.8006   -1.0149   -1.4156 H   0  0  0  0  0  0  0  0  0  0  0  0
    4.2078   -1.8686    0.1326 H   0  0  0  0  0  0  0  0  0  0  0  0
    5.0197    0.0164    1.1541 H   0  0  0  0  0  0  0  0  0  0  0  0
    4.1500    2.3261    0.3812 H   0  0  0  0  0  0  0  0  0  0  0  0
    3.1364    1.3780    1.5085 H   0  0  0  0  0  0  0  0  0  0  0  0
    2.9925    1.4914   -1.5387 H   0  0  0  0  0  0  0  0  0  0  0  0
    1.9435    2.4394   -0.4712 H   0  0  0  0  0  0  0  0  0  0  0  0
  2  3  1  0
  3  4  1  6
  3  7  1  0
  5  7  1  0
  7  8  1  0
  8  9  1  0
  3 10  1  0
  9 10  1  0
  1 11  1  0
 10 11  1  0
  1 12  1  0
  2 12  1  0
 11 13  1  0
 13 14  1  0
 14 15  1  0
  1 16  1  0
 15 16  1  0
 15 17  1  0
  6 18  1  0
 17 18  1  0
 18 19  1  0
 16 20  1  0
 19 20  1  0
 22 23  1  0
 23 24  1  6
 23 27  1  0
 25 27  1  0
 27 28  1  0
 28 29  1  0
 23 30  1  0
 29 30  1  0
 21 31  1  0
 30 31  1  0
 21 32  1  0
 22 32  1  0
 31 33  1  0
 33 34  1  0
 34 35  1  0
 21 36  1  0
 35 36  1  0
 35 37  1  0
 26 38  1  0
 37 38  1  0
 38 39  1  0
 36 40  1  0
 39 40  1  0
  1 41  1  1
  2 42  1  0
  2 43  1  0
  4 44  1  0
  4 45  1  0
  4 46  1  0
  5 47  1  0
  6 48  1  0
  7 49  1  1
  8 50  1  0
  8 51  1  0
  9 52  1  0
  9 53  1  0
 10 54  1  1
 11 55  1  6
 12 56  1  0
 12 57  1  0
 13 58  1  0
 13 59  1  0
 14 60  1  0
 14 61  1  0
 15 62  1  0
 16 63  1  0
 17 64  1  0
 17 65  1  0
 18 66  1  0
 19 67  1  0
 19 68  1  0
 20 69  1  0
 20 70  1  0
 21 71  1  1
 22 72  1  0
 22 73  1  0
 24 74  1  0
 24 75  1  0
 24 76  1  0
 25 77  1  0
 26 78  1  0
 27 79  1  1
 28 80  1  0
 28 81  1  0
 29 82  1  0
 29 83  1  0
 30 84  1  1
 31 85  1  6
 32 86  1  0
 32 87  1  0
 33 88  1  0
 33 89  1  0
 34 90  1  0
 34 91  1  0
 35 92  1  0
 36 93  1  0
 37 94  1  0
 37 95  1  0
 38 96  1  0
 39 97  1  0
 39 98  1  0
 40 99  1  0
 40100  1  0
M  END
>  <PDBID>  (1) 
3HM1

>  <PDB ID>  (1) 
3HM1

>  <Generic Name>  (1) 
Estrone

>  <Brand Name>  (1) 
Estragyn Vaginal Cream#Oestrilin Cones Vaginaux#Oestrilin Creme Vaginale 1mg#Estrone

>  <DrugBank ID>  (1) 
DB00655

>  <ATC Codes>  (1) 
G03CA07#G03CC04

>  <Ligand ID>  (1) 
J3Z

>  <Target Name>  (1) 
Estrogen receptor

>  <UniProt ID>  (1) 
P03372

>  <PDB ID.1>  (1) 
3HM1

>  <Seq. Identity>  (1) 
93%

$$$$
