PDB_DB00552_05
     RDKit          3D

164172  0  0  0  0  0  0  0  0999 V2000
    1.6161    1.2825   -1.0862 N   0  0  0  0  0  0  0  0  0  0  0  0
    0.1852    1.0315   -1.1429 C   0  0  0  0  0  0  0  0  0  0  0  0
    0.0573   -0.1622   -0.3728 N   0  0  0  0  0  0  0  0  0  0  0  0
    1.8868    1.0602    0.3127 C   0  0  1  0  0  0  0  0  0  0  0  0
    1.0681   -0.1402    0.6320 C   0  0  2  0  0  0  0  0  0  0  0  0
    1.8106   -1.3687    0.7392 N   0  0  0  0  0  0  0  0  0  0  0  0
    2.6686   -1.6513   -0.3673 C   0  0  0  0  0  0  0  0  0  0  0  0
    4.0081   -1.2364   -0.0063 N   0  0  0  0  0  0  0  0  0  0  0  0
    4.1374    0.1557   -0.3510 C   0  0  0  0  0  0  0  0  0  0  0  0
    3.3299    0.9555    0.6526 C   0  0  1  0  0  0  0  0  0  0  0  0
    3.8809    2.2457    0.6625 O   0  0  0  0  0  0  0  0  0  0  0  0
   -1.8093    0.5034    1.1030 C   0  0  0  0  0  0  0  0  0  0  0  0
   -3.2064   -0.0859    1.2396 C   0  0  2  0  0  0  0  0  0  0  0  0
   -3.1555   -1.1232    2.1704 O   0  0  0  0  0  0  0  0  0  0  0  0
   -4.8042   -0.4760   -2.0799 O   0  0  0  0  0  0  0  0  0  0  0  0
   -4.5509    0.0138   -0.7840 C   0  0  0  0  0  0  0  0  0  0  0  0
   -3.4071   -0.6989   -0.1292 C   0  0  1  0  0  0  0  0  0  0  0  0
   -2.2197   -0.5871   -0.8100 O   0  0  0  0  0  0  0  0  0  0  0  0
   -1.2149   -0.4822    0.1330 C   0  0  1  0  0  0  0  0  0  0  0  0
    1.2554    2.0907   -0.4667 N   0  0  0  0  0  0  0  0  0  0  0  0
   -0.0118    1.4923   -0.9294 C   0  0  0  0  0  0  0  0  0  0  0  0
   -0.0845    0.1934   -0.3860 N   0  0  0  0  0  0  0  0  0  0  0  0
    2.0678    0.8987   -0.3150 C   0  0  0  0  0  0  0  0  0  0  0  0
    1.0556    0.0131    0.4280 C   0  0  2  0  0  0  0  0  0  0  0  0
    1.5278   -1.3094    0.5958 N   0  0  0  0  0  0  0  0  0  0  0  0
    2.6655   -1.6950   -0.1840 C   0  0  0  0  0  0  0  0  0  0  0  0
    3.9195   -1.2321    0.3247 N   0  0  0  0  0  0  0  0  0  0  0  0
    4.3279    0.0638   -0.1244 C   0  0  0  0  0  0  0  0  0  0  0  0
    3.3224    1.0695    0.4527 C   0  0  1  0  0  0  0  0  0  0  0  0
    3.8350    2.3517    0.4678 O   0  0  0  0  0  0  0  0  0  0  0  0
   -1.9401    0.4404    1.2182 C   0  0  0  0  0  0  0  0  0  0  0  0
   -3.2005   -0.3905    1.3474 C   0  0  2  0  0  0  0  0  0  0  0  0
   -2.8492   -1.5125    2.1007 O   0  0  0  0  0  0  0  0  0  0  0  0
   -4.7609   -0.3007   -1.9786 O   0  0  0  0  0  0  0  0  0  0  0  0
   -4.6081    0.0270   -0.6152 C   0  0  0  0  0  0  0  0  0  0  0  0
   -3.4472   -0.7893   -0.0864 C   0  0  1  0  0  0  0  0  0  0  0  0
   -2.3275   -0.4283   -0.8199 O   0  0  0  0  0  0  0  0  0  0  0  0
   -1.2979   -0.3075    0.0693 C   0  0  1  0  0  0  0  0  0  0  0  0
    1.6161    1.2825   -1.0862 N   0  0  0  0  0  0  0  0  0  0  0  0
    0.1852    1.0315   -1.1429 C   0  0  0  0  0  0  0  0  0  0  0  0
    0.0573   -0.1622   -0.3728 N   0  0  0  0  0  0  0  0  0  0  0  0
    1.8868    1.0602    0.3127 C   0  0  1  0  0  0  0  0  0  0  0  0
    1.0681   -0.1402    0.6320 C   0  0  2  0  0  0  0  0  0  0  0  0
    1.8106   -1.3687    0.7392 N   0  0  0  0  0  0  0  0  0  0  0  0
    2.6686   -1.6513   -0.3673 C   0  0  0  0  0  0  0  0  0  0  0  0
    4.0081   -1.2364   -0.0063 N   0  0  0  0  0  0  0  0  0  0  0  0
    4.1374    0.1557   -0.3510 C   0  0  0  0  0  0  0  0  0  0  0  0
    3.3299    0.9555    0.6526 C   0  0  1  0  0  0  0  0  0  0  0  0
    3.8809    2.2457    0.6625 O   0  0  0  0  0  0  0  0  0  0  0  0
   -1.8093    0.5034    1.1030 C   0  0  0  0  0  0  0  0  0  0  0  0
   -3.2064   -0.0859    1.2396 C   0  0  2  0  0  0  0  0  0  0  0  0
   -3.1555   -1.1232    2.1704 O   0  0  0  0  0  0  0  0  0  0  0  0
   -4.8042   -0.4760   -2.0799 O   0  0  0  0  0  0  0  0  0  0  0  0
   -4.5509    0.0138   -0.7840 C   0  0  0  0  0  0  0  0  0  0  0  0
   -3.4071   -0.6989   -0.1292 C   0  0  1  0  0  0  0  0  0  0  0  0
   -2.2197   -0.5871   -0.8100 O   0  0  0  0  0  0  0  0  0  0  0  0
   -1.2149   -0.4822    0.1330 C   0  0  1  0  0  0  0  0  0  0  0  0
    1.6161    1.2825   -1.0862 N   0  0  0  0  0  0  0  0  0  0  0  0
    0.1852    1.0315   -1.1429 C   0  0  0  0  0  0  0  0  0  0  0  0
    0.0573   -0.1622   -0.3728 N   0  0  0  0  0  0  0  0  0  0  0  0
    1.8868    1.0602    0.3127 C   0  0  1  0  0  0  0  0  0  0  0  0
    1.0681   -0.1402    0.6320 C   0  0  2  0  0  0  0  0  0  0  0  0
    1.8106   -1.3687    0.7392 N   0  0  0  0  0  0  0  0  0  0  0  0
    2.6686   -1.6513   -0.3673 C   0  0  0  0  0  0  0  0  0  0  0  0
    4.0081   -1.2364   -0.0063 N   0  0  0  0  0  0  0  0  0  0  0  0
    4.1374    0.1557   -0.3510 C   0  0  0  0  0  0  0  0  0  0  0  0
    3.3299    0.9555    0.6526 C   0  0  1  0  0  0  0  0  0  0  0  0
    3.8809    2.2457    0.6625 O   0  0  0  0  0  0  0  0  0  0  0  0
   -1.8093    0.5034    1.1030 C   0  0  0  0  0  0  0  0  0  0  0  0
   -3.2064   -0.0859    1.2396 C   0  0  2  0  0  0  0  0  0  0  0  0
   -3.1555   -1.1232    2.1704 O   0  0  0  0  0  0  0  0  0  0  0  0
   -4.8042   -0.4760   -2.0799 O   0  0  0  0  0  0  0  0  0  0  0  0
   -4.5509    0.0138   -0.7840 C   0  0  0  0  0  0  0  0  0  0  0  0
   -3.4071   -0.6989   -0.1292 C   0  0  1  0  0  0  0  0  0  0  0  0
   -2.2197   -0.5871   -0.8100 O   0  0  0  0  0  0  0  0  0  0  0  0
   -1.2149   -0.4822    0.1330 C   0  0  1  0  0  0  0  0  0  0  0  0
    1.8507    2.2855   -1.2773 H   0  0  0  0  0  0  0  0  0  0  0  0
   -0.1795    0.9314   -2.1863 H   0  0  0  0  0  0  0  0  0  0  0  0
   -0.2899    1.9247   -0.6437 H   0  0  0  0  0  0  0  0  0  0  0  0
    1.4720    1.9537    0.8570 H   0  0  0  0  0  0  0  0  0  0  0  0
    0.5826    0.0223    1.6248 H   0  0  0  0  0  0  0  0  0  0  0  0
    1.1371   -2.1465    0.8457 H   0  0  0  0  0  0  0  0  0  0  0  0
    2.3927   -1.0863   -1.3033 H   0  0  0  0  0  0  0  0  0  0  0  0
    2.6805   -2.7399   -0.5843 H   0  0  0  0  0  0  0  0  0  0  0  0
    4.7519   -1.8457   -0.3459 H   0  0  0  0  0  0  0  0  0  0  0  0
    5.1929    0.4494   -0.3931 H   0  0  0  0  0  0  0  0  0  0  0  0
    3.6613    0.3552   -1.3487 H   0  0  0  0  0  0  0  0  0  0  0  0
    3.4279    0.5723    1.6797 H   0  0  0  0  0  0  0  0  0  0  0  0
    3.1854    2.9481    0.7698 H   0  0  0  0  0  0  0  0  0  0  0  0
   -1.9454    1.5054    0.6429 H   0  0  0  0  0  0  0  0  0  0  0  0
   -1.3332    0.5288    2.0801 H   0  0  0  0  0  0  0  0  0  0  0  0
   -3.9579    0.6714    1.4862 H   0  0  0  0  0  0  0  0  0  0  0  0
   -2.8751   -1.9832    1.7333 H   0  0  0  0  0  0  0  0  0  0  0  0
   -5.3591   -1.2938   -1.9583 H   0  0  0  0  0  0  0  0  0  0  0  0
   -5.4796   -0.1616   -0.2017 H   0  0  0  0  0  0  0  0  0  0  0  0
   -4.4042    1.1215   -0.8092 H   0  0  0  0  0  0  0  0  0  0  0  0
   -3.6398   -1.7823   -0.0460 H   0  0  0  0  0  0  0  0  0  0  0  0
   -1.1522   -1.4665    0.6414 H   0  0  0  0  0  0  0  0  0  0  0  0
    1.6724    2.6707   -1.2286 H   0  0  0  0  0  0  0  0  0  0  0  0
   -0.0299    1.4954   -2.0386 H   0  0  0  0  0  0  0  0  0  0  0  0
   -0.7923    2.2004   -0.5999 H   0  0  0  0  0  0  0  0  0  0  0  0
    2.2298    0.5085   -1.3290 H   0  0  0  0  0  0  0  0  0  0  0  0
    0.8589    0.4755    1.4227 H   0  0  0  0  0  0  0  0  0  0  0  0
    0.8056   -2.0542    0.5960 H   0  0  0  0  0  0  0  0  0  0  0  0
    2.5306   -1.5014   -1.2889 H   0  0  0  0  0  0  0  0  0  0  0  0
    2.7024   -2.8273   -0.1360 H   0  0  0  0  0  0  0  0  0  0  0  0
    4.6677   -1.9125   -0.0027 H   0  0  0  0  0  0  0  0  0  0  0  0
    5.3485    0.2553    0.2026 H   0  0  0  0  0  0  0  0  0  0  0  0
    4.1816    0.1126   -1.2251 H   0  0  0  0  0  0  0  0  0  0  0  0
    3.1937    0.7595    1.5190 H   0  0  0  0  0  0  0  0  0  0  0  0
    3.1654    2.9333    0.8799 H   0  0  0  0  0  0  0  0  0  0  0  0
   -2.2780    1.4609    0.8997 H   0  0  0  0  0  0  0  0  0  0  0  0
   -1.3323    0.4646    2.1254 H   0  0  0  0  0  0  0  0  0  0  0  0
   -4.0393    0.1749    1.7864 H   0  0  0  0  0  0  0  0  0  0  0  0
   -2.7855   -2.3076    1.5010 H   0  0  0  0  0  0  0  0  0  0  0  0
   -4.8286   -1.3068   -2.0433 H   0  0  0  0  0  0  0  0  0  0  0  0
   -5.5624   -0.1732   -0.0908 H   0  0  0  0  0  0  0  0  0  0  0  0
   -4.3658    1.1222   -0.5799 H   0  0  0  0  0  0  0  0  0  0  0  0
   -3.6602   -1.8793   -0.1763 H   0  0  0  0  0  0  0  0  0  0  0  0
   -1.1314   -1.3468    0.4857 H   0  0  0  0  0  0  0  0  0  0  0  0
    1.8507    2.2855   -1.2773 H   0  0  0  0  0  0  0  0  0  0  0  0
   -0.1795    0.9314   -2.1863 H   0  0  0  0  0  0  0  0  0  0  0  0
   -0.2899    1.9247   -0.6437 H   0  0  0  0  0  0  0  0  0  0  0  0
    1.4720    1.9537    0.8570 H   0  0  0  0  0  0  0  0  0  0  0  0
    0.5826    0.0223    1.6248 H   0  0  0  0  0  0  0  0  0  0  0  0
    1.1371   -2.1465    0.8457 H   0  0  0  0  0  0  0  0  0  0  0  0
    2.3927   -1.0863   -1.3033 H   0  0  0  0  0  0  0  0  0  0  0  0
    2.6805   -2.7399   -0.5843 H   0  0  0  0  0  0  0  0  0  0  0  0
    4.7519   -1.8457   -0.3459 H   0  0  0  0  0  0  0  0  0  0  0  0
    5.1929    0.4494   -0.3931 H   0  0  0  0  0  0  0  0  0  0  0  0
    3.6613    0.3552   -1.3487 H   0  0  0  0  0  0  0  0  0  0  0  0
    3.4279    0.5723    1.6797 H   0  0  0  0  0  0  0  0  0  0  0  0
    3.1854    2.9481    0.7698 H   0  0  0  0  0  0  0  0  0  0  0  0
   -1.9454    1.5054    0.6429 H   0  0  0  0  0  0  0  0  0  0  0  0
   -1.3332    0.5288    2.0801 H   0  0  0  0  0  0  0  0  0  0  0  0
   -3.9579    0.6714    1.4862 H   0  0  0  0  0  0  0  0  0  0  0  0
   -2.8751   -1.9832    1.7333 H   0  0  0  0  0  0  0  0  0  0  0  0
   -5.3591   -1.2938   -1.9583 H   0  0  0  0  0  0  0  0  0  0  0  0
   -5.4796   -0.1616   -0.2017 H   0  0  0  0  0  0  0  0  0  0  0  0
   -4.4042    1.1215   -0.8092 H   0  0  0  0  0  0  0  0  0  0  0  0
   -3.6398   -1.7823   -0.0460 H   0  0  0  0  0  0  0  0  0  0  0  0
   -1.1522   -1.4665    0.6414 H   0  0  0  0  0  0  0  0  0  0  0  0
    1.8507    2.2855   -1.2773 H   0  0  0  0  0  0  0  0  0  0  0  0
   -0.1795    0.9314   -2.1863 H   0  0  0  0  0  0  0  0  0  0  0  0
   -0.2899    1.9247   -0.6437 H   0  0  0  0  0  0  0  0  0  0  0  0
    1.4720    1.9537    0.8570 H   0  0  0  0  0  0  0  0  0  0  0  0
    0.5826    0.0223    1.6248 H   0  0  0  0  0  0  0  0  0  0  0  0
    1.1371   -2.1465    0.8457 H   0  0  0  0  0  0  0  0  0  0  0  0
    2.3927   -1.0863   -1.3033 H   0  0  0  0  0  0  0  0  0  0  0  0
    2.6805   -2.7399   -0.5843 H   0  0  0  0  0  0  0  0  0  0  0  0
    4.7519   -1.8457   -0.3459 H   0  0  0  0  0  0  0  0  0  0  0  0
    5.1929    0.4494   -0.3931 H   0  0  0  0  0  0  0  0  0  0  0  0
    3.6613    0.3552   -1.3487 H   0  0  0  0  0  0  0  0  0  0  0  0
    3.4279    0.5723    1.6797 H   0  0  0  0  0  0  0  0  0  0  0  0
    3.1854    2.9481    0.7698 H   0  0  0  0  0  0  0  0  0  0  0  0
   -1.9454    1.5054    0.6429 H   0  0  0  0  0  0  0  0  0  0  0  0
   -1.3332    0.5288    2.0801 H   0  0  0  0  0  0  0  0  0  0  0  0
   -3.9579    0.6714    1.4862 H   0  0  0  0  0  0  0  0  0  0  0  0
   -2.8751   -1.9832    1.7333 H   0  0  0  0  0  0  0  0  0  0  0  0
   -5.3591   -1.2938   -1.9583 H   0  0  0  0  0  0  0  0  0  0  0  0
   -5.4796   -0.1616   -0.2017 H   0  0  0  0  0  0  0  0  0  0  0  0
   -4.4042    1.1215   -0.8092 H   0  0  0  0  0  0  0  0  0  0  0  0
   -3.6398   -1.7823   -0.0460 H   0  0  0  0  0  0  0  0  0  0  0  0
   -1.1522   -1.4665    0.6414 H   0  0  0  0  0  0  0  0  0  0  0  0
  1  2  1  0
  2  3  1  0
  1  4  1  0
  3  5  1  0
  4  5  1  0
  5  6  1  0
  6  7  1  0
  7  8  1  0
  8  9  1  0
  4 10  1  0
  9 10  1  0
 10 11  1  0
 12 13  1  0
 13 14  1  0
 15 16  1  0
 13 17  1  0
 16 17  1  0
 17 18  1  0
  3 19  1  0
 12 19  1  0
 18 19  1  0
 20 21  1  0
 21 22  1  0
 20 23  1  0
 22 24  1  0
 23 24  1  0
 24 25  1  0
 25 26  1  0
 26 27  1  0
 27 28  1  0
 23 29  1  0
 28 29  1  0
 29 30  1  0
 31 32  1  0
 32 33  1  0
 34 35  1  0
 32 36  1  0
 35 36  1  0
 36 37  1  0
 22 38  1  0
 31 38  1  0
 37 38  1  0
 39 40  1  0
 40 41  1  0
 39 42  1  0
 41 43  1  0
 42 43  1  0
 43 44  1  0
 44 45  1  0
 45 46  1  0
 46 47  1  0
 42 48  1  0
 47 48  1  0
 48 49  1  0
 50 51  1  0
 51 52  1  0
 53 54  1  0
 51 55  1  0
 54 55  1  0
 55 56  1  0
 41 57  1  0
 50 57  1  0
 56 57  1  0
 58 59  1  0
 59 60  1  0
 58 61  1  0
 60 62  1  0
 61 62  1  0
 62 63  1  0
 63 64  1  0
 64 65  1  0
 65 66  1  0
 61 67  1  0
 66 67  1  0
 67 68  1  0
 69 70  1  0
 70 71  1  0
 72 73  1  0
 70 74  1  0
 73 74  1  0
 74 75  1  0
 60 76  1  0
 69 76  1  0
 75 76  1  0
  1 77  1  0
  2 78  1  0
  2 79  1  0
  4 80  1  1
  5 81  1  1
  6 82  1  0
  7 83  1  0
  7 84  1  0
  8 85  1  0
  9 86  1  0
  9 87  1  0
 10 88  1  1
 11 89  1  0
 12 90  1  0
 12 91  1  0
 13 92  1  1
 14 93  1  0
 15 94  1  0
 16 95  1  0
 16 96  1  0
 17 97  1  1
 19 98  1  1
 20 99  1  0
 21100  1  0
 21101  1  0
 23102  1  0
 24103  1  1
 25104  1  0
 26105  1  0
 26106  1  0
 27107  1  0
 28108  1  0
 28109  1  0
 29110  1  1
 30111  1  0
 31112  1  0
 31113  1  0
 32114  1  1
 33115  1  0
 34116  1  0
 35117  1  0
 35118  1  0
 36119  1  1
 38120  1  1
 39121  1  0
 40122  1  0
 40123  1  0
 42124  1  1
 43125  1  1
 44126  1  0
 45127  1  0
 45128  1  0
 46129  1  0
 47130  1  0
 47131  1  0
 48132  1  1
 49133  1  0
 50134  1  0
 50135  1  0
 51136  1  1
 52137  1  0
 53138  1  0
 54139  1  0
 54140  1  0
 55141  1  1
 57142  1  1
 58143  1  0
 59144  1  0
 59145  1  0
 61146  1  1
 62147  1  1
 63148  1  0
 64149  1  0
 64150  1  0
 65151  1  0
 66152  1  0
 66153  1  0
 67154  1  1
 68155  1  0
 69156  1  0
 69157  1  0
 70158  1  1
 71159  1  0
 72160  1  0
 73161  1  0
 73162  1  0
 74163  1  1
 76164  1  1
M  END
>  <PDBID>  (1) 
1A4L

>  <PDB ID>  (1) 
1A4L

>  <Generic Name>  (1) 
Pentostatin

>  <Brand Name>  (1) 
Nipent#Nipent Pws 10mg/vial

>  <DrugBank ID>  (1) 
DB00552

>  <ATC Codes>  (1) 
L01XX08

>  <Ligand ID>  (1) 
DCF

>  <Target Name>  (1) 
Adenosine deaminase

>  <UniProt ID>  (1) 
P00813

>  <PDB ID.1>  (1) 
1A4L

>  <Seq. Identity>  (1) 
83%

$$$$
