PDB_DB04835_07
     RDKit          3D

180188  0  0  0  0  0  0  0  0999 V2000
   -6.7445    4.0437   -2.3054 F   0  0  0  0  0  0  0  0  0  0  0  0
   -5.6716   -0.0208    0.7138 O   0  0  0  0  0  0  0  0  0  0  0  0
    3.2340   -0.3907    0.7270 C   0  0  0  0  0  0  0  0  0  0  0  0
    4.4894    0.2322    0.4310 N   0  0  0  0  0  0  0  0  0  0  0  0
   -0.7304    1.0452   -0.2759 C   0  0  0  0  0  0  0  0  0  0  0  0
    6.3173   -0.9347   -0.8490 C   0  0  0  0  0  0  0  0  0  0  0  0
   -1.8123    0.2610   -0.9336 C   0  0  0  0  0  0  0  0  0  0  0  0
   -2.5541   -0.7215   -0.0880 C   0  0  1  0  0  0  0  0  0  0  0  0
    5.0608    0.3013    2.8428 C   0  0  0  0  0  0  0  0  0  0  0  0
   -1.6165   -1.7948    0.4617 C   0  0  0  0  0  0  0  0  0  0  0  0
   -4.4105    0.6124    0.8897 C   0  0  2  0  0  0  0  0  0  0  0  0
   -4.4513    1.9334    0.1996 C   0  0  0  0  0  0  0  0  0  0  0  0
   -6.8828    3.3922   -1.1109 C   0  0  0  0  0  0  0  0  0  0  0  0
    5.4430   -1.7332   -1.7807 C   0  0  0  0  0  0  0  0  0  0  0  0
   -8.2036    3.4973   -0.7318 F   0  0  0  0  0  0  0  0  0  0  0  0
    0.3856    0.3007    0.1833 N   0  0  0  0  0  0  0  0  0  0  0  0
    1.2421    1.1492    1.0343 C   0  0  1  0  0  0  0  0  0  0  0  0
    6.9719    0.2198   -1.5906 C   0  0  0  0  0  0  0  0  0  0  0  0
   -5.5353    2.7982    0.8842 C   0  0  0  0  0  0  0  0  0  0  0  0
   -5.0794    1.6993   -1.2009 C   0  0  0  0  0  0  0  0  0  0  0  0
   -5.9413    3.9355   -0.0298 C   0  0  0  0  0  0  0  0  0  0  0  0
   -6.5554    1.9143   -1.2108 C   0  0  0  0  0  0  0  0  0  0  0  0
   -2.4365   -2.7534    1.3224 C   0  0  0  0  0  0  0  0  0  0  0  0
   -0.9642   -2.5998   -0.6082 C   0  0  0  0  0  0  0  0  0  0  0  0
   -1.9712   -4.1627    1.0981 C   0  0  0  0  0  0  0  0  0  0  0  0
   -1.8931   -3.6216   -1.2589 C   0  0  0  0  0  0  0  0  0  0  0  0
   -2.3656   -4.6599   -0.2817 C   0  0  0  0  0  0  0  0  0  0  0  0
    1.3784    0.1320   -0.9154 C   0  0  2  0  0  0  0  0  0  0  0  0
    6.7062    0.1295    1.2014 N   0  0  0  0  0  0  0  0  0  0  0  0
    5.6584   -0.5774    0.4237 C   0  0  1  0  0  0  0  0  0  0  0  0
    6.2265    1.4382    1.1608 N   0  0  0  0  0  0  0  0  0  0  0  0
   -3.3005   -0.1676    0.9554 N   0  0  0  0  0  0  0  0  0  0  0  0
    2.3464    0.3556    1.6978 C   0  0  0  0  0  0  0  0  0  0  0  0
    2.3756   -0.8710   -0.3628 C   0  0  0  0  0  0  0  0  0  0  0  0
    4.8477    1.1020    1.6017 C   0  0  0  0  0  0  0  0  0  0  0  0
    1.7055    2.2311    0.1338 C   0  0  0  0  0  0  0  0  0  0  0  0
    1.9806    1.4836   -1.1457 C   0  0  0  0  0  0  0  0  0  0  0  0
   -6.9709    3.6099   -2.4725 F   0  0  0  0  0  0  0  0  0  0  0  0
   -5.5026    0.0952    0.9426 O   0  0  0  0  0  0  0  0  0  0  0  0
    3.0682   -0.5333    0.7508 C   0  0  0  0  0  0  0  0  0  0  0  0
    4.4286   -0.0558    0.6717 N   0  0  0  0  0  0  0  0  0  0  0  0
   -0.7247    1.1653   -0.2756 C   0  0  0  0  0  0  0  0  0  0  0  0
    6.2451   -0.0499   -1.0397 C   0  0  0  0  0  0  0  0  0  0  0  0
   -1.8017    0.3327   -0.9291 C   0  0  0  0  0  0  0  0  0  0  0  0
   -2.4645   -0.6399   -0.0123 C   0  0  1  0  0  0  0  0  0  0  0  0
    4.5778   -0.6219    3.1115 C   0  0  0  0  0  0  0  0  0  0  0  0
   -1.4811   -1.6605    0.5558 C   0  0  0  0  0  0  0  0  0  0  0  0
   -4.2733    0.7984    0.9285 C   0  0  2  0  0  0  0  0  0  0  0  0
   -4.4016    2.0276    0.1095 C   0  0  0  0  0  0  0  0  0  0  0  0
   -7.0016    3.2104   -1.1723 C   0  0  0  0  0  0  0  0  0  0  0  0
    7.1007   -1.0935   -1.7920 C   0  0  0  0  0  0  0  0  0  0  0  0
   -8.2584    3.3000   -0.6494 F   0  0  0  0  0  0  0  0  0  0  0  0
    0.4089    0.4171    0.1243 N   0  0  0  0  0  0  0  0  0  0  0  0
    1.2494    1.2083    1.0173 C   0  0  1  0  0  0  0  0  0  0  0  0
    5.5893    0.7590   -2.1036 C   0  0  0  0  0  0  0  0  0  0  0  0
   -5.4641    2.9458    0.7720 C   0  0  0  0  0  0  0  0  0  0  0  0
   -5.0985    1.6018   -1.1963 C   0  0  0  0  0  0  0  0  0  0  0  0
   -5.9716    3.9153   -0.3103 C   0  0  0  0  0  0  0  0  0  0  0  0
   -6.5915    1.7315   -1.1352 C   0  0  0  0  0  0  0  0  0  0  0  0
   -2.2552   -2.5927    1.4982 C   0  0  0  0  0  0  0  0  0  0  0  0
   -0.9374   -2.4875   -0.5618 C   0  0  0  0  0  0  0  0  0  0  0  0
   -1.8299   -4.0090    1.2768 C   0  0  0  0  0  0  0  0  0  0  0  0
   -1.9334   -3.5082   -1.1089 C   0  0  0  0  0  0  0  0  0  0  0  0
   -2.2907   -4.5344   -0.0835 C   0  0  0  0  0  0  0  0  0  0  0  0
    1.3738    0.2545   -0.9833 C   0  0  2  0  0  0  0  0  0  0  0  0
    6.2420   -1.3259    0.9261 N   0  0  0  0  0  0  0  0  0  0  0  0
    5.3242   -0.8116   -0.1243 C   0  0  0  0  0  0  0  0  0  0  0  0
    6.4086   -0.1980    1.7196 N   0  0  0  0  0  0  0  0  0  0  0  0
   -3.1546    0.0327    1.0107 N   0  0  0  0  0  0  0  0  0  0  0  0
    2.2926    0.3567    1.6540 C   0  0  0  0  0  0  0  0  0  0  0  0
    2.3979   -0.7267   -0.5491 C   0  0  0  0  0  0  0  0  0  0  0  0
    5.0186    0.1726    1.9558 C   0  0  0  0  0  0  0  0  0  0  0  0
    1.7285    2.3183    0.1534 C   0  0  0  0  0  0  0  0  0  0  0  0
    1.8846    1.6488   -1.1733 C   0  0  0  0  0  0  0  0  0  0  0  0
   -5.8570   -0.6512    1.4705 H   0  0  0  0  0  0  0  0  0  0  0  0
    3.5395   -1.3322    1.3062 H   0  0  0  0  0  0  0  0  0  0  0  0
   -1.2214    1.6145    0.5728 H   0  0  0  0  0  0  0  0  0  0  0  0
   -0.3863    1.8720   -0.9628 H   0  0  0  0  0  0  0  0  0  0  0  0
    7.2026   -1.6332   -0.6546 H   0  0  0  0  0  0  0  0  0  0  0  0
   -2.4729    1.0101   -1.4460 H   0  0  0  0  0  0  0  0  0  0  0  0
   -1.3150   -0.2539   -1.8151 H   0  0  0  0  0  0  0  0  0  0  0  0
   -3.1888   -1.3111   -0.8243 H   0  0  0  0  0  0  0  0  0  0  0  0
    6.1209    0.0120    3.0435 H   0  0  0  0  0  0  0  0  0  0  0  0
    4.4736   -0.6058    2.9573 H   0  0  0  0  0  0  0  0  0  0  0  0
    4.8193    0.9908    3.7093 H   0  0  0  0  0  0  0  0  0  0  0  0
   -0.8984   -1.3137    1.1421 H   0  0  0  0  0  0  0  0  0  0  0  0
   -4.5774    0.9550    2.0304 H   0  0  0  0  0  0  0  0  0  0  0  0
   -3.5515    2.5194    0.1707 H   0  0  0  0  0  0  0  0  0  0  0  0
    4.7895   -1.0704   -2.3812 H   0  0  0  0  0  0  0  0  0  0  0  0
    6.0483   -2.3169   -2.5184 H   0  0  0  0  0  0  0  0  0  0  0  0
    4.8653   -2.4931   -1.2216 H   0  0  0  0  0  0  0  0  0  0  0  0
    0.5719    1.4903    1.8478 H   0  0  0  0  0  0  0  0  0  0  0  0
    7.3742   -0.1537   -2.5886 H   0  0  0  0  0  0  0  0  0  0  0  0
    6.1668    0.9158   -1.8846 H   0  0  0  0  0  0  0  0  0  0  0  0
    7.7439    0.7411   -1.0464 H   0  0  0  0  0  0  0  0  0  0  0  0
   -5.1021    3.2428    1.7972 H   0  0  0  0  0  0  0  0  0  0  0  0
   -6.4000    2.2060    1.1823 H   0  0  0  0  0  0  0  0  0  0  0  0
   -4.8992    0.6312   -1.5171 H   0  0  0  0  0  0  0  0  0  0  0  0
   -4.6111    2.3996   -1.9239 H   0  0  0  0  0  0  0  0  0  0  0  0
   -6.5140    4.6502    0.5596 H   0  0  0  0  0  0  0  0  0  0  0  0
   -5.0610    4.4318   -0.4588 H   0  0  0  0  0  0  0  0  0  0  0  0
   -7.1311    1.3410   -0.4862 H   0  0  0  0  0  0  0  0  0  0  0  0
   -6.9151    1.5991   -2.2137 H   0  0  0  0  0  0  0  0  0  0  0  0
   -3.5047   -2.7227    1.0100 H   0  0  0  0  0  0  0  0  0  0  0  0
   -2.2826   -2.4997    2.3689 H   0  0  0  0  0  0  0  0  0  0  0  0
   -0.5363   -2.0336   -1.4498 H   0  0  0  0  0  0  0  0  0  0  0  0
   -0.1726   -3.2205   -0.1077 H   0  0  0  0  0  0  0  0  0  0  0  0
   -0.9352   -4.3465    1.3639 H   0  0  0  0  0  0  0  0  0  0  0  0
   -2.5880   -4.7906    1.8145 H   0  0  0  0  0  0  0  0  0  0  0  0
   -2.7096   -3.1424   -1.8091 H   0  0  0  0  0  0  0  0  0  0  0  0
   -1.2478   -4.1446   -2.0178 H   0  0  0  0  0  0  0  0  0  0  0  0
   -3.4787   -4.7520   -0.3527 H   0  0  0  0  0  0  0  0  0  0  0  0
   -1.9043   -5.6529   -0.4112 H   0  0  0  0  0  0  0  0  0  0  0  0
    0.9224   -0.2722   -1.8218 H   0  0  0  0  0  0  0  0  0  0  0  0
    7.6325    0.0632    0.8052 H   0  0  0  0  0  0  0  0  0  0  0  0
    5.4539   -1.4952    1.0446 H   0  0  0  0  0  0  0  0  0  0  0  0
    6.2113    1.9033    0.2625 H   0  0  0  0  0  0  0  0  0  0  0  0
   -2.9778   -0.3972    1.9171 H   0  0  0  0  0  0  0  0  0  0  0  0
    1.7815   -0.4269    2.3024 H   0  0  0  0  0  0  0  0  0  0  0  0
    2.8085    0.9905    2.4224 H   0  0  0  0  0  0  0  0  0  0  0  0
    2.7854   -1.3984   -1.2036 H   0  0  0  0  0  0  0  0  0  0  0  0
    1.6845   -1.6623    0.1248 H   0  0  0  0  0  0  0  0  0  0  0  0
    4.3047    2.0127    1.6587 H   0  0  0  0  0  0  0  0  0  0  0  0
    2.5503    2.8321    0.4709 H   0  0  0  0  0  0  0  0  0  0  0  0
    0.8648    2.9875    0.0238 H   0  0  0  0  0  0  0  0  0  0  0  0
    1.4329    2.0257   -1.9653 H   0  0  0  0  0  0  0  0  0  0  0  0
    3.0425    1.4566   -1.4291 H   0  0  0  0  0  0  0  0  0  0  0  0
   -5.5670   -0.4542    1.7602 H   0  0  0  0  0  0  0  0  0  0  0  0
    3.1432   -1.5853    1.1978 H   0  0  0  0  0  0  0  0  0  0  0  0
   -1.1570    1.7783    0.5613 H   0  0  0  0  0  0  0  0  0  0  0  0
   -0.4232    1.9183   -1.0424 H   0  0  0  0  0  0  0  0  0  0  0  0
    6.9602    0.6088   -0.5261 H   0  0  0  0  0  0  0  0  0  0  0  0
   -2.5241    1.0037   -1.4231 H   0  0  0  0  0  0  0  0  0  0  0  0
   -1.2836   -0.1917   -1.7868 H   0  0  0  0  0  0  0  0  0  0  0  0
   -3.1489   -1.2853   -0.6510 H   0  0  0  0  0  0  0  0  0  0  0  0
    4.3743    0.0948    3.9657 H   0  0  0  0  0  0  0  0  0  0  0  0
    3.7300   -1.2694    3.0525 H   0  0  0  0  0  0  0  0  0  0  0  0
    5.4075   -1.2669    3.5566 H   0  0  0  0  0  0  0  0  0  0  0  0
   -0.7025   -1.2125    1.1896 H   0  0  0  0  0  0  0  0  0  0  0  0
   -4.3593    1.2719    2.0383 H   0  0  0  0  0  0  0  0  0  0  0  0
   -3.5325    2.6464   -0.0341 H   0  0  0  0  0  0  0  0  0  0  0  0
    7.6608   -0.5572   -2.5836 H   0  0  0  0  0  0  0  0  0  0  0  0
    7.8208   -1.5559   -1.0942 H   0  0  0  0  0  0  0  0  0  0  0  0
    6.4578   -1.8207   -2.2955 H   0  0  0  0  0  0  0  0  0  0  0  0
    0.5766    1.5743    1.8235 H   0  0  0  0  0  0  0  0  0  0  0  0
    6.3071    1.0134   -2.9313 H   0  0  0  0  0  0  0  0  0  0  0  0
    4.7407    0.2773   -2.6153 H   0  0  0  0  0  0  0  0  0  0  0  0
    5.2541    1.7581   -1.7377 H   0  0  0  0  0  0  0  0  0  0  0  0
   -4.9039    3.5680    1.4933 H   0  0  0  0  0  0  0  0  0  0  0  0
   -6.2589    2.3605    1.2266 H   0  0  0  0  0  0  0  0  0  0  0  0
   -4.8925    0.5075   -1.3882 H   0  0  0  0  0  0  0  0  0  0  0  0
   -4.7323    2.2183   -2.0278 H   0  0  0  0  0  0  0  0  0  0  0  0
   -6.3693    4.7913    0.2213 H   0  0  0  0  0  0  0  0  0  0  0  0
   -5.1024    4.1356   -0.9563 H   0  0  0  0  0  0  0  0  0  0  0  0
   -7.0822    1.2496   -0.2946 H   0  0  0  0  0  0  0  0  0  0  0  0
   -6.9690    1.2541   -2.0849 H   0  0  0  0  0  0  0  0  0  0  0  0
   -3.3464   -2.4922    1.2688 H   0  0  0  0  0  0  0  0  0  0  0  0
   -2.0488   -2.3383    2.5430 H   0  0  0  0  0  0  0  0  0  0  0  0
   -0.5898   -1.9340   -1.4486 H   0  0  0  0  0  0  0  0  0  0  0  0
   -0.0936   -3.0961   -0.1257 H   0  0  0  0  0  0  0  0  0  0  0  0
   -0.7591   -4.1339    1.4077 H   0  0  0  0  0  0  0  0  0  0  0  0
   -2.4006   -4.6478    2.0196 H   0  0  0  0  0  0  0  0  0  0  0  0
   -2.7967   -3.0423   -1.5885 H   0  0  0  0  0  0  0  0  0  0  0  0
   -1.3611   -4.0398   -1.9153 H   0  0  0  0  0  0  0  0  0  0  0  0
   -3.4157   -4.6090   -0.0854 H   0  0  0  0  0  0  0  0  0  0  0  0
   -1.8754   -5.5166   -0.3046 H   0  0  0  0  0  0  0  0  0  0  0  0
    0.8761   -0.1457   -1.8839 H   0  0  0  0  0  0  0  0  0  0  0  0
    5.7538   -2.0632    1.4813 H   0  0  0  0  0  0  0  0  0  0  0  0
    4.8812   -1.6707   -0.6695 H   0  0  0  0  0  0  0  0  0  0  0  0
    7.0292    0.5216    1.4283 H   0  0  0  0  0  0  0  0  0  0  0  0
   -2.5187    0.2489    1.7978 H   0  0  0  0  0  0  0  0  0  0  0  0
    1.7269   -0.3171    2.3599 H   0  0  0  0  0  0  0  0  0  0  0  0
    2.9120    1.0128    2.3174 H   0  0  0  0  0  0  0  0  0  0  0  0
    3.1297   -0.9671   -1.3847 H   0  0  0  0  0  0  0  0  0  0  0  0
    1.8342   -1.7182   -0.4924 H   0  0  0  0  0  0  0  0  0  0  0  0
    4.9291    1.2871    2.1514 H   0  0  0  0  0  0  0  0  0  0  0  0
    2.6488    2.8180    0.5203 H   0  0  0  0  0  0  0  0  0  0  0  0
    0.9210    3.0985    0.1323 H   0  0  0  0  0  0  0  0  0  0  0  0
    1.2867    2.1770   -1.9363 H   0  0  0  0  0  0  0  0  0  0  0  0
    2.9209    1.6837   -1.5625 H   0  0  0  0  0  0  0  0  0  0  0  0
  3  4  1  0
  5  7  1  0
  7  8  1  0
  8 10  1  0
  2 11  1  0
 11 12  1  0
 13  1  1  0
  6 14  1  0
 13 15  1  0
  5 16  1  0
 16 17  1  0
  6 18  1  0
 12 19  1  0
 12 20  1  0
 13 21  1  0
 19 21  1  0
 13 22  1  0
 20 22  1  0
 10 23  1  0
 10 24  1  0
 23 25  1  0
 24 26  1  0
 25 27  1  0
 26 27  1  0
 16 28  1  0
  4 30  1  0
  6 30  1  0
 29 30  1  0
 29 31  1  0
  8 32  1  0
 11 32  1  0
  3 33  1  0
 17 33  1  0
  3 34  1  0
 28 34  1  0
  4 35  1  0
  9 35  1  0
 31 35  1  0
 17 36  1  0
 28 37  1  0
 36 37  1  0
 40 41  1  0
 42 44  1  0
 44 45  1  0
 45 47  1  0
 39 48  1  0
 48 49  1  0
 50 38  1  0
 43 51  1  0
 50 52  1  0
 42 53  1  0
 53 54  1  0
 43 55  1  0
 49 56  1  0
 49 57  1  0
 50 58  1  0
 56 58  1  0
 50 59  1  0
 57 59  1  0
 47 60  1  0
 47 61  1  0
 60 62  1  0
 61 63  1  0
 62 64  1  0
 63 64  1  0
 53 65  1  0
 41 67  1  0
 43 67  1  0
 66 67  1  0
 66 68  1  0
 45 69  1  0
 48 69  1  0
 40 70  1  0
 54 70  1  0
 40 71  1  0
 65 71  1  0
 41 72  1  0
 46 72  1  0
 68 72  1  0
 54 73  1  0
 65 74  1  0
 73 74  1  0
  2 75  1  0
  3 76  1  0
  5 77  1  0
  5 78  1  0
  6 79  1  0
  7 80  1  0
  7 81  1  0
  8 82  1  6
  9 83  1  0
  9 84  1  0
  9 85  1  0
 10 86  1  0
 11 87  1  1
 12 88  1  0
 14 89  1  0
 14 90  1  0
 14 91  1  0
 17 92  1  1
 18 93  1  0
 18 94  1  0
 18 95  1  0
 19 96  1  0
 19 97  1  0
 20 98  1  0
 20 99  1  0
 21100  1  0
 21101  1  0
 22102  1  0
 22103  1  0
 23104  1  0
 23105  1  0
 24106  1  0
 24107  1  0
 25108  1  0
 25109  1  0
 26110  1  0
 26111  1  0
 27112  1  0
 27113  1  0
 28114  1  6
 29115  1  0
 30116  1  1
 31117  1  0
 32118  1  0
 33119  1  0
 33120  1  0
 34121  1  0
 34122  1  0
 35123  1  0
 36124  1  0
 36125  1  0
 37126  1  0
 37127  1  0
 39128  1  0
 40129  1  0
 42130  1  0
 42131  1  0
 43132  1  0
 44133  1  0
 44134  1  0
 45135  1  6
 46136  1  0
 46137  1  0
 46138  1  0
 47139  1  0
 48140  1  1
 49141  1  0
 51142  1  0
 51143  1  0
 51144  1  0
 54145  1  1
 55146  1  0
 55147  1  0
 55148  1  0
 56149  1  0
 56150  1  0
 57151  1  0
 57152  1  0
 58153  1  0
 58154  1  0
 59155  1  0
 59156  1  0
 60157  1  0
 60158  1  0
 61159  1  0
 61160  1  0
 62161  1  0
 62162  1  0
 63163  1  0
 63164  1  0
 64165  1  0
 64166  1  0
 65167  1  6
 66168  1  0
 67169  1  0
 68170  1  0
 69171  1  0
 70172  1  0
 70173  1  0
 71174  1  0
 71175  1  0
 72176  1  0
 73177  1  0
 73178  1  0
 74179  1  0
 74180  1  0
M  END
>  <PDBID>  (1) 
4MBS

>  <PDB ID>  (1) 
4MBS

>  <Generic Name>  (1) 
Maraviroc

>  <Brand Name>  (1) 
Celsentri#Selzentry

>  <DrugBank ID>  (1) 
DB04835

>  <ATC Codes>  (1) 
J05AX09

>  <Ligand ID>  (1) 
MRV

>  <Target Name>  (1) 
C-C chemokine receptor type 5

>  <UniProt ID>  (1) 
P51681

>  <PDB ID.1>  (1) 
4MBS

>  <Seq. Identity>  (1) 
74%

$$$$
