PDB_DB00537_08
     RDKit          3D

108114  0  0  0  0  0  0  0  0999 V2000
   -4.5957    3.0127    0.0371 O   0  0  0  0  0  0  0  0  0  0  0  0
   -4.3599    1.7801   -0.6014 C   0  0  0  0  0  0  0  0  0  0  0  0
   -5.5807    1.0763   -0.5586 O   0  0  0  0  0  0  0  0  0  0  0  0
   -3.3285    1.0462    0.2201 C   0  0  0  0  0  0  0  0  0  0  0  0
   -2.9870   -0.3076   -0.3669 C   0  0  0  0  0  0  0  0  0  0  0  0
   -1.8250   -0.7609    0.3130 N   0  0  0  0  0  0  0  0  0  0  0  0
   -0.6814   -0.0975   -0.2234 C   0  0  0  0  0  0  0  0  0  0  0  0
    0.5866   -0.6311    0.3905 C   0  0  0  0  0  0  0  0  0  0  0  0
    1.8050    0.1728    0.1019 C   0  0  0  0  0  0  0  0  0  0  0  0
    2.7560   -0.4234   -0.7605 N   0  0  0  0  0  0  0  0  0  0  0  0
    3.3503   -1.5868   -0.2044 C   0  0  0  0  0  0  0  0  0  0  0  0
    4.3901   -1.2416    0.8721 C   0  0  0  0  0  0  0  0  0  0  0  0
    5.0428    0.0021    0.6342 N   0  0  0  0  0  0  0  0  0  0  0  0
    5.1047    0.2742   -0.7617 C   0  0  0  0  0  0  0  0  0  0  0  0
    3.7129    0.3975   -1.3886 C   0  0  0  0  0  0  0  0  0  0  0  0
    1.5214    1.6445   -0.1934 C   0  0  0  0  0  0  0  0  0  0  0  0
    2.5257    2.4519    0.3135 F   0  0  0  0  0  0  0  0  0  0  0  0
    0.2946    1.9563    0.6646 C   0  0  0  0  0  0  0  0  0  0  0  0
   -0.8651    1.3690   -0.1488 C   0  0  0  0  0  0  0  0  0  0  0  0
   -2.1179    1.8461    0.5096 C   0  0  0  0  0  0  0  0  0  0  0  0
   -1.8727    1.9448    1.8987 O   0  0  0  0  0  0  0  0  0  0  0  0
   -1.7136   -2.1745    0.4836 C   0  0  0  0  0  0  0  0  0  0  0  0
   -1.6261   -2.9920   -0.7361 C   0  0  0  0  0  0  0  0  0  0  0  0
   -2.7784   -3.1367    0.2598 C   0  0  0  0  0  0  0  0  0  0  0  0
   -3.8917   -0.9252   -0.2433 H   0  0  0  0  0  0  0  0  0  0  0  0
    0.3834   -0.8085    1.4735 H   0  0  0  0  0  0  0  0  0  0  0  0
    3.8451   -2.1840   -1.0214 H   0  0  0  0  0  0  0  0  0  0  0  0
    2.5946   -2.2159    0.2951 H   0  0  0  0  0  0  0  0  0  0  0  0
    5.1412   -2.0561    0.8322 H   0  0  0  0  0  0  0  0  0  0  0  0
    3.9169   -1.3122    1.8759 H   0  0  0  0  0  0  0  0  0  0  0  0
    4.6936    0.8001    1.2099 H   0  0  0  0  0  0  0  0  0  0  0  0
    5.6925   -0.5227   -1.2578 H   0  0  0  0  0  0  0  0  0  0  0  0
    5.6404    1.2512   -0.9242 H   0  0  0  0  0  0  0  0  0  0  0  0
    3.8506    0.0034   -2.4404 H   0  0  0  0  0  0  0  0  0  0  0  0
    3.4668    1.4524   -1.5151 H   0  0  0  0  0  0  0  0  0  0  0  0
    0.1727    3.0127    0.8849 H   0  0  0  0  0  0  0  0  0  0  0  0
   -0.9744   -2.4389    1.3003 H   0  0  0  0  0  0  0  0  0  0  0  0
   -0.8880   -3.8110   -0.8038 H   0  0  0  0  0  0  0  0  0  0  0  0
   -1.8773   -2.4836   -1.7090 H   0  0  0  0  0  0  0  0  0  0  0  0
   -3.7844   -2.9421   -0.1182 H   0  0  0  0  0  0  0  0  0  0  0  0
   -2.7376   -4.1128    0.8264 H   0  0  0  0  0  0  0  0  0  0  0  0
   -4.6051    3.0050    0.0430 O   0  0  0  0  0  0  0  0  0  0  0  0
   -4.3610    1.7776   -0.6008 C   0  0  0  0  0  0  0  0  0  0  0  0
   -5.5863    1.0743   -0.5658 O   0  0  0  0  0  0  0  0  0  0  0  0
   -3.3342    1.0446    0.2278 C   0  0  0  0  0  0  0  0  0  0  0  0
   -2.9883   -0.3055   -0.3696 C   0  0  0  0  0  0  0  0  0  0  0  0
   -1.8241   -0.7588    0.3142 N   0  0  0  0  0  0  0  0  0  0  0  0
   -0.6820   -0.0931   -0.2219 C   0  0  0  0  0  0  0  0  0  0  0  0
    0.5845   -0.6244    0.3929 C   0  0  0  0  0  0  0  0  0  0  0  0
    1.8069    0.1782    0.1021 C   0  0  0  0  0  0  0  0  0  0  0  0
    2.7579   -0.4204   -0.7579 N   0  0  0  0  0  0  0  0  0  0  0  0
    3.3500   -1.5852   -0.2038 C   0  0  0  0  0  0  0  0  0  0  0  0
    4.3922   -1.2518    0.8713 C   0  0  0  0  0  0  0  0  0  0  0  0
    5.0437   -0.0043    0.6394 N   0  0  0  0  0  0  0  0  0  0  0  0
    5.1058    0.2791   -0.7530 C   0  0  0  0  0  0  0  0  0  0  0  0
    3.7164    0.4010   -1.3872 C   0  0  0  0  0  0  0  0  0  0  0  0
    1.5170    1.6482   -0.1984 C   0  0  0  0  0  0  0  0  0  0  0  0
    2.5235    2.4554    0.3021 F   0  0  0  0  0  0  0  0  0  0  0  0
    0.2925    1.9614    0.6651 C   0  0  0  0  0  0  0  0  0  0  0  0
   -0.8711    1.3749   -0.1471 C   0  0  0  0  0  0  0  0  0  0  0  0
   -2.1203    1.8444    0.5085 C   0  0  0  0  0  0  0  0  0  0  0  0
   -1.8754    1.9472    1.8993 O   0  0  0  0  0  0  0  0  0  0  0  0
   -1.7121   -2.1698    0.4871 C   0  0  0  0  0  0  0  0  0  0  0  0
   -1.6242   -2.9889   -0.7374 C   0  0  0  0  0  0  0  0  0  0  0  0
   -2.7714   -3.1410    0.2641 C   0  0  0  0  0  0  0  0  0  0  0  0
   -3.8913   -0.9271   -0.2452 H   0  0  0  0  0  0  0  0  0  0  0  0
    0.3857   -0.8012    1.4691 H   0  0  0  0  0  0  0  0  0  0  0  0
    3.8367   -2.1843   -1.0245 H   0  0  0  0  0  0  0  0  0  0  0  0
    2.5930   -2.2171    0.2904 H   0  0  0  0  0  0  0  0  0  0  0  0
    5.1458   -2.0647    0.8240 H   0  0  0  0  0  0  0  0  0  0  0  0
    3.9221   -1.3302    1.8739 H   0  0  0  0  0  0  0  0  0  0  0  0
    4.6950    0.7828    1.2251 H   0  0  0  0  0  0  0  0  0  0  0  0
    5.6892   -0.5337   -1.2459 H   0  0  0  0  0  0  0  0  0  0  0  0
    5.6491    1.2401   -0.9346 H   0  0  0  0  0  0  0  0  0  0  0  0
    3.8554    0.0001   -2.4381 H   0  0  0  0  0  0  0  0  0  0  0  0
    3.4651    1.4541   -1.5197 H   0  0  0  0  0  0  0  0  0  0  0  0
    0.1741    3.0197    0.8762 H   0  0  0  0  0  0  0  0  0  0  0  0
   -0.9717   -2.4366    1.3011 H   0  0  0  0  0  0  0  0  0  0  0  0
   -0.8820   -3.8088   -0.7997 H   0  0  0  0  0  0  0  0  0  0  0  0
   -1.8737   -2.4827   -1.6997 H   0  0  0  0  0  0  0  0  0  0  0  0
   -3.7789   -2.9469   -0.1227 H   0  0  0  0  0  0  0  0  0  0  0  0
   -2.7359   -4.1084    0.8279 H   0  0  0  0  0  0  0  0  0  0  0  0
   -4.5452    2.8438    1.0061 H   0  0  0  0  0  0  0  0  0  0  0  0
   -4.0927    1.8988   -1.6531 H   0  0  0  0  0  0  0  0  0  0  0  0
   -5.8800    1.0331    0.4025 H   0  0  0  0  0  0  0  0  0  0  0  0
   -3.8372    0.8167    1.2030 H   0  0  0  0  0  0  0  0  0  0  0  0
   -2.7432   -0.1386   -1.4556 H   0  0  0  0  0  0  0  0  0  0  0  0
   -0.6293   -0.3834   -1.3178 H   0  0  0  0  0  0  0  0  0  0  0  0
    0.7202   -1.6530   -0.0463 H   0  0  0  0  0  0  0  0  0  0  0  0
    2.3314    0.2395    1.1209 H   0  0  0  0  0  0  0  0  0  0  0  0
    1.2463    1.8449   -1.2271 H   0  0  0  0  0  0  0  0  0  0  0  0
    0.3679    1.3763    1.6307 H   0  0  0  0  0  0  0  0  0  0  0  0
   -0.7738    1.8568   -1.1519 H   0  0  0  0  0  0  0  0  0  0  0  0
   -2.2995    2.8935    0.1662 H   0  0  0  0  0  0  0  0  0  0  0  0
   -1.8674    1.0422    2.3143 H   0  0  0  0  0  0  0  0  0  0  0  0
   -4.5426    2.8342    1.0105 H   0  0  0  0  0  0  0  0  0  0  0  0
   -4.0853    1.9012   -1.6484 H   0  0  0  0  0  0  0  0  0  0  0  0
   -5.8845    1.0274    0.3957 H   0  0  0  0  0  0  0  0  0  0  0  0
   -3.8318    0.8154    1.2026 H   0  0  0  0  0  0  0  0  0  0  0  0
   -2.7437   -0.1385   -1.4524 H   0  0  0  0  0  0  0  0  0  0  0  0
   -0.6300   -0.3758   -1.3161 H   0  0  0  0  0  0  0  0  0  0  0  0
    0.7219   -1.6470   -0.0585 H   0  0  0  0  0  0  0  0  0  0  0  0
    2.3309    0.2494    1.1208 H   0  0  0  0  0  0  0  0  0  0  0  0
    1.2355    1.8445   -1.2298 H   0  0  0  0  0  0  0  0  0  0  0  0
    0.3678    1.3829    1.6269 H   0  0  0  0  0  0  0  0  0  0  0  0
   -0.7773    1.8653   -1.1527 H   0  0  0  0  0  0  0  0  0  0  0  0
   -2.3068    2.8937    0.1657 H   0  0  0  0  0  0  0  0  0  0  0  0
   -1.8667    1.0442    2.3158 H   0  0  0  0  0  0  0  0  0  0  0  0
  1  2  1  0
  2  3  1  0
  2  4  1  0
  4  5  1  0
  5  6  1  0
  6  7  1  0
  7  8  1  0
  8  9  1  0
  9 10  1  0
 10 11  1  0
 11 12  1  0
 12 13  1  0
 13 14  1  0
 10 15  1  0
 14 15  1  0
  9 16  1  0
 16 17  1  0
 16 18  1  0
  7 19  1  0
 18 19  1  0
  4 20  1  0
 19 20  1  0
 20 21  1  0
  6 22  1  0
 22 23  1  0
 22 24  1  0
 23 24  1  0
  5 25  1  0
  8 26  1  0
 11 27  1  0
 11 28  1  0
 12 29  1  0
 12 30  1  0
 13 31  1  0
 14 32  1  0
 14 33  1  0
 15 34  1  0
 15 35  1  0
 18 36  1  0
 22 37  1  0
 23 38  1  0
 23 39  1  0
 24 40  1  0
 24 41  1  0
 43 42  1  0
 43 44  1  0
 43 45  1  0
 45 46  1  0
 46 47  1  0
 47 48  1  0
 48 49  1  0
 49 50  1  0
 50 51  1  0
 51 52  1  0
 52 53  1  0
 53 54  1  0
 54 55  1  0
 51 56  1  0
 55 56  1  0
 50 57  1  0
 57 58  1  0
 57 59  1  0
 48 60  1  0
 59 60  1  0
 45 61  1  0
 60 61  1  0
 61 62  1  0
 47 63  1  0
 63 64  1  0
 63 65  1  0
 64 65  1  0
 46 66  1  0
 49 67  1  0
 52 68  1  0
 52 69  1  0
 53 70  1  0
 53 71  1  0
 54 72  1  0
 55 73  1  0
 55 74  1  0
 56 75  1  0
 56 76  1  0
 59 77  1  0
 63 78  1  0
 64 79  1  0
 64 80  1  0
 65 81  1  0
 65 82  1  0
  1 83  1  0
  2 84  1  0
  3 85  1  0
  4 86  1  0
  5 87  1  0
  7 88  1  0
  8 89  1  0
  9 90  1  0
 16 91  1  0
 18 92  1  0
 19 93  1  0
 20 94  1  0
 21 95  1  0
 42 96  1  0
 43 97  1  0
 44 98  1  0
 45 99  1  0
 46100  1  0
 48101  1  0
 49102  1  0
 50103  1  0
 57104  1  0
 59105  1  0
 60106  1  0
 61107  1  0
 62108  1  0
M  END
>  <PDBID>  (1) 
5BTC

>  <PDB ID>  (1) 
5BTC

>  <Generic Name>  (1) 
Ciprofloxacin

>  <Brand Name>  (1) 
Act Ciprofloxacin#Apo-ciproflox#Auro-ciprofloxacin#Bio-ciprofloxacin#Ciloxan#Cipro#Cipro 100 - Tab 100mg#Cipro 250 - Tab 250mg#Cipro 500 - Tab 500mg#Cipro 750 - Tab 750mg#Cipro HC#Cipro HC Otic Suspension#Cipro I.V. - Liq 10mg/ml#Cipro I.V. Minibags 2mg/ml#Cipro IV 10mg/ml#Cipro Oral Suspension 10%#Cipro Tab 100mg#Cipro Tab 250mg#Cipro Tab 500mg#Cipro Tab 750mg#Cipro XL#Ciprodex#Ciprofloxacin#Ciprofloxacin Extended-release#Ciprofloxacin Hydrochloride#Ciprofloxacin Injection#Ciprofloxacin Injection USP#Ciprofloxacin Injection, USP#Ciprofloxacin Intravenous Infusion#Ciprofloxacin Intravenous Infusion BP#Ciprofloxacin Intravenous Infusion, BP#Ciprofloxacin Omega#Ciprofloxacin Otic#Ciprofloxacin Tablets#Ciprofloxacin Tablets USP - 100 mg#Ciprofloxacin Tablets USP - 250 mg#Ciprofloxacin Tablets USP - 500 mg#Ciprofloxacin Tablets USP - 750 mg#Ciprofloxacin-250#Ciprofloxacin-500#Ciprofloxacin-750#Dom-ciprofloxacin#Ipg-ciprofloxacin#Jamp-ciprofloxacin#Mar-ciprofloxacin#Mint-ciproflox#Mint-ciprofloxacin#Mylan-ciprofloxacin#Mylan-ciprofloxacin XL#Nu-ciproflox#Nu-ciprofloxacin Tablets#Otiprio#Otixal#Otovel#PHL-ciprofloxacin#PMS-ciprofloxacin#PMS-ciprofloxacin 0.3%#PMS-ciprofloxacin XL#Priva-ciprofloxacin#Pro-ciprofloxacin#Proquin XR#Q-ciprofloxacin#Ran-ciproflox#Ran-ciprofloxacin#Ratio-ciprofloxacin#Riva-ciprofloxacin#Sandoz Ciprofloxacin#Septa-ciprofloxacin#Taro-ciprofloxacin#Teva-ciprofloxacin#Van-ciprofloxacin#Bacquinor#Baycip#Ciflox#Cifloxin#Ciprinol#Ciprobay#Ciprocinol#Ciprodar#Ciproxan#Ciproxin#Flociprin#Proquin

>  <DrugBank ID>  (1) 
DB00537

>  <ATC Codes>  (1) 
J01MA02#J01RA11#J01RA12#S02AA15#S03AA07#S01AE03#J01RA10

>  <Ligand ID>  (1) 
CPF

>  <Target Name>  (1) 
DNA gyrase subunit A

>  <UniProt ID>  (1) 
P43700

>  <PDB ID.1>  (1) 
5BTC

>  <Seq. Identity>  (1) 
48%

$$$$
