PDB_DB01606_08
     RDKit          3D

 42 44  0  0  0  0  0  0  0  0999 V2000
   -0.1936   -0.6372   -1.3029 S   0  0  0  0  0  0  0  0  0  0  0  0
   -0.0436   -0.3805    0.5164 C   0  0  1  0  0  0  0  0  0  0  0  0
   -1.3794    0.2742    0.8131 C   0  0  2  0  0  0  0  0  0  0  0  0
   -1.8890   -0.2629   -1.3174 C   0  0  2  0  0  0  0  0  0  0  0  0
   -2.4006    0.8060   -2.2266 C   0  0  0  0  0  0  0  0  0  0  0  0
   -2.9169    1.3376   -0.8639 C   0  0  2  0  0  0  0  0  0  0  0  0
   -2.3167   -0.5932    1.6145 C   0  0  0  0  0  0  0  0  0  0  0  0
   -1.7794    0.8118   -0.3532 N   0  0  0  0  0  0  0  0  0  0  0  0
    0.1239   -1.7224    1.1663 C   0  0  0  0  0  0  0  0  0  0  0  0
    1.0861    0.5430    0.8117 C   0  0  0  0  0  0  0  0  0  0  0  0
    4.4675    0.7957   -0.3076 C   0  0  0  0  0  0  0  0  0  0  0  0
    3.4284    1.0522    0.7479 C   0  0  0  0  0  0  0  0  0  0  0  0
    2.3683    0.1308    0.4298 N   0  0  0  0  0  0  0  0  0  0  0  0
    2.6080   -0.4331   -0.7753 N   0  0  0  0  0  0  0  0  0  0  0  0
    3.6914    0.2372   -1.3703 N   0  0  0  0  0  0  0  0  0  0  0  0
    0.7207    0.4954   -2.2917 O   0  0  0  0  0  0  0  0  0  0  0  0
    0.1296   -2.2721   -1.8526 O   0  0  0  0  0  0  0  0  0  0  0  0
   -4.1691    0.8781   -0.5435 O   0  0  0  0  0  0  0  0  0  0  0  0
   -2.7600   -1.7259    0.9652 O   0  0  0  0  0  0  0  0  0  0  0  0
   -1.7828   -0.9299    2.8668 O   0  0  0  0  0  0  0  0  0  0  0  0
   -1.1462    1.1450    1.5512 H   0  0  0  0  0  0  0  0  0  0  0  0
   -2.6126   -1.0397   -1.1863 H   0  0  0  0  0  0  0  0  0  0  0  0
   -3.2699    0.5416   -2.8489 H   0  0  0  0  0  0  0  0  0  0  0  0
   -1.6300    1.4429   -2.6779 H   0  0  0  0  0  0  0  0  0  0  0  0
   -2.9439    2.4568   -0.9625 H   0  0  0  0  0  0  0  0  0  0  0  0
   -3.2279    0.0256    1.9055 H   0  0  0  0  0  0  0  0  0  0  0  0
    0.3198   -1.6129    2.2457 H   0  0  0  0  0  0  0  0  0  0  0  0
   -0.6104   -2.4658    0.8712 H   0  0  0  0  0  0  0  0  0  0  0  0
    1.1095   -2.1214    0.7727 H   0  0  0  0  0  0  0  0  0  0  0  0
    0.8678    1.5414    0.3121 H   0  0  0  0  0  0  0  0  0  0  0  0
    1.1101    0.8176    1.9031 H   0  0  0  0  0  0  0  0  0  0  0  0
    5.2430    0.0851    0.0413 H   0  0  0  0  0  0  0  0  0  0  0  0
    4.9148    1.7452   -0.6839 H   0  0  0  0  0  0  0  0  0  0  0  0
    3.1081    2.1070    0.6689 H   0  0  0  0  0  0  0  0  0  0  0  0
    3.8432    0.7954    1.7371 H   0  0  0  0  0  0  0  0  0  0  0  0
    2.7865   -1.4666   -0.7574 H   0  0  0  0  0  0  0  0  0  0  0  0
    3.4342    0.8786   -2.1245 H   0  0  0  0  0  0  0  0  0  0  0  0
    0.6243    1.3731   -1.8729 H   0  0  0  0  0  0  0  0  0  0  0  0
    1.0499   -2.3399   -2.1369 H   0  0  0  0  0  0  0  0  0  0  0  0
   -4.5526    1.4991    0.1317 H   0  0  0  0  0  0  0  0  0  0  0  0
   -2.9288   -2.4867    1.5390 H   0  0  0  0  0  0  0  0  0  0  0  0
   -2.4816   -1.3265    3.4253 H   0  0  0  0  0  0  0  0  0  0  0  0
  1  2  1  0
  2  3  1  0
  1  4  1  0
  4  5  1  0
  5  6  1  0
  3  7  1  0
  3  8  1  0
  4  8  1  0
  6  8  1  0
  2  9  1  1
  2 10  1  0
 11 12  1  0
 10 13  1  0
 12 13  1  0
 13 14  1  0
 11 15  1  0
 14 15  1  0
  1 16  1  0
  1 17  1  0
  6 18  1  0
  7 19  1  0
  7 20  1  0
  3 21  1  1
  4 22  1  1
  5 23  1  0
  5 24  1  0
  6 25  1  6
  7 26  1  0
  9 27  1  0
  9 28  1  0
  9 29  1  0
 10 30  1  0
 10 31  1  0
 11 32  1  0
 11 33  1  0
 12 34  1  0
 12 35  1  0
 14 36  1  0
 15 37  1  0
 16 38  1  0
 17 39  1  0
 18 40  1  0
 19 41  1  0
 20 42  1  0
M  END
>  <PDBID>  (1) 
1VM1

>  <PDB ID>  (1) 
1VM1

>  <Generic Name>  (1) 
Tazobactam

>  <Brand Name>  (1) 
Jamp-pip/taz#Mylan-piperacillin and Tazobactam for Injection#Piperacillin / Tazobactam Powder for Injection#Piperacillin Sodium/tazobactam Sodium Powder for Injection#Piperacillin and Tazobactam#Piperacillin and Tazobactam for Injection#Piperacillin, Tazobactam#Piperacillin/tazobactam for Injection#Tazocin#Tazocin Pws IV 2g Piperacillin-.25g Tazobac.#Tazocin Pws IV 3g Piperacillin-.375g Tazobac#Tazocin Pws IV 4g Piperacillin-.5g Tazobac.#Vpi-piperacillin and Tazobactam for Injection#Zerbaxa#Zosyn#Zosyn In Galaxy Containers#Zosyn Pharmacy Bulk Package

>  <DrugBank ID>  (1) 
DB01606

>  <ATC Codes>  (1) 
J01CG02

>  <Ligand ID>  (1) 
TAZ

>  <Target Name>  (1) 
Beta-lactamase TEM

>  <UniProt ID>  (1) 
P62594

>  <PDB ID.1>  (1) 
1VM1

>  <Seq. Identity>  (1) 
66%

$$$$
