PDB_DB08906_00
     RDKit          3D

160168  0  0  0  0  0  0  0  0999 V2000
   -3.6295   -0.2337   -1.9083 C   0  0  0  0  0  0  0  0  0  0  0  0
   -2.3411    0.4809   -1.7380 C   0  0  2  0  0  0  0  0  0  0  0  0
   -1.1877   -0.5277   -1.8580 C   0  0  0  0  0  0  0  0  0  0  0  0
   -0.2527   -0.1404   -0.7847 C   0  0  1  0  0  0  0  0  0  0  0  0
    1.2084   -0.3864   -1.0170 C   0  0  2  0  0  0  0  0  0  0  0  0
    1.4741   -1.8300   -1.2491 C   0  0  0  0  0  0  0  0  0  0  0  0
    2.6130   -2.4377   -0.5325 C   0  0  2  0  0  0  0  0  0  0  0  0
    2.1645   -3.2313    0.5396 F   0  0  0  0  0  0  0  0  0  0  0  0
    3.7096   -1.5517   -0.1003 C   0  0  0  0  0  0  0  0  0  0  0  0
    4.2355   -2.0705    1.2451 C   0  0  0  0  0  0  0  0  0  0  0  0
    5.5766   -1.4939    1.5727 C   0  0  0  0  0  0  0  0  0  0  0  0
    5.7503   -1.5480    2.9567 O   0  0  0  0  0  0  0  0  0  0  0  0
    5.5880   -0.0325    1.1662 C   0  0  0  0  0  0  0  0  0  0  0  0
    4.1523    0.4455    1.2169 C   0  0  0  0  0  0  0  0  0  0  0  0
    3.3848   -0.0877   -0.0034 C   0  0  1  0  0  0  0  0  0  0  0  0
    3.9322    0.6353   -1.1911 C   0  0  0  0  0  0  0  0  0  0  0  0
    1.9294    0.0685    0.2264 C   0  0  2  0  0  0  0  0  0  0  0  0
    1.5747   -0.8537    1.2246 F   0  0  0  0  0  0  0  0  0  0  0  0
    1.5231    1.4060    0.7521 C   0  0  1  0  0  0  0  0  0  0  0  0
    2.2444    2.4673    0.1966 O   0  0  0  0  0  0  0  0  0  0  0  0
    0.0575    1.6589    0.7690 C   0  0  0  0  0  0  0  0  0  0  0  0
   -0.5550    1.3314   -0.5726 C   0  0  1  0  0  0  0  0  0  0  0  0
   -0.1050    2.2384   -1.6314 C   0  0  0  0  0  0  0  0  0  0  0  0
   -2.1053    1.1945   -0.4475 C   0  0  2  0  0  0  0  0  0  0  0  0
   -2.2407    0.4711    0.6449 O   0  0  0  0  0  0  0  0  0  0  0  0
   -3.2654   -0.1642    1.1524 C   0  0  0  0  0  0  0  0  0  0  0  0
   -3.5703    0.4443    2.4566 O   0  0  0  0  0  0  0  0  0  0  0  0
   -2.9157   -1.5683    1.5831 C   0  0  0  0  0  0  0  0  0  0  0  0
   -4.0788   -2.2227    2.2951 C   0  0  0  0  0  0  0  0  0  0  0  0
   -4.5307   -3.2566    1.2924 C   0  0  0  0  0  0  0  0  0  0  0  0
   -3.2899   -3.4839    0.4716 C   0  0  0  0  0  0  0  0  0  0  0  0
   -2.4640   -2.4111    0.6317 O   0  0  0  0  0  0  0  0  0  0  0  0
   -2.6455    2.5876   -0.4222 C   0  0  0  0  0  0  0  0  0  0  0  0
   -3.9963    2.6569   -0.1100 O   0  0  0  0  0  0  0  0  0  0  0  0
   -2.5552    3.3796   -2.0663 S   0  0  0  0  0  0  0  0  0  0  0  0
   -3.2222    5.0591   -1.9621 C   0  0  0  0  0  0  0  0  0  0  0  0
   -2.3638    5.7859   -1.1533 F   0  0  0  0  0  0  0  0  0  0  0  0
   -3.6295   -0.2337   -1.9083 C   0  0  0  0  0  0  0  0  0  0  0  0
   -2.3411    0.4809   -1.7380 C   0  0  2  0  0  0  0  0  0  0  0  0
   -1.1877   -0.5277   -1.8580 C   0  0  0  0  0  0  0  0  0  0  0  0
   -0.2527   -0.1404   -0.7847 C   0  0  1  0  0  0  0  0  0  0  0  0
    1.2084   -0.3864   -1.0170 C   0  0  2  0  0  0  0  0  0  0  0  0
    1.4741   -1.8300   -1.2491 C   0  0  0  0  0  0  0  0  0  0  0  0
    2.6130   -2.4377   -0.5325 C   0  0  2  0  0  0  0  0  0  0  0  0
    2.1645   -3.2313    0.5396 F   0  0  0  0  0  0  0  0  0  0  0  0
    3.7096   -1.5517   -0.1003 C   0  0  0  0  0  0  0  0  0  0  0  0
    4.2355   -2.0705    1.2451 C   0  0  0  0  0  0  0  0  0  0  0  0
    5.5766   -1.4939    1.5727 C   0  0  0  0  0  0  0  0  0  0  0  0
    5.7503   -1.5480    2.9567 O   0  0  0  0  0  0  0  0  0  0  0  0
    5.5880   -0.0325    1.1662 C   0  0  0  0  0  0  0  0  0  0  0  0
    4.1523    0.4455    1.2169 C   0  0  0  0  0  0  0  0  0  0  0  0
    3.3848   -0.0877   -0.0034 C   0  0  1  0  0  0  0  0  0  0  0  0
    3.9322    0.6353   -1.1911 C   0  0  0  0  0  0  0  0  0  0  0  0
    1.9294    0.0685    0.2264 C   0  0  2  0  0  0  0  0  0  0  0  0
    1.5747   -0.8537    1.2246 F   0  0  0  0  0  0  0  0  0  0  0  0
    1.5231    1.4060    0.7521 C   0  0  1  0  0  0  0  0  0  0  0  0
    2.2444    2.4673    0.1966 O   0  0  0  0  0  0  0  0  0  0  0  0
    0.0575    1.6589    0.7690 C   0  0  0  0  0  0  0  0  0  0  0  0
   -0.5550    1.3314   -0.5726 C   0  0  1  0  0  0  0  0  0  0  0  0
   -0.1050    2.2384   -1.6314 C   0  0  0  0  0  0  0  0  0  0  0  0
   -2.1053    1.1945   -0.4475 C   0  0  2  0  0  0  0  0  0  0  0  0
   -2.2407    0.4711    0.6449 O   0  0  0  0  0  0  0  0  0  0  0  0
   -3.2654   -0.1642    1.1524 C   0  0  0  0  0  0  0  0  0  0  0  0
   -3.5703    0.4443    2.4566 O   0  0  0  0  0  0  0  0  0  0  0  0
   -2.9157   -1.5683    1.5831 C   0  0  0  0  0  0  0  0  0  0  0  0
   -4.0788   -2.2227    2.2951 C   0  0  0  0  0  0  0  0  0  0  0  0
   -4.5307   -3.2566    1.2924 C   0  0  0  0  0  0  0  0  0  0  0  0
   -3.2899   -3.4839    0.4716 C   0  0  0  0  0  0  0  0  0  0  0  0
   -2.4640   -2.4111    0.6317 O   0  0  0  0  0  0  0  0  0  0  0  0
   -2.6455    2.5876   -0.4222 C   0  0  0  0  0  0  0  0  0  0  0  0
   -3.9963    2.6569   -0.1100 O   0  0  0  0  0  0  0  0  0  0  0  0
   -2.5552    3.3796   -2.0663 S   0  0  0  0  0  0  0  0  0  0  0  0
   -3.2222    5.0591   -1.9621 C   0  0  0  0  0  0  0  0  0  0  0  0
   -2.3638    5.7859   -1.1533 F   0  0  0  0  0  0  0  0  0  0  0  0
   -4.5109    0.3936   -1.6032 H   0  0  0  0  0  0  0  0  0  0  0  0
   -3.7340   -0.4655   -3.0223 H   0  0  0  0  0  0  0  0  0  0  0  0
   -3.6269   -1.2093   -1.4360 H   0  0  0  0  0  0  0  0  0  0  0  0
   -2.2751    1.2029   -2.6128 H   0  0  0  0  0  0  0  0  0  0  0  0
   -0.6966   -0.3543   -2.8423 H   0  0  0  0  0  0  0  0  0  0  0  0
   -1.5527   -1.5693   -1.8137 H   0  0  0  0  0  0  0  0  0  0  0  0
   -0.5002   -0.6223    0.1968 H   0  0  0  0  0  0  0  0  0  0  0  0
    1.5048    0.1673   -1.9280 H   0  0  0  0  0  0  0  0  0  0  0  0
    1.5286   -2.0342   -2.3616 H   0  0  0  0  0  0  0  0  0  0  0  0
    0.5447   -2.4040   -0.9512 H   0  0  0  0  0  0  0  0  0  0  0  0
    3.0665   -3.2133   -1.2268 H   0  0  0  0  0  0  0  0  0  0  0  0
    4.6092   -1.6403   -0.7808 H   0  0  0  0  0  0  0  0  0  0  0  0
    3.4909   -2.0026    2.0407 H   0  0  0  0  0  0  0  0  0  0  0  0
    4.3974   -3.1746    1.0689 H   0  0  0  0  0  0  0  0  0  0  0  0
    6.4145   -2.0291    1.0835 H   0  0  0  0  0  0  0  0  0  0  0  0
    5.5755   -0.6488    3.3657 H   0  0  0  0  0  0  0  0  0  0  0  0
    6.0140    0.0208    0.1497 H   0  0  0  0  0  0  0  0  0  0  0  0
    6.2087    0.5780    1.8278 H   0  0  0  0  0  0  0  0  0  0  0  0
    3.6900    0.0240    2.1329 H   0  0  0  0  0  0  0  0  0  0  0  0
    4.0788    1.5391    1.3021 H   0  0  0  0  0  0  0  0  0  0  0  0
    4.8260    1.2797   -0.9475 H   0  0  0  0  0  0  0  0  0  0  0  0
    4.3402   -0.1079   -1.9313 H   0  0  0  0  0  0  0  0  0  0  0  0
    3.2411    1.2677   -1.7347 H   0  0  0  0  0  0  0  0  0  0  0  0
    1.8451    1.4088    1.8408 H   0  0  0  0  0  0  0  0  0  0  0  0
    2.0100    3.2632    0.7600 H   0  0  0  0  0  0  0  0  0  0  0  0
   -0.1338    2.7081    1.0124 H   0  0  0  0  0  0  0  0  0  0  0  0
   -0.4204    0.9654    1.5121 H   0  0  0  0  0  0  0  0  0  0  0  0
   -0.2129    3.2856   -1.2544 H   0  0  0  0  0  0  0  0  0  0  0  0
    1.0086    2.1139   -1.7420 H   0  0  0  0  0  0  0  0  0  0  0  0
   -0.4989    2.0553   -2.6217 H   0  0  0  0  0  0  0  0  0  0  0  0
   -4.2310   -0.2237    0.6248 H   0  0  0  0  0  0  0  0  0  0  0  0
   -4.3738    0.9942    2.3468 H   0  0  0  0  0  0  0  0  0  0  0  0
   -2.1076   -1.4903    2.3798 H   0  0  0  0  0  0  0  0  0  0  0  0
   -4.8866   -1.5048    2.5477 H   0  0  0  0  0  0  0  0  0  0  0  0
   -3.7717   -2.7148    3.2365 H   0  0  0  0  0  0  0  0  0  0  0  0
   -4.7927   -4.1836    1.8430 H   0  0  0  0  0  0  0  0  0  0  0  0
   -5.4049   -2.9461    0.7130 H   0  0  0  0  0  0  0  0  0  0  0  0
   -3.6012   -3.6314   -0.5806 H   0  0  0  0  0  0  0  0  0  0  0  0
   -2.7296   -4.3927    0.8386 H   0  0  0  0  0  0  0  0  0  0  0  0
   -2.0804    3.2067    0.2773 H   0  0  0  0  0  0  0  0  0  0  0  0
   -4.5785    2.6794   -0.8885 H   0  0  0  0  0  0  0  0  0  0  0  0
   -4.2267    5.0986   -1.5226 H   0  0  0  0  0  0  0  0  0  0  0  0
   -3.2511    5.5316   -2.9450 H   0  0  0  0  0  0  0  0  0  0  0  0
   -4.5109    0.3936   -1.6032 H   0  0  0  0  0  0  0  0  0  0  0  0
   -3.7340   -0.4655   -3.0223 H   0  0  0  0  0  0  0  0  0  0  0  0
   -3.6269   -1.2093   -1.4360 H   0  0  0  0  0  0  0  0  0  0  0  0
   -2.2751    1.2029   -2.6128 H   0  0  0  0  0  0  0  0  0  0  0  0
   -0.6966   -0.3543   -2.8423 H   0  0  0  0  0  0  0  0  0  0  0  0
   -1.5527   -1.5693   -1.8137 H   0  0  0  0  0  0  0  0  0  0  0  0
   -0.5002   -0.6223    0.1968 H   0  0  0  0  0  0  0  0  0  0  0  0
    1.5048    0.1673   -1.9280 H   0  0  0  0  0  0  0  0  0  0  0  0
    1.5286   -2.0342   -2.3616 H   0  0  0  0  0  0  0  0  0  0  0  0
    0.5447   -2.4040   -0.9512 H   0  0  0  0  0  0  0  0  0  0  0  0
    3.0665   -3.2133   -1.2268 H   0  0  0  0  0  0  0  0  0  0  0  0
    4.6092   -1.6403   -0.7808 H   0  0  0  0  0  0  0  0  0  0  0  0
    3.4909   -2.0026    2.0407 H   0  0  0  0  0  0  0  0  0  0  0  0
    4.3974   -3.1746    1.0689 H   0  0  0  0  0  0  0  0  0  0  0  0
    6.4145   -2.0291    1.0835 H   0  0  0  0  0  0  0  0  0  0  0  0
    5.5755   -0.6488    3.3657 H   0  0  0  0  0  0  0  0  0  0  0  0
    6.0140    0.0208    0.1497 H   0  0  0  0  0  0  0  0  0  0  0  0
    6.2087    0.5780    1.8278 H   0  0  0  0  0  0  0  0  0  0  0  0
    3.6900    0.0240    2.1329 H   0  0  0  0  0  0  0  0  0  0  0  0
    4.0788    1.5391    1.3021 H   0  0  0  0  0  0  0  0  0  0  0  0
    4.8260    1.2797   -0.9475 H   0  0  0  0  0  0  0  0  0  0  0  0
    4.3402   -0.1079   -1.9313 H   0  0  0  0  0  0  0  0  0  0  0  0
    3.2411    1.2677   -1.7347 H   0  0  0  0  0  0  0  0  0  0  0  0
    1.8451    1.4088    1.8408 H   0  0  0  0  0  0  0  0  0  0  0  0
    2.0100    3.2632    0.7600 H   0  0  0  0  0  0  0  0  0  0  0  0
   -0.1338    2.7081    1.0124 H   0  0  0  0  0  0  0  0  0  0  0  0
   -0.4204    0.9654    1.5121 H   0  0  0  0  0  0  0  0  0  0  0  0
   -0.2129    3.2856   -1.2544 H   0  0  0  0  0  0  0  0  0  0  0  0
    1.0086    2.1139   -1.7420 H   0  0  0  0  0  0  0  0  0  0  0  0
   -0.4989    2.0553   -2.6217 H   0  0  0  0  0  0  0  0  0  0  0  0
   -4.2310   -0.2237    0.6248 H   0  0  0  0  0  0  0  0  0  0  0  0
   -4.3738    0.9942    2.3468 H   0  0  0  0  0  0  0  0  0  0  0  0
   -2.1076   -1.4903    2.3798 H   0  0  0  0  0  0  0  0  0  0  0  0
   -4.8866   -1.5048    2.5477 H   0  0  0  0  0  0  0  0  0  0  0  0
   -3.7717   -2.7148    3.2365 H   0  0  0  0  0  0  0  0  0  0  0  0
   -4.7927   -4.1836    1.8430 H   0  0  0  0  0  0  0  0  0  0  0  0
   -5.4049   -2.9461    0.7130 H   0  0  0  0  0  0  0  0  0  0  0  0
   -3.6012   -3.6314   -0.5806 H   0  0  0  0  0  0  0  0  0  0  0  0
   -2.7296   -4.3927    0.8386 H   0  0  0  0  0  0  0  0  0  0  0  0
   -2.0804    3.2067    0.2773 H   0  0  0  0  0  0  0  0  0  0  0  0
   -4.5785    2.6794   -0.8885 H   0  0  0  0  0  0  0  0  0  0  0  0
   -4.2267    5.0986   -1.5226 H   0  0  0  0  0  0  0  0  0  0  0  0
   -3.2511    5.5316   -2.9450 H   0  0  0  0  0  0  0  0  0  0  0  0
  1  2  1  0
  2  3  1  0
  3  4  1  0
  4  5  1  0
  5  6  1  0
  6  7  1  0
  7  8  1  0
  7  9  1  0
  9 10  1  0
 10 11  1  0
 11 12  1  0
 11 13  1  0
 13 14  1  0
  9 15  1  0
 14 15  1  0
 15 16  1  6
  5 17  1  0
 15 17  1  0
 17 18  1  1
 17 19  1  0
 19 20  1  0
 19 21  1  0
  4 22  1  0
 21 22  1  0
 22 23  1  6
  2 24  1  0
 22 24  1  0
 24 25  1  1
 25 26  1  0
 26 27  1  0
 26 28  1  0
 28 29  1  0
 29 30  1  0
 30 31  1  0
 28 32  1  0
 31 32  1  0
 24 33  1  0
 33 34  1  0
 33 35  1  0
 35 36  1  0
 36 37  1  0
 38 39  1  0
 39 40  1  0
 40 41  1  0
 41 42  1  0
 42 43  1  0
 43 44  1  0
 44 45  1  0
 44 46  1  0
 46 47  1  0
 47 48  1  0
 48 49  1  0
 48 50  1  0
 50 51  1  0
 46 52  1  0
 51 52  1  0
 52 53  1  6
 42 54  1  0
 52 54  1  0
 54 55  1  1
 54 56  1  0
 56 57  1  0
 56 58  1  0
 41 59  1  0
 58 59  1  0
 59 60  1  6
 39 61  1  0
 59 61  1  0
 61 62  1  1
 62 63  1  0
 63 64  1  0
 63 65  1  0
 65 66  1  0
 66 67  1  0
 67 68  1  0
 65 69  1  0
 68 69  1  0
 61 70  1  0
 70 71  1  0
 70 72  1  0
 72 73  1  0
 73 74  1  0
  1 75  1  0
  1 76  1  0
  1 77  1  0
  2 78  1  6
  3 79  1  0
  3 80  1  0
  4 81  1  1
  5 82  1  6
  6 83  1  0
  6 84  1  0
  7 85  1  6
  9 86  1  0
 10 87  1  0
 10 88  1  0
 11 89  1  0
 12 90  1  0
 13 91  1  0
 13 92  1  0
 14 93  1  0
 14 94  1  0
 16 95  1  0
 16 96  1  0
 16 97  1  0
 19 98  1  1
 20 99  1  0
 21100  1  0
 21101  1  0
 23102  1  0
 23103  1  0
 23104  1  0
 26105  1  0
 27106  1  0
 28107  1  0
 29108  1  0
 29109  1  0
 30110  1  0
 30111  1  0
 31112  1  0
 31113  1  0
 33114  1  0
 34115  1  0
 36116  1  0
 36117  1  0
 38118  1  0
 38119  1  0
 38120  1  0
 39121  1  6
 40122  1  0
 40123  1  0
 41124  1  1
 42125  1  6
 43126  1  0
 43127  1  0
 44128  1  6
 46129  1  0
 47130  1  0
 47131  1  0
 48132  1  0
 49133  1  0
 50134  1  0
 50135  1  0
 51136  1  0
 51137  1  0
 53138  1  0
 53139  1  0
 53140  1  0
 56141  1  1
 57142  1  0
 58143  1  0
 58144  1  0
 60145  1  0
 60146  1  0
 60147  1  0
 63148  1  0
 64149  1  0
 65150  1  0
 66151  1  0
 66152  1  0
 67153  1  0
 67154  1  0
 68155  1  0
 68156  1  0
 70157  1  0
 71158  1  0
 73159  1  0
 73160  1  0
M  END
>  <PDBID>  (1) 
3CLD

>  <PDB ID>  (1) 
3CLD

>  <Generic Name>  (1) 
Fluticasone furoate

>  <Brand Name>  (1) 
Arnuity Ellipta#Avamys#Breo Ellipta#Flonase Sensimist Allergy Relief#Veramyst

>  <DrugBank ID>  (1) 
DB08906

>  <ATC Codes>  (1) 
R03AK10#R01AD12#R03BA09

>  <Ligand ID>  (1) 
GW6

>  <Target Name>  (1) 
Glucocorticoid receptor

>  <UniProt ID>  (1) 
P04150

>  <PDB ID.1>  (1) 
3CLD

>  <Seq. Identity>  (1) 
99%

$$$$
