PDB_DB00307_04
     RDKit          3D

 70 72  0  0  0  0  0  0  0  0999 V2000
    7.2048   -0.2932    0.4405 O   0  0  0  0  0  0  0  0  0  0  0  0
    6.6172    0.6194   -0.4090 C   0  0  0  0  0  0  0  0  0  0  0  0
    7.0900    0.5082   -1.7282 O   0  0  0  0  0  0  0  0  0  0  0  0
    5.1226    0.5694   -0.3962 C   0  0  0  0  0  0  0  0  0  0  0  0
    4.6035   -0.7887   -0.8135 C   0  0  0  0  0  0  0  0  0  0  0  0
    4.5795    0.8937    0.9471 C   0  0  0  0  0  0  0  0  0  0  0  0
    3.0365    0.7282    0.9368 C   0  0  0  0  0  0  0  0  0  0  0  0
    2.6223   -0.6784    0.7241 C   0  0  0  0  0  0  0  0  0  0  0  0
    3.8502   -1.4494    0.3048 C   0  0  0  0  0  0  0  0  0  0  0  0
    1.3829   -0.9783   -0.0172 C   0  0  0  0  0  0  0  0  0  0  0  0
    1.2388   -2.5106   -0.1054 C   0  0  0  0  0  0  0  0  0  0  0  0
    0.0989   -0.4231    0.4766 C   0  0  1  0  0  0  0  0  0  0  0  0
   -0.0285    1.0510    0.4892 C   0  0  0  0  0  0  0  0  0  0  0  0
   -0.0624    1.6822   -0.8951 C   0  0  0  0  0  0  0  0  0  0  0  0
   -1.4193    1.4264    1.0720 C   0  0  0  0  0  0  0  0  0  0  0  0
   -1.0841   -1.1846   -0.0636 C   0  0  0  0  0  0  0  0  0  0  0  0
   -2.4240   -0.6089    0.3486 C   0  0  0  0  0  0  0  0  0  0  0  0
   -3.5096   -1.3624   -0.3333 C   0  0  0  0  0  0  0  0  0  0  0  0
   -3.0051   -2.2581   -1.4502 C   0  0  0  0  0  0  0  0  0  0  0  0
   -4.2784   -2.2699    0.6253 C   0  0  0  0  0  0  0  0  0  0  0  0
   -4.5530   -0.4452   -0.9624 C   0  0  0  0  0  0  0  0  0  0  0  0
   -4.9091    0.6252    0.0355 C   0  0  0  0  0  0  0  0  0  0  0  0
   -3.7427    1.5271    0.2258 C   0  0  0  0  0  0  0  0  0  0  0  0
   -2.4063    0.8522    0.0781 C   0  0  0  0  0  0  0  0  0  0  0  0
   -3.8297    2.2215    1.5897 C   0  0  0  0  0  0  0  0  0  0  0  0
   -3.8189    2.6311   -0.8100 C   0  0  0  0  0  0  0  0  0  0  0  0
    7.7165   -0.9581   -0.1153 H   0  0  0  0  0  0  0  0  0  0  0  0
    6.9162    1.6390   -0.0554 H   0  0  0  0  0  0  0  0  0  0  0  0
    6.6062    1.2376   -2.2282 H   0  0  0  0  0  0  0  0  0  0  0  0
    4.7598    1.3621   -1.1046 H   0  0  0  0  0  0  0  0  0  0  0  0
    5.4864   -1.4251   -1.0310 H   0  0  0  0  0  0  0  0  0  0  0  0
    4.0469   -0.6733   -1.7363 H   0  0  0  0  0  0  0  0  0  0  0  0
    5.0482    0.4442    1.8097 H   0  0  0  0  0  0  0  0  0  0  0  0
    4.7041    2.0133    1.0731 H   0  0  0  0  0  0  0  0  0  0  0  0
    2.7348    1.4486    0.1650 H   0  0  0  0  0  0  0  0  0  0  0  0
    2.7799    1.1228    1.9665 H   0  0  0  0  0  0  0  0  0  0  0  0
    2.4241   -1.0857    1.7866 H   0  0  0  0  0  0  0  0  0  0  0  0
    3.7354   -2.5061    0.1378 H   0  0  0  0  0  0  0  0  0  0  0  0
    4.5564   -1.3841    1.1944 H   0  0  0  0  0  0  0  0  0  0  0  0
    1.5770   -0.6573   -1.0955 H   0  0  0  0  0  0  0  0  0  0  0  0
    0.3451   -2.7724   -0.7217 H   0  0  0  0  0  0  0  0  0  0  0  0
    2.0615   -2.9740   -0.6823 H   0  0  0  0  0  0  0  0  0  0  0  0
    1.1388   -2.9113    0.9080 H   0  0  0  0  0  0  0  0  0  0  0  0
    0.0904   -0.7039    1.6029 H   0  0  0  0  0  0  0  0  0  0  0  0
    0.6582    1.5323    1.1804 H   0  0  0  0  0  0  0  0  0  0  0  0
    0.9130    2.1873   -1.0394 H   0  0  0  0  0  0  0  0  0  0  0  0
   -0.1723    0.9518   -1.7058 H   0  0  0  0  0  0  0  0  0  0  0  0
   -0.8044    2.5331   -0.9508 H   0  0  0  0  0  0  0  0  0  0  0  0
   -1.4943    0.8745    2.0441 H   0  0  0  0  0  0  0  0  0  0  0  0
   -1.4758    2.5077    1.1784 H   0  0  0  0  0  0  0  0  0  0  0  0
   -1.0854   -2.1905    0.4524 H   0  0  0  0  0  0  0  0  0  0  0  0
   -1.0716   -1.2379   -1.1479 H   0  0  0  0  0  0  0  0  0  0  0  0
   -2.5709   -0.7423    1.4578 H   0  0  0  0  0  0  0  0  0  0  0  0
   -3.8978   -2.8620   -1.7842 H   0  0  0  0  0  0  0  0  0  0  0  0
   -2.6907   -1.6859   -2.3394 H   0  0  0  0  0  0  0  0  0  0  0  0
   -2.2631   -2.9864   -1.1053 H   0  0  0  0  0  0  0  0  0  0  0  0
   -3.7135   -2.5137    1.5245 H   0  0  0  0  0  0  0  0  0  0  0  0
   -4.6075   -3.2087    0.0948 H   0  0  0  0  0  0  0  0  0  0  0  0
   -5.2341   -1.7909    0.9553 H   0  0  0  0  0  0  0  0  0  0  0  0
   -4.0761    0.0278   -1.8233 H   0  0  0  0  0  0  0  0  0  0  0  0
   -5.4486   -1.0302   -1.1809 H   0  0  0  0  0  0  0  0  0  0  0  0
   -5.7593    1.2092   -0.4242 H   0  0  0  0  0  0  0  0  0  0  0  0
   -5.2496    0.2487    0.9986 H   0  0  0  0  0  0  0  0  0  0  0  0
   -2.0558    0.9773   -0.9667 H   0  0  0  0  0  0  0  0  0  0  0  0
   -4.9152    2.4043    1.7615 H   0  0  0  0  0  0  0  0  0  0  0  0
   -3.3811    1.6300    2.3882 H   0  0  0  0  0  0  0  0  0  0  0  0
   -3.3569    3.2353    1.4895 H   0  0  0  0  0  0  0  0  0  0  0  0
   -3.1532    3.4636   -0.4993 H   0  0  0  0  0  0  0  0  0  0  0  0
   -3.3479    2.2046   -1.7428 H   0  0  0  0  0  0  0  0  0  0  0  0
   -4.8496    2.9599   -0.9994 H   0  0  0  0  0  0  0  0  0  0  0  0
  1  2  1  0
  2  3  1  0
  2  4  1  0
  4  5  1  0
  4  6  1  0
  6  7  1  0
  7  8  1  0
  5  9  1  0
  8  9  1  0
  8 10  1  0
 10 11  1  0
 10 12  1  0
 12 13  1  0
 13 14  1  0
 13 15  1  0
 12 16  1  0
 16 17  1  0
 17 18  1  0
 18 19  1  0
 18 20  1  0
 18 21  1  0
 21 22  1  0
 22 23  1  0
 15 24  1  0
 17 24  1  0
 23 24  1  0
 23 25  1  0
 23 26  1  0
  1 27  1  0
  2 28  1  0
  3 29  1  0
  4 30  1  0
  5 31  1  0
  5 32  1  0
  6 33  1  0
  6 34  1  0
  7 35  1  0
  7 36  1  0
  8 37  1  0
  9 38  1  0
  9 39  1  0
 10 40  1  0
 11 41  1  0
 11 42  1  0
 11 43  1  0
 12 44  1  1
 13 45  1  0
 14 46  1  0
 14 47  1  0
 14 48  1  0
 15 49  1  0
 15 50  1  0
 16 51  1  0
 16 52  1  0
 17 53  1  0
 19 54  1  0
 19 55  1  0
 19 56  1  0
 20 57  1  0
 20 58  1  0
 20 59  1  0
 21 60  1  0
 21 61  1  0
 22 62  1  0
 22 63  1  0
 24 64  1  0
 25 65  1  0
 25 66  1  0
 25 67  1  0
 26 68  1  0
 26 69  1  0
 26 70  1  0
M  END
>  <PDBID>  (1) 
3H0A

>  <PDB ID>  (1) 
3H0A

>  <Generic Name>  (1) 
Bexarotene

>  <Brand Name>  (1) 
Bexarotene#Targretin

>  <DrugBank ID>  (1) 
DB00307

>  <ATC Codes>  (1) 
L01XX25

>  <Ligand ID>  (1) 
9RA

>  <Target Name>  (1) 
Retinoic acid receptor RXR-beta

>  <UniProt ID>  (1) 
P28702

>  <PDB ID.1>  (1) 
3H0A

>  <Seq. Identity>  (1) 
87%

$$$$
