PDB_DB00443_08
     RDKit          3D

130136  0  0  0  0  0  0  0  0999 V2000
   -3.0722    1.7284   -0.7747 C   0  0  0  0  0  0  0  0  0  0  0  0
   -4.5477    1.8376   -0.3668 C   0  0  0  0  0  0  0  0  0  0  0  0
   -5.3217    0.7136   -0.9745 C   0  0  0  0  0  0  0  0  0  0  0  0
   -4.3736   -0.3147   -1.4861 C   0  0  0  0  0  0  0  0  0  0  0  0
   -3.2897   -0.6721   -0.4601 C   0  0  0  0  0  0  0  0  0  0  0  0
   -2.4935   -1.7798   -1.0469 C   0  0  0  0  0  0  0  0  0  0  0  0
   -1.2016   -2.0761   -0.3881 C   0  0  0  0  0  0  0  0  0  0  0  0
   -0.5320   -0.8843    0.2517 C   0  0  2  0  0  0  0  0  0  0  0  0
   -1.0738    0.3636   -0.3755 C   0  0  1  0  0  0  0  0  0  0  0  0
   -2.5113    0.5164   -0.0163 C   0  0  1  0  0  0  0  0  0  0  0  0
   -0.2867    1.6004   -0.0865 C   0  0  2  0  0  0  0  0  0  0  0  0
    1.1832    1.4107   -0.3803 C   0  0  0  0  0  0  0  0  0  0  0  0
    1.6812    0.2814    0.4507 C   0  0  1  0  0  0  0  0  0  0  0  0
    0.9207   -0.9681    0.0064 C   0  0  1  0  0  0  0  0  0  0  0  0
    1.6642   -2.0377    0.7189 C   0  0  0  0  0  0  0  0  0  0  0  0
    3.1199   -1.5394    0.6812 C   0  0  2  0  0  0  0  0  0  0  0  0
    3.0780   -0.1806    0.0897 C   0  0  2  0  0  0  0  0  0  0  0  0
    1.5289    0.5205    1.9305 C   0  0  0  0  0  0  0  0  0  0  0  0
   -2.7262    0.8158    1.4485 C   0  0  0  0  0  0  0  0  0  0  0  0
    4.1404    0.7640    0.4788 C   0  0  0  0  0  0  0  0  0  0  0  0
    5.5045    0.4904   -0.0020 C   0  0  0  0  0  0  0  0  0  0  0  0
    3.8700   -2.5234   -0.2267 C   0  0  0  0  0  0  0  0  0  0  0  0
   -1.0187    0.1724   -1.7620 F   0  0  0  0  0  0  0  0  0  0  0  0
   -6.2118    0.1684   -0.0287 O   0  0  0  0  0  0  0  0  0  0  0  0
   -0.5215    2.1358    1.1709 O   0  0  0  0  0  0  0  0  0  0  0  0
    3.0722   -0.3387   -1.3155 O   0  0  0  0  0  0  0  0  0  0  0  0
    4.1567    0.9258    1.8637 O   0  0  0  0  0  0  0  0  0  0  0  0
    5.5163    0.3209   -1.4069 O   0  0  0  0  0  0  0  0  0  0  0  0
    1.1630   -1.0684   -1.0917 H   0  0  0  0  0  0  0  0  0  0  0  0
   -3.0523    1.7717   -0.5264 C   0  0  0  0  0  0  0  0  0  0  0  0
   -4.5598    1.8416   -0.3766 C   0  0  0  0  0  0  0  0  0  0  0  0
   -5.2704    0.6891   -1.0003 C   0  0  0  0  0  0  0  0  0  0  0  0
   -4.6854   -0.6519   -0.6544 C   0  0  0  0  0  0  0  0  0  0  0  0
   -3.1862   -0.6922   -0.7914 C   0  0  0  0  0  0  0  0  0  0  0  0
   -2.6671   -2.0088   -0.3169 C   0  0  0  0  0  0  0  0  0  0  0  0
   -1.1645   -2.0501   -0.5957 C   0  0  0  0  0  0  0  0  0  0  0  0
   -0.4585   -0.9187    0.1630 C   0  0  2  0  0  0  0  0  0  0  0  0
   -1.0484    0.3657   -0.3529 C   0  0  1  0  0  0  0  0  0  0  0  0
   -2.5080    0.4334   -0.0283 C   0  0  1  0  0  0  0  0  0  0  0  0
   -0.2929    1.5912    0.0659 C   0  0  2  0  0  0  0  0  0  0  0  0
    1.1530    1.4801   -0.3167 C   0  0  0  0  0  0  0  0  0  0  0  0
    1.7417    0.2678    0.2805 C   0  0  1  0  0  0  0  0  0  0  0  0
    0.9725   -0.9711   -0.2075 C   0  0  1  0  0  0  0  0  0  0  0  0
    1.7808   -2.0385    0.4587 C   0  0  0  0  0  0  0  0  0  0  0  0
    3.2212   -1.5314    0.2750 C   0  0  2  0  0  0  0  0  0  0  0  0
    3.0986   -0.1145   -0.2196 C   0  0  2  0  0  0  0  0  0  0  0  0
    1.6777    0.3288    1.7877 C   0  0  0  0  0  0  0  0  0  0  0  0
   -2.8005    0.3634    1.4411 C   0  0  0  0  0  0  0  0  0  0  0  0
    4.1911    0.7897    0.2554 C   0  0  0  0  0  0  0  0  0  0  0  0
    5.5271    0.4989   -0.3300 C   0  0  0  0  0  0  0  0  0  0  0  0
    3.8903   -2.4509   -0.6928 C   0  0  0  0  0  0  0  0  0  0  0  0
   -0.9545    0.3023   -1.7521 F   0  0  0  0  0  0  0  0  0  0  0  0
   -6.5957    0.7092   -0.5531 O   0  0  0  0  0  0  0  0  0  0  0  0
   -0.4909    1.9415    1.3929 O   0  0  0  0  0  0  0  0  0  0  0  0
    3.0401   -0.1591   -1.6102 O   0  0  0  0  0  0  0  0  0  0  0  0
    4.2796    0.8580    1.6378 O   0  0  0  0  0  0  0  0  0  0  0  0
    6.3922    1.5476    0.0515 O   0  0  0  0  0  0  0  0  0  0  0  0
   -3.0035    1.6117   -1.8547 H   0  0  0  0  0  0  0  0  0  0  0  0
   -2.6080    2.6741   -0.3891 H   0  0  0  0  0  0  0  0  0  0  0  0
   -4.6812    1.8103    0.7165 H   0  0  0  0  0  0  0  0  0  0  0  0
   -4.9026    2.8395   -0.7092 H   0  0  0  0  0  0  0  0  0  0  0  0
   -5.8984    1.1131   -1.8230 H   0  0  0  0  0  0  0  0  0  0  0  0
   -3.9568   -0.0846   -2.4674 H   0  0  0  0  0  0  0  0  0  0  0  0
   -4.9576   -1.2729   -1.6142 H   0  0  0  0  0  0  0  0  0  0  0  0
   -3.8473   -1.0704    0.4238 H   0  0  0  0  0  0  0  0  0  0  0  0
   -3.1303   -2.7128   -0.9780 H   0  0  0  0  0  0  0  0  0  0  0  0
   -2.3401   -1.6598   -2.1605 H   0  0  0  0  0  0  0  0  0  0  0  0
   -0.5172   -2.5270   -1.1573 H   0  0  0  0  0  0  0  0  0  0  0  0
   -1.3342   -2.9025    0.3691 H   0  0  0  0  0  0  0  0  0  0  0  0
   -0.7197   -0.9630    1.3393 H   0  0  0  0  0  0  0  0  0  0  0  0
   -0.6379    2.3828   -0.8202 H   0  0  0  0  0  0  0  0  0  0  0  0
    1.2780    1.1309   -1.4446 H   0  0  0  0  0  0  0  0  0  0  0  0
    1.6879    2.3771   -0.1815 H   0  0  0  0  0  0  0  0  0  0  0  0
    1.2891   -2.0925    1.7594 H   0  0  0  0  0  0  0  0  0  0  0  0
    1.5583   -3.0290    0.2794 H   0  0  0  0  0  0  0  0  0  0  0  0
    3.4897   -1.6071    1.7001 H   0  0  0  0  0  0  0  0  0  0  0  0
    2.1823   -0.1208    2.5410 H   0  0  0  0  0  0  0  0  0  0  0  0
    0.4963    0.3599    2.2982 H   0  0  0  0  0  0  0  0  0  0  0  0
    1.7783    1.5734    2.1775 H   0  0  0  0  0  0  0  0  0  0  0  0
   -3.6514    0.2895    1.7840 H   0  0  0  0  0  0  0  0  0  0  0  0
   -1.9141    0.5028    2.0984 H   0  0  0  0  0  0  0  0  0  0  0  0
   -2.8604    1.9230    1.6278 H   0  0  0  0  0  0  0  0  0  0  0  0
    3.8405    1.7790    0.0765 H   0  0  0  0  0  0  0  0  0  0  0  0
    6.1723    1.3579    0.1821 H   0  0  0  0  0  0  0  0  0  0  0  0
    6.0032   -0.3900    0.4092 H   0  0  0  0  0  0  0  0  0  0  0  0
    4.9241   -2.6398    0.1082 H   0  0  0  0  0  0  0  0  0  0  0  0
    3.8344   -2.1999   -1.2854 H   0  0  0  0  0  0  0  0  0  0  0  0
    3.3900   -3.5229   -0.1805 H   0  0  0  0  0  0  0  0  0  0  0  0
   -6.0290   -0.8055    0.0090 H   0  0  0  0  0  0  0  0  0  0  0  0
   -0.4306    3.1038    1.2215 H   0  0  0  0  0  0  0  0  0  0  0  0
    3.2059    0.5319   -1.7713 H   0  0  0  0  0  0  0  0  0  0  0  0
    4.4156    1.8343    2.1422 H   0  0  0  0  0  0  0  0  0  0  0  0
    6.4570    0.0229   -1.6039 H   0  0  0  0  0  0  0  0  0  0  0  0
   -2.7894    1.9319   -1.5728 H   0  0  0  0  0  0  0  0  0  0  0  0
   -2.6394    2.5824    0.1071 H   0  0  0  0  0  0  0  0  0  0  0  0
   -4.8869    1.9358    0.6679 H   0  0  0  0  0  0  0  0  0  0  0  0
   -4.8774    2.7730   -0.8935 H   0  0  0  0  0  0  0  0  0  0  0  0
   -5.2965    0.8508   -2.0974 H   0  0  0  0  0  0  0  0  0  0  0  0
   -5.0254   -1.0333    0.3095 H   0  0  0  0  0  0  0  0  0  0  0  0
   -5.0818   -1.3728   -1.4285 H   0  0  0  0  0  0  0  0  0  0  0  0
   -2.8970   -0.5766   -1.8564 H   0  0  0  0  0  0  0  0  0  0  0  0
   -2.8429   -2.2142    0.7435 H   0  0  0  0  0  0  0  0  0  0  0  0
   -3.1076   -2.7988   -0.9657 H   0  0  0  0  0  0  0  0  0  0  0  0
   -1.0570   -1.7883   -1.6744 H   0  0  0  0  0  0  0  0  0  0  0  0
   -0.7230   -3.0251   -0.3950 H   0  0  0  0  0  0  0  0  0  0  0  0
   -0.6528   -1.1080    1.2260 H   0  0  0  0  0  0  0  0  0  0  0  0
   -0.7140    2.4398   -0.5506 H   0  0  0  0  0  0  0  0  0  0  0  0
    1.6706    2.3781    0.1251 H   0  0  0  0  0  0  0  0  0  0  0  0
    1.2595    1.5538   -1.3997 H   0  0  0  0  0  0  0  0  0  0  0  0
    1.0787   -0.9640   -1.3080 H   0  0  0  0  0  0  0  0  0  0  0  0
    1.6423   -3.0303   -0.0114 H   0  0  0  0  0  0  0  0  0  0  0  0
    1.5021   -2.0544    1.5364 H   0  0  0  0  0  0  0  0  0  0  0  0
    3.7185   -1.5959    1.2625 H   0  0  0  0  0  0  0  0  0  0  0  0
    2.3968   -0.3736    2.2677 H   0  0  0  0  0  0  0  0  0  0  0  0
    0.6896    0.0885    2.1874 H   0  0  0  0  0  0  0  0  0  0  0  0
    1.9216    1.3600    2.1092 H   0  0  0  0  0  0  0  0  0  0  0  0
   -3.5406   -0.4766    1.5925 H   0  0  0  0  0  0  0  0  0  0  0  0
   -1.9296    0.2330    2.0805 H   0  0  0  0  0  0  0  0  0  0  0  0
   -3.3432    1.2691    1.8223 H   0  0  0  0  0  0  0  0  0  0  0  0
    3.9030    1.8289   -0.0803 H   0  0  0  0  0  0  0  0  0  0  0  0
    5.9936   -0.4236    0.0297 H   0  0  0  0  0  0  0  0  0  0  0  0
    5.4841    0.5483   -1.4445 H   0  0  0  0  0  0  0  0  0  0  0  0
    4.9709   -2.6375   -0.4283 H   0  0  0  0  0  0  0  0  0  0  0  0
    3.7787   -2.1549   -1.7504 H   0  0  0  0  0  0  0  0  0  0  0  0
    3.4153   -3.4681   -0.6095 H   0  0  0  0  0  0  0  0  0  0  0  0
   -6.7575   -0.0122    0.1031 H   0  0  0  0  0  0  0  0  0  0  0  0
   -0.5786    2.9297    1.5065 H   0  0  0  0  0  0  0  0  0  0  0  0
    3.4691    0.6666   -1.9549 H   0  0  0  0  0  0  0  0  0  0  0  0
    4.2852    1.7942    1.9830 H   0  0  0  0  0  0  0  0  0  0  0  0
    6.3303    1.7514    1.0008 H   0  0  0  0  0  0  0  0  0  0  0  0
  1  2  1  0
  2  3  1  0
  3  4  1  0
  4  5  1  0
  5  6  1  0
  6  7  1  0
  7  8  1  0
  8  9  1  0
  1 10  1  0
  5 10  1  0
  9 10  1  0
  9 11  1  0
 11 12  1  0
 12 13  1  0
  8 14  1  0
 13 14  1  0
 14 15  1  0
 15 16  1  0
 13 17  1  0
 16 17  1  0
 13 18  1  1
 10 19  1  1
 17 20  1  0
 20 21  1  0
 16 22  1  0
  9 23  1  6
  3 24  1  0
 11 25  1  0
 17 26  1  6
 20 27  1  0
 21 28  1  0
 14 29  1  6
 30 31  1  0
 31 32  1  0
 32 33  1  0
 33 34  1  0
 34 35  1  0
 35 36  1  0
 36 37  1  0
 37 38  1  0
 30 39  1  0
 34 39  1  0
 38 39  1  0
 38 40  1  0
 40 41  1  0
 41 42  1  0
 37 43  1  0
 42 43  1  0
 43 44  1  0
 44 45  1  0
 42 46  1  0
 45 46  1  0
 42 47  1  1
 39 48  1  1
 46 49  1  0
 49 50  1  0
 45 51  1  0
 38 52  1  6
 32 53  1  0
 40 54  1  0
 46 55  1  6
 49 56  1  0
 50 57  1  0
  1 58  1  0
  1 59  1  0
  2 60  1  0
  2 61  1  0
  3 62  1  0
  4 63  1  0
  4 64  1  0
  5 65  1  0
  6 66  1  0
  6 67  1  0
  7 68  1  0
  7 69  1  0
  8 70  1  1
 11 71  1  6
 12 72  1  0
 12 73  1  0
 15 74  1  0
 15 75  1  0
 16 76  1  1
 18 77  1  0
 18 78  1  0
 18 79  1  0
 19 80  1  0
 19 81  1  0
 19 82  1  0
 20 83  1  0
 21 84  1  0
 21 85  1  0
 22 86  1  0
 22 87  1  0
 22 88  1  0
 24 89  1  0
 25 90  1  0
 26 91  1  0
 27 92  1  0
 28 93  1  0
 30 94  1  0
 30 95  1  0
 31 96  1  0
 31 97  1  0
 32 98  1  0
 33 99  1  0
 33100  1  0
 34101  1  0
 35102  1  0
 35103  1  0
 36104  1  0
 36105  1  0
 37106  1  1
 40107  1  6
 41108  1  0
 41109  1  0
 43110  1  6
 44111  1  0
 44112  1  0
 45113  1  1
 47114  1  0
 47115  1  0
 47116  1  0
 48117  1  0
 48118  1  0
 48119  1  0
 49120  1  0
 50121  1  0
 50122  1  0
 51123  1  0
 51124  1  0
 51125  1  0
 53126  1  0
 54127  1  0
 55128  1  0
 56129  1  0
 57130  1  0
M  END
>  <PDBID>  (1) 
1M2Z

>  <PDB ID>  (1) 
1M2Z

>  <Generic Name>  (1) 
Betamethasone

>  <Brand Name>  (1) 
Beben Gel 0.025%#Beta 1 Kit#Betacort Scalp Lotion 0.1%#Betaderm Crm 0.05%#Betaderm Crm 0.1%#Betaderm Lotion 0.1%#Betaderm Ont 0.05%#Betaderm Ont 0.1%#Betagel - 0.1%#Betaject#Betaloan Suik#Betamethasone#Betamethasone Clotrimazole#Betamethasone Combo 6mg/ml PF#Betamethasone Combo 7mg/ml#Betamethasone Dipropionate#Betamethasone Dipropionate Augmented#Betamethasone Sodium Phosphate and Betamethasone Acetate#Betamethasone Sp 24mg/2ml PF#Betamethasone Valerate#Betamethasone Valerate Lot 0.1% USP#Betamycin Ophthalmic/otic Solution#Betaprolene Cream 0.05%#Betaprolene Ointment 0.05%#Betaprone Cream 0.05%#Betaprone Lotion 0.05%#Betaprone Ointment 0.05%#Beteflam#Betnesol Eye and Ear Drops#Betnesol Eye and Ear Drops 0.1%#Betnesol Pellets 0.1mg#Betnesol Retention Enema 5mg/100ml#Betnesol Retention Enemas#Betnesol Tab 0.5mg#Betnesol Tablets#Betnovate 1/2 Crm 0.05%#Betnovate 1/2 Lot 0.05%#Betnovate 1/2 Ont 0.05%#Betnovate Crm 0.1%#Betnovate Lot 0.1%#Betnovate Lotion 0.1%#Betnovate Ont 0.1%#Calcipotriene 0.005% and Betamethasone Dipropionate 0.064%#Calcipotriene and Betamethasone Dipropionate#Celestoderm V#Celestoderm V Crm 0.1%#Celestoderm V Ont 0.1%#Celestoderm V/2#Celestoderm V/2 Cream .05%#Celestoderm V/2 Ointment 0.05%#Celestone Repetabs 1mg#Celestone Soluspan#Celestone Tab 0.5mg#Clotrimazole and Betamethasone Dipropionate#Dermacinrx Therazole Pak#Diprogen Cream#Diprogen Ointment#Diprolene#Diprolene AF#Diprosalic#Diprosone Cream 0.05%#Diprosone Lotion 0.05%#Diprosone Ointment 0.05%#Dom-gentamicin-betamethasone#Dovobet Gel#Dovobet Ointment#Dr. Throwers Beta#Dr. Throwers Pbc No. 1#Enstilar#Garasone Ophthalmic Ointment#Garasone Ophthalmic and Otic Solution#Lotriderm Cream#Lotrisone#Luxiq#Marbeta 25 Kit#Occlucort Film Forming Lot 0.05#PMS-clotrimazole-betamethasone#PMS-gentamicin-betamethasone#Prevex B Cream 0.1%#Pro-lene Glycol Cream - 0.05%#Pro-lene Glycol Lotion - 0.05%#Pro-lene Glycol Ointment - 0.05%#Pro-sone Cream - 0.05%#Pro-sone Lotion -  0.05%#Pro-sone Ointment - 0.05%#Ratio-ectosone#Ratio-ectosone Mild Cream 0.05%#Ratio-ectosone Mild Lotion 0.05%#Ratio-ectosone Regular Cream 0.1%#Ratio-ectosone Regular Lotion 0.1%#Ratio-topilene#Ratio-topisalic#Ratio-topisone#Readysharp Betamethasone#Rhoprolene Glycol Cream 0.5mg/gm#Rhoprolene Glycol Lotion 0.5mg/gm#Rhoprolene Glycol Ointment 0.5mg/gm#Rhoprosone Cream 0.05%#Rhoprosone Lotion 0.05%#Rhoprosone Oint 0.05%#Rivasone Scalp Lot 0.1%#Rolene Cream 0.05%#Rolene Lotion 0.05%#Rolene Ointment 0.05%#Rosone Cream 0.05%#Rosone Lotion 0.05%#Rosone Ointment 0.05%#Sandoz Pentasone#Sernivo#Taclonex#Taclonex Scalp#Taro Sone Lot 0.05%#Taro Sone Ont#Taro-sone Cream 0.05%#Valisone Scalp Lotion#Valisone-G Cream#Valisone-G Ointment#Bentelan#Betnovate#Celestamine#Celestone#Diprosone#Fucibet#Procort#Rinderon

>  <DrugBank ID>  (1) 
DB00443

>  <ATC Codes>  (1) 
S01BB04#R03BA04#S01CA05#H02AB01#R01AD06#D07BC01#C05AA05#D07CC01#D07AC01#S01CB04#D07XC01#S02BA07#A07EA04#S03BA03#S01BA06#S03CA06

>  <Ligand ID>  (1) 
DEX

>  <Target Name>  (1) 
Glucocorticoid receptor

>  <UniProt ID>  (1) 
P04150

>  <PDB ID.1>  (1) 
1M2Z

>  <Seq. Identity>  (1) 
100%

$$$$
