PDB_DB00382_07
     RDKit          3D

 39 41  0  0  0  0  0  0  0  0999 V2000
   -3.0055    1.3488    0.1565 C   0  0  0  0  0  0  0  0  0  0  0  0
   -2.4765    1.3477   -1.2546 C   0  0  0  0  0  0  0  0  0  0  0  0
   -1.0495    0.7999   -1.1653 C   0  0  0  0  0  0  0  0  0  0  0  0
   -1.1876   -0.6947   -0.9595 C   0  0  0  0  0  0  0  0  0  0  0  0
   -2.3184   -1.0597   -0.0509 C   0  0  0  0  0  0  0  0  0  0  0  0
   -2.7822    0.0382    0.8387 C   0  0  0  0  0  0  0  0  0  0  0  0
   -0.3456    1.3922   -0.0418 N   0  0  0  0  0  0  0  0  0  0  0  0
    0.9844    0.8296   -0.0751 C   0  0  2  0  0  0  0  0  0  0  0  0
    0.9079   -0.5706    0.4267 C   0  0  1  0  0  0  0  0  0  0  0  0
    0.0901   -1.3654   -0.5972 C   0  0  0  0  0  0  0  0  0  0  0  0
    1.9775    1.6271    0.7291 C   0  0  0  0  0  0  0  0  0  0  0  0
    3.3142    0.9971    0.3912 C   0  0  0  0  0  0  0  0  0  0  0  0
    3.4045   -0.4297    0.8252 C   0  0  0  0  0  0  0  0  0  0  0  0
    2.1863   -1.2393    0.7004 C   0  0  0  0  0  0  0  0  0  0  0  0
   -0.2123   -2.6887   -0.0679 N   0  0  0  0  0  0  0  0  0  0  0  0
   -4.0568    1.6860    0.1590 H   0  0  0  0  0  0  0  0  0  0  0  0
   -2.4082    2.1178    0.7237 H   0  0  0  0  0  0  0  0  0  0  0  0
   -3.0825    0.6543   -1.8498 H   0  0  0  0  0  0  0  0  0  0  0  0
   -2.4584    2.3811   -1.6547 H   0  0  0  0  0  0  0  0  0  0  0  0
   -0.4739    1.0141   -2.0743 H   0  0  0  0  0  0  0  0  0  0  0  0
   -1.4702   -1.0931   -1.9812 H   0  0  0  0  0  0  0  0  0  0  0  0
   -1.9681   -1.9004    0.5948 H   0  0  0  0  0  0  0  0  0  0  0  0
   -3.2085   -1.4594   -0.5928 H   0  0  0  0  0  0  0  0  0  0  0  0
   -2.1110    0.1232    1.7397 H   0  0  0  0  0  0  0  0  0  0  0  0
   -3.7744   -0.2777    1.2683 H   0  0  0  0  0  0  0  0  0  0  0  0
   -0.3777    2.4121   -0.0699 H   0  0  0  0  0  0  0  0  0  0  0  0
    1.3368    0.8255   -1.1280 H   0  0  0  0  0  0  0  0  0  0  0  0
    0.2511   -0.5495    1.3466 H   0  0  0  0  0  0  0  0  0  0  0  0
    0.7639   -1.5229   -1.4601 H   0  0  0  0  0  0  0  0  0  0  0  0
    1.7715    1.5923    1.8181 H   0  0  0  0  0  0  0  0  0  0  0  0
    2.0006    2.6541    0.3275 H   0  0  0  0  0  0  0  0  0  0  0  0
    4.1512    1.5757    0.8333 H   0  0  0  0  0  0  0  0  0  0  0  0
    3.4051    1.0223   -0.7189 H   0  0  0  0  0  0  0  0  0  0  0  0
    3.7871   -0.4108    1.8898 H   0  0  0  0  0  0  0  0  0  0  0  0
    4.2721   -0.8758    0.2519 H   0  0  0  0  0  0  0  0  0  0  0  0
    2.3631   -2.0251   -0.0932 H   0  0  0  0  0  0  0  0  0  0  0  0
    2.0701   -1.8523    1.6438 H   0  0  0  0  0  0  0  0  0  0  0  0
   -0.8986   -3.1142   -0.7451 H   0  0  0  0  0  0  0  0  0  0  0  0
    0.6281   -3.3100   -0.0840 H   0  0  0  0  0  0  0  0  0  0  0  0
  1  2  1  0
  2  3  1  0
  3  4  1  0
  4  5  1  0
  1  6  1  0
  5  6  1  0
  3  7  1  0
  7  8  1  0
  8  9  1  0
  4 10  1  0
  9 10  1  0
  8 11  1  0
 11 12  1  0
 12 13  1  0
  9 14  1  0
 13 14  1  0
 10 15  1  0
  1 16  1  0
  1 17  1  0
  2 18  1  0
  2 19  1  0
  3 20  1  0
  4 21  1  0
  5 22  1  0
  5 23  1  0
  6 24  1  0
  6 25  1  0
  7 26  1  0
  8 27  1  6
  9 28  1  1
 10 29  1  0
 11 30  1  0
 11 31  1  0
 12 32  1  0
 12 33  1  0
 13 34  1  0
 13 35  1  0
 14 36  1  0
 14 37  1  0
 15 38  1  0
 15 39  1  0
M  END
>  <PDBID>  (1) 
1ACJ

>  <PDB ID>  (1) 
1ACJ

>  <Generic Name>  (1) 
Tacrine

>  <Brand Name>  (1) 
Cognex#Talem

>  <DrugBank ID>  (1) 
DB00382

>  <ATC Codes>  (1) 
N06DA01

>  <Ligand ID>  (1) 
THA

>  <Target Name>  (1) 
Acetylcholinesterase

>  <UniProt ID>  (1) 
P22303

>  <PDB ID.1>  (1) 
1ACJ

>  <Seq. Identity>  (1) 
57%

$$$$
