PDB_DB00147_00
     RDKit          3D

 58 58  0  0  0  0  0  0  0  0999 V2000
    3.3053   -0.7194   -0.7308 O   0  0  0  0  0  0  0  0  0  0  0  0
    2.5029    0.0978    0.0650 C   0  0  0  0  0  0  0  0  0  0  0  0
    1.0559   -0.1441   -0.2857 C   0  0  0  0  0  0  0  0  0  0  0  0
    0.7298   -1.6008   -0.0295 C   0  0  0  0  0  0  0  0  0  0  0  0
   -0.6541   -1.7789    0.3415 N   0  0  0  0  0  0  0  0  0  0  0  0
   -1.5469   -0.9339   -0.3941 C   0  0  0  0  0  0  0  0  0  0  0  0
   -1.2767    0.5285   -0.1329 C   0  0  0  0  0  0  0  0  0  0  0  0
    0.1010    0.6855    0.4911 C   0  0  0  0  0  0  0  0  0  0  0  0
    0.4852    2.1250    0.6235 C   0  0  0  0  0  0  0  0  0  0  0  0
    0.6029    2.7807   -0.5778 O   0  0  0  0  0  0  0  0  0  0  0  0
   -1.3628    1.2724   -1.3123 O   0  0  0  0  0  0  0  0  0  0  0  0
   -2.9597   -1.2389    0.0875 C   0  0  0  0  0  0  0  0  0  0  0  0
    3.3053   -0.7194   -0.7308 O   0  0  0  0  0  0  0  0  0  0  0  0
    2.5029    0.0978    0.0650 C   0  0  0  0  0  0  0  0  0  0  0  0
    1.0559   -0.1441   -0.2857 C   0  0  0  0  0  0  0  0  0  0  0  0
    0.7298   -1.6008   -0.0295 C   0  0  0  0  0  0  0  0  0  0  0  0
   -0.6541   -1.7789    0.3415 N   0  0  0  0  0  0  0  0  0  0  0  0
   -1.5469   -0.9339   -0.3941 C   0  0  0  0  0  0  0  0  0  0  0  0
   -1.2767    0.5285   -0.1329 C   0  0  0  0  0  0  0  0  0  0  0  0
    0.1010    0.6855    0.4911 C   0  0  0  0  0  0  0  0  0  0  0  0
    0.4852    2.1250    0.6235 C   0  0  0  0  0  0  0  0  0  0  0  0
    0.6029    2.7807   -0.5778 O   0  0  0  0  0  0  0  0  0  0  0  0
   -1.3628    1.2724   -1.3123 O   0  0  0  0  0  0  0  0  0  0  0  0
   -2.9597   -1.2389    0.0875 C   0  0  0  0  0  0  0  0  0  0  0  0
    3.1836   -1.6784   -0.4666 H   0  0  0  0  0  0  0  0  0  0  0  0
    2.8147    1.1405   -0.1459 H   0  0  0  0  0  0  0  0  0  0  0  0
    2.7332   -0.1373    1.1188 H   0  0  0  0  0  0  0  0  0  0  0  0
    0.9553    0.0812   -1.3780 H   0  0  0  0  0  0  0  0  0  0  0  0
    1.0492   -2.2216   -0.8725 H   0  0  0  0  0  0  0  0  0  0  0  0
    1.3426   -1.9311    0.8587 H   0  0  0  0  0  0  0  0  0  0  0  0
   -0.8200   -1.7959    1.3557 H   0  0  0  0  0  0  0  0  0  0  0  0
   -1.5264   -1.1895   -1.4666 H   0  0  0  0  0  0  0  0  0  0  0  0
   -2.0203    0.9520    0.5615 H   0  0  0  0  0  0  0  0  0  0  0  0
    0.0314    0.2601    1.5197 H   0  0  0  0  0  0  0  0  0  0  0  0
   -0.3133    2.6318    1.2111 H   0  0  0  0  0  0  0  0  0  0  0  0
    1.4156    2.1604    1.2460 H   0  0  0  0  0  0  0  0  0  0  0  0
    1.0034    3.6829   -0.3733 H   0  0  0  0  0  0  0  0  0  0  0  0
   -0.8994    0.8192   -2.0680 H   0  0  0  0  0  0  0  0  0  0  0  0
   -3.1151   -0.6699    1.0503 H   0  0  0  0  0  0  0  0  0  0  0  0
   -3.7235   -0.8731   -0.6316 H   0  0  0  0  0  0  0  0  0  0  0  0
   -3.0937   -2.3053    0.3352 H   0  0  0  0  0  0  0  0  0  0  0  0
    3.1836   -1.6784   -0.4666 H   0  0  0  0  0  0  0  0  0  0  0  0
    2.8147    1.1405   -0.1459 H   0  0  0  0  0  0  0  0  0  0  0  0
    2.7332   -0.1373    1.1188 H   0  0  0  0  0  0  0  0  0  0  0  0
    0.9553    0.0812   -1.3780 H   0  0  0  0  0  0  0  0  0  0  0  0
    1.0492   -2.2216   -0.8725 H   0  0  0  0  0  0  0  0  0  0  0  0
    1.3426   -1.9311    0.8587 H   0  0  0  0  0  0  0  0  0  0  0  0
   -0.8200   -1.7959    1.3557 H   0  0  0  0  0  0  0  0  0  0  0  0
   -1.5264   -1.1895   -1.4666 H   0  0  0  0  0  0  0  0  0  0  0  0
   -2.0203    0.9520    0.5615 H   0  0  0  0  0  0  0  0  0  0  0  0
    0.0314    0.2601    1.5197 H   0  0  0  0  0  0  0  0  0  0  0  0
   -0.3133    2.6318    1.2111 H   0  0  0  0  0  0  0  0  0  0  0  0
    1.4156    2.1604    1.2460 H   0  0  0  0  0  0  0  0  0  0  0  0
    1.0034    3.6829   -0.3733 H   0  0  0  0  0  0  0  0  0  0  0  0
   -0.8994    0.8192   -2.0680 H   0  0  0  0  0  0  0  0  0  0  0  0
   -3.1151   -0.6699    1.0503 H   0  0  0  0  0  0  0  0  0  0  0  0
   -3.7235   -0.8731   -0.6316 H   0  0  0  0  0  0  0  0  0  0  0  0
   -3.0937   -2.3053    0.3352 H   0  0  0  0  0  0  0  0  0  0  0  0
  1  2  1  0
  2  3  1  0
  3  4  1  0
  4  5  1  0
  5  6  1  0
  6  7  1  0
  3  8  1  0
  7  8  1  0
  8  9  1  0
  9 10  1  0
  7 11  1  0
  6 12  1  0
 13 14  1  0
 14 15  1  0
 15 16  1  0
 16 17  1  0
 17 18  1  0
 18 19  1  0
 15 20  1  0
 19 20  1  0
 20 21  1  0
 21 22  1  0
 19 23  1  0
 18 24  1  0
  1 25  1  0
  2 26  1  0
  2 27  1  0
  3 28  1  0
  4 29  1  0
  4 30  1  0
  5 31  1  0
  6 32  1  0
  7 33  1  0
  8 34  1  0
  9 35  1  0
  9 36  1  0
 10 37  1  0
 11 38  1  0
 12 39  1  0
 12 40  1  0
 12 41  1  0
 13 42  1  0
 14 43  1  0
 14 44  1  0
 15 45  1  0
 16 46  1  0
 16 47  1  0
 17 48  1  0
 18 49  1  0
 19 50  1  0
 20 51  1  0
 21 52  1  0
 21 53  1  0
 22 54  1  0
 23 55  1  0
 24 56  1  0
 24 57  1  0
 24 58  1  0
M  END
>  <PDBID>  (1) 
3FHX

>  <PDB ID>  (1) 
3FHX

>  <Generic Name>  (1) 
Pyridoxal

>  <Brand Name>  (1) 
nan

>  <DrugBank ID>  (1) 
DB00147

>  <ATC Codes>  (1) 
nan

>  <Ligand ID>  (1) 
PXL

>  <Target Name>  (1) 
Pyridoxal kinase

>  <UniProt ID>  (1) 
O00764

>  <PDB ID.1>  (1) 
3FHX

>  <Seq. Identity>  (1) 
100%

$$$$
