PDB_DB00841_00
     RDKit          3D

114116  0  0  0  0  0  0  0  0999 V2000
   -7.4601    1.4905    1.2302 O   0  0  0  0  0  0  0  0  0  0  0  0
   -6.4219    0.5543    1.0241 C   0  0  0  0  0  0  0  0  0  0  0  0
   -5.1407    1.2368    1.3642 C   0  0  0  0  0  0  0  0  0  0  0  0
   -3.9210    0.6317    0.7561 C   0  0  0  0  0  0  0  0  0  0  0  0
   -6.5239    0.1013   -0.4015 C   0  0  0  0  0  0  0  0  0  0  0  0
   -5.3217   -0.8129   -0.6568 C   0  0  0  0  0  0  0  0  0  0  0  0
   -4.1043    0.1126   -0.6354 C   0  0  0  0  0  0  0  0  0  0  0  0
   -2.8909   -0.7256   -0.9862 C   0  0  0  0  0  0  0  0  0  0  0  0
   -1.6227    0.0612   -0.9276 C   0  0  0  0  0  0  0  0  0  0  0  0
   -0.4056   -0.7623   -1.2722 C   0  0  1  0  0  0  0  0  0  0  0  0
   -0.4538   -1.3441   -2.6596 C   0  0  0  0  0  0  0  0  0  0  0  0
    0.8033    0.0230   -1.1227 N   0  0  0  0  0  0  0  0  0  0  0  0
    1.9282   -0.8259   -1.2330 C   0  0  0  0  0  0  0  0  0  0  0  0
    3.2592   -0.1668   -1.1021 C   0  0  0  0  0  0  0  0  0  0  0  0
    3.4909    0.5311    0.2025 C   0  0  0  0  0  0  0  0  0  0  0  0
    4.8814    1.1339    0.1478 C   0  0  0  0  0  0  0  0  0  0  0  0
    5.9508    0.1081    0.3713 C   0  0  0  0  0  0  0  0  0  0  0  0
    7.1815    0.7255    0.0716 O   0  0  0  0  0  0  0  0  0  0  0  0
    5.8950   -0.2996    1.8287 C   0  0  0  0  0  0  0  0  0  0  0  0
    6.7790    0.5225    2.5259 O   0  0  0  0  0  0  0  0  0  0  0  0
    4.5128   -0.0688    2.4075 C   0  0  0  0  0  0  0  0  0  0  0  0
    3.4294   -0.3771    1.3976 C   0  0  0  0  0  0  0  0  0  0  0  0
   -7.4601    1.4905    1.2302 O   0  0  0  0  0  0  0  0  0  0  0  0
   -6.4219    0.5543    1.0241 C   0  0  0  0  0  0  0  0  0  0  0  0
   -5.1407    1.2368    1.3642 C   0  0  0  0  0  0  0  0  0  0  0  0
   -3.9210    0.6317    0.7561 C   0  0  0  0  0  0  0  0  0  0  0  0
   -6.5239    0.1013   -0.4015 C   0  0  0  0  0  0  0  0  0  0  0  0
   -5.3217   -0.8129   -0.6568 C   0  0  0  0  0  0  0  0  0  0  0  0
   -4.1043    0.1126   -0.6354 C   0  0  0  0  0  0  0  0  0  0  0  0
   -2.8909   -0.7256   -0.9862 C   0  0  0  0  0  0  0  0  0  0  0  0
   -1.6227    0.0612   -0.9276 C   0  0  0  0  0  0  0  0  0  0  0  0
   -0.4056   -0.7623   -1.2722 C   0  0  1  0  0  0  0  0  0  0  0  0
   -0.4538   -1.3441   -2.6596 C   0  0  0  0  0  0  0  0  0  0  0  0
    0.8033    0.0230   -1.1227 N   0  0  0  0  0  0  0  0  0  0  0  0
    1.9282   -0.8259   -1.2330 C   0  0  0  0  0  0  0  0  0  0  0  0
    3.2592   -0.1668   -1.1021 C   0  0  0  0  0  0  0  0  0  0  0  0
    3.4909    0.5311    0.2025 C   0  0  0  0  0  0  0  0  0  0  0  0
    4.8814    1.1339    0.1478 C   0  0  0  0  0  0  0  0  0  0  0  0
    5.9508    0.1081    0.3713 C   0  0  0  0  0  0  0  0  0  0  0  0
    7.1815    0.7255    0.0716 O   0  0  0  0  0  0  0  0  0  0  0  0
    5.8950   -0.2996    1.8287 C   0  0  0  0  0  0  0  0  0  0  0  0
    6.7790    0.5225    2.5259 O   0  0  0  0  0  0  0  0  0  0  0  0
    4.5128   -0.0688    2.4075 C   0  0  0  0  0  0  0  0  0  0  0  0
    3.4294   -0.3771    1.3976 C   0  0  0  0  0  0  0  0  0  0  0  0
   -7.2766    2.2986    0.6730 H   0  0  0  0  0  0  0  0  0  0  0  0
   -6.6633   -0.2987    1.6894 H   0  0  0  0  0  0  0  0  0  0  0  0
   -5.2080    2.3417    1.1679 H   0  0  0  0  0  0  0  0  0  0  0  0
   -5.0240    1.1676    2.4862 H   0  0  0  0  0  0  0  0  0  0  0  0
   -3.1473    1.4519    0.6958 H   0  0  0  0  0  0  0  0  0  0  0  0
   -3.4416   -0.1378    1.4193 H   0  0  0  0  0  0  0  0  0  0  0  0
   -7.4735   -0.4525   -0.5161 H   0  0  0  0  0  0  0  0  0  0  0  0
   -6.4647    0.9414   -1.1144 H   0  0  0  0  0  0  0  0  0  0  0  0
   -5.4115   -1.3541   -1.6097 H   0  0  0  0  0  0  0  0  0  0  0  0
   -5.2223   -1.4706    0.2295 H   0  0  0  0  0  0  0  0  0  0  0  0
   -4.2276    0.9683   -1.3219 H   0  0  0  0  0  0  0  0  0  0  0  0
   -3.0533   -1.2273   -1.9561 H   0  0  0  0  0  0  0  0  0  0  0  0
   -2.8273   -1.5514   -0.2290 H   0  0  0  0  0  0  0  0  0  0  0  0
   -1.6945    0.9674   -1.5620 H   0  0  0  0  0  0  0  0  0  0  0  0
   -1.4601    0.4325    0.1112 H   0  0  0  0  0  0  0  0  0  0  0  0
   -0.3690   -1.6465   -0.5698 H   0  0  0  0  0  0  0  0  0  0  0  0
   -1.4264   -1.1447   -3.1596 H   0  0  0  0  0  0  0  0  0  0  0  0
    0.2915   -0.8013   -3.2788 H   0  0  0  0  0  0  0  0  0  0  0  0
   -0.1782   -2.4173   -2.6944 H   0  0  0  0  0  0  0  0  0  0  0  0
    0.7541    0.8102   -1.7717 H   0  0  0  0  0  0  0  0  0  0  0  0
    1.9142   -1.3648   -2.2020 H   0  0  0  0  0  0  0  0  0  0  0  0
    1.8256   -1.6333   -0.4551 H   0  0  0  0  0  0  0  0  0  0  0  0
    3.4197    0.5744   -1.9096 H   0  0  0  0  0  0  0  0  0  0  0  0
    4.0431   -0.9440   -1.2136 H   0  0  0  0  0  0  0  0  0  0  0  0
    2.7958    1.3750    0.3812 H   0  0  0  0  0  0  0  0  0  0  0  0
    4.9357    1.8838    0.9615 H   0  0  0  0  0  0  0  0  0  0  0  0
    4.9768    1.6480   -0.8385 H   0  0  0  0  0  0  0  0  0  0  0  0
    5.8706   -0.7556   -0.3127 H   0  0  0  0  0  0  0  0  0  0  0  0
    7.8775    0.0070   -0.0455 H   0  0  0  0  0  0  0  0  0  0  0  0
    6.2400   -1.3470    1.9867 H   0  0  0  0  0  0  0  0  0  0  0  0
    7.0088    1.3209    1.9903 H   0  0  0  0  0  0  0  0  0  0  0  0
    4.3914   -0.7616    3.2610 H   0  0  0  0  0  0  0  0  0  0  0  0
    4.4389    0.9596    2.7949 H   0  0  0  0  0  0  0  0  0  0  0  0
    3.4852   -1.4405    1.1142 H   0  0  0  0  0  0  0  0  0  0  0  0
    2.4555   -0.2487    1.9541 H   0  0  0  0  0  0  0  0  0  0  0  0
   -7.2766    2.2986    0.6730 H   0  0  0  0  0  0  0  0  0  0  0  0
   -6.6633   -0.2987    1.6894 H   0  0  0  0  0  0  0  0  0  0  0  0
   -5.2080    2.3417    1.1679 H   0  0  0  0  0  0  0  0  0  0  0  0
   -5.0240    1.1676    2.4862 H   0  0  0  0  0  0  0  0  0  0  0  0
   -3.1473    1.4519    0.6958 H   0  0  0  0  0  0  0  0  0  0  0  0
   -3.4416   -0.1378    1.4193 H   0  0  0  0  0  0  0  0  0  0  0  0
   -7.4735   -0.4525   -0.5161 H   0  0  0  0  0  0  0  0  0  0  0  0
   -6.4647    0.9414   -1.1144 H   0  0  0  0  0  0  0  0  0  0  0  0
   -5.4115   -1.3541   -1.6097 H   0  0  0  0  0  0  0  0  0  0  0  0
   -5.2223   -1.4706    0.2295 H   0  0  0  0  0  0  0  0  0  0  0  0
   -4.2276    0.9683   -1.3219 H   0  0  0  0  0  0  0  0  0  0  0  0
   -3.0533   -1.2273   -1.9561 H   0  0  0  0  0  0  0  0  0  0  0  0
   -2.8273   -1.5514   -0.2290 H   0  0  0  0  0  0  0  0  0  0  0  0
   -1.6945    0.9674   -1.5620 H   0  0  0  0  0  0  0  0  0  0  0  0
   -1.4601    0.4325    0.1112 H   0  0  0  0  0  0  0  0  0  0  0  0
   -0.3690   -1.6465   -0.5698 H   0  0  0  0  0  0  0  0  0  0  0  0
   -1.4264   -1.1447   -3.1596 H   0  0  0  0  0  0  0  0  0  0  0  0
    0.2915   -0.8013   -3.2788 H   0  0  0  0  0  0  0  0  0  0  0  0
   -0.1782   -2.4173   -2.6944 H   0  0  0  0  0  0  0  0  0  0  0  0
    0.7541    0.8102   -1.7717 H   0  0  0  0  0  0  0  0  0  0  0  0
    1.9142   -1.3648   -2.2020 H   0  0  0  0  0  0  0  0  0  0  0  0
    1.8256   -1.6333   -0.4551 H   0  0  0  0  0  0  0  0  0  0  0  0
    3.4197    0.5744   -1.9096 H   0  0  0  0  0  0  0  0  0  0  0  0
    4.0431   -0.9440   -1.2136 H   0  0  0  0  0  0  0  0  0  0  0  0
    2.7958    1.3750    0.3812 H   0  0  0  0  0  0  0  0  0  0  0  0
    4.9357    1.8838    0.9615 H   0  0  0  0  0  0  0  0  0  0  0  0
    4.9768    1.6480   -0.8385 H   0  0  0  0  0  0  0  0  0  0  0  0
    5.8706   -0.7556   -0.3127 H   0  0  0  0  0  0  0  0  0  0  0  0
    7.8775    0.0070   -0.0455 H   0  0  0  0  0  0  0  0  0  0  0  0
    6.2400   -1.3470    1.9867 H   0  0  0  0  0  0  0  0  0  0  0  0
    7.0088    1.3209    1.9903 H   0  0  0  0  0  0  0  0  0  0  0  0
    4.3914   -0.7616    3.2610 H   0  0  0  0  0  0  0  0  0  0  0  0
    4.4389    0.9596    2.7949 H   0  0  0  0  0  0  0  0  0  0  0  0
    3.4852   -1.4405    1.1142 H   0  0  0  0  0  0  0  0  0  0  0  0
    2.4555   -0.2487    1.9541 H   0  0  0  0  0  0  0  0  0  0  0  0
  1  2  1  0
  2  3  1  0
  3  4  1  0
  2  5  1  0
  5  6  1  0
  4  7  1  0
  6  7  1  0
  7  8  1  0
  8  9  1  0
  9 10  1  0
 10 11  1  0
 10 12  1  0
 12 13  1  0
 13 14  1  0
 14 15  1  0
 15 16  1  0
 16 17  1  0
 17 18  1  0
 17 19  1  0
 19 20  1  0
 19 21  1  0
 15 22  1  0
 21 22  1  0
 23 24  1  0
 24 25  1  0
 25 26  1  0
 24 27  1  0
 27 28  1  0
 26 29  1  0
 28 29  1  0
 29 30  1  0
 30 31  1  0
 31 32  1  0
 32 33  1  0
 32 34  1  0
 34 35  1  0
 35 36  1  0
 36 37  1  0
 37 38  1  0
 38 39  1  0
 39 40  1  0
 39 41  1  0
 41 42  1  0
 41 43  1  0
 37 44  1  0
 43 44  1  0
  1 45  1  0
  2 46  1  0
  3 47  1  0
  3 48  1  0
  4 49  1  0
  4 50  1  0
  5 51  1  0
  5 52  1  0
  6 53  1  0
  6 54  1  0
  7 55  1  0
  8 56  1  0
  8 57  1  0
  9 58  1  0
  9 59  1  0
 10 60  1  1
 11 61  1  0
 11 62  1  0
 11 63  1  0
 12 64  1  0
 13 65  1  0
 13 66  1  0
 14 67  1  0
 14 68  1  0
 15 69  1  0
 16 70  1  0
 16 71  1  0
 17 72  1  0
 18 73  1  0
 19 74  1  0
 20 75  1  0
 21 76  1  0
 21 77  1  0
 22 78  1  0
 22 79  1  0
 23 80  1  0
 24 81  1  0
 25 82  1  0
 25 83  1  0
 26 84  1  0
 26 85  1  0
 27 86  1  0
 27 87  1  0
 28 88  1  0
 28 89  1  0
 29 90  1  0
 30 91  1  0
 30 92  1  0
 31 93  1  0
 31 94  1  0
 32 95  1  1
 33 96  1  0
 33 97  1  0
 33 98  1  0
 34 99  1  0
 35100  1  0
 35101  1  0
 36102  1  0
 36103  1  0
 37104  1  0
 38105  1  0
 38106  1  0
 39107  1  0
 40108  1  0
 41109  1  0
 42110  1  0
 43111  1  0
 43112  1  0
 44113  1  0
 44114  1  0
M  END
>  <PDBID>  (1) 
2Y00

>  <PDB ID>  (1) 
2Y00

>  <Generic Name>  (1) 
Dobutamine

>  <Brand Name>  (1) 
Dobutamine#Dobutamine 12.5mg/ml#Dobutamine Hydrochloride#Dobutamine Hydrochloride In Dextrose#Dobutamine Hydrochloride Injection USP#Dobutamine Hydrochloride Injection-12.5mg/ml#Dobutamine Injection Sdz#Dobutamine Injection USP#Dobutrex#Dobuject#Dobusafe#Dobutamin#Dobutan#Dobutel#Dobutil#Dopmin#Inotrex

>  <DrugBank ID>  (1) 
DB00841

>  <ATC Codes>  (1) 
C01CA07

>  <Ligand ID>  (1) 
Y00

>  <Target Name>  (1) 
Beta-1 adrenergic receptor

>  <UniProt ID>  (1) 
P08588

>  <PDB ID.1>  (1) 
2Y00

>  <Seq. Identity>  (1) 
63%

$$$$
