PDB_DB00481_00
     RDKit          3D

166174  0  0  0  0  0  0  0  0999 V2000
   -3.5973   -1.7883   -0.2732 C   0  0  0  0  0  0  0  0  0  0  0  0
   -3.7409   -3.1111   -1.0536 C   0  0  0  0  0  0  0  0  0  0  0  0
   -4.5479   -2.8387   -2.2746 C   0  0  0  0  0  0  0  0  0  0  0  0
   -5.9013   -3.0893   -1.9397 O   0  0  0  0  0  0  0  0  0  0  0  0
   -4.4744   -1.4344   -2.7518 C   0  0  0  0  0  0  0  0  0  0  0  0
   -3.2112   -0.6942   -2.4063 C   0  0  0  0  0  0  0  0  0  0  0  0
   -3.6767    1.0853   -2.3804 S   0  0  0  0  0  0  0  0  0  0  0  0
   -3.0344    1.4591   -0.6746 C   0  0  1  0  0  0  0  0  0  0  0  0
   -4.0196    2.0529    0.1681 C   0  0  0  0  0  0  0  0  0  0  0  0
   -3.8529    2.3693    1.5980 C   0  0  0  0  0  0  0  0  0  0  0  0
   -4.9957    3.3602    1.9593 C   0  0  0  0  0  0  0  0  0  0  0  0
   -6.2415    2.5241    2.1051 C   0  0  0  0  0  0  0  0  0  0  0  0
   -7.2887    3.2537    1.5402 O   0  0  0  0  0  0  0  0  0  0  0  0
   -6.1102    1.2504    1.2991 C   0  0  0  0  0  0  0  0  0  0  0  0
   -5.4259    1.5310   -0.0414 C   0  0  0  0  0  0  0  0  0  0  0  0
   -2.6852   -0.9609   -1.0317 C   0  0  0  0  0  0  0  0  0  0  0  0
   -2.1492    0.3314   -0.5135 C   0  0  0  0  0  0  0  0  0  0  0  0
   -1.2787    0.2158    0.6836 C   0  0  0  0  0  0  0  0  0  0  0  0
   -1.8849    0.1397    1.9058 O   0  0  0  0  0  0  0  0  0  0  0  0
   -0.2621   -0.9065    0.6427 C   0  0  0  0  0  0  0  0  0  0  0  0
    0.7172   -0.8058   -0.4846 C   0  0  0  0  0  0  0  0  0  0  0  0
    1.8210    0.1950   -0.1820 C   0  0  0  0  0  0  0  0  0  0  0  0
    2.7985   -0.5156    0.7725 C   0  0  0  0  0  0  0  0  0  0  0  0
    1.9551   -1.3119    1.7364 C   0  0  0  0  0  0  0  0  0  0  0  0
    0.5653   -0.7328    1.9279 C   0  0  0  0  0  0  0  0  0  0  0  0
    3.5783   -1.3137   -0.0164 O   0  0  0  0  0  0  0  0  0  0  0  0
    4.9239   -0.9914   -0.0722 C   0  0  0  0  0  0  0  0  0  0  0  0
    5.1491    0.3670   -0.6349 C   0  0  0  0  0  0  0  0  0  0  0  0
    6.5227    0.7548   -0.7217 N   0  0  0  0  0  0  0  0  0  0  0  0
    7.3103    0.0586   -1.6542 C   0  0  0  0  0  0  0  0  0  0  0  0
    8.3064   -0.9069   -1.1001 C   0  0  0  0  0  0  0  0  0  0  0  0
    9.1482   -0.1331   -0.0782 C   0  0  0  0  0  0  0  0  0  0  0  0
    8.1716    0.2444    1.0353 C   0  0  0  0  0  0  0  0  0  0  0  0
    7.1283    1.1611    0.4840 C   0  0  0  0  0  0  0  0  0  0  0  0
   -2.8871   -2.4606    1.1050 C   0  0  0  0  0  0  0  0  0  0  0  0
   -2.6559   -3.6067    0.1689 C   0  0  0  0  0  0  0  0  0  0  0  0
   -3.8517   -3.8882   -0.6900 C   0  0  0  0  0  0  0  0  0  0  0  0
   -4.8551   -4.4583    0.0842 O   0  0  0  0  0  0  0  0  0  0  0  0
   -4.4008   -2.6636   -1.3712 C   0  0  0  0  0  0  0  0  0  0  0  0
   -4.6134   -1.5177   -0.4365 C   0  0  0  0  0  0  0  0  0  0  0  0
   -4.8490    0.0491   -1.3153 S   0  0  0  0  0  0  0  0  0  0  0  0
   -3.5224    0.9580   -0.4784 C   0  0  1  0  0  0  0  0  0  0  0  0
   -3.9768    2.0836    0.3360 C   0  0  0  0  0  0  0  0  0  0  0  0
   -4.9071    1.8583    1.4590 C   0  0  0  0  0  0  0  0  0  0  0  0
   -5.4523    3.2480    1.8505 C   0  0  0  0  0  0  0  0  0  0  0  0
   -6.5638    3.5616    0.8466 C   0  0  0  0  0  0  0  0  0  0  0  0
   -6.6649    4.9391    0.6348 O   0  0  0  0  0  0  0  0  0  0  0  0
   -6.1963    2.9280   -0.4628 C   0  0  0  0  0  0  0  0  0  0  0  0
   -4.6859    3.0543   -0.6258 C   0  0  0  0  0  0  0  0  0  0  0  0
   -3.5079   -1.2407    0.5412 C   0  0  0  0  0  0  0  0  0  0  0  0
   -2.6721   -0.1014    0.1818 C   0  0  1  0  0  0  0  0  0  0  0  0
   -1.4395   -0.2093   -0.6065 C   0  0  2  0  0  0  0  0  0  0  0  0
   -1.5968   -0.5787   -1.9324 O   0  0  0  0  0  0  0  0  0  0  0  0
   -0.2178   -0.8093   -0.0231 C   0  0  0  0  0  0  0  0  0  0  0  0
    0.8552   -0.7266   -1.1327 C   0  0  0  0  0  0  0  0  0  0  0  0
    1.7919    0.4394   -0.8572 C   0  0  0  0  0  0  0  0  0  0  0  0
    2.7265   -0.0419    0.2592 C   0  0  0  0  0  0  0  0  0  0  0  0
    1.7888   -0.5256    1.3666 C   0  0  0  0  0  0  0  0  0  0  0  0
    0.3668   -0.0529    1.1517 C   0  0  0  0  0  0  0  0  0  0  0  0
    3.5347   -1.0296   -0.2408 O   0  0  0  0  0  0  0  0  0  0  0  0
    4.8855   -0.8131   -0.1717 C   0  0  0  0  0  0  0  0  0  0  0  0
    5.3463    0.4082   -0.9171 C   0  0  0  0  0  0  0  0  0  0  0  0
    6.7649    0.6118   -0.8423 N   0  0  0  0  0  0  0  0  0  0  0  0
    7.5496   -0.3337   -1.5297 C   0  0  0  0  0  0  0  0  0  0  0  0
    8.5358   -1.1285   -0.7593 C   0  0  0  0  0  0  0  0  0  0  0  0
    9.2972   -0.2754    0.2445 C   0  0  0  0  0  0  0  0  0  0  0  0
    8.2120    0.3209    1.1480 C   0  0  0  0  0  0  0  0  0  0  0  0
    7.2322    1.1363    0.3877 C   0  0  0  0  0  0  0  0  0  0  0  0
   -4.6317   -1.4312   -0.1614 H   0  0  0  0  0  0  0  0  0  0  0  0
   -3.2790   -2.1093    0.7372 H   0  0  0  0  0  0  0  0  0  0  0  0
   -2.7251   -3.4312   -1.3855 H   0  0  0  0  0  0  0  0  0  0  0  0
   -4.1409   -3.9118   -0.4020 H   0  0  0  0  0  0  0  0  0  0  0  0
   -4.3317   -3.5423   -3.1082 H   0  0  0  0  0  0  0  0  0  0  0  0
   -5.9982   -3.4606   -1.0488 H   0  0  0  0  0  0  0  0  0  0  0  0
   -4.5193   -1.4560   -3.8769 H   0  0  0  0  0  0  0  0  0  0  0  0
   -5.3998   -0.8453   -2.4820 H   0  0  0  0  0  0  0  0  0  0  0  0
   -2.4517   -0.8656   -3.2021 H   0  0  0  0  0  0  0  0  0  0  0  0
   -2.3332    2.3430   -0.9938 H   0  0  0  0  0  0  0  0  0  0  0  0
   -4.1502    3.1540   -0.2378 H   0  0  0  0  0  0  0  0  0  0  0  0
   -2.9569    2.9067    1.8887 H   0  0  0  0  0  0  0  0  0  0  0  0
   -4.0703    1.5647    2.3265 H   0  0  0  0  0  0  0  0  0  0  0  0
   -4.7631    3.8682    2.9040 H   0  0  0  0  0  0  0  0  0  0  0  0
   -5.0769    4.0474    1.0870 H   0  0  0  0  0  0  0  0  0  0  0  0
   -6.4339    2.2644    3.1595 H   0  0  0  0  0  0  0  0  0  0  0  0
   -6.9804    4.0739    1.0773 H   0  0  0  0  0  0  0  0  0  0  0  0
   -7.1435    0.9370    1.0381 H   0  0  0  0  0  0  0  0  0  0  0  0
   -5.6646    0.4112    1.8383 H   0  0  0  0  0  0  0  0  0  0  0  0
   -5.5228    0.6398   -0.6380 H   0  0  0  0  0  0  0  0  0  0  0  0
   -6.1134    2.2818   -0.5230 H   0  0  0  0  0  0  0  0  0  0  0  0
   -1.7789   -1.6376   -1.2106 H   0  0  0  0  0  0  0  0  0  0  0  0
   -1.3554    0.4950   -1.3523 H   0  0  0  0  0  0  0  0  0  0  0  0
   -0.5903    1.1353    0.6307 H   0  0  0  0  0  0  0  0  0  0  0  0
   -1.7998   -0.7278    2.3310 H   0  0  0  0  0  0  0  0  0  0  0  0
   -0.7827   -1.8861    0.6747 H   0  0  0  0  0  0  0  0  0  0  0  0
    0.3220   -0.5800   -1.4663 H   0  0  0  0  0  0  0  0  0  0  0  0
    1.2356   -1.8077   -0.5360 H   0  0  0  0  0  0  0  0  0  0  0  0
    1.4486    1.1300    0.2370 H   0  0  0  0  0  0  0  0  0  0  0  0
    2.3633    0.3982   -1.1046 H   0  0  0  0  0  0  0  0  0  0  0  0
    3.3983    0.2576    1.2745 H   0  0  0  0  0  0  0  0  0  0  0  0
    2.4426   -1.3108    2.7179 H   0  0  0  0  0  0  0  0  0  0  0  0
    1.8806   -2.3617    1.4053 H   0  0  0  0  0  0  0  0  0  0  0  0
    0.1150   -1.2670    2.7795 H   0  0  0  0  0  0  0  0  0  0  0  0
    0.6543    0.3309    2.1908 H   0  0  0  0  0  0  0  0  0  0  0  0
    5.4187   -1.8008   -0.6474 H   0  0  0  0  0  0  0  0  0  0  0  0
    5.3985   -1.0364    0.9481 H   0  0  0  0  0  0  0  0  0  0  0  0
    4.7205    0.4822   -1.6682 H   0  0  0  0  0  0  0  0  0  0  0  0
    4.6316    1.1247   -0.0202 H   0  0  0  0  0  0  0  0  0  0  0  0
    6.6339   -0.4301   -2.4082 H   0  0  0  0  0  0  0  0  0  0  0  0
    7.8946    0.8146   -2.2569 H   0  0  0  0  0  0  0  0  0  0  0  0
    8.9372   -1.2695   -1.9453 H   0  0  0  0  0  0  0  0  0  0  0  0
    7.8774   -1.7575   -0.5710 H   0  0  0  0  0  0  0  0  0  0  0  0
    9.8933   -0.8580    0.3061 H   0  0  0  0  0  0  0  0  0  0  0  0
    9.6044    0.7637   -0.5402 H   0  0  0  0  0  0  0  0  0  0  0  0
    7.7612   -0.7171    1.4074 H   0  0  0  0  0  0  0  0  0  0  0  0
    8.7370    0.8047    1.8078 H   0  0  0  0  0  0  0  0  0  0  0  0
    7.5758    2.1724    0.3676 H   0  0  0  0  0  0  0  0  0  0  0  0
    6.3327    1.2802    1.2647 H   0  0  0  0  0  0  0  0  0  0  0  0
   -2.0162   -2.2137    1.7175 H   0  0  0  0  0  0  0  0  0  0  0  0
   -3.6015   -2.9100    1.8813 H   0  0  0  0  0  0  0  0  0  0  0  0
   -2.5204   -4.5328    0.8092 H   0  0  0  0  0  0  0  0  0  0  0  0
   -1.7115   -3.5647   -0.4093 H   0  0  0  0  0  0  0  0  0  0  0  0
   -3.5557   -4.6117   -1.4736 H   0  0  0  0  0  0  0  0  0  0  0  0
   -5.2035   -3.8026    0.7495 H   0  0  0  0  0  0  0  0  0  0  0  0
   -3.7874   -2.4253   -2.2651 H   0  0  0  0  0  0  0  0  0  0  0  0
   -5.3857   -2.9668   -1.7915 H   0  0  0  0  0  0  0  0  0  0  0  0
   -5.5918   -1.7191    0.0704 H   0  0  0  0  0  0  0  0  0  0  0  0
   -2.9560    1.4336   -1.3438 H   0  0  0  0  0  0  0  0  0  0  0  0
   -3.0977    2.6440    0.7064 H   0  0  0  0  0  0  0  0  0  0  0  0
   -4.4094    1.4979    2.4013 H   0  0  0  0  0  0  0  0  0  0  0  0
   -5.8105    1.2722    1.2139 H   0  0  0  0  0  0  0  0  0  0  0  0
   -5.9143    3.1680    2.8516 H   0  0  0  0  0  0  0  0  0  0  0  0
   -4.6540    4.0145    1.7974 H   0  0  0  0  0  0  0  0  0  0  0  0
   -7.5565    3.2237    1.2179 H   0  0  0  0  0  0  0  0  0  0  0  0
   -6.2849    5.1943   -0.2485 H   0  0  0  0  0  0  0  0  0  0  0  0
   -6.6477    3.5347   -1.2796 H   0  0  0  0  0  0  0  0  0  0  0  0
   -6.5615    1.9047   -0.5800 H   0  0  0  0  0  0  0  0  0  0  0  0
   -4.4808    2.8190   -1.6791 H   0  0  0  0  0  0  0  0  0  0  0  0
   -4.4159    4.0933   -0.4367 H   0  0  0  0  0  0  0  0  0  0  0  0
   -4.1100   -0.8296    1.4379 H   0  0  0  0  0  0  0  0  0  0  0  0
   -2.3309    0.4178    1.1402 H   0  0  0  0  0  0  0  0  0  0  0  0
   -1.1164    0.8939   -0.7364 H   0  0  0  0  0  0  0  0  0  0  0  0
   -1.4296   -1.5166   -2.1305 H   0  0  0  0  0  0  0  0  0  0  0  0
   -0.2383   -1.8702    0.2235 H   0  0  0  0  0  0  0  0  0  0  0  0
    1.4869   -1.6196   -1.1747 H   0  0  0  0  0  0  0  0  0  0  0  0
    0.3917   -0.6004   -2.1311 H   0  0  0  0  0  0  0  0  0  0  0  0
    1.2893    1.3753   -0.6238 H   0  0  0  0  0  0  0  0  0  0  0  0
    2.3746    0.5939   -1.7889 H   0  0  0  0  0  0  0  0  0  0  0  0
    3.2976    0.8008    0.6657 H   0  0  0  0  0  0  0  0  0  0  0  0
    2.1066   -0.1552    2.3551 H   0  0  0  0  0  0  0  0  0  0  0  0
    1.7689   -1.6399    1.3380 H   0  0  0  0  0  0  0  0  0  0  0  0
   -0.1968   -0.3907    2.0575 H   0  0  0  0  0  0  0  0  0  0  0  0
    0.2452    1.0229    1.0840 H   0  0  0  0  0  0  0  0  0  0  0  0
    5.3834   -1.7043   -0.6088 H   0  0  0  0  0  0  0  0  0  0  0  0
    5.2641   -0.7505    0.8722 H   0  0  0  0  0  0  0  0  0  0  0  0
    5.0688    0.3855   -1.9903 H   0  0  0  0  0  0  0  0  0  0  0  0
    4.8715    1.3117   -0.4829 H   0  0  0  0  0  0  0  0  0  0  0  0
    6.8552   -1.0689   -2.0281 H   0  0  0  0  0  0  0  0  0  0  0  0
    8.0801    0.1643   -2.3920 H   0  0  0  0  0  0  0  0  0  0  0  0
    9.3118   -1.5171   -1.4721 H   0  0  0  0  0  0  0  0  0  0  0  0
    8.1211   -1.9981   -0.2109 H   0  0  0  0  0  0  0  0  0  0  0  0
    9.9295   -0.9309    0.8686 H   0  0  0  0  0  0  0  0  0  0  0  0
    9.8799    0.5194   -0.2506 H   0  0  0  0  0  0  0  0  0  0  0  0
    7.7730   -0.5010    1.7488 H   0  0  0  0  0  0  0  0  0  0  0  0
    8.7599    0.9955    1.8595 H   0  0  0  0  0  0  0  0  0  0  0  0
    7.6284    2.1620    0.2199 H   0  0  0  0  0  0  0  0  0  0  0  0
    6.3265    1.2625    1.0544 H   0  0  0  0  0  0  0  0  0  0  0  0
  1  2  1  0
  2  3  1  0
  3  4  1  0
  3  5  1  0
  5  6  1  0
  6  7  1  0
  7  8  1  0
  8  9  1  0
  9 10  1  0
 10 11  1  0
 11 12  1  0
 12 13  1  0
 12 14  1  0
  9 15  1  0
 14 15  1  0
  1 16  1  0
  6 16  1  0
  8 17  1  0
 16 17  1  0
 17 18  1  0
 18 19  1  0
 18 20  1  0
 20 21  1  0
 21 22  1  0
 22 23  1  0
 23 24  1  0
 20 25  1  0
 24 25  1  0
 23 26  1  0
 26 27  1  0
 27 28  1  0
 28 29  1  0
 29 30  1  0
 30 31  1  0
 31 32  1  0
 32 33  1  0
 29 34  1  0
 33 34  1  0
 35 36  1  0
 36 37  1  0
 37 38  1  0
 37 39  1  0
 39 40  1  0
 40 41  1  0
 41 42  1  0
 42 43  1  0
 43 44  1  0
 44 45  1  0
 45 46  1  0
 46 47  1  0
 46 48  1  0
 43 49  1  0
 48 49  1  0
 35 50  1  0
 40 50  1  0
 42 51  1  0
 50 51  1  0
 51 52  1  0
 52 53  1  0
 52 54  1  0
 54 55  1  0
 55 56  1  0
 56 57  1  0
 57 58  1  0
 54 59  1  0
 58 59  1  0
 57 60  1  0
 60 61  1  0
 61 62  1  0
 62 63  1  0
 63 64  1  0
 64 65  1  0
 65 66  1  0
 66 67  1  0
 63 68  1  0
 67 68  1  0
  1 69  1  0
  1 70  1  0
  2 71  1  0
  2 72  1  0
  3 73  1  0
  4 74  1  0
  5 75  1  0
  5 76  1  0
  6 77  1  0
  8 78  1  6
  9 79  1  0
 10 80  1  0
 10 81  1  0
 11 82  1  0
 11 83  1  0
 12 84  1  0
 13 85  1  0
 14 86  1  0
 14 87  1  0
 15 88  1  0
 15 89  1  0
 16 90  1  0
 17 91  1  0
 18 92  1  0
 19 93  1  0
 20 94  1  0
 21 95  1  0
 21 96  1  0
 22 97  1  0
 22 98  1  0
 23 99  1  0
 24100  1  0
 24101  1  0
 25102  1  0
 25103  1  0
 27104  1  0
 27105  1  0
 28106  1  0
 28107  1  0
 30108  1  0
 30109  1  0
 31110  1  0
 31111  1  0
 32112  1  0
 32113  1  0
 33114  1  0
 33115  1  0
 34116  1  0
 34117  1  0
 35118  1  0
 35119  1  0
 36120  1  0
 36121  1  0
 37122  1  0
 38123  1  0
 39124  1  0
 39125  1  0
 40126  1  0
 42127  1  6
 43128  1  0
 44129  1  0
 44130  1  0
 45131  1  0
 45132  1  0
 46133  1  0
 47134  1  0
 48135  1  0
 48136  1  0
 49137  1  0
 49138  1  0
 50139  1  0
 51140  1  1
 52141  1  6
 53142  1  0
 54143  1  0
 55144  1  0
 55145  1  0
 56146  1  0
 56147  1  0
 57148  1  0
 58149  1  0
 58150  1  0
 59151  1  0
 59152  1  0
 61153  1  0
 61154  1  0
 62155  1  0
 62156  1  0
 64157  1  0
 64158  1  0
 65159  1  0
 65160  1  0
 66161  1  0
 66162  1  0
 67163  1  0
 67164  1  0
 68165  1  0
 68166  1  0
M  END
>  <PDBID>  (1) 
2QXS

>  <PDB ID>  (1) 
2QXS

>  <Generic Name>  (1) 
Raloxifene

>  <Brand Name>  (1) 
Act Raloxifene#Apo-raloxifene#Evista#Evista (60mg)#PMS-raloxifene#Raloxifene#Raloxifene Hydrochloride#Teva-raloxifene#Keoxifene

>  <DrugBank ID>  (1) 
DB00481

>  <ATC Codes>  (1) 
G03XC01

>  <Ligand ID>  (1) 
RAL

>  <Target Name>  (1) 
Estrogen receptor

>  <UniProt ID>  (1) 
P03372

>  <PDB ID.1>  (1) 
2QXS

>  <Seq. Identity>  (1) 
93%

$$$$
