PDB_DB08873_04
     RDKit          3D

 91 93  0  0  0  0  0  0  0  0999 V2000
   -4.5939   -0.0118    0.4503 C   0  0  0  0  0  0  0  0  0  0  0  0
   -5.1409    0.4576    1.6983 O   0  0  0  0  0  0  0  0  0  0  0  0
   -4.9707   -1.3865    0.3915 N   0  0  0  0  0  0  0  0  0  0  0  0
   -6.3405   -1.6948    0.5622 C   0  0  0  0  0  0  0  0  0  0  0  0
   -6.9155   -1.3550    1.9226 C   0  0  0  0  0  0  0  0  0  0  0  0
   -7.1445   -0.9842   -0.5245 C   0  0  0  0  0  0  0  0  0  0  0  0
   -6.5008   -3.2097    0.3344 C   0  0  0  0  0  0  0  0  0  0  0  0
   -3.2009    0.2328    0.4359 N   0  0  0  0  0  0  0  0  0  0  0  0
   -2.3913   -0.1856   -0.6566 C   0  0  1  0  0  0  0  0  0  0  0  0
   -2.6207    0.4205   -1.9776 C   0  0  0  0  0  0  0  0  0  0  0  0
   -2.4434    1.9431   -1.8472 C   0  0  0  0  0  0  0  0  0  0  0  0
   -3.9847    0.1918   -2.5782 C   0  0  0  0  0  0  0  0  0  0  0  0
   -1.6214    0.0325   -3.0458 C   0  0  0  0  0  0  0  0  0  0  0  0
   -0.9645   -0.4217   -0.2252 C   0  0  1  0  0  0  0  0  0  0  0  0
   -0.2748   -0.8770   -1.3357 O   0  0  0  0  0  0  0  0  0  0  0  0
   -0.2766    0.7099    0.3074 N   0  0  0  0  0  0  0  0  0  0  0  0
   -0.7926    1.2848    1.4763 C   0  0  0  0  0  0  0  0  0  0  0  0
    1.1277    0.4919    0.4952 C   0  0  1  0  0  0  0  0  0  0  0  0
    1.4965    1.6792    1.4265 C   0  0  2  0  0  0  0  0  0  0  0  0
    0.2489    2.3299    1.8468 C   0  0  1  0  0  0  0  0  0  0  0  0
    1.0965    3.0059    0.8694 C   0  0  0  0  0  0  0  0  0  0  0  0
    1.9229    4.1581    1.4277 C   0  0  0  0  0  0  0  0  0  0  0  0
    0.6545    3.1823   -0.5426 C   0  0  0  0  0  0  0  0  0  0  0  0
    1.5050   -0.7403    1.2220 C   0  0  0  0  0  0  0  0  0  0  0  0
    0.9718   -0.7579    2.5450 O   0  0  0  0  0  0  0  0  0  0  0  0
    2.8593   -0.9875    1.3090 N   0  0  0  0  0  0  0  0  0  0  0  0
    3.7452   -1.4019    0.3432 C   0  0  1  0  0  0  0  0  0  0  0  0
    3.9701   -0.6038   -0.8656 C   0  0  0  0  0  0  0  0  0  0  0  0
    4.9737   -1.1287   -1.8645 C   0  0  0  0  0  0  0  0  0  0  0  0
    6.3783   -1.3187   -1.5415 C   0  0  0  0  0  0  0  0  0  0  0  0
    5.3472   -0.0428   -2.8345 C   0  0  0  0  0  0  0  0  0  0  0  0
    6.6959    0.0228   -2.1669 C   0  0  0  0  0  0  0  0  0  0  0  0
    4.7542   -2.7310    1.9955 O   0  0  0  0  0  0  0  0  0  0  0  0
    5.0629   -1.7180    1.0870 C   0  0  0  0  0  0  0  0  0  0  0  0
    6.7574   -0.9992    2.4914 O   0  0  0  0  0  0  0  0  0  0  0  0
    5.9203    0.6019    1.1190 N   0  0  0  0  0  0  0  0  0  0  0  0
    5.5545   -0.5465    1.8892 C   0  0  0  0  0  0  0  0  0  0  0  0
   -5.1138    0.6062   -0.2902 H   0  0  0  0  0  0  0  0  0  0  0  0
   -4.5958    0.0772    2.4546 H   0  0  0  0  0  0  0  0  0  0  0  0
   -4.3436   -1.9853    0.9767 H   0  0  0  0  0  0  0  0  0  0  0  0
   -7.2797   -0.3194    1.9981 H   0  0  0  0  0  0  0  0  0  0  0  0
   -6.2369   -1.6415    2.7459 H   0  0  0  0  0  0  0  0  0  0  0  0
   -7.8476   -1.9861    2.0042 H   0  0  0  0  0  0  0  0  0  0  0  0
   -8.1326   -1.5008   -0.5248 H   0  0  0  0  0  0  0  0  0  0  0  0
   -6.6039   -1.1197   -1.4666 H   0  0  0  0  0  0  0  0  0  0  0  0
   -7.2999    0.0792   -0.2701 H   0  0  0  0  0  0  0  0  0  0  0  0
   -7.5734   -3.4903    0.4445 H   0  0  0  0  0  0  0  0  0  0  0  0
   -5.8218   -3.7269    1.0372 H   0  0  0  0  0  0  0  0  0  0  0  0
   -6.1072   -3.4468   -0.6862 H   0  0  0  0  0  0  0  0  0  0  0  0
   -2.8189   -0.2970    1.2910 H   0  0  0  0  0  0  0  0  0  0  0  0
   -2.7451   -1.2861   -0.8098 H   0  0  0  0  0  0  0  0  0  0  0  0
   -1.4660    2.2819   -2.2512 H   0  0  0  0  0  0  0  0  0  0  0  0
   -2.5123    2.2777   -0.8036 H   0  0  0  0  0  0  0  0  0  0  0  0
   -3.2674    2.4686   -2.4135 H   0  0  0  0  0  0  0  0  0  0  0  0
   -4.4183   -0.7648   -2.2363 H   0  0  0  0  0  0  0  0  0  0  0  0
   -4.6757    1.0441   -2.5010 H   0  0  0  0  0  0  0  0  0  0  0  0
   -3.8958    0.0361   -3.7089 H   0  0  0  0  0  0  0  0  0  0  0  0
   -1.5134   -1.0232   -3.2431 H   0  0  0  0  0  0  0  0  0  0  0  0
   -2.0839    0.4405   -4.0107 H   0  0  0  0  0  0  0  0  0  0  0  0
   -0.6807    0.6159   -2.9884 H   0  0  0  0  0  0  0  0  0  0  0  0
   -1.0055   -1.2776    0.4897 H   0  0  0  0  0  0  0  0  0  0  0  0
    0.6558   -0.6567   -1.4014 H   0  0  0  0  0  0  0  0  0  0  0  0
   -0.8866    0.6358    2.3674 H   0  0  0  0  0  0  0  0  0  0  0  0
   -1.7664    1.8121    1.3895 H   0  0  0  0  0  0  0  0  0  0  0  0
    1.7338    0.6851   -0.3880 H   0  0  0  0  0  0  0  0  0  0  0  0
    2.3608    1.5422    2.0850 H   0  0  0  0  0  0  0  0  0  0  0  0
    0.1350    2.7838    2.8587 H   0  0  0  0  0  0  0  0  0  0  0  0
    2.8383    4.1995    0.8059 H   0  0  0  0  0  0  0  0  0  0  0  0
    2.2433    3.9465    2.4686 H   0  0  0  0  0  0  0  0  0  0  0  0
    1.4062    5.1400    1.3180 H   0  0  0  0  0  0  0  0  0  0  0  0
    1.3573    3.9013   -1.0657 H   0  0  0  0  0  0  0  0  0  0  0  0
    0.6793    2.2691   -1.1627 H   0  0  0  0  0  0  0  0  0  0  0  0
   -0.3450    3.7047   -0.6126 H   0  0  0  0  0  0  0  0  0  0  0  0
    0.9292   -1.6374    0.7622 H   0  0  0  0  0  0  0  0  0  0  0  0
    0.9950   -1.6865    2.8881 H   0  0  0  0  0  0  0  0  0  0  0  0
    3.1952   -1.1659    2.3055 H   0  0  0  0  0  0  0  0  0  0  0  0
    3.3926   -2.4468   -0.0411 H   0  0  0  0  0  0  0  0  0  0  0  0
    4.0888    0.4813   -0.6812 H   0  0  0  0  0  0  0  0  0  0  0  0
    3.0008   -0.6789   -1.4750 H   0  0  0  0  0  0  0  0  0  0  0  0
    4.5315   -1.9790   -2.4824 H   0  0  0  0  0  0  0  0  0  0  0  0
    6.7611   -1.4899   -0.5488 H   0  0  0  0  0  0  0  0  0  0  0  0
    6.8292   -2.1062   -2.2256 H   0  0  0  0  0  0  0  0  0  0  0  0
    4.7460    0.8922   -2.7622 H   0  0  0  0  0  0  0  0  0  0  0  0
    5.4971   -0.3858   -3.8927 H   0  0  0  0  0  0  0  0  0  0  0  0
    6.7597    0.8851   -1.5071 H   0  0  0  0  0  0  0  0  0  0  0  0
    7.5608    0.0208   -2.8645 H   0  0  0  0  0  0  0  0  0  0  0  0
    3.9161   -3.1969    1.8057 H   0  0  0  0  0  0  0  0  0  0  0  0
    7.3753   -1.1309    1.7397 H   0  0  0  0  0  0  0  0  0  0  0  0
    5.3235    1.4072    1.3653 H   0  0  0  0  0  0  0  0  0  0  0  0
    6.9314    0.7879    1.0579 H   0  0  0  0  0  0  0  0  0  0  0  0
    4.9295   -0.2378    2.7216 H   0  0  0  0  0  0  0  0  0  0  0  0
  1  2  1  0
  1  3  1  0
  4  3  1  0
  4  5  1  0
  4  6  1  0
  4  7  1  0
  1  8  1  0
  8  9  1  0
  9 10  1  0
 10 11  1  0
 10 12  1  0
 10 13  1  0
  9 14  1  0
 14 15  1  0
 14 16  1  0
 16 17  1  0
 16 18  1  0
 18 19  1  0
 17 20  1  0
 19 20  1  0
 19 21  1  0
 20 21  1  0
 21 22  1  0
 21 23  1  0
 18 24  1  0
 24 25  1  0
 24 26  1  0
 26 27  1  0
 27 28  1  0
 28 29  1  0
 29 30  1  0
 29 31  1  0
 30 32  1  0
 31 32  1  0
 27 34  1  0
 34 33  1  0
 34 37  1  0
 35 37  1  0
 36 37  1  0
  1 38  1  0
  2 39  1  0
  3 40  1  0
  5 41  1  0
  5 42  1  0
  5 43  1  0
  6 44  1  0
  6 45  1  0
  6 46  1  0
  7 47  1  0
  7 48  1  0
  7 49  1  0
  8 50  1  0
  9 51  1  6
 11 52  1  0
 11 53  1  0
 11 54  1  0
 12 55  1  0
 12 56  1  0
 12 57  1  0
 13 58  1  0
 13 59  1  0
 13 60  1  0
 14 61  1  1
 15 62  1  0
 17 63  1  0
 17 64  1  0
 18 65  1  6
 19 66  1  1
 20 67  1  1
 22 68  1  0
 22 69  1  0
 22 70  1  0
 23 71  1  0
 23 72  1  0
 23 73  1  0
 24 74  1  0
 25 75  1  0
 26 76  1  0
 27 77  1  6
 28 78  1  0
 28 79  1  0
 29 80  1  0
 30 81  1  0
 30 82  1  0
 31 83  1  0
 31 84  1  0
 32 85  1  0
 32 86  1  0
 33 87  1  0
 35 88  1  0
 36 89  1  0
 36 90  1  0
 37 91  1  0
M  END
>  <PDBID>  (1) 
2OC8

>  <PDB ID>  (1) 
2OC8

>  <Generic Name>  (1) 
Boceprevir

>  <Brand Name>  (1) 
Victrelis#Victrelis Triple

>  <DrugBank ID>  (1) 
DB08873

>  <ATC Codes>  (1) 
J05AE12

>  <Ligand ID>  (1) 
HU5

>  <Target Name>  (1) 
Genome polyprotein

>  <UniProt ID>  (1) 
B0B3C9

>  <PDB ID.1>  (1) 
2OC8

>  <Seq. Identity>  (1) 
69%

$$$$
