PDB_DB01016_01
     RDKit          3D

316324  0  0  0  0  0  0  0  0999 V2000
   -5.8405    1.5793    0.7322 O   0  0  0  0  0  0  0  0  0  0  0  0
   -3.8448    3.0044    1.4450 O   0  0  0  0  0  0  0  0  0  0  0  0
   -3.4966    2.6369   -1.1465 O   0  0  0  0  0  0  0  0  0  0  0  0
    3.2325   -2.1187   -0.0939 O   0  0  0  0  0  0  0  0  0  0  0  0
    7.8847    1.8495    0.0470 Cl  0  0  0  0  0  0  0  0  0  0  0  0
   -3.2019    2.2550    0.4027 S   0  0  0  0  0  0  0  0  0  0  0  0
    6.9944   -2.5343    0.8830 O   0  0  0  0  0  0  0  0  0  0  0  0
   -5.5811   -0.5690    1.6604 N   0  0  0  0  0  0  0  0  0  0  0  0
   -3.8230    0.5158    0.3970 N   0  0  0  0  0  0  0  0  0  0  0  0
    3.0435    0.1415    0.1917 N   0  0  0  0  0  0  0  0  0  0  0  0
   -6.2543   -1.2836    0.6371 C   0  0  0  0  0  0  0  0  0  0  0  0
   -5.3541   -1.7378   -0.4845 C   0  0  0  0  0  0  0  0  0  0  0  0
   -7.4040   -0.5381    0.0011 C   0  0  0  0  0  0  0  0  0  0  0  0
   -6.1076   -2.8116   -1.2524 C   0  0  0  0  0  0  0  0  0  0  0  0
   -8.2329   -1.5439   -0.7514 C   0  0  0  0  0  0  0  0  0  0  0  0
   -7.5670   -2.8558   -0.9589 C   0  0  0  0  0  0  0  0  0  0  0  0
   -4.9680    0.6528    1.2679 C   0  0  0  0  0  0  0  0  0  0  0  0
   -1.5159    2.0158    0.5837 C   0  0  0  0  0  0  0  0  0  0  0  0
    1.1728    2.3468   -0.5770 C   0  0  0  0  0  0  0  0  0  0  0  0
    2.4048    2.5208    0.2329 C   0  0  0  0  0  0  0  0  0  0  0  0
   -0.9802    1.2269   -0.5871 C   0  0  0  0  0  0  0  0  0  0  0  0
   -0.7405    3.2979    0.7267 C   0  0  0  0  0  0  0  0  0  0  0  0
    0.5047    1.0258   -0.3151 C   0  0  0  0  0  0  0  0  0  0  0  0
    0.2103    3.5087   -0.4428 C   0  0  0  0  0  0  0  0  0  0  0  0
    3.4715    1.4540   -0.0667 C   0  0  0  0  0  0  0  0  0  0  0  0
    3.9564   -0.8781   -0.1505 C   0  0  0  0  0  0  0  0  0  0  0  0
    5.1966   -1.0807    0.5941 C   0  0  0  0  0  0  0  0  0  0  0  0
    6.0266   -2.2309   -0.0512 C   0  0  0  0  0  0  0  0  0  0  0  0
    6.1678   -0.0071    0.8532 C   0  0  0  0  0  0  0  0  0  0  0  0
    6.6725   -1.7440   -1.3068 C   0  0  0  0  0  0  0  0  0  0  0  0
    6.7845    0.5534   -0.4199 C   0  0  0  0  0  0  0  0  0  0  0  0
    7.5819   -0.5968   -1.0285 C   0  0  0  0  0  0  0  0  0  0  0  0
    6.8301   -3.8565    1.2802 C   0  0  0  0  0  0  0  0  0  0  0  0
   -5.8405    1.5793    0.7322 O   0  0  0  0  0  0  0  0  0  0  0  0
   -3.8448    3.0044    1.4450 O   0  0  0  0  0  0  0  0  0  0  0  0
   -3.4966    2.6369   -1.1465 O   0  0  0  0  0  0  0  0  0  0  0  0
    3.2325   -2.1187   -0.0939 O   0  0  0  0  0  0  0  0  0  0  0  0
    7.8847    1.8495    0.0470 Cl  0  0  0  0  0  0  0  0  0  0  0  0
   -3.2019    2.2550    0.4027 S   0  0  0  0  0  0  0  0  0  0  0  0
    6.9944   -2.5343    0.8830 O   0  0  0  0  0  0  0  0  0  0  0  0
   -5.5811   -0.5690    1.6604 N   0  0  0  0  0  0  0  0  0  0  0  0
   -3.8230    0.5158    0.3970 N   0  0  0  0  0  0  0  0  0  0  0  0
    3.0435    0.1415    0.1917 N   0  0  0  0  0  0  0  0  0  0  0  0
   -6.2543   -1.2836    0.6371 C   0  0  0  0  0  0  0  0  0  0  0  0
   -5.3541   -1.7378   -0.4845 C   0  0  0  0  0  0  0  0  0  0  0  0
   -7.4040   -0.5381    0.0011 C   0  0  0  0  0  0  0  0  0  0  0  0
   -6.1076   -2.8116   -1.2524 C   0  0  0  0  0  0  0  0  0  0  0  0
   -8.2329   -1.5439   -0.7514 C   0  0  0  0  0  0  0  0  0  0  0  0
   -7.5670   -2.8558   -0.9589 C   0  0  0  0  0  0  0  0  0  0  0  0
   -4.9680    0.6528    1.2679 C   0  0  0  0  0  0  0  0  0  0  0  0
   -1.5159    2.0158    0.5837 C   0  0  0  0  0  0  0  0  0  0  0  0
    1.1728    2.3468   -0.5770 C   0  0  0  0  0  0  0  0  0  0  0  0
    2.4048    2.5208    0.2329 C   0  0  0  0  0  0  0  0  0  0  0  0
   -0.9802    1.2269   -0.5871 C   0  0  0  0  0  0  0  0  0  0  0  0
   -0.7405    3.2979    0.7267 C   0  0  0  0  0  0  0  0  0  0  0  0
    0.5047    1.0258   -0.3151 C   0  0  0  0  0  0  0  0  0  0  0  0
    0.2103    3.5087   -0.4428 C   0  0  0  0  0  0  0  0  0  0  0  0
    3.4715    1.4540   -0.0667 C   0  0  0  0  0  0  0  0  0  0  0  0
    3.9564   -0.8781   -0.1505 C   0  0  0  0  0  0  0  0  0  0  0  0
    5.1966   -1.0807    0.5941 C   0  0  0  0  0  0  0  0  0  0  0  0
    6.0266   -2.2309   -0.0512 C   0  0  0  0  0  0  0  0  0  0  0  0
    6.1678   -0.0071    0.8532 C   0  0  0  0  0  0  0  0  0  0  0  0
    6.6725   -1.7440   -1.3068 C   0  0  0  0  0  0  0  0  0  0  0  0
    6.7845    0.5534   -0.4199 C   0  0  0  0  0  0  0  0  0  0  0  0
    7.5819   -0.5968   -1.0285 C   0  0  0  0  0  0  0  0  0  0  0  0
    6.8301   -3.8565    1.2802 C   0  0  0  0  0  0  0  0  0  0  0  0
   -5.8405    1.5793    0.7322 O   0  0  0  0  0  0  0  0  0  0  0  0
   -3.8448    3.0044    1.4450 O   0  0  0  0  0  0  0  0  0  0  0  0
   -3.4966    2.6369   -1.1465 O   0  0  0  0  0  0  0  0  0  0  0  0
    3.2325   -2.1187   -0.0939 O   0  0  0  0  0  0  0  0  0  0  0  0
    7.8847    1.8495    0.0470 Cl  0  0  0  0  0  0  0  0  0  0  0  0
   -3.2019    2.2550    0.4027 S   0  0  0  0  0  0  0  0  0  0  0  0
    6.9944   -2.5343    0.8830 O   0  0  0  0  0  0  0  0  0  0  0  0
   -5.5811   -0.5690    1.6604 N   0  0  0  0  0  0  0  0  0  0  0  0
   -3.8230    0.5158    0.3970 N   0  0  0  0  0  0  0  0  0  0  0  0
    3.0435    0.1415    0.1917 N   0  0  0  0  0  0  0  0  0  0  0  0
   -6.2543   -1.2836    0.6371 C   0  0  0  0  0  0  0  0  0  0  0  0
   -5.3541   -1.7378   -0.4845 C   0  0  0  0  0  0  0  0  0  0  0  0
   -7.4040   -0.5381    0.0011 C   0  0  0  0  0  0  0  0  0  0  0  0
   -6.1076   -2.8116   -1.2524 C   0  0  0  0  0  0  0  0  0  0  0  0
   -8.2329   -1.5439   -0.7514 C   0  0  0  0  0  0  0  0  0  0  0  0
   -7.5670   -2.8558   -0.9589 C   0  0  0  0  0  0  0  0  0  0  0  0
   -4.9680    0.6528    1.2679 C   0  0  0  0  0  0  0  0  0  0  0  0
   -1.5159    2.0158    0.5837 C   0  0  0  0  0  0  0  0  0  0  0  0
    1.1728    2.3468   -0.5770 C   0  0  0  0  0  0  0  0  0  0  0  0
    2.4048    2.5208    0.2329 C   0  0  0  0  0  0  0  0  0  0  0  0
   -0.9802    1.2269   -0.5871 C   0  0  0  0  0  0  0  0  0  0  0  0
   -0.7405    3.2979    0.7267 C   0  0  0  0  0  0  0  0  0  0  0  0
    0.5047    1.0258   -0.3151 C   0  0  0  0  0  0  0  0  0  0  0  0
    0.2103    3.5087   -0.4428 C   0  0  0  0  0  0  0  0  0  0  0  0
    3.4715    1.4540   -0.0667 C   0  0  0  0  0  0  0  0  0  0  0  0
    3.9564   -0.8781   -0.1505 C   0  0  0  0  0  0  0  0  0  0  0  0
    5.1966   -1.0807    0.5941 C   0  0  0  0  0  0  0  0  0  0  0  0
    6.0266   -2.2309   -0.0512 C   0  0  0  0  0  0  0  0  0  0  0  0
    6.1678   -0.0071    0.8532 C   0  0  0  0  0  0  0  0  0  0  0  0
    6.6725   -1.7440   -1.3068 C   0  0  0  0  0  0  0  0  0  0  0  0
    6.7845    0.5534   -0.4199 C   0  0  0  0  0  0  0  0  0  0  0  0
    7.5819   -0.5968   -1.0285 C   0  0  0  0  0  0  0  0  0  0  0  0
    6.8301   -3.8565    1.2802 C   0  0  0  0  0  0  0  0  0  0  0  0
   -5.8405    1.5793    0.7322 O   0  0  0  0  0  0  0  0  0  0  0  0
   -3.8448    3.0044    1.4450 O   0  0  0  0  0  0  0  0  0  0  0  0
   -3.4966    2.6369   -1.1465 O   0  0  0  0  0  0  0  0  0  0  0  0
    3.2325   -2.1187   -0.0939 O   0  0  0  0  0  0  0  0  0  0  0  0
    7.8847    1.8495    0.0470 Cl  0  0  0  0  0  0  0  0  0  0  0  0
   -3.2019    2.2550    0.4027 S   0  0  0  0  0  0  0  0  0  0  0  0
    6.9944   -2.5343    0.8830 O   0  0  0  0  0  0  0  0  0  0  0  0
   -5.5811   -0.5690    1.6604 N   0  0  0  0  0  0  0  0  0  0  0  0
   -3.8230    0.5158    0.3970 N   0  0  0  0  0  0  0  0  0  0  0  0
    3.0435    0.1415    0.1917 N   0  0  0  0  0  0  0  0  0  0  0  0
   -6.2543   -1.2836    0.6371 C   0  0  0  0  0  0  0  0  0  0  0  0
   -5.3541   -1.7378   -0.4845 C   0  0  0  0  0  0  0  0  0  0  0  0
   -7.4040   -0.5381    0.0011 C   0  0  0  0  0  0  0  0  0  0  0  0
   -6.1076   -2.8116   -1.2524 C   0  0  0  0  0  0  0  0  0  0  0  0
   -8.2329   -1.5439   -0.7514 C   0  0  0  0  0  0  0  0  0  0  0  0
   -7.5670   -2.8558   -0.9589 C   0  0  0  0  0  0  0  0  0  0  0  0
   -4.9680    0.6528    1.2679 C   0  0  0  0  0  0  0  0  0  0  0  0
   -1.5159    2.0158    0.5837 C   0  0  0  0  0  0  0  0  0  0  0  0
    1.1728    2.3468   -0.5770 C   0  0  0  0  0  0  0  0  0  0  0  0
    2.4048    2.5208    0.2329 C   0  0  0  0  0  0  0  0  0  0  0  0
   -0.9802    1.2269   -0.5871 C   0  0  0  0  0  0  0  0  0  0  0  0
   -0.7405    3.2979    0.7267 C   0  0  0  0  0  0  0  0  0  0  0  0
    0.5047    1.0258   -0.3151 C   0  0  0  0  0  0  0  0  0  0  0  0
    0.2103    3.5087   -0.4428 C   0  0  0  0  0  0  0  0  0  0  0  0
    3.4715    1.4540   -0.0667 C   0  0  0  0  0  0  0  0  0  0  0  0
    3.9564   -0.8781   -0.1505 C   0  0  0  0  0  0  0  0  0  0  0  0
    5.1966   -1.0807    0.5941 C   0  0  0  0  0  0  0  0  0  0  0  0
    6.0266   -2.2309   -0.0512 C   0  0  0  0  0  0  0  0  0  0  0  0
    6.1678   -0.0071    0.8532 C   0  0  0  0  0  0  0  0  0  0  0  0
    6.6725   -1.7440   -1.3068 C   0  0  0  0  0  0  0  0  0  0  0  0
    6.7845    0.5534   -0.4199 C   0  0  0  0  0  0  0  0  0  0  0  0
    7.5819   -0.5968   -1.0285 C   0  0  0  0  0  0  0  0  0  0  0  0
    6.8301   -3.8565    1.2802 C   0  0  0  0  0  0  0  0  0  0  0  0
   -5.5120    1.9447   -0.1405 H   0  0  0  0  0  0  0  0  0  0  0  0
   -4.5922    3.6330    1.4995 H   0  0  0  0  0  0  0  0  0  0  0  0
   -2.8422    3.2417   -1.5317 H   0  0  0  0  0  0  0  0  0  0  0  0
    2.6676   -2.1748   -0.8913 H   0  0  0  0  0  0  0  0  0  0  0  0
   -6.2485   -0.3697    2.4320 H   0  0  0  0  0  0  0  0  0  0  0  0
   -3.0567   -0.0288    0.8009 H   0  0  0  0  0  0  0  0  0  0  0  0
    2.7940    0.0824    1.2397 H   0  0  0  0  0  0  0  0  0  0  0  0
   -6.6773   -2.2116    1.0851 H   0  0  0  0  0  0  0  0  0  0  0  0
   -5.2157   -0.8921   -1.1967 H   0  0  0  0  0  0  0  0  0  0  0  0
   -4.3816   -2.1085   -0.1041 H   0  0  0  0  0  0  0  0  0  0  0  0
   -8.0031    0.0325    0.7197 H   0  0  0  0  0  0  0  0  0  0  0  0
   -6.9424    0.1275   -0.7809 H   0  0  0  0  0  0  0  0  0  0  0  0
   -5.6731   -3.7882   -0.8833 H   0  0  0  0  0  0  0  0  0  0  0  0
   -5.8721   -2.7729   -2.3367 H   0  0  0  0  0  0  0  0  0  0  0  0
   -9.1848   -1.7285   -0.1800 H   0  0  0  0  0  0  0  0  0  0  0  0
   -8.5902   -1.1388   -1.7412 H   0  0  0  0  0  0  0  0  0  0  0  0
   -8.0571   -3.3246   -1.8638 H   0  0  0  0  0  0  0  0  0  0  0  0
   -7.8015   -3.5889   -0.1313 H   0  0  0  0  0  0  0  0  0  0  0  0
   -4.5666    1.1297    2.2123 H   0  0  0  0  0  0  0  0  0  0  0  0
   -1.3439    1.4487    1.5271 H   0  0  0  0  0  0  0  0  0  0  0  0
    1.4862    2.3360   -1.6611 H   0  0  0  0  0  0  0  0  0  0  0  0
    2.8822    3.5059    0.0997 H   0  0  0  0  0  0  0  0  0  0  0  0
    2.1957    2.3989    1.3279 H   0  0  0  0  0  0  0  0  0  0  0  0
   -1.1221    1.7869   -1.5208 H   0  0  0  0  0  0  0  0  0  0  0  0
   -1.5200    0.2765   -0.6275 H   0  0  0  0  0  0  0  0  0  0  0  0
   -0.1313    3.3507    1.6526 H   0  0  0  0  0  0  0  0  0  0  0  0
   -1.4106    4.2032    0.7212 H   0  0  0  0  0  0  0  0  0  0  0  0
    0.6261    0.8361    0.7904 H   0  0  0  0  0  0  0  0  0  0  0  0
    0.9256    0.1863   -0.8734 H   0  0  0  0  0  0  0  0  0  0  0  0
    0.7650    4.4550   -0.2266 H   0  0  0  0  0  0  0  0  0  0  0  0
   -0.3809    3.6850   -1.3513 H   0  0  0  0  0  0  0  0  0  0  0  0
    3.6708    1.5647   -1.1783 H   0  0  0  0  0  0  0  0  0  0  0  0
    4.3279    1.7493    0.5233 H   0  0  0  0  0  0  0  0  0  0  0  0
    4.1846   -0.8203   -1.2781 H   0  0  0  0  0  0  0  0  0  0  0  0
    4.9204   -1.5241    1.5986 H   0  0  0  0  0  0  0  0  0  0  0  0
    5.3388   -3.0628   -0.2948 H   0  0  0  0  0  0  0  0  0  0  0  0
    7.0664   -0.5258    1.3653 H   0  0  0  0  0  0  0  0  0  0  0  0
    5.9182    0.7692    1.5518 H   0  0  0  0  0  0  0  0  0  0  0  0
    5.9308   -1.4249   -2.0602 H   0  0  0  0  0  0  0  0  0  0  0  0
    7.2369   -2.6095   -1.7422 H   0  0  0  0  0  0  0  0  0  0  0  0
    6.0575    0.8897   -1.1560 H   0  0  0  0  0  0  0  0  0  0  0  0
    8.4187   -0.8624   -0.3441 H   0  0  0  0  0  0  0  0  0  0  0  0
    8.0139   -0.2418   -1.9844 H   0  0  0  0  0  0  0  0  0  0  0  0
    6.9408   -4.4855    0.3755 H   0  0  0  0  0  0  0  0  0  0  0  0
    5.8564   -4.0275    1.7718 H   0  0  0  0  0  0  0  0  0  0  0  0
    7.6784   -4.1198    1.9574 H   0  0  0  0  0  0  0  0  0  0  0  0
   -5.5120    1.9447   -0.1405 H   0  0  0  0  0  0  0  0  0  0  0  0
   -4.5922    3.6330    1.4995 H   0  0  0  0  0  0  0  0  0  0  0  0
   -2.8422    3.2417   -1.5317 H   0  0  0  0  0  0  0  0  0  0  0  0
    2.6676   -2.1748   -0.8913 H   0  0  0  0  0  0  0  0  0  0  0  0
   -6.2485   -0.3697    2.4320 H   0  0  0  0  0  0  0  0  0  0  0  0
   -3.0567   -0.0288    0.8009 H   0  0  0  0  0  0  0  0  0  0  0  0
    2.7940    0.0824    1.2397 H   0  0  0  0  0  0  0  0  0  0  0  0
   -6.6773   -2.2116    1.0851 H   0  0  0  0  0  0  0  0  0  0  0  0
   -5.2157   -0.8921   -1.1967 H   0  0  0  0  0  0  0  0  0  0  0  0
   -4.3816   -2.1085   -0.1041 H   0  0  0  0  0  0  0  0  0  0  0  0
   -8.0031    0.0325    0.7197 H   0  0  0  0  0  0  0  0  0  0  0  0
   -6.9424    0.1275   -0.7809 H   0  0  0  0  0  0  0  0  0  0  0  0
   -5.6731   -3.7882   -0.8833 H   0  0  0  0  0  0  0  0  0  0  0  0
   -5.8721   -2.7729   -2.3367 H   0  0  0  0  0  0  0  0  0  0  0  0
   -9.1848   -1.7285   -0.1800 H   0  0  0  0  0  0  0  0  0  0  0  0
   -8.5902   -1.1388   -1.7412 H   0  0  0  0  0  0  0  0  0  0  0  0
   -8.0571   -3.3246   -1.8638 H   0  0  0  0  0  0  0  0  0  0  0  0
   -7.8015   -3.5889   -0.1313 H   0  0  0  0  0  0  0  0  0  0  0  0
   -4.5666    1.1297    2.2123 H   0  0  0  0  0  0  0  0  0  0  0  0
   -1.3439    1.4487    1.5271 H   0  0  0  0  0  0  0  0  0  0  0  0
    1.4862    2.3360   -1.6611 H   0  0  0  0  0  0  0  0  0  0  0  0
    2.8822    3.5059    0.0997 H   0  0  0  0  0  0  0  0  0  0  0  0
    2.1957    2.3989    1.3279 H   0  0  0  0  0  0  0  0  0  0  0  0
   -1.1221    1.7869   -1.5208 H   0  0  0  0  0  0  0  0  0  0  0  0
   -1.5200    0.2765   -0.6275 H   0  0  0  0  0  0  0  0  0  0  0  0
   -0.1313    3.3507    1.6526 H   0  0  0  0  0  0  0  0  0  0  0  0
   -1.4106    4.2032    0.7212 H   0  0  0  0  0  0  0  0  0  0  0  0
    0.6261    0.8361    0.7904 H   0  0  0  0  0  0  0  0  0  0  0  0
    0.9256    0.1863   -0.8734 H   0  0  0  0  0  0  0  0  0  0  0  0
    0.7650    4.4550   -0.2266 H   0  0  0  0  0  0  0  0  0  0  0  0
   -0.3809    3.6850   -1.3513 H   0  0  0  0  0  0  0  0  0  0  0  0
    3.6708    1.5647   -1.1783 H   0  0  0  0  0  0  0  0  0  0  0  0
    4.3279    1.7493    0.5233 H   0  0  0  0  0  0  0  0  0  0  0  0
    4.1846   -0.8203   -1.2781 H   0  0  0  0  0  0  0  0  0  0  0  0
    4.9204   -1.5241    1.5986 H   0  0  0  0  0  0  0  0  0  0  0  0
    5.3388   -3.0628   -0.2948 H   0  0  0  0  0  0  0  0  0  0  0  0
    7.0664   -0.5258    1.3653 H   0  0  0  0  0  0  0  0  0  0  0  0
    5.9182    0.7692    1.5518 H   0  0  0  0  0  0  0  0  0  0  0  0
    5.9308   -1.4249   -2.0602 H   0  0  0  0  0  0  0  0  0  0  0  0
    7.2369   -2.6095   -1.7422 H   0  0  0  0  0  0  0  0  0  0  0  0
    6.0575    0.8897   -1.1560 H   0  0  0  0  0  0  0  0  0  0  0  0
    8.4187   -0.8624   -0.3441 H   0  0  0  0  0  0  0  0  0  0  0  0
    8.0139   -0.2418   -1.9844 H   0  0  0  0  0  0  0  0  0  0  0  0
    6.9408   -4.4855    0.3755 H   0  0  0  0  0  0  0  0  0  0  0  0
    5.8564   -4.0275    1.7718 H   0  0  0  0  0  0  0  0  0  0  0  0
    7.6784   -4.1198    1.9574 H   0  0  0  0  0  0  0  0  0  0  0  0
   -5.5120    1.9447   -0.1405 H   0  0  0  0  0  0  0  0  0  0  0  0
   -4.5922    3.6330    1.4995 H   0  0  0  0  0  0  0  0  0  0  0  0
   -2.8422    3.2417   -1.5317 H   0  0  0  0  0  0  0  0  0  0  0  0
    2.6676   -2.1748   -0.8913 H   0  0  0  0  0  0  0  0  0  0  0  0
   -6.2485   -0.3697    2.4320 H   0  0  0  0  0  0  0  0  0  0  0  0
   -3.0567   -0.0288    0.8009 H   0  0  0  0  0  0  0  0  0  0  0  0
    2.7940    0.0824    1.2397 H   0  0  0  0  0  0  0  0  0  0  0  0
   -6.6773   -2.2116    1.0851 H   0  0  0  0  0  0  0  0  0  0  0  0
   -5.2157   -0.8921   -1.1967 H   0  0  0  0  0  0  0  0  0  0  0  0
   -4.3816   -2.1085   -0.1041 H   0  0  0  0  0  0  0  0  0  0  0  0
   -8.0031    0.0325    0.7197 H   0  0  0  0  0  0  0  0  0  0  0  0
   -6.9424    0.1275   -0.7809 H   0  0  0  0  0  0  0  0  0  0  0  0
   -5.6731   -3.7882   -0.8833 H   0  0  0  0  0  0  0  0  0  0  0  0
   -5.8721   -2.7729   -2.3367 H   0  0  0  0  0  0  0  0  0  0  0  0
   -9.1848   -1.7285   -0.1800 H   0  0  0  0  0  0  0  0  0  0  0  0
   -8.5902   -1.1388   -1.7412 H   0  0  0  0  0  0  0  0  0  0  0  0
   -8.0571   -3.3246   -1.8638 H   0  0  0  0  0  0  0  0  0  0  0  0
   -7.8015   -3.5889   -0.1313 H   0  0  0  0  0  0  0  0  0  0  0  0
   -4.5666    1.1297    2.2123 H   0  0  0  0  0  0  0  0  0  0  0  0
   -1.3439    1.4487    1.5271 H   0  0  0  0  0  0  0  0  0  0  0  0
    1.4862    2.3360   -1.6611 H   0  0  0  0  0  0  0  0  0  0  0  0
    2.8822    3.5059    0.0997 H   0  0  0  0  0  0  0  0  0  0  0  0
    2.1957    2.3989    1.3279 H   0  0  0  0  0  0  0  0  0  0  0  0
   -1.1221    1.7869   -1.5208 H   0  0  0  0  0  0  0  0  0  0  0  0
   -1.5200    0.2765   -0.6275 H   0  0  0  0  0  0  0  0  0  0  0  0
   -0.1313    3.3507    1.6526 H   0  0  0  0  0  0  0  0  0  0  0  0
   -1.4106    4.2032    0.7212 H   0  0  0  0  0  0  0  0  0  0  0  0
    0.6261    0.8361    0.7904 H   0  0  0  0  0  0  0  0  0  0  0  0
    0.9256    0.1863   -0.8734 H   0  0  0  0  0  0  0  0  0  0  0  0
    0.7650    4.4550   -0.2266 H   0  0  0  0  0  0  0  0  0  0  0  0
   -0.3809    3.6850   -1.3513 H   0  0  0  0  0  0  0  0  0  0  0  0
    3.6708    1.5647   -1.1783 H   0  0  0  0  0  0  0  0  0  0  0  0
    4.3279    1.7493    0.5233 H   0  0  0  0  0  0  0  0  0  0  0  0
    4.1846   -0.8203   -1.2781 H   0  0  0  0  0  0  0  0  0  0  0  0
    4.9204   -1.5241    1.5986 H   0  0  0  0  0  0  0  0  0  0  0  0
    5.3388   -3.0628   -0.2948 H   0  0  0  0  0  0  0  0  0  0  0  0
    7.0664   -0.5258    1.3653 H   0  0  0  0  0  0  0  0  0  0  0  0
    5.9182    0.7692    1.5518 H   0  0  0  0  0  0  0  0  0  0  0  0
    5.9308   -1.4249   -2.0602 H   0  0  0  0  0  0  0  0  0  0  0  0
    7.2369   -2.6095   -1.7422 H   0  0  0  0  0  0  0  0  0  0  0  0
    6.0575    0.8897   -1.1560 H   0  0  0  0  0  0  0  0  0  0  0  0
    8.4187   -0.8624   -0.3441 H   0  0  0  0  0  0  0  0  0  0  0  0
    8.0139   -0.2418   -1.9844 H   0  0  0  0  0  0  0  0  0  0  0  0
    6.9408   -4.4855    0.3755 H   0  0  0  0  0  0  0  0  0  0  0  0
    5.8564   -4.0275    1.7718 H   0  0  0  0  0  0  0  0  0  0  0  0
    7.6784   -4.1198    1.9574 H   0  0  0  0  0  0  0  0  0  0  0  0
   -5.5120    1.9447   -0.1405 H   0  0  0  0  0  0  0  0  0  0  0  0
   -4.5922    3.6330    1.4995 H   0  0  0  0  0  0  0  0  0  0  0  0
   -2.8422    3.2417   -1.5317 H   0  0  0  0  0  0  0  0  0  0  0  0
    2.6676   -2.1748   -0.8913 H   0  0  0  0  0  0  0  0  0  0  0  0
   -6.2485   -0.3697    2.4320 H   0  0  0  0  0  0  0  0  0  0  0  0
   -3.0567   -0.0288    0.8009 H   0  0  0  0  0  0  0  0  0  0  0  0
    2.7940    0.0824    1.2397 H   0  0  0  0  0  0  0  0  0  0  0  0
   -6.6773   -2.2116    1.0851 H   0  0  0  0  0  0  0  0  0  0  0  0
   -5.2157   -0.8921   -1.1967 H   0  0  0  0  0  0  0  0  0  0  0  0
   -4.3816   -2.1085   -0.1041 H   0  0  0  0  0  0  0  0  0  0  0  0
   -8.0031    0.0325    0.7197 H   0  0  0  0  0  0  0  0  0  0  0  0
   -6.9424    0.1275   -0.7809 H   0  0  0  0  0  0  0  0  0  0  0  0
   -5.6731   -3.7882   -0.8833 H   0  0  0  0  0  0  0  0  0  0  0  0
   -5.8721   -2.7729   -2.3367 H   0  0  0  0  0  0  0  0  0  0  0  0
   -9.1848   -1.7285   -0.1800 H   0  0  0  0  0  0  0  0  0  0  0  0
   -8.5902   -1.1388   -1.7412 H   0  0  0  0  0  0  0  0  0  0  0  0
   -8.0571   -3.3246   -1.8638 H   0  0  0  0  0  0  0  0  0  0  0  0
   -7.8015   -3.5889   -0.1313 H   0  0  0  0  0  0  0  0  0  0  0  0
   -4.5666    1.1297    2.2123 H   0  0  0  0  0  0  0  0  0  0  0  0
   -1.3439    1.4487    1.5271 H   0  0  0  0  0  0  0  0  0  0  0  0
    1.4862    2.3360   -1.6611 H   0  0  0  0  0  0  0  0  0  0  0  0
    2.8822    3.5059    0.0997 H   0  0  0  0  0  0  0  0  0  0  0  0
    2.1957    2.3989    1.3279 H   0  0  0  0  0  0  0  0  0  0  0  0
   -1.1221    1.7869   -1.5208 H   0  0  0  0  0  0  0  0  0  0  0  0
   -1.5200    0.2765   -0.6275 H   0  0  0  0  0  0  0  0  0  0  0  0
   -0.1313    3.3507    1.6526 H   0  0  0  0  0  0  0  0  0  0  0  0
   -1.4106    4.2032    0.7212 H   0  0  0  0  0  0  0  0  0  0  0  0
    0.6261    0.8361    0.7904 H   0  0  0  0  0  0  0  0  0  0  0  0
    0.9256    0.1863   -0.8734 H   0  0  0  0  0  0  0  0  0  0  0  0
    0.7650    4.4550   -0.2266 H   0  0  0  0  0  0  0  0  0  0  0  0
   -0.3809    3.6850   -1.3513 H   0  0  0  0  0  0  0  0  0  0  0  0
    3.6708    1.5647   -1.1783 H   0  0  0  0  0  0  0  0  0  0  0  0
    4.3279    1.7493    0.5233 H   0  0  0  0  0  0  0  0  0  0  0  0
    4.1846   -0.8203   -1.2781 H   0  0  0  0  0  0  0  0  0  0  0  0
    4.9204   -1.5241    1.5986 H   0  0  0  0  0  0  0  0  0  0  0  0
    5.3388   -3.0628   -0.2948 H   0  0  0  0  0  0  0  0  0  0  0  0
    7.0664   -0.5258    1.3653 H   0  0  0  0  0  0  0  0  0  0  0  0
    5.9182    0.7692    1.5518 H   0  0  0  0  0  0  0  0  0  0  0  0
    5.9308   -1.4249   -2.0602 H   0  0  0  0  0  0  0  0  0  0  0  0
    7.2369   -2.6095   -1.7422 H   0  0  0  0  0  0  0  0  0  0  0  0
    6.0575    0.8897   -1.1560 H   0  0  0  0  0  0  0  0  0  0  0  0
    8.4187   -0.8624   -0.3441 H   0  0  0  0  0  0  0  0  0  0  0  0
    8.0139   -0.2418   -1.9844 H   0  0  0  0  0  0  0  0  0  0  0  0
    6.9408   -4.4855    0.3755 H   0  0  0  0  0  0  0  0  0  0  0  0
    5.8564   -4.0275    1.7718 H   0  0  0  0  0  0  0  0  0  0  0  0
    7.6784   -4.1198    1.9574 H   0  0  0  0  0  0  0  0  0  0  0  0
  6  2  1  0
  3  6  1  0
  6  9  1  0
  8 11  1  0
 11 12  1  0
 11 13  1  0
 12 14  1  0
 13 15  1  0
 14 16  1  0
 15 16  1  0
  1 17  1  0
  8 17  1  0
  9 17  1  0
  6 18  1  0
 19 20  1  0
 18 21  1  0
 18 22  1  0
 19 23  1  0
 21 23  1  0
 19 24  1  0
 22 24  1  0
 10 25  1  0
 20 25  1  0
  4 26  1  0
 10 26  1  0
 26 27  1  0
  7 28  1  0
 27 28  1  0
 27 29  1  0
 28 30  1  0
  5 31  1  0
 29 31  1  0
 30 32  1  0
 31 32  1  0
  7 33  1  0
 39 35  1  0
 36 39  1  0
 39 42  1  0
 41 44  1  0
 44 45  1  0
 44 46  1  0
 45 47  1  0
 46 48  1  0
 47 49  1  0
 48 49  1  0
 34 50  1  0
 41 50  1  0
 42 50  1  0
 39 51  1  0
 52 53  1  0
 51 54  1  0
 51 55  1  0
 52 56  1  0
 54 56  1  0
 52 57  1  0
 55 57  1  0
 43 58  1  0
 53 58  1  0
 37 59  1  0
 43 59  1  0
 59 60  1  0
 40 61  1  0
 60 61  1  0
 60 62  1  0
 61 63  1  0
 38 64  1  0
 62 64  1  0
 63 65  1  0
 64 65  1  0
 40 66  1  0
 72 68  1  0
 69 72  1  0
 72 75  1  0
 74 77  1  0
 77 78  1  0
 77 79  1  0
 78 80  1  0
 79 81  1  0
 80 82  1  0
 81 82  1  0
 67 83  1  0
 74 83  1  0
 75 83  1  0
 72 84  1  0
 85 86  1  0
 84 87  1  0
 84 88  1  0
 85 89  1  0
 87 89  1  0
 85 90  1  0
 88 90  1  0
 76 91  1  0
 86 91  1  0
 70 92  1  0
 76 92  1  0
 92 93  1  0
 73 94  1  0
 93 94  1  0
 93 95  1  0
 94 96  1  0
 71 97  1  0
 95 97  1  0
 96 98  1  0
 97 98  1  0
 73 99  1  0
105101  1  0
102105  1  0
105108  1  0
107110  1  0
110111  1  0
110112  1  0
111113  1  0
112114  1  0
113115  1  0
114115  1  0
100116  1  0
107116  1  0
108116  1  0
105117  1  0
118119  1  0
117120  1  0
117121  1  0
118122  1  0
120122  1  0
118123  1  0
121123  1  0
109124  1  0
119124  1  0
103125  1  0
109125  1  0
125126  1  0
106127  1  0
126127  1  0
126128  1  0
127129  1  0
104130  1  0
128130  1  0
129131  1  0
130131  1  0
106132  1  0
  1133  1  0
  2134  1  0
  3135  1  0
  4136  1  0
  8137  1  0
  9138  1  0
 10139  1  0
 11140  1  0
 12141  1  0
 12142  1  0
 13143  1  0
 13144  1  0
 14145  1  0
 14146  1  0
 15147  1  0
 15148  1  0
 16149  1  0
 16150  1  0
 17151  1  0
 18152  1  0
 19153  1  0
 20154  1  0
 20155  1  0
 21156  1  0
 21157  1  0
 22158  1  0
 22159  1  0
 23160  1  0
 23161  1  0
 24162  1  0
 24163  1  0
 25164  1  0
 25165  1  0
 26166  1  0
 27167  1  0
 28168  1  0
 29169  1  0
 29170  1  0
 30171  1  0
 30172  1  0
 31173  1  0
 32174  1  0
 32175  1  0
 33176  1  0
 33177  1  0
 33178  1  0
 34179  1  0
 35180  1  0
 36181  1  0
 37182  1  0
 41183  1  0
 42184  1  0
 43185  1  0
 44186  1  0
 45187  1  0
 45188  1  0
 46189  1  0
 46190  1  0
 47191  1  0
 47192  1  0
 48193  1  0
 48194  1  0
 49195  1  0
 49196  1  0
 50197  1  0
 51198  1  0
 52199  1  0
 53200  1  0
 53201  1  0
 54202  1  0
 54203  1  0
 55204  1  0
 55205  1  0
 56206  1  0
 56207  1  0
 57208  1  0
 57209  1  0
 58210  1  0
 58211  1  0
 59212  1  0
 60213  1  0
 61214  1  0
 62215  1  0
 62216  1  0
 63217  1  0
 63218  1  0
 64219  1  0
 65220  1  0
 65221  1  0
 66222  1  0
 66223  1  0
 66224  1  0
 67225  1  0
 68226  1  0
 69227  1  0
 70228  1  0
 74229  1  0
 75230  1  0
 76231  1  0
 77232  1  0
 78233  1  0
 78234  1  0
 79235  1  0
 79236  1  0
 80237  1  0
 80238  1  0
 81239  1  0
 81240  1  0
 82241  1  0
 82242  1  0
 83243  1  0
 84244  1  0
 85245  1  0
 86246  1  0
 86247  1  0
 87248  1  0
 87249  1  0
 88250  1  0
 88251  1  0
 89252  1  0
 89253  1  0
 90254  1  0
 90255  1  0
 91256  1  0
 91257  1  0
 92258  1  0
 93259  1  0
 94260  1  0
 95261  1  0
 95262  1  0
 96263  1  0
 96264  1  0
 97265  1  0
 98266  1  0
 98267  1  0
 99268  1  0
 99269  1  0
 99270  1  0
100271  1  0
101272  1  0
102273  1  0
103274  1  0
107275  1  0
108276  1  0
109277  1  0
110278  1  0
111279  1  0
111280  1  0
112281  1  0
112282  1  0
113283  1  0
113284  1  0
114285  1  0
114286  1  0
115287  1  0
115288  1  0
116289  1  0
117290  1  0
118291  1  0
119292  1  0
119293  1  0
120294  1  0
120295  1  0
121296  1  0
121297  1  0
122298  1  0
122299  1  0
123300  1  0
123301  1  0
124302  1  0
124303  1  0
125304  1  0
126305  1  0
127306  1  0
128307  1  0
128308  1  0
129309  1  0
129310  1  0
130311  1  0
131312  1  0
131313  1  0
132314  1  0
132315  1  0
132316  1  0
M  END
>  <PDBID>  (1) 
6BAA

>  <PDB ID>  (1) 
6BAA

>  <Generic Name>  (1) 
Glyburide

>  <Brand Name>  (1) 
Apo Glyburide Tab 2.5mg#Apo Glyburide Tab 5mg#Ava-glyburide#Diabeta#Diabeta 5mg#Diabeta Tab 2.5mg#Diabeta Tab 5mg#Diabeta Tablets 2.5mg#Dom-glyburide#Euglucon#Glucovance#Glyburide#Glyburide (micronized) and Metformin Hydrochloride#Glyburide Tablets 2.5mg#Glyburide Tablets 5mg#Glyburide and Metformin#Glyburide and Metformin Hydrochloride#Glyburide-2.5 Tab 2.5mg#Glyburide-5 Tab 5mg#Glyburide-metformin Hydrochloride#Glynase#Med Glybe Tab 2.5mg#Med Glybe Tab 5mg#Mylan-glybe#Ntp-glyburide#Nu-glyburide Tab 2.5mg#Nu-glyburide Tab 5mg#PMS-glyburide#Penta-glyburide - 2.5mg#Penta-glyburide - 5mg#Pro-glyburide#Ratio-glyburide#Riva-glyburide#Sandoz Glyburide#Teva-glyburide#Daonil#Delmide#Micronase#Novo-Glyburide#Semi-Daonil

>  <DrugBank ID>  (1) 
DB01016

>  <ATC Codes>  (1) 
A10BB01

>  <Ligand ID>  (1) 
GBM

>  <Target Name>  (1) 
ATP-sensitive inward rectifier potassium channel 11

>  <UniProt ID>  (1) 
Q14654

>  <PDB ID.1>  (1) 
6BAA

>  <Seq. Identity>  (1) 
94%

$$$$
