PDB_DB00136_06
     RDKit          3D

 80 82  0  0  0  0  0  0  0  0999 V2000
   -5.2251    1.3491    2.5979 O   0  0  0  0  0  0  0  0  0  0  0  0
    4.9787   -0.8633   -0.8047 O   0  0  0  0  0  0  0  0  0  0  0  0
   -6.8328    0.2454    0.0043 C   0  0  1  0  0  0  0  0  0  0  0  0
   -6.6437   -0.1890    1.4047 C   0  0  0  0  0  0  0  0  0  0  0  0
   -5.2947    0.0909    2.0113 C   0  0  1  0  0  0  0  0  0  0  0  0
   -4.1772   -0.1163    0.9860 C   0  0  0  0  0  0  0  0  0  0  0  0
   -4.4556    0.6784   -0.2465 C   0  0  1  0  0  0  0  0  0  0  0  0
   -3.3719    1.1448   -1.0787 C   0  0  0  0  0  0  0  0  0  0  0  0
   -2.3608    0.4071   -1.7796 C   0  0  0  0  0  0  0  0  0  0  0  0
   -1.2969   -0.4061   -1.2058 C   0  0  0  0  0  0  0  0  0  0  0  0
   -1.5675   -1.5938   -0.3602 C   0  0  0  0  0  0  0  0  0  0  0  0
   -5.6481    0.0311   -0.9177 C   0  0  1  0  0  0  0  0  0  0  0  0
   -0.1977   -2.3389   -0.3361 C   0  0  0  0  0  0  0  0  0  0  0  0
    0.7376   -1.4878    0.5335 C   0  0  0  0  0  0  0  0  0  0  0  0
    1.0024   -0.1868   -0.1257 C   0  0  1  0  0  0  0  0  0  0  0  0
   -0.3614    0.4588   -0.4188 C   0  0  1  0  0  0  0  0  0  0  0  0
    0.0886    1.7142   -1.0667 C   0  0  0  0  0  0  0  0  0  0  0  0
    1.2188    2.1396   -0.1299 C   0  0  0  0  0  0  0  0  0  0  0  0
    1.5107    0.8999    0.7482 C   0  0  2  0  0  0  0  0  0  0  0  0
    1.8212   -0.3847   -1.3726 C   0  0  0  0  0  0  0  0  0  0  0  0
   -5.5343   -1.4331   -1.1406 C   0  0  0  0  0  0  0  0  0  0  0  0
    2.9133    0.9898    1.1262 C   0  0  1  0  0  0  0  0  0  0  0  0
    3.0350    2.2368    2.0245 C   0  0  0  0  0  0  0  0  0  0  0  0
    3.5923   -0.1829    1.7207 C   0  0  0  0  0  0  0  0  0  0  0  0
    5.0220    0.0500    2.0872 C   0  0  0  0  0  0  0  0  0  0  0  0
    5.9513    0.4395    1.0042 C   0  0  0  0  0  0  0  0  0  0  0  0
    6.1185   -0.5545   -0.1085 C   0  0  0  0  0  0  0  0  0  0  0  0
    6.7349   -1.8523    0.3786 C   0  0  0  0  0  0  0  0  0  0  0  0
    7.0683    0.1116   -1.1183 C   0  0  0  0  0  0  0  0  0  0  0  0
   -7.9317   -0.4368   -0.5289 O   0  0  0  0  0  0  0  0  0  0  0  0
   -6.1221    1.7212    2.7934 H   0  0  0  0  0  0  0  0  0  0  0  0
    4.8780   -1.8314   -0.9568 H   0  0  0  0  0  0  0  0  0  0  0  0
   -7.1163    1.3305   -0.0214 H   0  0  0  0  0  0  0  0  0  0  0  0
   -7.3880    0.3798    2.0356 H   0  0  0  0  0  0  0  0  0  0  0  0
   -6.9161   -1.2672    1.5702 H   0  0  0  0  0  0  0  0  0  0  0  0
   -5.1224   -0.6583    2.8077 H   0  0  0  0  0  0  0  0  0  0  0  0
   -3.2509    0.2499    1.4516 H   0  0  0  0  0  0  0  0  0  0  0  0
   -4.0606   -1.2027    0.7953 H   0  0  0  0  0  0  0  0  0  0  0  0
   -4.9705    1.6381    0.2135 H   0  0  0  0  0  0  0  0  0  0  0  0
   -3.8671    1.8979   -1.8304 H   0  0  0  0  0  0  0  0  0  0  0  0
   -2.8425    1.9682   -0.4317 H   0  0  0  0  0  0  0  0  0  0  0  0
   -2.8183   -0.2690   -2.6178 H   0  0  0  0  0  0  0  0  0  0  0  0
   -1.8465    1.1608   -2.5078 H   0  0  0  0  0  0  0  0  0  0  0  0
   -0.6365   -0.8307   -2.0631 H   0  0  0  0  0  0  0  0  0  0  0  0
   -1.6783   -1.3626    0.7404 H   0  0  0  0  0  0  0  0  0  0  0  0
   -2.2763   -2.3247   -0.7339 H   0  0  0  0  0  0  0  0  0  0  0  0
   -5.9259    0.5942   -1.8589 H   0  0  0  0  0  0  0  0  0  0  0  0
   -0.3098   -3.3555    0.0305 H   0  0  0  0  0  0  0  0  0  0  0  0
    0.1603   -2.3030   -1.3808 H   0  0  0  0  0  0  0  0  0  0  0  0
    1.6105   -2.1574    0.6624 H   0  0  0  0  0  0  0  0  0  0  0  0
    0.2885   -1.3953    1.5465 H   0  0  0  0  0  0  0  0  0  0  0  0
   -0.8190    0.6862    0.5447 H   0  0  0  0  0  0  0  0  0  0  0  0
    0.4651    1.5689   -2.1074 H   0  0  0  0  0  0  0  0  0  0  0  0
   -0.6201    2.5389   -1.1031 H   0  0  0  0  0  0  0  0  0  0  0  0
    2.1209    2.2835   -0.7546 H   0  0  0  0  0  0  0  0  0  0  0  0
    0.9416    3.0027    0.4792 H   0  0  0  0  0  0  0  0  0  0  0  0
    0.7808    1.0084    1.5877 H   0  0  0  0  0  0  0  0  0  0  0  0
    1.2587   -0.2955   -2.3175 H   0  0  0  0  0  0  0  0  0  0  0  0
    2.6373    0.3689   -1.4632 H   0  0  0  0  0  0  0  0  0  0  0  0
    2.3219   -1.3747   -1.3805 H   0  0  0  0  0  0  0  0  0  0  0  0
   -6.2100   -2.0379   -0.4968 H   0  0  0  0  0  0  0  0  0  0  0  0
   -5.9005   -1.6445   -2.1899 H   0  0  0  0  0  0  0  0  0  0  0  0
   -4.5493   -1.8779   -1.0719 H   0  0  0  0  0  0  0  0  0  0  0  0
    3.5092    1.2911    0.2128 H   0  0  0  0  0  0  0  0  0  0  0  0
    4.0360    2.3190    2.4567 H   0  0  0  0  0  0  0  0  0  0  0  0
    2.3144    2.1619    2.8656 H   0  0  0  0  0  0  0  0  0  0  0  0
    2.7379    3.1362    1.4348 H   0  0  0  0  0  0  0  0  0  0  0  0
    3.0792   -0.4695    2.6684 H   0  0  0  0  0  0  0  0  0  0  0  0
    3.5990   -1.0114    0.9873 H   0  0  0  0  0  0  0  0  0  0  0  0
    5.1269    0.6872    3.0079 H   0  0  0  0  0  0  0  0  0  0  0  0
    5.3905   -0.9586    2.4595 H   0  0  0  0  0  0  0  0  0  0  0  0
    6.9595    0.5900    1.4682 H   0  0  0  0  0  0  0  0  0  0  0  0
    5.6482    1.3999    0.4909 H   0  0  0  0  0  0  0  0  0  0  0  0
    7.7368   -1.7066    0.7972 H   0  0  0  0  0  0  0  0  0  0  0  0
    6.0135   -2.3453    1.0422 H   0  0  0  0  0  0  0  0  0  0  0  0
    6.8504   -2.4964   -0.5234 H   0  0  0  0  0  0  0  0  0  0  0  0
    7.5033   -0.6937   -1.7188 H   0  0  0  0  0  0  0  0  0  0  0  0
    7.8032    0.7185   -0.5634 H   0  0  0  0  0  0  0  0  0  0  0  0
    6.4267    0.8105   -1.6941 H   0  0  0  0  0  0  0  0  0  0  0  0
   -7.8457   -0.6031   -1.4928 H   0  0  0  0  0  0  0  0  0  0  0  0
  3  4  1  0
  1  5  1  0
  4  5  1  0
  5  6  1  0
  6  7  1  0
  7  8  1  0
  8  9  1  0
  9 10  1  0
 10 11  1  0
  3 12  1  0
  7 12  1  0
 11 13  1  0
 13 14  1  0
 14 15  1  0
 10 16  1  0
 15 16  1  0
 16 17  1  0
 17 18  1  0
 15 19  1  0
 18 19  1  0
 15 20  1  6
 12 21  1  0
 19 22  1  0
 22 23  1  0
 22 24  1  0
 24 25  1  0
 25 26  1  0
 27  2  1  0
 26 27  1  0
 27 28  1  0
 27 29  1  0
  3 30  1  0
  1 31  1  0
  2 32  1  0
  3 33  1  1
  4 34  1  0
  4 35  1  0
  5 36  1  1
  6 37  1  0
  6 38  1  0
  7 39  1  1
  8 40  1  0
  8 41  1  0
  9 42  1  0
  9 43  1  0
 10 44  1  0
 11 45  1  0
 11 46  1  0
 12 47  1  6
 13 48  1  0
 13 49  1  0
 14 50  1  0
 14 51  1  0
 16 52  1  1
 17 53  1  0
 17 54  1  0
 18 55  1  0
 18 56  1  0
 19 57  1  1
 20 58  1  0
 20 59  1  0
 20 60  1  0
 21 61  1  0
 21 62  1  0
 21 63  1  0
 22 64  1  6
 23 65  1  0
 23 66  1  0
 23 67  1  0
 24 68  1  0
 24 69  1  0
 25 70  1  0
 25 71  1  0
 26 72  1  0
 26 73  1  0
 28 74  1  0
 28 75  1  0
 28 76  1  0
 29 77  1  0
 29 78  1  0
 29 79  1  0
 30 80  1  0
M  END
>  <PDBID>  (1) 
1IE9

>  <PDB ID>  (1) 
1IE9

>  <Generic Name>  (1) 
Calcitriol

>  <Brand Name>  (1) 
Calcijex#Calcitriol#Calcitriol Injection#Calcitriol Injection USP#Calcitriol-odan#Rocaltrol#Rocaltrol Cap 0.25mcg#Rocaltrol Cap 0.5mcg#Rocaltrol Oral Solution 1mcg/ml#Silkis#Vectical#Calcitriol Oral Solution#Decostriol

>  <DrugBank ID>  (1) 
DB00136

>  <ATC Codes>  (1) 
A11CC04#D05AX03

>  <Ligand ID>  (1) 
VDX

>  <Target Name>  (1) 
Vitamin D3 receptor

>  <UniProt ID>  (1) 
P11473

>  <PDB ID.1>  (1) 
1IE9

>  <Seq. Identity>  (1) 
84%

$$$$
