PDB_DB00215_03
     RDKit          3D

 61 63  0  0  0  0  0  0  0  0999 V2000
   -0.2664    2.1764   -0.4342 C   0  0  0  0  0  0  0  0  0  0  0  0
   -1.2343   -0.4223    1.1203 C   0  0  0  0  0  0  0  0  0  0  0  0
    0.5271    3.2378   -1.1941 C   0  0  0  0  0  0  0  0  0  0  0  0
   -2.0185   -1.7415    0.9986 C   0  0  0  0  0  0  0  0  0  0  0  0
   -1.6384    3.7000    0.8738 C   0  0  0  0  0  0  0  0  0  0  0  0
   -1.4620    4.5400   -0.3728 C   0  0  0  0  0  0  0  0  0  0  0  0
    3.2349   -3.0961    0.0190 C   0  0  0  0  0  0  0  0  0  0  0  0
   -3.1104   -3.3525   -0.4306 C   0  0  0  0  0  0  0  0  0  0  0  0
   -1.8604    5.8407   -0.0977 F   0  0  0  0  0  0  0  0  0  0  0  0
    0.6329    0.5741   -1.8167 O   0  0  0  0  0  0  0  0  0  0  0  0
    3.1592   -2.4840    1.3077 N   0  0  0  0  0  0  0  0  0  0  0  0
   -2.9759   -4.3656    0.5948 N   0  0  0  0  0  0  0  0  0  0  0  0
    0.4057    0.8305   -0.4036 C   0  0  1  0  0  0  0  0  0  0  0  0
    1.6999    0.8332    0.2698 C   0  0  0  0  0  0  0  0  0  0  0  0
   -0.4889   -0.2842   -0.1284 C   0  0  0  0  0  0  0  0  0  0  0  0
   -1.5474   -0.0958   -1.2600 C   0  0  0  0  0  0  0  0  0  0  0  0
    2.5247   -0.3604    0.4659 C   0  0  0  0  0  0  0  0  0  0  0  0
   -0.6566    0.4313   -2.3265 C   0  0  0  0  0  0  0  0  0  0  0  0
    2.0869   -1.4567    1.3455 C   0  0  0  0  0  0  0  0  0  0  0  0
   -2.1374   -1.4280   -1.5223 C   0  0  0  0  0  0  0  0  0  0  0  0
   -0.4369    2.7843    0.9635 C   0  0  0  0  0  0  0  0  0  0  0  0
   -1.9450   -2.3485   -0.3541 C   0  0  0  0  0  0  0  0  0  0  0  0
   -0.0426    4.6224   -0.8548 C   0  0  0  0  0  0  0  0  0  0  0  0
    4.3833   -1.8582    1.6884 C   0  0  0  0  0  0  0  0  0  0  0  0
   -1.2509    2.1517   -0.8974 H   0  0  0  0  0  0  0  0  0  0  0  0
   -1.9673    0.3837    1.3404 H   0  0  0  0  0  0  0  0  0  0  0  0
   -0.5624   -0.5029    1.9877 H   0  0  0  0  0  0  0  0  0  0  0  0
    0.4202    3.1237   -2.2883 H   0  0  0  0  0  0  0  0  0  0  0  0
    1.5805    3.2577   -0.8954 H   0  0  0  0  0  0  0  0  0  0  0  0
   -3.0795   -1.5819    1.2839 H   0  0  0  0  0  0  0  0  0  0  0  0
   -1.5954   -2.4365    1.7178 H   0  0  0  0  0  0  0  0  0  0  0  0
   -2.5816    3.1109    0.8016 H   0  0  0  0  0  0  0  0  0  0  0  0
   -1.6303    4.3364    1.7773 H   0  0  0  0  0  0  0  0  0  0  0  0
   -2.0885    4.1778   -1.1890 H   0  0  0  0  0  0  0  0  0  0  0  0
    2.2483   -3.1965   -0.4827 H   0  0  0  0  0  0  0  0  0  0  0  0
    3.9583   -2.5867   -0.6401 H   0  0  0  0  0  0  0  0  0  0  0  0
    3.6188   -4.1404    0.1720 H   0  0  0  0  0  0  0  0  0  0  0  0
   -4.0740   -2.8454   -0.2860 H   0  0  0  0  0  0  0  0  0  0  0  0
   -3.1315   -3.8535   -1.4148 H   0  0  0  0  0  0  0  0  0  0  0  0
   -3.3104   -5.2981    0.2698 H   0  0  0  0  0  0  0  0  0  0  0  0
   -1.9782   -4.4006    0.9148 H   0  0  0  0  0  0  0  0  0  0  0  0
    2.3820    1.5553   -0.3237 H   0  0  0  0  0  0  0  0  0  0  0  0
    1.6441    1.4336    1.2598 H   0  0  0  0  0  0  0  0  0  0  0  0
   -0.0579   -1.2801   -0.4208 H   0  0  0  0  0  0  0  0  0  0  0  0
   -2.3631    0.5661   -0.9285 H   0  0  0  0  0  0  0  0  0  0  0  0
    2.8760   -0.7417   -0.5382 H   0  0  0  0  0  0  0  0  0  0  0  0
    3.5114    0.0149    0.9144 H   0  0  0  0  0  0  0  0  0  0  0  0
   -0.6150   -0.3526   -3.1377 H   0  0  0  0  0  0  0  0  0  0  0  0
   -1.0458    1.3312   -2.8310 H   0  0  0  0  0  0  0  0  0  0  0  0
    1.1877   -2.0035    1.1543 H   0  0  0  0  0  0  0  0  0  0  0  0
    2.1593   -1.0911    2.4121 H   0  0  0  0  0  0  0  0  0  0  0  0
   -1.6323   -1.8857   -2.4068 H   0  0  0  0  0  0  0  0  0  0  0  0
   -3.2198   -1.3482   -1.8080 H   0  0  0  0  0  0  0  0  0  0  0  0
   -0.4588    2.0575    1.7610 H   0  0  0  0  0  0  0  0  0  0  0  0
    0.4274    3.4874    1.1705 H   0  0  0  0  0  0  0  0  0  0  0  0
   -1.0346   -2.9886   -0.4447 H   0  0  0  0  0  0  0  0  0  0  0  0
    0.6189    5.1552   -0.1279 H   0  0  0  0  0  0  0  0  0  0  0  0
   -0.0365    5.2272   -1.7794 H   0  0  0  0  0  0  0  0  0  0  0  0
    4.9261   -1.4314    0.8268 H   0  0  0  0  0  0  0  0  0  0  0  0
    5.0749   -2.6058    2.1710 H   0  0  0  0  0  0  0  0  0  0  0  0
    4.2466   -1.0760    2.4540 H   0  0  0  0  0  0  0  0  0  0  0  0
  1  3  1  0
  2  4  1  0
  5  6  1  0
  6  9  1  0
  7 11  1  0
  8 12  1  0
  1 13  1  0
 10 13  1  0
 13 14  1  1
  2 15  1  0
 13 15  1  0
 15 16  1  0
 14 17  1  0
 10 18  1  0
 16 18  1  0
 11 19  1  0
 17 19  1  0
 16 20  1  0
  1 21  1  0
  5 21  1  0
  4 22  1  0
  8 22  1  0
 20 22  1  0
  3 23  1  0
  6 23  1  0
 11 24  1  0
  1 25  1  0
  2 26  1  0
  2 27  1  0
  3 28  1  0
  3 29  1  0
  4 30  1  0
  4 31  1  0
  5 32  1  0
  5 33  1  0
  6 34  1  0
  7 35  1  0
  7 36  1  0
  7 37  1  0
  8 38  1  0
  8 39  1  0
 12 40  1  0
 12 41  1  0
 14 42  1  0
 14 43  1  0
 15 44  1  0
 16 45  1  0
 17 46  1  0
 17 47  1  0
 18 48  1  0
 18 49  1  0
 19 50  1  0
 19 51  1  0
 20 52  1  0
 20 53  1  0
 21 54  1  0
 21 55  1  0
 22 56  1  0
 23 57  1  0
 23 58  1  0
 24 59  1  0
 24 60  1  0
 24 61  1  0
M  END
>  <PDBID>  (1) 
5I71

>  <PDB ID>  (1) 
5I71

>  <Generic Name>  (1) 
Citalopram

>  <Brand Name>  (1) 
Abbott-citalopram#Accel-citalopram Tablets#Act Citalopram#Ag-citalopram#Apo-citalopram#Auro-citalopram#Ava-citalopram#Bio-citalopram#Celexa#Celexa 10 mg#Celexa 20 mg#Celexa 40 mg#Citalopram#Citalopram Hydrobromide#Citalopram Tablets#Citalopram Tablets USP#Citalopram-10#Citalopram-20#Citalopram-40#Citalopram-odan#Ctp 30#Dom-citalopram#Ecl-citalopram#Ipg-citalopram#Jamp-citalopram#Manda-citalopram#Mar-citalopram#Mint-citalopram#Mylan-citalopram#Nat-citalopram#Nat-citalopram Tablets#Ng Citalopram#Novo-citalopram#Ntp-citalopram#Nu-citalopram#PHL-citalopram#PMS-citalopram#Pendo-citalopram#Perrigo Citalopram#Priva-citalopram#Q-citalopram#Ran-citalo#Ran-citalopram#Ratio-citalopram#Riva-citalopram#Sandoz Citalopram#Sentralopram Am-10#Septa-citalopram#Teva-citalopram#Van-citalopram#Akarin#Celapram#Ciazil#Cilift#Cipram#Cipramil#Ciprapine#Citabax#Citalec#Citol#Citopam#Citox#Citrol#Dalsan#Elopram#Humorup#Oropram#Pramcit#Recital#Seropram#Talam#Talohexal#Temperax#Vodelax#Zentius#Zetalo

>  <DrugBank ID>  (1) 
DB00215

>  <ATC Codes>  (1) 
N06AB04

>  <Ligand ID>  (1) 
68P

>  <Target Name>  (1) 
Sodium-dependent serotonin transporter

>  <UniProt ID>  (1) 
P31645

>  <PDB ID.1>  (1) 
5I71

>  <Seq. Identity>  (1) 
99%

$$$$
