PDB_DB00710_02
     RDKit          3D

 46 45  0  0  0  0  0  0  0  0999 V2000
   -1.4134   -1.2526   -0.2748 P   0  0  0  0  0  0  0  0  0  0  0  0
   -2.3253   -2.6617   -0.5879 O   0  0  0  0  0  0  0  0  0  0  0  0
   -1.5188   -1.0065   -1.7988 O   0  0  0  0  0  0  0  0  0  0  0  0
   -1.0914   -1.9319    1.0748 O   0  0  0  0  0  0  0  0  0  0  0  0
   -2.3561    0.1052    0.2596 C   0  0  0  0  0  0  0  0  0  0  0  0
   -4.0777   -0.1111    0.0347 P   0  0  0  0  0  0  0  0  0  0  0  0
   -4.4583    1.3522   -0.1617 O   0  0  0  0  0  0  0  0  0  0  0  0
   -4.6842   -0.5116   -1.4347 O   0  0  0  0  0  0  0  0  0  0  0  0
   -5.0697   -0.1401    1.4205 O   0  0  0  0  0  0  0  0  0  0  0  0
   -2.2687    0.3643    1.6728 O   0  0  0  0  0  0  0  0  0  0  0  0
   -1.7754    1.3658   -0.3031 C   0  0  0  0  0  0  0  0  0  0  0  0
   -0.3983    1.7205    0.0907 C   0  0  0  0  0  0  0  0  0  0  0  0
    0.6805    0.8823   -0.3175 N   0  0  0  0  0  0  0  0  0  0  0  0
    1.8945    1.4239    0.3217 C   0  0  0  0  0  0  0  0  0  0  0  0
    3.1119    0.6566   -0.0933 C   0  0  0  0  0  0  0  0  0  0  0  0
    3.0526   -0.7803    0.2922 C   0  0  0  0  0  0  0  0  0  0  0  0
    4.2958   -1.5426   -0.1432 C   0  0  0  0  0  0  0  0  0  0  0  0
    5.5454   -0.9700    0.4588 C   0  0  0  0  0  0  0  0  0  0  0  0
    0.9215    1.0706   -1.7700 C   0  0  0  0  0  0  0  0  0  0  0  0
   -0.0820   -1.2229   -0.4616 H   0  0  0  0  0  0  0  0  0  0  0  0
   -1.7231   -3.3410   -0.8998 H   0  0  0  0  0  0  0  0  0  0  0  0
   -2.3540   -0.7201   -2.1590 H   0  0  0  0  0  0  0  0  0  0  0  0
   -1.7843   -1.9180    1.7394 H   0  0  0  0  0  0  0  0  0  0  0  0
   -4.0195   -1.3729    0.2899 H   0  0  0  0  0  0  0  0  0  0  0  0
   -4.2739    1.9968    0.5280 H   0  0  0  0  0  0  0  0  0  0  0  0
   -5.6357   -0.6205   -1.3464 H   0  0  0  0  0  0  0  0  0  0  0  0
   -5.9725   -0.2367    1.1001 H   0  0  0  0  0  0  0  0  0  0  0  0
   -2.8081    1.1462    1.8852 H   0  0  0  0  0  0  0  0  0  0  0  0
   -2.4075    2.2648   -0.0742 H   0  0  0  0  0  0  0  0  0  0  0  0
   -1.8008    1.2714   -1.4321 H   0  0  0  0  0  0  0  0  0  0  0  0
   -0.1476    2.7925   -0.1849 H   0  0  0  0  0  0  0  0  0  0  0  0
   -0.3236    1.7558    1.2317 H   0  0  0  0  0  0  0  0  0  0  0  0
    2.0087    2.5084    0.1201 H   0  0  0  0  0  0  0  0  0  0  0  0
    1.7173    1.3254    1.4252 H   0  0  0  0  0  0  0  0  0  0  0  0
    4.0199    1.1667    0.3135 H   0  0  0  0  0  0  0  0  0  0  0  0
    3.2240    0.7247   -1.2005 H   0  0  0  0  0  0  0  0  0  0  0  0
    2.8902   -0.9037    1.3789 H   0  0  0  0  0  0  0  0  0  0  0  0
    2.2109   -1.2925   -0.2155 H   0  0  0  0  0  0  0  0  0  0  0  0
    4.3831   -1.5497   -1.2287 H   0  0  0  0  0  0  0  0  0  0  0  0
    4.1584   -2.5923    0.2106 H   0  0  0  0  0  0  0  0  0  0  0  0
    5.3763   -0.5219    1.4497 H   0  0  0  0  0  0  0  0  0  0  0  0
    5.9805   -0.2468   -0.2649 H   0  0  0  0  0  0  0  0  0  0  0  0
    6.2826   -1.7816    0.5937 H   0  0  0  0  0  0  0  0  0  0  0  0
    1.3121    0.0878   -2.1117 H   0  0  0  0  0  0  0  0  0  0  0  0
    1.6829    1.8485   -1.9101 H   0  0  0  0  0  0  0  0  0  0  0  0
    0.0207    1.3987   -2.2854 H   0  0  0  0  0  0  0  0  0  0  0  0
  1  2  1  0
  1  3  1  0
  1  4  1  0
  1  5  1  0
  5  6  1  0
  6  7  1  0
  6  8  1  0
  6  9  1  0
  5 10  1  0
  5 11  1  0
 11 12  1  0
 12 13  1  0
 13 14  1  0
 14 15  1  0
 15 16  1  0
 16 17  1  0
 17 18  1  0
 13 19  1  0
  1 20  1  0
  2 21  1  0
  3 22  1  0
  4 23  1  0
  6 24  1  0
  7 25  1  0
  8 26  1  0
  9 27  1  0
 10 28  1  0
 11 29  1  0
 11 30  1  0
 12 31  1  0
 12 32  1  0
 14 33  1  0
 14 34  1  0
 15 35  1  0
 15 36  1  0
 16 37  1  0
 16 38  1  0
 17 39  1  0
 17 40  1  0
 18 41  1  0
 18 42  1  0
 18 43  1  0
 19 44  1  0
 19 45  1  0
 19 46  1  0
M  END
>  <PDBID>  (1) 
2F94

>  <PDB ID>  (1) 
2F94

>  <Generic Name>  (1) 
Ibandronate

>  <Brand Name>  (1) 
Bondronat#Boniva#Ibandronate Sodium#ADRONiL#Bonviva

>  <DrugBank ID>  (1) 
DB00710

>  <ATC Codes>  (1) 
M05BA06

>  <Ligand ID>  (1) 
BFQ

>  <Target Name>  (1) 
Farnesyl pyrophosphate synthase

>  <UniProt ID>  (1) 
P14324

>  <PDB ID.1>  (1) 
2F94

>  <Seq. Identity>  (1) 
100%

$$$$
