PDB_DB00864_02
     RDKit          3D

140143  0  0  0  0  0  0  0  0999 V2000
    1.9375   -2.8765    0.4423 C   0  0  0  0  0  0  0  0  0  0  0  0
    0.5447   -3.3942    0.7334 C   0  0  2  0  0  0  0  0  0  0  0  0
    0.7625   -4.7531    1.4017 C   0  0  0  0  0  0  0  0  0  0  0  0
    1.4326   -5.7285    0.4708 C   0  0  0  0  0  0  0  0  0  0  0  0
    0.6180   -5.8972   -0.7865 C   0  0  0  0  0  0  0  0  0  0  0  0
   -0.5971   -4.9985   -0.6611 C   0  0  0  0  0  0  0  0  0  0  0  0
   -1.3131   -2.7743   -0.7020 C   0  0  0  0  0  0  0  0  0  0  0  0
   -2.3606   -2.6565    0.3571 C   0  0  0  0  0  0  0  0  0  0  0  0
   -3.7300   -2.3535   -0.2260 C   0  0  1  0  0  0  0  0  0  0  0  0
   -4.7074   -3.3691    0.3157 C   0  0  1  0  0  0  0  0  0  0  0  0
   -6.1203   -3.0931   -0.0954 C   0  0  0  0  0  0  0  0  0  0  0  0
   -6.4065   -1.6148    0.1941 C   0  0  1  0  0  0  0  0  0  0  0  0
   -5.3650   -0.8490   -0.5693 C   0  0  1  0  0  0  0  0  0  0  0  0
   -5.7675    0.6058   -0.6112 C   0  0  2  0  0  0  0  0  0  0  0  0
   -5.3802    1.2323    0.7058 C   0  0  0  0  0  0  0  0  0  0  0  0
   -4.9971    2.7089    0.5143 C   0  0  2  0  0  0  0  0  0  0  0  0
   -3.5580    2.7211    0.1146 C   0  0  0  0  0  0  0  0  0  0  0  0
   -2.8943    4.0667    0.1543 C   0  0  0  0  0  0  0  0  0  0  0  0
   -1.8890    4.1419   -0.9553 C   0  0  0  0  0  0  0  0  0  0  0  0
   -0.4651    3.9538   -0.5222 C   0  0  2  0  0  0  0  0  0  0  0  0
   -0.2280    2.6099    0.1267 C   0  0  0  0  0  0  0  0  0  0  0  0
    1.2536    2.5036    0.4260 C   0  0  0  0  0  0  0  0  0  0  0  0
    1.7094    1.0945    0.6084 C   0  0  1  0  0  0  0  0  0  0  0  0
    2.1668    0.4469   -0.6673 C   0  0  2  0  0  0  0  0  0  0  0  0
    2.6434   -0.9229   -0.5775 C   0  0  1  0  0  0  0  0  0  0  0  0
    4.0760   -1.3141   -0.6460 C   0  0  0  0  0  0  0  0  0  0  0  0
    4.9362   -0.7080    0.4108 C   0  0  0  0  0  0  0  0  0  0  0  0
    6.3657   -1.0320    0.4883 C   0  0  1  0  0  0  0  0  0  0  0  0
    7.3076   -0.7398   -0.5788 C   0  0  0  0  0  0  0  0  0  0  0  0
    8.6655   -0.1898   -0.1431 C   0  0  2  0  0  0  0  0  0  0  0  0
    8.5111    1.0696    0.6706 C   0  0  1  0  0  0  0  0  0  0  0  0
    7.2462    1.0101    1.5113 C   0  0  0  0  0  0  0  0  0  0  0  0
    6.8787   -0.4284    1.8094 C   0  0  0  0  0  0  0  0  0  0  0  0
   -4.3227   -4.7248   -0.2346 C   0  0  0  0  0  0  0  0  0  0  0  0
   -5.2634    3.3863    1.8230 C   0  0  0  0  0  0  0  0  0  0  0  0
   -3.8531    5.2102    0.0469 C   0  0  0  0  0  0  0  0  0  0  0  0
    0.0329    5.0795    0.3509 C   0  0  0  0  0  0  0  0  0  0  0  0
   -0.0298    6.4009   -0.3635 C   0  0  0  0  0  0  0  0  0  0  0  0
    0.4749    7.5377    0.4978 C   0  0  0  0  0  0  0  0  0  0  0  0
    2.8664    1.3685   -1.6353 C   0  0  0  0  0  0  0  0  0  0  0  0
    4.6324   -1.3971   -2.0221 C   0  0  0  0  0  0  0  0  0  0  0  0
   -8.5131   -1.0161    0.9827 C   0  0  0  0  0  0  0  0  0  0  0  0
   -7.4742    1.3028   -2.0151 C   0  0  0  0  0  0  0  0  0  0  0  0
   10.6128   -0.5537   -1.3294 C   0  0  0  0  0  0  0  0  0  0  0  0
   -0.2299   -3.6351   -0.4300 N   0  0  0  0  0  0  0  0  0  0  0  0
    2.0398   -1.4960    0.5729 O   0  0  0  0  0  0  0  0  0  0  0  0
    2.8167   -3.4043    1.3874 O   0  0  0  0  0  0  0  0  0  0  0  0
   -0.9373   -1.4803   -1.0665 O   0  0  0  0  0  0  0  0  0  0  0  0
   -2.4206   -3.7380    1.2178 O   0  0  0  0  0  0  0  0  0  0  0  0
   -4.1427   -1.0424    0.0766 O   0  0  0  0  0  0  0  0  0  0  0  0
   -3.7317   -2.4582   -1.6110 O   0  0  0  0  0  0  0  0  0  0  0  0
   -7.7079   -1.2928   -0.0911 O   0  0  0  0  0  0  0  0  0  0  0  0
   -7.1382    0.6473   -0.8444 O   0  0  0  0  0  0  0  0  0  0  0  0
   -0.7293    1.5642   -0.6029 O   0  0  0  0  0  0  0  0  0  0  0  0
    2.5603    1.0564    1.6721 O   0  0  0  0  0  0  0  0  0  0  0  0
    9.3960    0.1224   -1.2821 O   0  0  0  0  0  0  0  0  0  0  0  0
    9.5835    1.1478    1.5530 O   0  0  0  0  0  0  0  0  0  0  0  0
    2.1991   -3.2031   -0.5876 H   0  0  0  0  0  0  0  0  0  0  0  0
    0.0513   -2.7520    1.4907 H   0  0  0  0  0  0  0  0  0  0  0  0
   -0.1511   -5.1606    1.8344 H   0  0  0  0  0  0  0  0  0  0  0  0
    1.4672   -4.5760    2.2526 H   0  0  0  0  0  0  0  0  0  0  0  0
    2.4752   -5.4200    0.2590 H   0  0  0  0  0  0  0  0  0  0  0  0
    1.4327   -6.7115    0.9854 H   0  0  0  0  0  0  0  0  0  0  0  0
    1.2012   -5.6668   -1.7085 H   0  0  0  0  0  0  0  0  0  0  0  0
    0.2403   -6.9348   -0.9142 H   0  0  0  0  0  0  0  0  0  0  0  0
   -1.2751   -5.4304    0.0882 H   0  0  0  0  0  0  0  0  0  0  0  0
   -1.1279   -5.0500   -1.6347 H   0  0  0  0  0  0  0  0  0  0  0  0
   -1.8329   -3.1885   -1.6183 H   0  0  0  0  0  0  0  0  0  0  0  0
   -2.1020   -1.7682    1.0060 H   0  0  0  0  0  0  0  0  0  0  0  0
   -4.5908   -3.3842    1.4199 H   0  0  0  0  0  0  0  0  0  0  0  0
   -6.2823   -3.3452   -1.1465 H   0  0  0  0  0  0  0  0  0  0  0  0
   -6.7942   -3.6550    0.5838 H   0  0  0  0  0  0  0  0  0  0  0  0
   -6.2864   -1.5465    1.3132 H   0  0  0  0  0  0  0  0  0  0  0  0
   -5.3527   -1.2796   -1.5971 H   0  0  0  0  0  0  0  0  0  0  0  0
   -5.3032    1.1363   -1.4741 H   0  0  0  0  0  0  0  0  0  0  0  0
   -4.4744    0.7471    1.1235 H   0  0  0  0  0  0  0  0  0  0  0  0
   -6.1574    1.1356    1.4672 H   0  0  0  0  0  0  0  0  0  0  0  0
   -5.6404    3.0772   -0.3082 H   0  0  0  0  0  0  0  0  0  0  0  0
   -3.5014    2.2658   -0.9112 H   0  0  0  0  0  0  0  0  0  0  0  0
   -3.0494    1.9720    0.7912 H   0  0  0  0  0  0  0  0  0  0  0  0
   -2.3813    4.1503    1.1415 H   0  0  0  0  0  0  0  0  0  0  0  0
   -2.0986    3.3513   -1.7225 H   0  0  0  0  0  0  0  0  0  0  0  0
   -1.9473    5.0912   -1.5235 H   0  0  0  0  0  0  0  0  0  0  0  0
    0.1506    3.9931   -1.4602 H   0  0  0  0  0  0  0  0  0  0  0  0
   -0.7689    2.5936    1.1142 H   0  0  0  0  0  0  0  0  0  0  0  0
    1.7900    3.1096   -0.2973 H   0  0  0  0  0  0  0  0  0  0  0  0
    1.3777    3.0772    1.4048 H   0  0  0  0  0  0  0  0  0  0  0  0
    0.7823    0.5417    0.9766 H   0  0  0  0  0  0  0  0  0  0  0  0
    1.1523    0.3553   -1.2135 H   0  0  0  0  0  0  0  0  0  0  0  0
    2.1323   -1.5157   -1.4054 H   0  0  0  0  0  0  0  0  0  0  0  0
    4.0666   -2.4261   -0.3382 H   0  0  0  0  0  0  0  0  0  0  0  0
    4.7752    0.4039    0.3218 H   0  0  0  0  0  0  0  0  0  0  0  0
    4.4950   -1.0622    1.3964 H   0  0  0  0  0  0  0  0  0  0  0  0
    6.4287   -2.1577    0.7167 H   0  0  0  0  0  0  0  0  0  0  0  0
    6.9419   -0.0676   -1.4114 H   0  0  0  0  0  0  0  0  0  0  0  0
    7.5812   -1.6827   -1.1084 H   0  0  0  0  0  0  0  0  0  0  0  0
    9.2519   -0.9124    0.4488 H   0  0  0  0  0  0  0  0  0  0  0  0
    8.5661    1.9579    0.0166 H   0  0  0  0  0  0  0  0  0  0  0  0
    6.4336    1.5191    0.9578 H   0  0  0  0  0  0  0  0  0  0  0  0
    7.3508    1.5273    2.4854 H   0  0  0  0  0  0  0  0  0  0  0  0
    6.0608   -0.4116    2.5544 H   0  0  0  0  0  0  0  0  0  0  0  0
    7.7908   -0.9410    2.1511 H   0  0  0  0  0  0  0  0  0  0  0  0
   -3.9340   -5.3999    0.5823 H   0  0  0  0  0  0  0  0  0  0  0  0
   -3.6184   -4.6890   -1.0736 H   0  0  0  0  0  0  0  0  0  0  0  0
   -5.2280   -5.2752   -0.6260 H   0  0  0  0  0  0  0  0  0  0  0  0
   -5.8890    4.3185    1.7041 H   0  0  0  0  0  0  0  0  0  0  0  0
   -5.8607    2.7474    2.5331 H   0  0  0  0  0  0  0  0  0  0  0  0
   -4.3185    3.6052    2.3814 H   0  0  0  0  0  0  0  0  0  0  0  0
   -4.8176    4.9374   -0.4505 H   0  0  0  0  0  0  0  0  0  0  0  0
   -3.4014    5.9921   -0.5988 H   0  0  0  0  0  0  0  0  0  0  0  0
   -4.0357    5.7130    1.0345 H   0  0  0  0  0  0  0  0  0  0  0  0
   -0.4296    5.0976    1.3423 H   0  0  0  0  0  0  0  0  0  0  0  0
    1.1330    4.8927    0.5302 H   0  0  0  0  0  0  0  0  0  0  0  0
   -1.0978    6.6653   -0.5913 H   0  0  0  0  0  0  0  0  0  0  0  0
    0.5054    6.3629   -1.3116 H   0  0  0  0  0  0  0  0  0  0  0  0
    0.9766    8.2874   -0.1819 H   0  0  0  0  0  0  0  0  0  0  0  0
   -0.3488    8.1038    0.9804 H   0  0  0  0  0  0  0  0  0  0  0  0
    1.2186    7.2321    1.2421 H   0  0  0  0  0  0  0  0  0  0  0  0
    2.1787    2.1896   -2.0106 H   0  0  0  0  0  0  0  0  0  0  0  0
    2.9863    0.7506   -2.5786 H   0  0  0  0  0  0  0  0  0  0  0  0
    3.7644    1.8489   -1.2884 H   0  0  0  0  0  0  0  0  0  0  0  0
    4.9714   -0.4877   -2.4987 H   0  0  0  0  0  0  0  0  0  0  0  0
    3.8571   -1.9391   -2.6364 H   0  0  0  0  0  0  0  0  0  0  0  0
    5.4871   -2.1117   -2.0541 H   0  0  0  0  0  0  0  0  0  0  0  0
   -8.1426   -0.1754    1.5602 H   0  0  0  0  0  0  0  0  0  0  0  0
   -8.5433   -1.9199    1.6311 H   0  0  0  0  0  0  0  0  0  0  0  0
   -9.5359   -0.8365    0.6047 H   0  0  0  0  0  0  0  0  0  0  0  0
   -8.5776    1.2754   -2.0967 H   0  0  0  0  0  0  0  0  0  0  0  0
   -7.1919    2.3756   -1.9977 H   0  0  0  0  0  0  0  0  0  0  0  0
   -7.0846    0.7755   -2.9088 H   0  0  0  0  0  0  0  0  0  0  0  0
   11.2080   -0.2818   -0.4577 H   0  0  0  0  0  0  0  0  0  0  0  0
   10.3506   -1.6442   -1.2122 H   0  0  0  0  0  0  0  0  0  0  0  0
   11.0687   -0.3458   -2.2965 H   0  0  0  0  0  0  0  0  0  0  0  0
    2.9304   -2.8201    2.1688 H   0  0  0  0  0  0  0  0  0  0  0  0
   -1.0641   -1.2825   -2.0190 H   0  0  0  0  0  0  0  0  0  0  0  0
   -2.3488   -3.5057    2.1653 H   0  0  0  0  0  0  0  0  0  0  0  0
   -4.4124   -3.0458   -1.9789 H   0  0  0  0  0  0  0  0  0  0  0  0
   -0.8332    1.7310   -1.5682 H   0  0  0  0  0  0  0  0  0  0  0  0
    3.2315    1.7851    1.6866 H   0  0  0  0  0  0  0  0  0  0  0  0
    9.9704    0.2607    1.7523 H   0  0  0  0  0  0  0  0  0  0  0  0
  1  2  1  0
  2  3  1  0
  3  4  1  0
  4  5  1  0
  5  6  1  0
  7  8  1  0
  8  9  1  0
  9 10  1  0
 10 11  1  0
 11 12  1  0
 12 13  1  0
 13 14  1  0
 14 15  1  0
 15 16  1  0
 16 17  1  0
 17 18  1  0
 18 19  1  0
 19 20  1  0
 20 21  1  0
 21 22  1  0
 22 23  1  0
 23 24  1  0
 24 25  1  0
 25 26  1  0
 26 27  1  0
 27 28  1  0
 28 29  1  0
 29 30  1  0
 30 31  1  0
 31 32  1  0
 28 33  1  0
 32 33  1  0
 10 34  1  0
 16 35  1  0
 18 36  1  0
 20 37  1  0
 37 38  1  0
 38 39  1  0
 24 40  1  0
 26 41  1  0
  2 45  1  0
  6 45  1  0
  7 45  1  0
  1 46  1  0
 25 46  1  0
  1 47  1  0
  7 48  1  0
  8 49  1  0
  9 50  1  0
 13 50  1  0
  9 51  1  6
 12 52  1  0
 42 52  1  0
 14 53  1  0
 43 53  1  0
 21 54  1  0
 23 55  1  0
 30 56  1  0
 44 56  1  0
 31 57  1  0
  1 58  1  0
  2 59  1  1
  3 60  1  0
  3 61  1  0
  4 62  1  0
  4 63  1  0
  5 64  1  0
  5 65  1  0
  6 66  1  0
  6 67  1  0
  7 68  1  0
  8 69  1  0
 10 70  1  1
 11 71  1  0
 11 72  1  0
 12 73  1  1
 13 74  1  6
 14 75  1  6
 15 76  1  0
 15 77  1  0
 16 78  1  6
 17 79  1  0
 17 80  1  0
 18 81  1  0
 19 82  1  0
 19 83  1  0
 20 84  1  6
 21 85  1  0
 22 86  1  0
 22 87  1  0
 23 88  1  1
 24 89  1  6
 25 90  1  6
 26 91  1  0
 27 92  1  0
 27 93  1  0
 28 94  1  1
 29 95  1  0
 29 96  1  0
 30 97  1  1
 31 98  1  6
 32 99  1  0
 32100  1  0
 33101  1  0
 33102  1  0
 34103  1  0
 34104  1  0
 34105  1  0
 35106  1  0
 35107  1  0
 35108  1  0
 36109  1  0
 36110  1  0
 36111  1  0
 37112  1  0
 37113  1  0
 38114  1  0
 38115  1  0
 39116  1  0
 39117  1  0
 39118  1  0
 40119  1  0
 40120  1  0
 40121  1  0
 41122  1  0
 41123  1  0
 41124  1  0
 42125  1  0
 42126  1  0
 42127  1  0
 43128  1  0
 43129  1  0
 43130  1  0
 44131  1  0
 44132  1  0
 44133  1  0
 47134  1  0
 48135  1  0
 49136  1  0
 51137  1  0
 54138  1  0
 55139  1  0
 57140  1  0
M  END
>  <PDBID>  (1) 
1FKF

>  <PDB ID>  (1) 
1FKF

>  <Generic Name>  (1) 
Tacrolimus

>  <Brand Name>  (1) 
Ach-tacrolimus#Advagraf#Astagraf XL#Envarsus XR#Hecoria#Prograf#Protopic#Ran-tacrolimus#Sandoz Tacrolimus#Tacrolimus

>  <DrugBank ID>  (1) 
DB00864

>  <ATC Codes>  (1) 
D11AH01#L04AD02

>  <Ligand ID>  (1) 
FK5

>  <Target Name>  (1) 
Peptidyl-prolyl cis-trans isomerase FKBP1A

>  <UniProt ID>  (1) 
P62942

>  <PDB ID.1>  (1) 
1FKF

>  <Seq. Identity>  (1) 
100%

$$$$
