PDB_DB00696_02
     RDKit          3D

100107  0  0  0  0  0  0  0  0999 V2000
    7.8503    1.9456   -0.1908 C   0  0  0  0  0  0  0  0  0  0  0  0
    8.7305    0.9966   -0.8889 N   0  0  0  0  0  0  0  0  0  0  0  0
    0.7621   -0.3493   -1.1832 O   0  0  0  0  0  0  0  0  0  0  0  0
    6.1788   -2.1383    0.0639 C   0  0  0  0  0  0  0  0  0  0  0  0
    7.6458   -2.1528    0.2552 C   0  0  0  0  0  0  0  0  0  0  0  0
    8.4566   -1.4346   -0.7644 C   0  0  0  0  0  0  0  0  0  0  0  0
    7.9175   -0.1451   -1.2700 C   0  0  0  0  0  0  0  0  0  0  0  0
    6.5296    0.1810   -0.8320 C   0  0  0  0  0  0  0  0  0  0  0  0
    3.3864    0.4998    3.2847 C   0  0  0  0  0  0  0  0  0  0  0  0
    1.0878    0.9995   -1.0430 C   0  0  0  0  0  0  0  0  0  0  0  0
   -1.1453    1.2045   -0.0436 C   0  0  2  0  0  0  0  0  0  0  0  0
   -1.9725    0.7534   -1.2809 C   0  0  0  0  0  0  0  0  0  0  0  0
   -4.1341    0.0759   -0.3145 C   0  0  2  0  0  0  0  0  0  0  0  0
    3.4470    0.8314    1.8769 N   0  0  0  0  0  0  0  0  0  0  0  0
    6.8219    1.0177    0.3958 C   0  0  0  0  0  0  0  0  0  0  0  0
   -1.0881    0.0770    0.7508 O   0  0  0  0  0  0  0  0  0  0  0  0
   -4.7207   -1.2906    0.0588 C   0  0  0  0  0  0  0  0  0  0  0  0
   -4.0407   -3.1627    1.3750 C   0  0  0  0  0  0  0  0  0  0  0  0
   -2.8410   -3.4415    2.2185 C   0  0  0  0  0  0  0  0  0  0  0  0
   -2.2430   -2.0945    2.4622 C   0  0  0  0  0  0  0  0  0  0  0  0
   -2.9729   -1.0911    1.5824 C   0  0  1  0  0  0  0  0  0  0  0  0
   -2.1129   -0.7948    0.4097 C   0  0  1  0  0  0  0  0  0  0  0  0
   -1.9511    2.3166    0.5937 C   0  0  0  0  0  0  0  0  0  0  0  0
   -5.0814    0.8188   -1.1475 C   0  0  0  0  0  0  0  0  0  0  0  0
   -6.3859    1.2556   -0.6264 C   0  0  0  0  0  0  0  0  0  0  0  0
   -7.4207    0.3786   -0.1092 C   0  0  0  0  0  0  0  0  0  0  0  0
    5.5465    1.6330    0.8366 C   0  0  0  0  0  0  0  0  0  0  0  0
    0.0790    1.7773   -0.4473 N   0  0  0  0  0  0  0  0  0  0  0  0
   -2.4721    1.8521   -1.9152 O   0  0  0  0  0  0  0  0  0  0  0  0
   -8.2446   -0.2951   -1.2038 C   0  0  0  0  0  0  0  0  0  0  0  0
   -9.2372    0.7773   -1.6756 C   0  0  0  0  0  0  0  0  0  0  0  0
   -8.5300    2.1125   -1.6286 C   0  0  0  0  0  0  0  0  0  0  0  0
   -7.0512    2.0031   -1.8315 C   0  0  0  0  0  0  0  0  0  0  0  0
    4.6550    0.4557    1.2383 C   0  0  2  0  0  0  0  0  0  0  0  0
   -2.8229   -0.1972   -0.7326 N   0  0  0  0  0  0  0  0  0  0  0  0
   -4.0847   -2.1999   -0.8801 O   0  0  0  0  0  0  0  0  0  0  0  0
    2.2404    0.4282    1.1538 C   0  0  0  0  0  0  0  0  0  0  0  0
   -4.2170   -1.7288    1.3263 N   0  0  0  0  0  0  0  0  0  0  0  0
   -1.6216   -2.0162   -0.0556 O   0  0  0  0  0  0  0  0  0  0  0  0
    2.3571    1.0125   -0.2012 C   0  0  1  0  0  0  0  0  0  0  0  0
    3.4413    0.2430   -0.9322 C   0  0  0  0  0  0  0  0  0  0  0  0
    4.3541   -0.4278    0.0582 C   0  0  1  0  0  0  0  0  0  0  0  0
    5.6121   -0.9390   -0.6374 C   0  0  0  0  0  0  0  0  0  0  0  0
    8.4202    2.4541    0.6067 H   0  0  0  0  0  0  0  0  0  0  0  0
    7.4225    2.6446   -0.9301 H   0  0  0  0  0  0  0  0  0  0  0  0
    9.1864    1.4670   -1.6949 H   0  0  0  0  0  0  0  0  0  0  0  0
    1.1956   -0.9196   -0.5357 H   0  0  0  0  0  0  0  0  0  0  0  0
    5.8179   -3.0954   -0.4079 H   0  0  0  0  0  0  0  0  0  0  0  0
    5.6940   -2.1570    1.0849 H   0  0  0  0  0  0  0  0  0  0  0  0
    7.9043   -1.8527    1.3152 H   0  0  0  0  0  0  0  0  0  0  0  0
    7.9743   -3.2369    0.2232 H   0  0  0  0  0  0  0  0  0  0  0  0
    9.4517   -1.1965   -0.2827 H   0  0  0  0  0  0  0  0  0  0  0  0
    8.7449   -2.1488   -1.5913 H   0  0  0  0  0  0  0  0  0  0  0  0
    7.9277   -0.1836   -2.3859 H   0  0  0  0  0  0  0  0  0  0  0  0
    6.0987    0.8803   -1.5925 H   0  0  0  0  0  0  0  0  0  0  0  0
    4.3873    0.7388    3.7153 H   0  0  0  0  0  0  0  0  0  0  0  0
    3.1896   -0.5752    3.3953 H   0  0  0  0  0  0  0  0  0  0  0  0
    2.6226    1.1352    3.7787 H   0  0  0  0  0  0  0  0  0  0  0  0
    1.3510    1.3879   -2.0352 H   0  0  0  0  0  0  0  0  0  0  0  0
   -1.2319    0.2854   -1.9813 H   0  0  0  0  0  0  0  0  0  0  0  0
   -3.9766    0.6497    0.6910 H   0  0  0  0  0  0  0  0  0  0  0  0
    7.2527    0.4526    1.2262 H   0  0  0  0  0  0  0  0  0  0  0  0
   -5.7569   -1.4363   -0.1649 H   0  0  0  0  0  0  0  0  0  0  0  0
   -3.9361   -3.6352    0.3683 H   0  0  0  0  0  0  0  0  0  0  0  0
   -4.9637   -3.6073    1.8020 H   0  0  0  0  0  0  0  0  0  0  0  0
   -3.1917   -3.9359    3.1499 H   0  0  0  0  0  0  0  0  0  0  0  0
   -2.1101   -4.0706    1.6638 H   0  0  0  0  0  0  0  0  0  0  0  0
   -2.4574   -1.8521    3.5449 H   0  0  0  0  0  0  0  0  0  0  0  0
   -1.1502   -2.0371    2.3454 H   0  0  0  0  0  0  0  0  0  0  0  0
   -3.1626   -0.2184    2.2422 H   0  0  0  0  0  0  0  0  0  0  0  0
   -2.2787    2.0675    1.6188 H   0  0  0  0  0  0  0  0  0  0  0  0
   -1.3454    3.2623    0.7086 H   0  0  0  0  0  0  0  0  0  0  0  0
   -2.8288    2.6134   -0.0085 H   0  0  0  0  0  0  0  0  0  0  0  0
   -4.6208    1.7735   -1.5887 H   0  0  0  0  0  0  0  0  0  0  0  0
   -5.3169    0.2612   -2.1232 H   0  0  0  0  0  0  0  0  0  0  0  0
   -6.2128    2.1440    0.0861 H   0  0  0  0  0  0  0  0  0  0  0  0
   -8.2029    1.0956    0.3899 H   0  0  0  0  0  0  0  0  0  0  0  0
   -7.2522   -0.3202    0.6932 H   0  0  0  0  0  0  0  0  0  0  0  0
    5.7542    2.1981    1.7793 H   0  0  0  0  0  0  0  0  0  0  0  0
    5.0825    2.2893    0.0910 H   0  0  0  0  0  0  0  0  0  0  0  0
    0.4715    2.4643    0.2203 H   0  0  0  0  0  0  0  0  0  0  0  0
   -1.8074    2.3197   -2.4458 H   0  0  0  0  0  0  0  0  0  0  0  0
   -8.7745   -1.1438   -0.7392 H   0  0  0  0  0  0  0  0  0  0  0  0
   -7.6200   -0.6381   -2.0468 H   0  0  0  0  0  0  0  0  0  0  0  0
  -10.0474    0.7742   -0.8854 H   0  0  0  0  0  0  0  0  0  0  0  0
   -9.7133    0.5379   -2.6245 H   0  0  0  0  0  0  0  0  0  0  0  0
   -8.9437    2.6891   -2.4963 H   0  0  0  0  0  0  0  0  0  0  0  0
   -8.7499    2.6453   -0.6818 H   0  0  0  0  0  0  0  0  0  0  0  0
   -6.6184    2.9929   -1.9731 H   0  0  0  0  0  0  0  0  0  0  0  0
   -6.8980    1.3579   -2.7262 H   0  0  0  0  0  0  0  0  0  0  0  0
    5.2728   -0.1290    1.9503 H   0  0  0  0  0  0  0  0  0  0  0  0
   -4.3521   -1.9727   -1.7877 H   0  0  0  0  0  0  0  0  0  0  0  0
    2.1333   -0.6489    1.2387 H   0  0  0  0  0  0  0  0  0  0  0  0
    1.3972    0.8669    1.7566 H   0  0  0  0  0  0  0  0  0  0  0  0
   -0.7322   -2.1430    0.3565 H   0  0  0  0  0  0  0  0  0  0  0  0
    2.7223    2.0698   -0.0759 H   0  0  0  0  0  0  0  0  0  0  0  0
    3.9854    0.8710   -1.6481 H   0  0  0  0  0  0  0  0  0  0  0  0
    2.9547   -0.5690   -1.5089 H   0  0  0  0  0  0  0  0  0  0  0  0
    3.8611   -1.3379    0.4508 H   0  0  0  0  0  0  0  0  0  0  0  0
    5.2676   -1.2891   -1.6357 H   0  0  0  0  0  0  0  0  0  0  0  0
  1  2  1  0
  4  5  1  0
  5  6  1  0
  2  7  1  0
  6  7  1  0
  7  8  1  0
  3 10  1  0
 11 12  1  0
  9 14  1  0
  1 15  1  0
  8 15  1  0
 11 16  1  0
 13 17  1  0
 18 19  1  0
 19 20  1  0
 20 21  1  0
 16 22  1  0
 21 22  1  0
 11 23  1  0
 13 24  1  0
 24 25  1  0
 25 26  1  0
 15 27  1  0
 10 28  1  0
 11 28  1  6
 12 29  1  0
 26 30  1  0
 30 31  1  0
 31 32  1  0
 25 33  1  0
 32 33  1  0
 14 34  1  0
 27 34  1  0
 12 35  1  0
 13 35  1  0
 22 35  1  0
 17 36  1  0
 14 37  1  0
 17 38  1  0
 18 38  1  0
 21 38  1  0
 22 39  1  6
 10 40  1  0
 37 40  1  0
 40 41  1  0
 34 42  1  0
 41 42  1  0
  4 43  1  0
  8 43  1  0
 42 43  1  0
  1 44  1  0
  1 45  1  0
  2 46  1  0
  3 47  1  0
  4 48  1  0
  4 49  1  0
  5 50  1  0
  5 51  1  0
  6 52  1  0
  6 53  1  0
  7 54  1  0
  8 55  1  0
  9 56  1  0
  9 57  1  0
  9 58  1  0
 10 59  1  0
 12 60  1  0
 13 61  1  1
 15 62  1  0
 17 63  1  0
 18 64  1  0
 18 65  1  0
 19 66  1  0
 19 67  1  0
 20 68  1  0
 20 69  1  0
 21 70  1  1
 23 71  1  0
 23 72  1  0
 23 73  1  0
 24 74  1  0
 24 75  1  0
 25 76  1  0
 26 77  1  0
 26 78  1  0
 27 79  1  0
 27 80  1  0
 28 81  1  0
 29 82  1  0
 30 83  1  0
 30 84  1  0
 31 85  1  0
 31 86  1  0
 32 87  1  0
 32 88  1  0
 33 89  1  0
 33 90  1  0
 34 91  1  1
 36 92  1  0
 37 93  1  0
 37 94  1  0
 39 95  1  0
 40 96  1  1
 41 97  1  0
 41 98  1  0
 42 99  1  1
 43100  1  0
M  END
>  <PDBID>  (1) 
4IB4

>  <PDB ID>  (1) 
4IB4

>  <Generic Name>  (1) 
Ergotamine

>  <Brand Name>  (1) 
Cafergot#Cafergot Sup#Cafergot Tab#Ergodryl Cap#Ergomar#Ergomar Slt 2mg#Ergomar Sublingual#Ergotamine#Ergotamine Tartrate and Caffeine#Gravergol Capsules#Megral Tabs#Migergot#Anervan#Antimigraine#Enxak#Ergam#Ergo-Kranit#Gynaemine#Wigrettes

>  <DrugBank ID>  (1) 
DB00696

>  <ATC Codes>  (1) 
N02CA52#N02CA72#N02CA02

>  <Ligand ID>  (1) 
ERM

>  <Target Name>  (1) 
5-hydroxytryptamine receptor 2A

>  <UniProt ID>  (1) 
P28223

>  <PDB ID.1>  (1) 
4IB4

>  <Seq. Identity>  (1) 
58%

$$$$
