PDB_DB00136_05
     RDKit          3D

 80 82  0  0  0  0  0  0  0  0999 V2000
    5.9468    0.6105   -2.7375 O   0  0  0  0  0  0  0  0  0  0  0  0
   -6.8173    1.9381   -0.7068 O   0  0  0  0  0  0  0  0  0  0  0  0
    6.5283   -0.5250    0.3550 C   0  0  1  0  0  0  0  0  0  0  0  0
    7.1339   -0.6416   -1.0312 C   0  0  0  0  0  0  0  0  0  0  0  0
    6.0353   -0.6068   -2.0866 C   0  0  1  0  0  0  0  0  0  0  0  0
    4.7437   -1.1348   -1.5645 C   0  0  0  0  0  0  0  0  0  0  0  0
    4.1504   -0.2732   -0.4319 C   0  0  1  0  0  0  0  0  0  0  0  0
    3.3205   -1.1927    0.3847 C   0  0  0  0  0  0  0  0  0  0  0  0
    2.5678   -0.6421    1.5290 C   0  0  0  0  0  0  0  0  0  0  0  0
    1.5006    0.4115    1.1450 C   0  0  0  0  0  0  0  0  0  0  0  0
    0.9086    0.8473    2.4465 C   0  0  0  0  0  0  0  0  0  0  0  0
    5.3115    0.3786    0.2262 C   0  0  1  0  0  0  0  0  0  0  0  0
   -0.5266    0.6850    2.6722 C   0  0  0  0  0  0  0  0  0  0  0  0
   -1.2046   -0.3491    1.7633 C   0  0  0  0  0  0  0  0  0  0  0  0
   -0.9095    0.0559    0.3800 C   0  0  1  0  0  0  0  0  0  0  0  0
    0.5994   -0.2073    0.1682 C   0  0  1  0  0  0  0  0  0  0  0  0
    0.6842    0.3006   -1.2541 C   0  0  0  0  0  0  0  0  0  0  0  0
   -0.6254   -0.1622   -1.9175 C   0  0  0  0  0  0  0  0  0  0  0  0
   -1.3787   -0.7607   -0.7387 C   0  0  2  0  0  0  0  0  0  0  0  0
   -1.0781    1.5426    0.2176 C   0  0  0  0  0  0  0  0  0  0  0  0
    5.1218    1.0640    1.5189 C   0  0  0  0  0  0  0  0  0  0  0  0
   -2.7946   -1.0415   -0.9947 C   0  0  1  0  0  0  0  0  0  0  0  0
   -3.4019   -1.7676    0.1669 C   0  0  0  0  0  0  0  0  0  0  0  0
   -3.5909    0.0163   -1.6362 C   0  0  0  0  0  0  0  0  0  0  0  0
   -5.0009   -0.1560   -1.9273 C   0  0  0  0  0  0  0  0  0  0  0  0
   -6.0660   -0.3207   -0.9567 C   0  0  0  0  0  0  0  0  0  0  0  0
   -6.4190    0.7549   -0.0136 C   0  0  0  0  0  0  0  0  0  0  0  0
   -5.4944    1.1823    1.0405 C   0  0  0  0  0  0  0  0  0  0  0  0
   -7.7378    0.3428    0.6989 C   0  0  0  0  0  0  0  0  0  0  0  0
    6.2497   -1.7341    0.9396 O   0  0  0  0  0  0  0  0  0  0  0  0
    4.9869    0.8530   -2.7986 H   0  0  0  0  0  0  0  0  0  0  0  0
   -7.7221    1.8219   -1.0802 H   0  0  0  0  0  0  0  0  0  0  0  0
    7.2568    0.0150    0.9931 H   0  0  0  0  0  0  0  0  0  0  0  0
    7.8777    0.1229   -1.2545 H   0  0  0  0  0  0  0  0  0  0  0  0
    7.6315   -1.6316   -1.0636 H   0  0  0  0  0  0  0  0  0  0  0  0
    6.3646   -1.3376   -2.8836 H   0  0  0  0  0  0  0  0  0  0  0  0
    4.0357   -1.2656   -2.3843 H   0  0  0  0  0  0  0  0  0  0  0  0
    4.9449   -2.1421   -1.1374 H   0  0  0  0  0  0  0  0  0  0  0  0
    3.5434    0.5015   -0.9231 H   0  0  0  0  0  0  0  0  0  0  0  0
    3.9137   -2.0651    0.7778 H   0  0  0  0  0  0  0  0  0  0  0  0
    2.5879   -1.6990   -0.3107 H   0  0  0  0  0  0  0  0  0  0  0  0
    3.1686   -0.3098    2.3899 H   0  0  0  0  0  0  0  0  0  0  0  0
    2.0011   -1.5422    1.9687 H   0  0  0  0  0  0  0  0  0  0  0  0
    2.1042    1.2577    0.7111 H   0  0  0  0  0  0  0  0  0  0  0  0
    1.4767    0.3873    3.3133 H   0  0  0  0  0  0  0  0  0  0  0  0
    1.1435    1.9519    2.5970 H   0  0  0  0  0  0  0  0  0  0  0  0
    5.6582    1.1814   -0.5056 H   0  0  0  0  0  0  0  0  0  0  0  0
   -1.1135    1.6508    2.6610 H   0  0  0  0  0  0  0  0  0  0  0  0
   -0.7100    0.2961    3.7085 H   0  0  0  0  0  0  0  0  0  0  0  0
   -0.7515   -1.3317    2.0746 H   0  0  0  0  0  0  0  0  0  0  0  0
   -2.2654   -0.2797    2.0030 H   0  0  0  0  0  0  0  0  0  0  0  0
    0.6817   -1.3223    0.2063 H   0  0  0  0  0  0  0  0  0  0  0  0
    0.8025    1.3813   -1.2664 H   0  0  0  0  0  0  0  0  0  0  0  0
    1.4766   -0.2326   -1.7779 H   0  0  0  0  0  0  0  0  0  0  0  0
   -1.1459    0.6400   -2.4297 H   0  0  0  0  0  0  0  0  0  0  0  0
   -0.4447   -0.9654   -2.6623 H   0  0  0  0  0  0  0  0  0  0  0  0
   -0.8740   -1.7764   -0.6107 H   0  0  0  0  0  0  0  0  0  0  0  0
   -1.9227    1.9537    0.8211 H   0  0  0  0  0  0  0  0  0  0  0  0
   -1.1256    1.8796   -0.8396 H   0  0  0  0  0  0  0  0  0  0  0  0
   -0.1662    2.0340    0.6093 H   0  0  0  0  0  0  0  0  0  0  0  0
    5.9515    1.8565    1.5718 H   0  0  0  0  0  0  0  0  0  0  0  0
    5.3690    0.4309    2.4045 H   0  0  0  0  0  0  0  0  0  0  0  0
    4.2095    1.6744    1.6367 H   0  0  0  0  0  0  0  0  0  0  0  0
   -2.7439   -1.8725   -1.8139 H   0  0  0  0  0  0  0  0  0  0  0  0
   -4.0528   -1.1783    0.8177 H   0  0  0  0  0  0  0  0  0  0  0  0
   -4.0435   -2.6339   -0.1640 H   0  0  0  0  0  0  0  0  0  0  0  0
   -2.6001   -2.3028    0.7707 H   0  0  0  0  0  0  0  0  0  0  0  0
   -3.3204    0.9955   -1.1388 H   0  0  0  0  0  0  0  0  0  0  0  0
   -3.0986    0.1731   -2.6672 H   0  0  0  0  0  0  0  0  0  0  0  0
   -5.1057   -1.0260   -2.6755 H   0  0  0  0  0  0  0  0  0  0  0  0
   -5.3171    0.7115   -2.6115 H   0  0  0  0  0  0  0  0  0  0  0  0
   -6.0617   -1.3015   -0.4022 H   0  0  0  0  0  0  0  0  0  0  0  0
   -7.0271   -0.4620   -1.5790 H   0  0  0  0  0  0  0  0  0  0  0  0
   -5.4544    0.4233    1.8669 H   0  0  0  0  0  0  0  0  0  0  0  0
   -4.5187    1.5662    0.7664 H   0  0  0  0  0  0  0  0  0  0  0  0
   -5.9994    2.0640    1.5613 H   0  0  0  0  0  0  0  0  0  0  0  0
   -8.5212    0.3158   -0.0745 H   0  0  0  0  0  0  0  0  0  0  0  0
   -7.9881    1.1633    1.4003 H   0  0  0  0  0  0  0  0  0  0  0  0
   -7.6441   -0.6389    1.1604 H   0  0  0  0  0  0  0  0  0  0  0  0
    6.7954   -2.4823    0.6084 H   0  0  0  0  0  0  0  0  0  0  0  0
  3  4  1  0
  1  5  1  0
  4  5  1  0
  5  6  1  0
  6  7  1  0
  7  8  1  0
  8  9  1  0
  9 10  1  0
 10 11  1  0
  3 12  1  0
  7 12  1  0
 11 13  1  0
 13 14  1  0
 14 15  1  0
 10 16  1  0
 15 16  1  0
 16 17  1  0
 17 18  1  0
 15 19  1  0
 18 19  1  0
 15 20  1  6
 12 21  1  0
 19 22  1  0
 22 23  1  0
 22 24  1  0
 24 25  1  0
 25 26  1  0
 27  2  1  0
 26 27  1  0
 27 28  1  0
 27 29  1  0
  3 30  1  0
  1 31  1  0
  2 32  1  0
  3 33  1  1
  4 34  1  0
  4 35  1  0
  5 36  1  6
  6 37  1  0
  6 38  1  0
  7 39  1  6
  8 40  1  0
  8 41  1  0
  9 42  1  0
  9 43  1  0
 10 44  1  0
 11 45  1  0
 11 46  1  0
 12 47  1  6
 13 48  1  0
 13 49  1  0
 14 50  1  0
 14 51  1  0
 16 52  1  6
 17 53  1  0
 17 54  1  0
 18 55  1  0
 18 56  1  0
 19 57  1  1
 20 58  1  0
 20 59  1  0
 20 60  1  0
 21 61  1  0
 21 62  1  0
 21 63  1  0
 22 64  1  6
 23 65  1  0
 23 66  1  0
 23 67  1  0
 24 68  1  0
 24 69  1  0
 25 70  1  0
 25 71  1  0
 26 72  1  0
 26 73  1  0
 28 74  1  0
 28 75  1  0
 28 76  1  0
 29 77  1  0
 29 78  1  0
 29 79  1  0
 30 80  1  0
M  END
>  <PDBID>  (1) 
1IE9

>  <PDB ID>  (1) 
1IE9

>  <Generic Name>  (1) 
Calcitriol

>  <Brand Name>  (1) 
Calcijex#Calcitriol#Calcitriol Injection#Calcitriol Injection USP#Calcitriol-odan#Rocaltrol#Rocaltrol Cap 0.25mcg#Rocaltrol Cap 0.5mcg#Rocaltrol Oral Solution 1mcg/ml#Silkis#Vectical#Calcitriol Oral Solution#Decostriol

>  <DrugBank ID>  (1) 
DB00136

>  <ATC Codes>  (1) 
A11CC04#D05AX03

>  <Ligand ID>  (1) 
VDX

>  <Target Name>  (1) 
Vitamin D3 receptor

>  <UniProt ID>  (1) 
P11473

>  <PDB ID.1>  (1) 
1IE9

>  <Seq. Identity>  (1) 
84%

$$$$
