PDB_DB01577_06
     RDKit          3D

 32 32  0  0  0  0  0  0  0  0999 V2000
    3.0312    0.5650   -0.3943 N   0  0  0  0  0  0  0  0  0  0  0  0
    1.6529    0.0544   -0.2186 C   0  0  1  0  0  0  0  0  0  0  0  0
    1.6540   -0.5616    1.1564 C   0  0  0  0  0  0  0  0  0  0  0  0
    0.7269    1.2037   -0.3541 C   0  0  0  0  0  0  0  0  0  0  0  0
   -0.7189    0.9648   -0.2354 C   0  0  0  0  0  0  0  0  0  0  0  0
   -1.2440    0.4060    1.0356 C   0  0  0  0  0  0  0  0  0  0  0  0
   -1.2901    0.1263   -1.3623 C   0  0  0  0  0  0  0  0  0  0  0  0
   -2.7832    0.5435    0.9453 C   0  0  0  0  0  0  0  0  0  0  0  0
   -2.2144   -0.9535   -0.8836 C   0  0  0  0  0  0  0  0  0  0  0  0
   -3.3430   -0.4384   -0.0296 C   0  0  0  0  0  0  0  0  0  0  0  0
    4.0081   -0.4757   -0.3807 C   0  0  0  0  0  0  0  0  0  0  0  0
    3.1960    1.1992    0.4444 H   0  0  0  0  0  0  0  0  0  0  0  0
    1.5237   -0.7026   -1.0232 H   0  0  0  0  0  0  0  0  0  0  0  0
    1.1343    0.0223    1.9260 H   0  0  0  0  0  0  0  0  0  0  0  0
    1.1557   -1.5522    1.0885 H   0  0  0  0  0  0  0  0  0  0  0  0
    2.6994   -0.6809    1.5770 H   0  0  0  0  0  0  0  0  0  0  0  0
    0.9103    1.7512   -1.3284 H   0  0  0  0  0  0  0  0  0  0  0  0
    1.0354    1.9634    0.4237 H   0  0  0  0  0  0  0  0  0  0  0  0
   -1.2227    1.9746   -0.3596 H   0  0  0  0  0  0  0  0  0  0  0  0
   -1.0110    1.0372    1.9423 H   0  0  0  0  0  0  0  0  0  0  0  0
   -1.0243   -0.6530    1.2083 H   0  0  0  0  0  0  0  0  0  0  0  0
   -1.8453    0.7213   -2.1143 H   0  0  0  0  0  0  0  0  0  0  0  0
   -0.4489   -0.3744   -1.8903 H   0  0  0  0  0  0  0  0  0  0  0  0
   -3.2466    0.4970    1.9349 H   0  0  0  0  0  0  0  0  0  0  0  0
   -2.9361    1.5685    0.5154 H   0  0  0  0  0  0  0  0  0  0  0  0
   -2.7017   -1.3798   -1.8055 H   0  0  0  0  0  0  0  0  0  0  0  0
   -1.7282   -1.7825   -0.3652 H   0  0  0  0  0  0  0  0  0  0  0  0
   -3.7996   -1.2850    0.5146 H   0  0  0  0  0  0  0  0  0  0  0  0
   -4.1598   -0.0086   -0.6595 H   0  0  0  0  0  0  0  0  0  0  0  0
    3.6703   -1.4288   -0.8585 H   0  0  0  0  0  0  0  0  0  0  0  0
    4.8658   -0.1148   -1.0257 H   0  0  0  0  0  0  0  0  0  0  0  0
    4.4537   -0.7288    0.5762 H   0  0  0  0  0  0  0  0  0  0  0  0
  1  2  1  0
  2  3  1  0
  2  4  1  0
  4  5  1  0
  5  6  1  0
  5  7  1  0
  6  8  1  0
  7  9  1  0
  8 10  1  0
  9 10  1  0
  1 11  1  0
  1 12  1  0
  2 13  1  6
  3 14  1  0
  3 15  1  0
  3 16  1  0
  4 17  1  0
  4 18  1  0
  5 19  1  0
  6 20  1  0
  6 21  1  0
  7 22  1  0
  7 23  1  0
  8 24  1  0
  8 25  1  0
  9 26  1  0
  9 27  1  0
 10 28  1  0
 10 29  1  0
 11 30  1  0
 11 31  1  0
 11 32  1  0
M  END
>  <PDBID>  (1) 
4XP6

>  <PDB ID>  (1) 
4XP6

>  <Generic Name>  (1) 
Methamphetamine

>  <Brand Name>  (1) 
Desoxyn#Methamphetamine Hydrochloride

>  <DrugBank ID>  (1) 
DB01577

>  <ATC Codes>  (1) 
N06BA03

>  <Ligand ID>  (1) 
B40

>  <Target Name>  (1) 
Sodium-dependent noradrenaline transporter

>  <UniProt ID>  (1) 
P23975

>  <PDB ID.1>  (1) 
4XP6

>  <Seq. Identity>  (1) 
59%

$$$$
