PDB_DB00710_06
     RDKit          3D

 46 45  0  0  0  0  0  0  0  0999 V2000
   -3.7386   -1.4102    0.1678 P   0  0  0  0  0  0  0  0  0  0  0  0
   -3.3100   -2.4339   -1.1408 O   0  0  0  0  0  0  0  0  0  0  0  0
   -5.0956   -1.5644    0.9738 O   0  0  0  0  0  0  0  0  0  0  0  0
   -4.2231   -0.4260   -0.8887 O   0  0  0  0  0  0  0  0  0  0  0  0
   -2.3938   -0.3643    0.7436 C   0  0  0  0  0  0  0  0  0  0  0  0
   -2.6394    1.3483    0.5301 P   0  0  0  0  0  0  0  0  0  0  0  0
   -4.1704    1.3132    0.7013 O   0  0  0  0  0  0  0  0  0  0  0  0
   -2.8074    2.0170   -0.9715 O   0  0  0  0  0  0  0  0  0  0  0  0
   -2.5804    2.3691    1.8641 O   0  0  0  0  0  0  0  0  0  0  0  0
   -2.3027   -0.4633    2.1799 O   0  0  0  0  0  0  0  0  0  0  0  0
   -1.1432   -1.0221    0.2594 C   0  0  0  0  0  0  0  0  0  0  0  0
    0.1650   -0.4757    0.5352 C   0  0  0  0  0  0  0  0  0  0  0  0
    0.6327    0.7452    0.0427 N   0  0  0  0  0  0  0  0  0  0  0  0
    1.8885    1.1346    0.6096 C   0  0  0  0  0  0  0  0  0  0  0  0
    3.0802    0.3017    0.3194 C   0  0  0  0  0  0  0  0  0  0  0  0
    3.5241    0.1499   -1.0828 C   0  0  0  0  0  0  0  0  0  0  0  0
    4.7749   -0.7404   -1.0733 C   0  0  0  0  0  0  0  0  0  0  0  0
    5.8105   -0.0528   -0.2454 C   0  0  0  0  0  0  0  0  0  0  0  0
    0.6701    0.9139   -1.3762 C   0  0  0  0  0  0  0  0  0  0  0  0
   -3.2611   -2.4171    0.8345 H   0  0  0  0  0  0  0  0  0  0  0  0
   -4.1121   -2.9154   -1.3582 H   0  0  0  0  0  0  0  0  0  0  0  0
   -5.8804   -1.0214    0.9147 H   0  0  0  0  0  0  0  0  0  0  0  0
   -5.0444   -0.6016   -1.3684 H   0  0  0  0  0  0  0  0  0  0  0  0
   -1.4099    1.6525    0.4391 H   0  0  0  0  0  0  0  0  0  0  0  0
   -4.7363    2.0869    0.6238 H   0  0  0  0  0  0  0  0  0  0  0  0
   -2.6336    1.3195   -1.6111 H   0  0  0  0  0  0  0  0  0  0  0  0
   -2.4532    1.7851    2.6196 H   0  0  0  0  0  0  0  0  0  0  0  0
   -2.5699   -1.4188    2.3478 H   0  0  0  0  0  0  0  0  0  0  0  0
   -1.1226   -2.1212    0.5421 H   0  0  0  0  0  0  0  0  0  0  0  0
   -1.2910   -1.1038   -0.8766 H   0  0  0  0  0  0  0  0  0  0  0  0
    0.9403   -1.2607    0.2203 H   0  0  0  0  0  0  0  0  0  0  0  0
    0.3263   -0.4661    1.6711 H   0  0  0  0  0  0  0  0  0  0  0  0
    1.7533    1.2819    1.7299 H   0  0  0  0  0  0  0  0  0  0  0  0
    2.1096    2.2064    0.2725 H   0  0  0  0  0  0  0  0  0  0  0  0
    2.9756   -0.6858    0.8456 H   0  0  0  0  0  0  0  0  0  0  0  0
    3.9458    0.8080    0.8641 H   0  0  0  0  0  0  0  0  0  0  0  0
    2.8570   -0.3308   -1.7885 H   0  0  0  0  0  0  0  0  0  0  0  0
    3.7933    1.1571   -1.4925 H   0  0  0  0  0  0  0  0  0  0  0  0
    4.5071   -1.7234   -0.6708 H   0  0  0  0  0  0  0  0  0  0  0  0
    5.1450   -0.8994   -2.1045 H   0  0  0  0  0  0  0  0  0  0  0  0
    5.7373    1.0328   -0.4099 H   0  0  0  0  0  0  0  0  0  0  0  0
    5.6715   -0.3251    0.8285 H   0  0  0  0  0  0  0  0  0  0  0  0
    6.8014   -0.4775   -0.5330 H   0  0  0  0  0  0  0  0  0  0  0  0
    0.5594   -0.0181   -1.9664 H   0  0  0  0  0  0  0  0  0  0  0  0
    1.4972    1.5714   -1.6828 H   0  0  0  0  0  0  0  0  0  0  0  0
   -0.2470    1.5448   -1.6353 H   0  0  0  0  0  0  0  0  0  0  0  0
  1  2  1  0
  1  3  1  0
  1  4  1  0
  1  5  1  0
  5  6  1  0
  6  7  1  0
  6  8  1  0
  6  9  1  0
  5 10  1  0
  5 11  1  0
 11 12  1  0
 12 13  1  0
 13 14  1  0
 14 15  1  0
 15 16  1  0
 16 17  1  0
 17 18  1  0
 13 19  1  0
  1 20  1  0
  2 21  1  0
  3 22  1  0
  4 23  1  0
  6 24  1  0
  7 25  1  0
  8 26  1  0
  9 27  1  0
 10 28  1  0
 11 29  1  0
 11 30  1  0
 12 31  1  0
 12 32  1  0
 14 33  1  0
 14 34  1  0
 15 35  1  0
 15 36  1  0
 16 37  1  0
 16 38  1  0
 17 39  1  0
 17 40  1  0
 18 41  1  0
 18 42  1  0
 18 43  1  0
 19 44  1  0
 19 45  1  0
 19 46  1  0
M  END
>  <PDBID>  (1) 
2F94

>  <PDB ID>  (1) 
2F94

>  <Generic Name>  (1) 
Ibandronate

>  <Brand Name>  (1) 
Bondronat#Boniva#Ibandronate Sodium#ADRONiL#Bonviva

>  <DrugBank ID>  (1) 
DB00710

>  <ATC Codes>  (1) 
M05BA06

>  <Ligand ID>  (1) 
BFQ

>  <Target Name>  (1) 
Farnesyl pyrophosphate synthase

>  <UniProt ID>  (1) 
P14324

>  <PDB ID.1>  (1) 
2F94

>  <Seq. Identity>  (1) 
100%

$$$$
