PDB_DB00990_00
     RDKit          3D

 56 59  0  0  0  0  0  0  0  0999 V2000
    1.4898   -2.6106    0.8868 C   0  0  0  0  0  0  0  0  0  0  0  0
    2.4257    1.0891    0.8365 C   0  0  0  0  0  0  0  0  0  0  0  0
    5.5695   -0.3053    0.3557 O   0  0  0  0  0  0  0  0  0  0  0  0
    3.8263    1.2890    0.2845 C   0  0  0  0  0  0  0  0  0  0  0  0
   -5.0266    1.3790    0.8242 O   0  0  0  0  0  0  0  0  0  0  0  0
    4.3935    0.0202   -0.3033 C   0  0  0  0  0  0  0  0  0  0  0  0
    3.4043   -1.0844   -0.0419 C   0  0  0  0  0  0  0  0  0  0  0  0
    2.0583   -0.7870   -0.7081 C   0  0  0  0  0  0  0  0  0  0  0  0
    1.2072   -1.9855   -0.4871 C   0  0  0  0  0  0  0  0  0  0  0  0
   -0.2420   -1.8117   -0.6811 C   0  0  0  0  0  0  0  0  0  0  0  0
   -0.8071   -0.4835   -0.3721 C   0  0  2  0  0  0  0  0  0  0  0  0
    0.1392    0.4570    0.3331 C   0  0  1  0  0  0  0  0  0  0  0  0
    1.5012    0.5015   -0.2298 C   0  0  1  0  0  0  0  0  0  0  0  0
   -0.5116    1.8296    0.3227 C   0  0  0  0  0  0  0  0  0  0  0  0
   -1.8632    1.8317    0.9777 C   0  0  0  0  0  0  0  0  0  0  0  0
   -2.7370    0.8096    0.3454 C   0  0  1  0  0  0  0  0  0  0  0  0
   -2.0246   -0.5413    0.4812 C   0  0  1  0  0  0  0  0  0  0  0  0
   -3.0716   -1.4917    0.0745 C   0  0  0  0  0  0  0  0  0  0  0  0
   -4.3626   -0.8706    0.5563 C   0  0  0  0  0  0  0  0  0  0  0  0
   -3.9982    0.5056    1.1059 C   0  0  0  0  0  0  0  0  0  0  0  0
   -3.1078    1.1063   -1.0758 C   0  0  0  0  0  0  0  0  0  0  0  0
    1.5049    1.5269   -1.3722 C   0  0  0  0  0  0  0  0  0  0  0  0
    2.5048   -3.0910    0.8105 H   0  0  0  0  0  0  0  0  0  0  0  0
    1.4403   -1.8817    1.6932 H   0  0  0  0  0  0  0  0  0  0  0  0
    0.7717   -3.4517    0.9737 H   0  0  0  0  0  0  0  0  0  0  0  0
    2.0662    2.1083    1.1223 H   0  0  0  0  0  0  0  0  0  0  0  0
    2.4286    0.4823    1.7490 H   0  0  0  0  0  0  0  0  0  0  0  0
    6.3247    0.2724    0.1208 H   0  0  0  0  0  0  0  0  0  0  0  0
    4.4473    1.6318    1.1382 H   0  0  0  0  0  0  0  0  0  0  0  0
    3.8358    2.0951   -0.4591 H   0  0  0  0  0  0  0  0  0  0  0  0
   -5.7714    1.1644    1.4431 H   0  0  0  0  0  0  0  0  0  0  0  0
    4.6272    0.1142   -1.3824 H   0  0  0  0  0  0  0  0  0  0  0  0
    3.3095   -1.2170    1.0436 H   0  0  0  0  0  0  0  0  0  0  0  0
    3.7910   -2.0015   -0.5500 H   0  0  0  0  0  0  0  0  0  0  0  0
    2.2910   -0.7207   -1.8029 H   0  0  0  0  0  0  0  0  0  0  0  0
    1.5652   -2.7745   -1.2151 H   0  0  0  0  0  0  0  0  0  0  0  0
   -0.5309   -2.1222   -1.7286 H   0  0  0  0  0  0  0  0  0  0  0  0
   -0.7732   -2.5702   -0.0320 H   0  0  0  0  0  0  0  0  0  0  0  0
   -1.0896    0.0257   -1.3334 H   0  0  0  0  0  0  0  0  0  0  0  0
    0.1834    0.1416    1.3991 H   0  0  0  0  0  0  0  0  0  0  0  0
    0.1049    2.5918    0.8418 H   0  0  0  0  0  0  0  0  0  0  0  0
   -0.6303    2.2009   -0.7216 H   0  0  0  0  0  0  0  0  0  0  0  0
   -2.2987    2.8259    0.8573 H   0  0  0  0  0  0  0  0  0  0  0  0
   -1.7713    1.5929    2.0558 H   0  0  0  0  0  0  0  0  0  0  0  0
   -1.7113   -0.6404    1.5349 H   0  0  0  0  0  0  0  0  0  0  0  0
   -2.9385   -2.4425    0.6607 H   0  0  0  0  0  0  0  0  0  0  0  0
   -3.0746   -1.7326   -0.9958 H   0  0  0  0  0  0  0  0  0  0  0  0
   -4.8333   -1.4484    1.3716 H   0  0  0  0  0  0  0  0  0  0  0  0
   -5.0545   -0.7861   -0.2960 H   0  0  0  0  0  0  0  0  0  0  0  0
   -3.8048    0.4315    2.1963 H   0  0  0  0  0  0  0  0  0  0  0  0
   -3.9813    1.8213   -1.0338 H   0  0  0  0  0  0  0  0  0  0  0  0
   -3.5134    0.1863   -1.5316 H   0  0  0  0  0  0  0  0  0  0  0  0
   -2.3388    1.6045   -1.6623 H   0  0  0  0  0  0  0  0  0  0  0  0
    1.3845    2.5488   -1.0104 H   0  0  0  0  0  0  0  0  0  0  0  0
    0.7680    1.2276   -2.1449 H   0  0  0  0  0  0  0  0  0  0  0  0
    2.5041    1.4393   -1.8584 H   0  0  0  0  0  0  0  0  0  0  0  0
  2  4  1  0
  3  6  1  0
  4  6  1  0
  6  7  1  0
  7  8  1  0
  1  9  1  0
  8  9  1  0
  9 10  1  0
 10 11  1  0
 11 12  1  0
  2 13  1  0
  8 13  1  0
 12 13  1  0
 12 14  1  0
 14 15  1  0
 15 16  1  0
 11 17  1  0
 16 17  1  0
 17 18  1  0
 18 19  1  0
  5 20  1  0
 16 20  1  0
 19 20  1  0
 16 21  1  6
 13 22  1  6
  1 23  1  0
  1 24  1  0
  1 25  1  0
  2 26  1  0
  2 27  1  0
  3 28  1  0
  4 29  1  0
  4 30  1  0
  5 31  1  0
  6 32  1  0
  7 33  1  0
  7 34  1  0
  8 35  1  0
  9 36  1  0
 10 37  1  0
 10 38  1  0
 11 39  1  6
 12 40  1  1
 14 41  1  0
 14 42  1  0
 15 43  1  0
 15 44  1  0
 17 45  1  1
 18 46  1  0
 18 47  1  0
 19 48  1  0
 19 49  1  0
 20 50  1  0
 21 51  1  0
 21 52  1  0
 21 53  1  0
 22 54  1  0
 22 55  1  0
 22 56  1  0
M  END
>  <PDBID>  (1) 
3S7S

>  <PDB ID>  (1) 
3S7S

>  <Generic Name>  (1) 
Exemestane

>  <Brand Name>  (1) 
Act Exemestane#Apo-exemestane#Aromasin#Exemestane#Gd-exemestane#Med-exemestane#Mylan-exemestane#Teva-exemestane#Exemestance

>  <DrugBank ID>  (1) 
DB00990

>  <ATC Codes>  (1) 
L02BG06

>  <Ligand ID>  (1) 
EXM

>  <Target Name>  (1) 
Aromatase

>  <UniProt ID>  (1) 
P11511

>  <PDB ID.1>  (1) 
3S7S

>  <Seq. Identity>  (1) 
98%

$$$$
