PDB_DB00273_02
     RDKit          3D

 45 47  0  0  0  0  0  0  0  0999 V2000
    1.3182    3.1005    1.3154 C   0  0  0  0  0  0  0  0  0  0  0  0
    1.1686    2.3852   -0.0056 C   0  0  0  0  0  0  0  0  0  0  0  0
    1.8474    3.2160   -1.0882 C   0  0  0  0  0  0  0  0  0  0  0  0
    1.7658    1.1410   -0.0254 O   0  0  0  0  0  0  0  0  0  0  0  0
   -0.1818    2.2235   -0.2437 O   0  0  0  0  0  0  0  0  0  0  0  0
   -0.4776    0.9751    0.3272 C   0  0  1  0  0  0  0  0  0  0  0  0
   -1.7499    0.4970   -0.2694 C   0  0  2  0  0  0  0  0  0  0  0  0
   -2.6801    0.3373    0.7701 O   0  0  0  0  0  0  0  0  0  0  0  0
   -3.4875   -0.6830    0.2936 C   0  0  0  0  0  0  0  0  0  0  0  0
   -4.3072   -1.1965    1.4436 C   0  0  0  0  0  0  0  0  0  0  0  0
   -4.4399   -0.1774   -0.7606 C   0  0  0  0  0  0  0  0  0  0  0  0
   -2.5753   -1.6046   -0.1916 O   0  0  0  0  0  0  0  0  0  0  0  0
   -1.7094   -0.8185   -0.9551 C   0  0  2  0  0  0  0  0  0  0  0  0
   -0.3519   -1.4196   -1.1207 C   0  0  0  0  0  0  0  0  0  0  0  0
    0.6623   -0.4812   -1.2289 O   0  0  0  0  0  0  0  0  0  0  0  0
    0.7406    0.1871   -0.0219 C   0  0  1  0  0  0  0  0  0  0  0  0
    1.1236   -0.8217    1.0542 C   0  0  0  0  0  0  0  0  0  0  0  0
    2.0257   -1.7204    0.4759 O   0  0  0  0  0  0  0  0  0  0  0  0
    3.3636   -1.7154    0.2254 S   0  0  0  0  0  0  0  0  0  0  0  0
    4.5288   -0.7126    0.5246 O   0  0  0  0  0  0  0  0  0  0  0  0
    3.6507   -1.9143   -1.6257 O   0  0  0  0  0  0  0  0  0  0  0  0
    4.1239   -3.3116    0.5916 N   0  0  0  0  0  0  0  0  0  0  0  0
    2.2973    2.9284    1.7845 H   0  0  0  0  0  0  0  0  0  0  0  0
    1.1539    4.1910    1.1256 H   0  0  0  0  0  0  0  0  0  0  0  0
    0.4738    2.7853    1.9748 H   0  0  0  0  0  0  0  0  0  0  0  0
    1.7987    4.2719   -0.7598 H   0  0  0  0  0  0  0  0  0  0  0  0
    2.9155    2.9029   -1.1436 H   0  0  0  0  0  0  0  0  0  0  0  0
    1.3170    3.0765   -2.0454 H   0  0  0  0  0  0  0  0  0  0  0  0
   -0.5241    1.0684    1.4317 H   0  0  0  0  0  0  0  0  0  0  0  0
   -2.2110    1.2496   -0.9579 H   0  0  0  0  0  0  0  0  0  0  0  0
   -5.1659   -0.4908    1.5690 H   0  0  0  0  0  0  0  0  0  0  0  0
   -3.7322   -1.1570    2.4016 H   0  0  0  0  0  0  0  0  0  0  0  0
   -4.7364   -2.1954    1.2740 H   0  0  0  0  0  0  0  0  0  0  0  0
   -3.9393    0.3285   -1.5986 H   0  0  0  0  0  0  0  0  0  0  0  0
   -5.1064   -0.9905   -1.0868 H   0  0  0  0  0  0  0  0  0  0  0  0
   -5.0745    0.5968   -0.2666 H   0  0  0  0  0  0  0  0  0  0  0  0
   -2.1738   -0.7603   -1.9722 H   0  0  0  0  0  0  0  0  0  0  0  0
   -0.3134   -2.0273   -2.0606 H   0  0  0  0  0  0  0  0  0  0  0  0
   -0.1704   -2.1602   -0.3019 H   0  0  0  0  0  0  0  0  0  0  0  0
    0.2499   -1.3139    1.5031 H   0  0  0  0  0  0  0  0  0  0  0  0
    1.6903   -0.3267    1.8831 H   0  0  0  0  0  0  0  0  0  0  0  0
    4.4933   -0.0775    1.2698 H   0  0  0  0  0  0  0  0  0  0  0  0
    4.6239   -2.0907   -1.6025 H   0  0  0  0  0  0  0  0  0  0  0  0
    4.3626   -3.2811    1.5983 H   0  0  0  0  0  0  0  0  0  0  0  0
    3.4127   -4.0140    0.3306 H   0  0  0  0  0  0  0  0  0  0  0  0
  2  1  1  0
  2  3  1  0
  2  4  1  0
  2  5  1  0
  5  6  1  0
  6  7  1  0
  7  8  1  0
  8  9  1  0
  9 10  1  0
  9 11  1  0
  9 12  1  0
  7 13  1  0
 12 13  1  0
 13 14  1  0
 14 15  1  0
  4 16  1  0
  6 16  1  0
 15 16  1  0
 16 17  1  1
 17 18  1  0
 19 18  1  0
 19 20  1  0
 19 21  1  0
 19 22  1  0
  1 23  1  0
  1 24  1  0
  1 25  1  0
  3 26  1  0
  3 27  1  0
  3 28  1  0
  6 29  1  1
  7 30  1  6
 10 31  1  0
 10 32  1  0
 10 33  1  0
 11 34  1  0
 11 35  1  0
 11 36  1  0
 13 37  1  6
 14 38  1  0
 14 39  1  0
 17 40  1  0
 17 41  1  0
 20 42  1  0
 21 43  1  0
 22 44  1  0
 22 45  1  0
M  END
>  <PDBID>  (1) 
3HKU

>  <PDB ID>  (1) 
3HKU

>  <Generic Name>  (1) 
Topiramate

>  <Brand Name>  (1) 
Abbott-topiramate#Accel-topiramate#Act Topiramate#Apo-topiramate#Auro-topiramate#Ava-topiramate#Dom-topiramate#Gd-topiramate#Ipg-topiramate#Jamp-topiramate#Mar-topiramate#Mint-topiramate#Mylan-topiramate#Nu-topiramate#PHL-topiramate#PMS-topiramate#Pro-topiramate#Q-topiramate#Qsymia#Qudexy XR#Ran-topiramate#Ratio-topiramate#Sandoz Topiramate#Sandoz Topiramate Tablets#Teva-topiramate#Topamax#Topamax 100mg#Topamax 200mg#Topamax 25mg#Topiramate#Topiramate Tablets#Topiramate Tablets USP#Trokendi XR#Van-topiramate#Zym-topiramate

>  <DrugBank ID>  (1) 
DB00273

>  <ATC Codes>  (1) 
N03AX11

>  <Ligand ID>  (1) 
TOR

>  <Target Name>  (1) 
Carbonic anhydrase 2

>  <UniProt ID>  (1) 
P00918

>  <PDB ID.1>  (1) 
3HKU

>  <Seq. Identity>  (1) 
100%

$$$$
