PDB_DB00299_05
     RDKit          3D

 82 84  0  0  0  0  0  0  0  0999 V2000
    3.3334   -1.1953   -0.1775 C   0  0  0  0  0  0  0  0  0  0  0  0
    1.4829    0.2793   -0.5663 C   0  0  0  0  0  0  0  0  0  0  0  0
    2.2524    1.1955    0.4104 C   0  0  0  0  0  0  0  0  0  0  0  0
   -4.4756    0.4609    0.6569 C   0  0  0  0  0  0  0  0  0  0  0  0
   -5.5514   -0.3663    0.9717 O   0  0  0  0  0  0  0  0  0  0  0  0
   -3.6266   -1.4286   -0.6186 C   0  0  0  0  0  0  0  0  0  0  0  0
   -2.6202   -2.3378   -0.8357 O   0  0  0  0  0  0  0  0  0  0  0  0
   -3.2687   -0.4999    0.4823 C   0  0  0  0  0  0  0  0  0  0  0  0
   -2.1075    0.3781    0.1518 C   0  0  0  0  0  0  0  0  0  0  0  0
   -0.7998   -0.3360   -0.0624 C   0  0  0  0  0  0  0  0  0  0  0  0
    0.1783    0.6560   -0.3292 N   0  0  0  0  0  0  0  0  0  0  0  0
    1.9257   -1.0194   -0.2454 N   0  0  0  0  0  0  0  0  0  0  0  0
    3.6075   -2.0833    0.9652 N   0  0  0  0  0  0  0  0  0  0  0  0
    4.1679   -0.0865   -0.0919 N   0  0  0  0  0  0  0  0  0  0  0  0
    3.6164    1.2164   -0.1520 C   0  0  0  0  0  0  0  0  0  0  0  0
    4.4567    2.1660    0.4177 O   0  0  0  0  0  0  0  0  0  0  0  0
    1.4785    2.3725    0.3217 N   0  0  0  0  0  0  0  0  0  0  0  0
    0.1102    1.8476    0.4479 C   0  0  0  0  0  0  0  0  0  0  0  0
    3.3334   -1.1953   -0.1775 C   0  0  0  0  0  0  0  0  0  0  0  0
    1.4829    0.2793   -0.5663 C   0  0  0  0  0  0  0  0  0  0  0  0
    2.2524    1.1955    0.4104 C   0  0  0  0  0  0  0  0  0  0  0  0
   -4.4756    0.4609    0.6569 C   0  0  0  0  0  0  0  0  0  0  0  0
   -5.5514   -0.3663    0.9717 O   0  0  0  0  0  0  0  0  0  0  0  0
   -3.6266   -1.4286   -0.6186 C   0  0  0  0  0  0  0  0  0  0  0  0
   -2.6202   -2.3378   -0.8357 O   0  0  0  0  0  0  0  0  0  0  0  0
   -3.2687   -0.4999    0.4823 C   0  0  0  0  0  0  0  0  0  0  0  0
   -2.1075    0.3781    0.1518 C   0  0  0  0  0  0  0  0  0  0  0  0
   -0.7998   -0.3360   -0.0624 C   0  0  0  0  0  0  0  0  0  0  0  0
    0.1783    0.6560   -0.3292 N   0  0  0  0  0  0  0  0  0  0  0  0
    1.9257   -1.0194   -0.2454 N   0  0  0  0  0  0  0  0  0  0  0  0
    3.6075   -2.0833    0.9652 N   0  0  0  0  0  0  0  0  0  0  0  0
    4.1679   -0.0865   -0.0919 N   0  0  0  0  0  0  0  0  0  0  0  0
    3.6164    1.2164   -0.1520 C   0  0  0  0  0  0  0  0  0  0  0  0
    4.4567    2.1660    0.4177 O   0  0  0  0  0  0  0  0  0  0  0  0
    1.4785    2.3725    0.3217 N   0  0  0  0  0  0  0  0  0  0  0  0
    0.1102    1.8476    0.4479 C   0  0  0  0  0  0  0  0  0  0  0  0
    3.6340   -1.8127   -1.0763 H   0  0  0  0  0  0  0  0  0  0  0  0
    1.7877    0.5199   -1.6062 H   0  0  0  0  0  0  0  0  0  0  0  0
    2.2780    0.7464    1.4183 H   0  0  0  0  0  0  0  0  0  0  0  0
   -4.6373    0.9615   -0.3341 H   0  0  0  0  0  0  0  0  0  0  0  0
   -4.2658    1.1952    1.4565 H   0  0  0  0  0  0  0  0  0  0  0  0
   -5.8697   -0.1170    1.8978 H   0  0  0  0  0  0  0  0  0  0  0  0
   -4.5972   -1.9139   -0.3492 H   0  0  0  0  0  0  0  0  0  0  0  0
   -3.7975   -0.8326   -1.5380 H   0  0  0  0  0  0  0  0  0  0  0  0
   -2.3316   -2.7277    0.0100 H   0  0  0  0  0  0  0  0  0  0  0  0
   -3.0696   -0.9936    1.4459 H   0  0  0  0  0  0  0  0  0  0  0  0
   -2.0290    1.1088    1.0144 H   0  0  0  0  0  0  0  0  0  0  0  0
   -2.3437    1.0658   -0.7163 H   0  0  0  0  0  0  0  0  0  0  0  0
   -0.8985   -0.9239   -1.0237 H   0  0  0  0  0  0  0  0  0  0  0  0
   -0.5909   -1.0547    0.7231 H   0  0  0  0  0  0  0  0  0  0  0  0
    1.4478   -1.7613   -0.8073 H   0  0  0  0  0  0  0  0  0  0  0  0
    3.2711   -1.6853    1.8536 H   0  0  0  0  0  0  0  0  0  0  0  0
    3.2592   -3.0414    0.8019 H   0  0  0  0  0  0  0  0  0  0  0  0
    4.8289   -0.1174    0.7422 H   0  0  0  0  0  0  0  0  0  0  0  0
    3.5358    1.5001   -1.2424 H   0  0  0  0  0  0  0  0  0  0  0  0
    5.3168    1.7293    0.5767 H   0  0  0  0  0  0  0  0  0  0  0  0
    1.5467    2.7776   -0.6199 H   0  0  0  0  0  0  0  0  0  0  0  0
   -0.6270    2.5756    0.1119 H   0  0  0  0  0  0  0  0  0  0  0  0
   -0.0082    1.5819    1.5332 H   0  0  0  0  0  0  0  0  0  0  0  0
    3.6340   -1.8127   -1.0763 H   0  0  0  0  0  0  0  0  0  0  0  0
    1.7877    0.5199   -1.6062 H   0  0  0  0  0  0  0  0  0  0  0  0
    2.2780    0.7464    1.4183 H   0  0  0  0  0  0  0  0  0  0  0  0
   -4.6373    0.9615   -0.3341 H   0  0  0  0  0  0  0  0  0  0  0  0
   -4.2658    1.1952    1.4565 H   0  0  0  0  0  0  0  0  0  0  0  0
   -5.8697   -0.1170    1.8978 H   0  0  0  0  0  0  0  0  0  0  0  0
   -4.5972   -1.9139   -0.3492 H   0  0  0  0  0  0  0  0  0  0  0  0
   -3.7975   -0.8326   -1.5380 H   0  0  0  0  0  0  0  0  0  0  0  0
   -2.3316   -2.7277    0.0100 H   0  0  0  0  0  0  0  0  0  0  0  0
   -3.0696   -0.9936    1.4459 H   0  0  0  0  0  0  0  0  0  0  0  0
   -2.0290    1.1088    1.0144 H   0  0  0  0  0  0  0  0  0  0  0  0
   -2.3437    1.0658   -0.7163 H   0  0  0  0  0  0  0  0  0  0  0  0
   -0.8985   -0.9239   -1.0237 H   0  0  0  0  0  0  0  0  0  0  0  0
   -0.5909   -1.0547    0.7231 H   0  0  0  0  0  0  0  0  0  0  0  0
    1.4478   -1.7613   -0.8073 H   0  0  0  0  0  0  0  0  0  0  0  0
    3.2711   -1.6853    1.8536 H   0  0  0  0  0  0  0  0  0  0  0  0
    3.2592   -3.0414    0.8019 H   0  0  0  0  0  0  0  0  0  0  0  0
    4.8289   -0.1174    0.7422 H   0  0  0  0  0  0  0  0  0  0  0  0
    3.5358    1.5001   -1.2424 H   0  0  0  0  0  0  0  0  0  0  0  0
    5.3168    1.7293    0.5767 H   0  0  0  0  0  0  0  0  0  0  0  0
    1.5467    2.7776   -0.6199 H   0  0  0  0  0  0  0  0  0  0  0  0
   -0.6270    2.5756    0.1119 H   0  0  0  0  0  0  0  0  0  0  0  0
   -0.0082    1.5819    1.5332 H   0  0  0  0  0  0  0  0  0  0  0  0
  2  3  1  0
  4  5  1  0
  6  7  1  0
  4  8  1  0
  6  8  1  0
  8  9  1  0
  9 10  1  0
  2 11  1  0
 10 11  1  0
  1 12  1  0
  2 12  1  0
  1 13  1  0
  1 14  1  0
  3 15  1  0
 14 15  1  0
 15 16  1  0
  3 17  1  0
 11 18  1  0
 17 18  1  0
 20 21  1  0
 22 23  1  0
 24 25  1  0
 22 26  1  0
 24 26  1  0
 26 27  1  0
 27 28  1  0
 20 29  1  0
 28 29  1  0
 19 30  1  0
 20 30  1  0
 19 31  1  0
 19 32  1  0
 21 33  1  0
 32 33  1  0
 33 34  1  0
 21 35  1  0
 29 36  1  0
 35 36  1  0
  1 37  1  0
  2 38  1  0
  3 39  1  0
  4 40  1  0
  4 41  1  0
  5 42  1  0
  6 43  1  0
  6 44  1  0
  7 45  1  0
  8 46  1  0
  9 47  1  0
  9 48  1  0
 10 49  1  0
 10 50  1  0
 12 51  1  0
 13 52  1  0
 13 53  1  0
 14 54  1  0
 15 55  1  0
 16 56  1  0
 17 57  1  0
 18 58  1  0
 18 59  1  0
 19 60  1  0
 20 61  1  0
 21 62  1  0
 22 63  1  0
 22 64  1  0
 23 65  1  0
 24 66  1  0
 24 67  1  0
 25 68  1  0
 26 69  1  0
 27 70  1  0
 27 71  1  0
 28 72  1  0
 28 73  1  0
 30 74  1  0
 31 75  1  0
 31 76  1  0
 32 77  1  0
 33 78  1  0
 34 79  1  0
 35 80  1  0
 36 81  1  0
 36 82  1  0
M  END
>  <PDBID>  (1) 
1KI3

>  <PDB ID>  (1) 
1KI3

>  <Generic Name>  (1) 
Penciclovir

>  <Brand Name>  (1) 
Denavir#Penciclovir

>  <DrugBank ID>  (1) 
DB00299

>  <ATC Codes>  (1) 
D06BB06#J05AB13

>  <Ligand ID>  (1) 
PE2

>  <Target Name>  (1) 
Thymidine kinase

>  <UniProt ID>  (1) 
P06478

>  <PDB ID.1>  (1) 
1KI3

>  <Seq. Identity>  (1) 
98%

$$$$
