PDB_DB00428_01
     RDKit          3D

 37 37  0  0  0  0  0  0  0  0999 V2000
   -0.5883   -0.2245    2.2870 O   0  0  0  0  0  0  0  0  0  0  0  0
   -0.7930   -0.6625    0.9749 C   0  0  1  0  0  0  0  0  0  0  0  0
   -2.2803   -0.8882    0.7763 C   0  0  2  0  0  0  0  0  0  0  0  0
   -2.6216   -2.0035    1.5709 O   0  0  0  0  0  0  0  0  0  0  0  0
   -2.6176   -1.1818   -0.6674 C   0  0  1  0  0  0  0  0  0  0  0  0
   -4.0712   -0.8764   -0.9580 C   0  0  0  0  0  0  0  0  0  0  0  0
   -4.3694    0.4712   -0.7677 O   0  0  0  0  0  0  0  0  0  0  0  0
   -1.8229   -0.4955   -1.5753 O   0  0  0  0  0  0  0  0  0  0  0  0
   -1.2123    0.6289   -1.0991 C   0  0  1  0  0  0  0  0  0  0  0  0
   -2.0718    1.6685   -0.7723 O   0  0  0  0  0  0  0  0  0  0  0  0
   -0.2369    0.3163   -0.0090 C   0  0  2  0  0  0  0  0  0  0  0  0
    1.0101   -0.0855   -0.5820 N   0  0  0  0  0  0  0  0  0  0  0  0
    2.0988    0.8197   -0.4046 C   0  0  0  0  0  0  0  0  0  0  0  0
    1.9767    1.9796   -1.1350 O   0  0  0  0  0  0  0  0  0  0  0  0
    3.3582    0.1558   -0.6340 N   0  0  0  0  0  0  0  0  0  0  0  0
    4.4283    1.1751   -0.6751 C   0  0  0  0  0  0  0  0  0  0  0  0
    3.6068   -0.6752    0.4995 N   0  0  0  0  0  0  0  0  0  0  0  0
    4.9219   -0.9307    0.6366 O   0  0  0  0  0  0  0  0  0  0  0  0
   -0.6946    0.7551    2.3445 H   0  0  0  0  0  0  0  0  0  0  0  0
   -0.2454   -1.6494    0.9041 H   0  0  0  0  0  0  0  0  0  0  0  0
   -2.8419   -0.0308    1.2044 H   0  0  0  0  0  0  0  0  0  0  0  0
   -3.1335   -2.6628    1.0774 H   0  0  0  0  0  0  0  0  0  0  0  0
   -2.4505   -2.2603   -0.8380 H   0  0  0  0  0  0  0  0  0  0  0  0
   -4.7525   -1.5031   -0.3808 H   0  0  0  0  0  0  0  0  0  0  0  0
   -4.2396   -1.1081   -2.0593 H   0  0  0  0  0  0  0  0  0  0  0  0
   -5.3033    0.6301   -1.0827 H   0  0  0  0  0  0  0  0  0  0  0  0
   -0.6251    1.0392   -1.9907 H   0  0  0  0  0  0  0  0  0  0  0  0
   -1.9151    2.0946    0.0842 H   0  0  0  0  0  0  0  0  0  0  0  0
   -0.0367    1.2988    0.5304 H   0  0  0  0  0  0  0  0  0  0  0  0
    1.2677   -1.0876   -0.4251 H   0  0  0  0  0  0  0  0  0  0  0  0
    2.0772    1.1344    0.6894 H   0  0  0  0  0  0  0  0  0  0  0  0
    1.7286    1.7265   -2.0598 H   0  0  0  0  0  0  0  0  0  0  0  0
    5.3339    0.6624   -1.0533 H   0  0  0  0  0  0  0  0  0  0  0  0
    4.5605    1.6377    0.3215 H   0  0  0  0  0  0  0  0  0  0  0  0
    4.1024    1.9181   -1.4334 H   0  0  0  0  0  0  0  0  0  0  0  0
    3.1108   -1.5795    0.3734 H   0  0  0  0  0  0  0  0  0  0  0  0
    5.3416   -0.2066    1.1953 H   0  0  0  0  0  0  0  0  0  0  0  0
  1  2  1  0
  2  3  1  0
  3  4  1  0
  3  5  1  0
  5  6  1  0
  6  7  1  0
  5  8  1  0
  8  9  1  0
  9 10  1  0
  2 11  1  0
  9 11  1  0
 11 12  1  0
 12 13  1  0
 13 14  1  0
 13 15  1  0
 15 16  1  0
 15 17  1  0
 17 18  1  0
  1 19  1  0
  2 20  1  1
  3 21  1  1
  4 22  1  0
  5 23  1  1
  6 24  1  0
  6 25  1  0
  7 26  1  0
  9 27  1  6
 10 28  1  0
 11 29  1  1
 12 30  1  0
 13 31  1  0
 14 32  1  0
 16 33  1  0
 16 34  1  0
 16 35  1  0
 17 36  1  0
 18 37  1  0
M  END
>  <PDBID>  (1) 
2W4X

>  <PDB ID>  (1) 
2W4X

>  <Generic Name>  (1) 
Streptozocin

>  <Brand Name>  (1) 
Zanosar#Zanosar Sterile Powder

>  <DrugBank ID>  (1) 
DB00428

>  <ATC Codes>  (1) 
L01AD04

>  <Ligand ID>  (1) 
STZ

>  <Target Name>  (1) 
O-GlcNAcase BT_4395

>  <UniProt ID>  (1) 
Q89ZI2

>  <PDB ID.1>  (1) 
2W4X

>  <Seq. Identity>  (1) 
100%

$$$$
