PDB_DB04786_07
     RDKit          3D

192199  0  0  0  0  0  0  0  0999 V2000
   18.0717    1.3641    0.8970 O   0  0  0  0  0  0  0  0  0  0  0  0
   17.3671    1.9478   -0.1494 S   0  0  0  0  0  0  0  0  0  0  0  0
   18.0108    1.7913   -1.7256 O   0  0  0  0  0  0  0  0  0  0  0  0
   17.1638    3.6819   -0.1281 O   0  0  0  0  0  0  0  0  0  0  0  0
   15.6820    1.3774   -0.3252 C   0  0  0  0  0  0  0  0  0  0  0  0
   14.9979    1.7226    0.9551 C   0  0  0  0  0  0  0  0  0  0  0  0
   13.5857    1.1184    1.0134 C   0  0  2  0  0  0  0  0  0  0  0  0
   13.3167    0.4518    2.5442 S   0  0  0  0  0  0  0  0  0  0  0  0
   14.4023   -0.7728    2.7615 O   0  0  0  0  0  0  0  0  0  0  0  0
   13.8924    1.7042    3.6538 O   0  0  0  0  0  0  0  0  0  0  0  0
   11.9552    0.0960    2.9804 O   0  0  0  0  0  0  0  0  0  0  0  0
   15.7970   -0.1266   -0.5139 C   0  0  0  0  0  0  0  0  0  0  0  0
   14.4277   -0.7882   -0.3334 C   0  0  0  0  0  0  0  0  0  0  0  0
   14.2562   -1.6896   -1.5214 C   0  0  1  0  0  0  0  0  0  0  0  0
   14.8587   -3.3904   -0.8270 S   0  0  0  0  0  0  0  0  0  0  0  0
   16.2319   -3.1550   -0.4641 O   0  0  0  0  0  0  0  0  0  0  0  0
   13.8572   -3.3927    0.5814 O   0  0  0  0  0  0  0  0  0  0  0  0
   14.2675   -4.4313   -1.8032 O   0  0  0  0  0  0  0  0  0  0  0  0
   12.8474   -1.9925   -1.8960 C   0  0  0  0  0  0  0  0  0  0  0  0
   11.9406   -0.7717   -1.7556 C   0  0  0  0  0  0  0  0  0  0  0  0
   13.4139    0.2863   -0.1881 C   0  0  0  0  0  0  0  0  0  0  0  0
   12.0094   -0.3496   -0.3276 C   0  0  1  0  0  0  0  0  0  0  0  0
   11.0656    0.4419    0.2637 N   0  0  0  0  0  0  0  0  0  0  0  0
    9.7753    0.2561    0.6565 C   0  0  0  0  0  0  0  0  0  0  0  0
    9.3952    1.3855    1.4865 O   0  0  0  0  0  0  0  0  0  0  0  0
    8.6725   -0.0345   -0.2779 C   0  0  2  0  0  0  0  0  0  0  0  0
    7.3607   -0.0989    0.6047 C   0  0  0  0  0  0  0  0  0  0  0  0
    8.6656   -1.3691   -0.9647 C   0  0  0  0  0  0  0  0  0  0  0  0
    7.3659   -2.1466   -0.8044 C   0  0  0  0  0  0  0  0  0  0  0  0
    6.1833   -1.2419   -1.1652 C   0  0  0  0  0  0  0  0  0  0  0  0
    6.3246   -0.9518   -2.6518 C   0  0  0  0  0  0  0  0  0  0  0  0
    6.2321    0.0162   -0.3462 C   0  0  0  0  0  0  0  0  0  0  0  0
    4.9785    0.3758    0.2845 N   0  0  0  0  0  0  0  0  0  0  0  0
    4.5196   -0.5920    1.2421 C   0  0  0  0  0  0  0  0  0  0  0  0
    5.0472   -0.2612    2.4866 O   0  0  0  0  0  0  0  0  0  0  0  0
    3.0107   -0.6459    1.3933 C   0  0  0  0  0  0  0  0  0  0  0  0
    2.2592   -1.0184    0.1823 C   0  0  0  0  0  0  0  0  0  0  0  0
    2.5130    0.6585    2.0433 C   0  0  0  0  0  0  0  0  0  0  0  0
    2.2495    1.7412    1.0543 C   0  0  0  0  0  0  0  0  0  0  0  0
    1.1395    1.2088    0.1444 C   0  0  0  0  0  0  0  0  0  0  0  0
    1.7403    0.0793   -0.6706 C   0  0  0  0  0  0  0  0  0  0  0  0
    0.7782   -0.3248   -1.6542 N   0  0  0  0  0  0  0  0  0  0  0  0
   -0.4710   -0.8327   -1.1162 C   0  0  0  0  0  0  0  0  0  0  0  0
   -1.1821   -1.2668   -2.2668 O   0  0  0  0  0  0  0  0  0  0  0  0
   -1.2544    0.2336   -0.5487 N   0  0  0  0  0  0  0  0  0  0  0  0
   -1.9908    1.0401   -1.4927 C   0  0  0  0  0  0  0  0  0  0  0  0
   -3.1363    0.2412   -2.0273 C   0  0  0  0  0  0  0  0  0  0  0  0
   -2.2692    2.3889   -0.9725 C   0  0  0  0  0  0  0  0  0  0  0  0
   -3.3307    3.1648   -1.6551 C   0  0  0  0  0  0  0  0  0  0  0  0
   -4.3766    2.3161   -2.2800 C   0  0  0  0  0  0  0  0  0  0  0  0
   -4.4846    0.9455   -1.7435 C   0  0  2  0  0  0  0  0  0  0  0  0
   -4.9252    0.7771   -0.3274 C   0  0  0  0  0  0  0  0  0  0  0  0
   -5.1491   -0.6139   -0.0513 O   0  0  0  0  0  0  0  0  0  0  0  0
   -5.7658    1.6695    0.2723 N   0  0  0  0  0  0  0  0  0  0  0  0
   -7.0724    1.9820    0.0171 C   0  0  0  0  0  0  0  0  0  0  0  0
   -8.1269    0.9356    0.2288 C   0  0  0  0  0  0  0  0  0  0  0  0
   -7.4545    3.1678    0.9264 C   0  0  0  0  0  0  0  0  0  0  0  0
   -7.0223    4.4671    0.2841 C   0  0  0  0  0  0  0  0  0  0  0  0
   -8.9413    3.2171    1.1289 C   0  0  0  0  0  0  0  0  0  0  0  0
   -9.4286    2.0690    1.9869 C   0  0  0  0  0  0  0  0  0  0  0  0
   -8.5987    0.8525    1.6650 C   0  0  0  0  0  0  0  0  0  0  0  0
   -9.4024   -0.4289    1.7854 C   0  0  0  0  0  0  0  0  0  0  0  0
   -9.8878   -0.6032    3.0603 O   0  0  0  0  0  0  0  0  0  0  0  0
  -10.3789   -0.4868    0.7385 N   0  0  0  0  0  0  0  0  0  0  0  0
  -11.5966   -1.1774    1.1277 C   0  0  0  0  0  0  0  0  0  0  0  0
  -11.3132   -2.6237    1.4605 C   0  0  0  0  0  0  0  0  0  0  0  0
  -11.7408   -3.4667    0.2916 C   0  0  0  0  0  0  0  0  0  0  0  0
  -13.2437   -3.3678    0.1461 C   0  0  2  0  0  0  0  0  0  0  0  0
  -13.6033   -4.2377   -1.3835 S   0  0  0  0  0  0  0  0  0  0  0  0
  -13.0234   -5.7133   -1.2506 O   0  0  0  0  0  0  0  0  0  0  0  0
  -12.5679   -3.4738   -2.5138 O   0  0  0  0  0  0  0  0  0  0  0  0
  -15.0396   -4.1130   -1.7878 O   0  0  0  0  0  0  0  0  0  0  0  0
  -12.5571   -1.0163   -0.0343 C   0  0  0  0  0  0  0  0  0  0  0  0
  -13.7234   -1.9461    0.0358 C   0  0  0  0  0  0  0  0  0  0  0  0
  -14.7159   -1.5609    1.1089 C   0  0  0  0  0  0  0  0  0  0  0  0
  -12.9567    0.4257   -0.1043 C   0  0  1  0  0  0  0  0  0  0  0  0
  -13.2263    0.8773   -1.7567 S   0  0  0  0  0  0  0  0  0  0  0  0
  -11.6652    0.3730   -2.4448 O   0  0  0  0  0  0  0  0  0  0  0  0
  -14.3168    0.5452   -2.4379 O   0  0  0  0  0  0  0  0  0  0  0  0
  -12.9083    2.6472   -1.7179 O   0  0  0  0  0  0  0  0  0  0  0  0
  -14.0894    0.7916    0.8015 C   0  0  0  0  0  0  0  0  0  0  0  0
  -15.2264   -0.1826    0.8001 C   0  0  2  0  0  0  0  0  0  0  0  0
  -16.3385    0.3374    2.0687 S   0  0  0  0  0  0  0  0  0  0  0  0
  -15.8208    0.4552    3.4122 O   0  0  0  0  0  0  0  0  0  0  0  0
  -17.6542   -0.7166    1.9317 O   0  0  0  0  0  0  0  0  0  0  0  0
  -16.9067    1.8248    1.4462 O   0  0  0  0  0  0  0  0  0  0  0  0
   18.3675    1.6911    1.7827 H   0  0  0  0  0  0  0  0  0  0  0  0
   17.2971    2.0380   -2.3598 H   0  0  0  0  0  0  0  0  0  0  0  0
   16.4009    3.8964   -0.7123 H   0  0  0  0  0  0  0  0  0  0  0  0
   15.2542    1.9046   -1.1776 H   0  0  0  0  0  0  0  0  0  0  0  0
   15.6077    1.3670    1.8381 H   0  0  0  0  0  0  0  0  0  0  0  0
   14.9408    2.8186    1.0550 H   0  0  0  0  0  0  0  0  0  0  0  0
   12.8663    1.9979    0.8966 H   0  0  0  0  0  0  0  0  0  0  0  0
   15.2210   -0.5144    3.2079 H   0  0  0  0  0  0  0  0  0  0  0  0
   13.1023    2.2677    3.8433 H   0  0  0  0  0  0  0  0  0  0  0  0
   11.6298   -0.8331    3.0407 H   0  0  0  0  0  0  0  0  0  0  0  0
   16.2103   -0.2935   -1.5288 H   0  0  0  0  0  0  0  0  0  0  0  0
   16.5225   -0.4901    0.2208 H   0  0  0  0  0  0  0  0  0  0  0  0
   14.4911   -1.3534    0.6144 H   0  0  0  0  0  0  0  0  0  0  0  0
   14.9318   -1.5245   -2.3544 H   0  0  0  0  0  0  0  0  0  0  0  0
   16.6705   -3.2095    0.4061 H   0  0  0  0  0  0  0  0  0  0  0  0
   13.2271   -4.1515    0.5318 H   0  0  0  0  0  0  0  0  0  0  0  0
   13.9005   -5.2704   -1.3894 H   0  0  0  0  0  0  0  0  0  0  0  0
   12.3689   -2.8105   -1.3355 H   0  0  0  0  0  0  0  0  0  0  0  0
   12.8193   -2.2703   -2.9703 H   0  0  0  0  0  0  0  0  0  0  0  0
   12.3955    0.0623   -2.3991 H   0  0  0  0  0  0  0  0  0  0  0  0
   11.0213   -1.0129   -2.2155 H   0  0  0  0  0  0  0  0  0  0  0  0
   13.4460    0.9872   -1.0827 H   0  0  0  0  0  0  0  0  0  0  0  0
   12.0686   -1.3563    0.2516 H   0  0  0  0  0  0  0  0  0  0  0  0
   11.2508    1.4778   -0.0480 H   0  0  0  0  0  0  0  0  0  0  0  0
    9.7462   -0.5669    1.5082 H   0  0  0  0  0  0  0  0  0  0  0  0
    9.3119    2.1555    0.8760 H   0  0  0  0  0  0  0  0  0  0  0  0
    8.4710    0.7477   -1.0082 H   0  0  0  0  0  0  0  0  0  0  0  0
    7.4834    0.8034    1.2632 H   0  0  0  0  0  0  0  0  0  0  0  0
    7.4819   -1.0338    1.1529 H   0  0  0  0  0  0  0  0  0  0  0  0
    9.4800   -2.0428   -0.6396 H   0  0  0  0  0  0  0  0  0  0  0  0
    8.8062   -1.2381   -2.0831 H   0  0  0  0  0  0  0  0  0  0  0  0
    7.2575   -2.6959    0.1105 H   0  0  0  0  0  0  0  0  0  0  0  0
    7.3680   -2.9110   -1.6390 H   0  0  0  0  0  0  0  0  0  0  0  0
    5.2642   -1.8022   -0.9672 H   0  0  0  0  0  0  0  0  0  0  0  0
    6.9081    0.0122   -2.7054 H   0  0  0  0  0  0  0  0  0  0  0  0
    5.3814   -0.7583   -3.1633 H   0  0  0  0  0  0  0  0  0  0  0  0
    6.9907   -1.6861   -3.1655 H   0  0  0  0  0  0  0  0  0  0  0  0
    6.4663    0.8553   -1.0527 H   0  0  0  0  0  0  0  0  0  0  0  0
    5.1765    1.2891    0.8368 H   0  0  0  0  0  0  0  0  0  0  0  0
    4.8794   -1.6192    1.0219 H   0  0  0  0  0  0  0  0  0  0  0  0
    5.2689    0.6688    2.6213 H   0  0  0  0  0  0  0  0  0  0  0  0
    2.8043   -1.4198    2.1969 H   0  0  0  0  0  0  0  0  0  0  0  0
    2.9244   -1.6473   -0.4685 H   0  0  0  0  0  0  0  0  0  0  0  0
    1.4399   -1.7408    0.4693 H   0  0  0  0  0  0  0  0  0  0  0  0
    3.2678    0.9212    2.8092 H   0  0  0  0  0  0  0  0  0  0  0  0
    1.5555    0.4178    2.5512 H   0  0  0  0  0  0  0  0  0  0  0  0
    3.0777    2.1151    0.4768 H   0  0  0  0  0  0  0  0  0  0  0  0
    1.8047    2.5865    1.6019 H   0  0  0  0  0  0  0  0  0  0  0  0
    0.8061    1.9851   -0.5470 H   0  0  0  0  0  0  0  0  0  0  0  0
    0.3425    0.8708    0.8031 H   0  0  0  0  0  0  0  0  0  0  0  0
    2.6066    0.5237   -1.2139 H   0  0  0  0  0  0  0  0  0  0  0  0
    1.1418   -1.0357   -2.3312 H   0  0  0  0  0  0  0  0  0  0  0  0
   -0.3313   -1.7120   -0.4907 H   0  0  0  0  0  0  0  0  0  0  0  0
   -0.5758   -1.6924   -2.9218 H   0  0  0  0  0  0  0  0  0  0  0  0
   -1.9185   -0.2059    0.1082 H   0  0  0  0  0  0  0  0  0  0  0  0
   -1.2916    1.2168   -2.4089 H   0  0  0  0  0  0  0  0  0  0  0  0
   -3.0350    0.0532   -3.1071 H   0  0  0  0  0  0  0  0  0  0  0  0
   -3.2178   -0.7060   -1.4634 H   0  0  0  0  0  0  0  0  0  0  0  0
   -1.2755    2.9786   -1.1007 H   0  0  0  0  0  0  0  0  0  0  0  0
   -2.4113    2.4793    0.1263 H   0  0  0  0  0  0  0  0  0  0  0  0
   -2.8352    3.7675   -2.4790 H   0  0  0  0  0  0  0  0  0  0  0  0
   -3.7543    3.9610   -0.9932 H   0  0  0  0  0  0  0  0  0  0  0  0
   -5.3641    2.8053   -2.3651 H   0  0  0  0  0  0  0  0  0  0  0  0
   -4.0740    2.1806   -3.3759 H   0  0  0  0  0  0  0  0  0  0  0  0
   -5.1835    0.3854   -2.4524 H   0  0  0  0  0  0  0  0  0  0  0  0
   -3.9298    0.8723    0.2631 H   0  0  0  0  0  0  0  0  0  0  0  0
   -5.2832   -0.6451    0.9259 H   0  0  0  0  0  0  0  0  0  0  0  0
   -5.3175    2.2591    1.0363 H   0  0  0  0  0  0  0  0  0  0  0  0
   -7.2012    2.4104   -1.0021 H   0  0  0  0  0  0  0  0  0  0  0  0
   -9.0164    1.2228   -0.3685 H   0  0  0  0  0  0  0  0  0  0  0  0
   -7.8305   -0.0627   -0.1615 H   0  0  0  0  0  0  0  0  0  0  0  0
   -6.8918    3.1065    1.8819 H   0  0  0  0  0  0  0  0  0  0  0  0
   -7.0238    5.2515    1.0891 H   0  0  0  0  0  0  0  0  0  0  0  0
   -7.7197    4.8186   -0.4858 H   0  0  0  0  0  0  0  0  0  0  0  0
   -5.9816    4.4314   -0.0797 H   0  0  0  0  0  0  0  0  0  0  0  0
   -9.4304    3.1276    0.1409 H   0  0  0  0  0  0  0  0  0  0  0  0
   -9.2379    4.2047    1.5293 H   0  0  0  0  0  0  0  0  0  0  0  0
  -10.4926    1.8145    1.8274 H   0  0  0  0  0  0  0  0  0  0  0  0
   -9.3263    2.3447    3.0666 H   0  0  0  0  0  0  0  0  0  0  0  0
   -7.7568    0.8306    2.3846 H   0  0  0  0  0  0  0  0  0  0  0  0
   -8.6719   -1.2533    1.6051 H   0  0  0  0  0  0  0  0  0  0  0  0
   -9.2620   -1.0245    3.6830 H   0  0  0  0  0  0  0  0  0  0  0  0
  -10.0000   -0.8498   -0.1606 H   0  0  0  0  0  0  0  0  0  0  0  0
  -12.0321   -0.6754    2.0046 H   0  0  0  0  0  0  0  0  0  0  0  0
  -11.8565   -2.9747    2.3595 H   0  0  0  0  0  0  0  0  0  0  0  0
  -10.2034   -2.7352    1.6087 H   0  0  0  0  0  0  0  0  0  0  0  0
  -11.4674   -4.4980    0.5080 H   0  0  0  0  0  0  0  0  0  0  0  0
  -11.2009   -3.1457   -0.6237 H   0  0  0  0  0  0  0  0  0  0  0  0
  -13.7214   -3.9013    0.9706 H   0  0  0  0  0  0  0  0  0  0  0  0
  -13.3433   -6.3303   -1.9361 H   0  0  0  0  0  0  0  0  0  0  0  0
  -13.0511   -2.7117   -2.9285 H   0  0  0  0  0  0  0  0  0  0  0  0
  -15.3153   -3.3837   -2.4207 H   0  0  0  0  0  0  0  0  0  0  0  0
  -12.0003   -1.2531   -0.9805 H   0  0  0  0  0  0  0  0  0  0  0  0
  -14.2712   -1.8339   -0.9359 H   0  0  0  0  0  0  0  0  0  0  0  0
  -14.3314   -1.6796    2.1261 H   0  0  0  0  0  0  0  0  0  0  0  0
  -15.5846   -2.2489    0.9985 H   0  0  0  0  0  0  0  0  0  0  0  0
  -12.0679    1.0175    0.2415 H   0  0  0  0  0  0  0  0  0  0  0  0
  -11.4000    1.0690   -3.0807 H   0  0  0  0  0  0  0  0  0  0  0  0
  -14.5515    0.0774   -3.2980 H   0  0  0  0  0  0  0  0  0  0  0  0
  -12.0427    2.6368   -1.2114 H   0  0  0  0  0  0  0  0  0  0  0  0
  -14.4028    1.8237    0.5449 H   0  0  0  0  0  0  0  0  0  0  0  0
  -13.7020    0.8480    1.8433 H   0  0  0  0  0  0  0  0  0  0  0  0
  -15.7667   -0.2263   -0.1705 H   0  0  0  0  0  0  0  0  0  0  0  0
  -15.5867   -0.2433    4.0411 H   0  0  0  0  0  0  0  0  0  0  0  0
  -17.3503   -1.5723    2.3106 H   0  0  0  0  0  0  0  0  0  0  0  0
  -17.3800    2.3209    2.1503 H   0  0  0  0  0  0  0  0  0  0  0  0
  2  1  1  0
  2  3  1  0
  2  4  1  0
  2  5  1  0
  5  6  1  0
  6  7  1  0
  7  8  1  0
  8  9  1  0
  8 10  1  0
  8 11  1  0
  5 12  1  0
 12 13  1  0
 13 14  1  0
 14 15  1  0
 15 16  1  0
 15 17  1  0
 15 18  1  0
 14 19  1  0
 19 20  1  0
  7 21  1  0
 13 21  1  0
 20 22  1  0
 21 22  1  0
 22 23  1  0
 23 24  1  0
 24 25  1  0
 24 26  1  0
 26 27  1  0
 26 28  1  0
 28 29  1  0
 29 30  1  0
 30 31  1  0
 27 32  1  0
 30 32  1  0
 32 33  1  0
 33 34  1  0
 34 35  1  0
 34 36  1  0
 36 37  1  0
 36 38  1  0
 38 39  1  0
 39 40  1  0
 37 41  1  0
 40 41  1  0
 41 42  1  0
 42 43  1  0
 43 44  1  0
 43 45  1  0
 45 46  1  0
 46 47  1  0
 46 48  1  0
 48 49  1  0
 49 50  1  0
 47 51  1  0
 50 51  1  0
 51 52  1  0
 52 53  1  0
 52 54  1  0
 54 55  1  0
 55 56  1  0
 55 57  1  0
 57 58  1  0
 57 59  1  0
 59 60  1  0
 56 61  1  0
 60 61  1  0
 61 62  1  0
 62 63  1  0
 62 64  1  0
 64 65  1  0
 65 66  1  0
 66 67  1  0
 67 68  1  0
 68 69  1  0
 69 70  1  0
 69 71  1  0
 69 72  1  0
 65 73  1  0
 68 74  1  0
 73 74  1  0
 74 75  1  0
 73 76  1  0
 76 77  1  0
 77 78  1  0
 77 79  1  0
 77 80  1  0
 76 81  1  0
 75 82  1  0
 81 82  1  0
 82 83  1  0
 83 84  1  0
 83 85  1  0
 83 86  1  0
  1 87  1  0
  3 88  1  0
  4 89  1  0
  5 90  1  0
  6 91  1  0
  6 92  1  0
  7 93  1  6
  9 94  1  0
 10 95  1  0
 11 96  1  0
 12 97  1  0
 12 98  1  0
 13 99  1  0
 14100  1  6
 16101  1  0
 17102  1  0
 18103  1  0
 19104  1  0
 19105  1  0
 20106  1  0
 20107  1  0
 21108  1  0
 22109  1  1
 23110  1  0
 24111  1  0
 25112  1  0
 26113  1  6
 27114  1  0
 27115  1  0
 28116  1  0
 28117  1  0
 29118  1  0
 29119  1  0
 30120  1  0
 31121  1  0
 31122  1  0
 31123  1  0
 32124  1  0
 33125  1  0
 34126  1  0
 35127  1  0
 36128  1  0
 37129  1  0
 37130  1  0
 38131  1  0
 38132  1  0
 39133  1  0
 39134  1  0
 40135  1  0
 40136  1  0
 41137  1  0
 42138  1  0
 43139  1  0
 44140  1  0
 45141  1  0
 46142  1  0
 47143  1  0
 47144  1  0
 48145  1  0
 48146  1  0
 49147  1  0
 49148  1  0
 50149  1  0
 50150  1  0
 51151  1  6
 52152  1  0
 53153  1  0
 54154  1  0
 55155  1  0
 56156  1  0
 56157  1  0
 57158  1  0
 58159  1  0
 58160  1  0
 58161  1  0
 59162  1  0
 59163  1  0
 60164  1  0
 60165  1  0
 61166  1  0
 62167  1  0
 63168  1  0
 64169  1  0
 65170  1  0
 66171  1  0
 66172  1  0
 67173  1  0
 67174  1  0
 68175  1  1
 70176  1  0
 71177  1  0
 72178  1  0
 73179  1  0
 74180  1  0
 75181  1  0
 75182  1  0
 76183  1  1
 78184  1  0
 79185  1  0
 80186  1  0
 81187  1  0
 81188  1  0
 82189  1  6
 84190  1  0
 85191  1  0
 86192  1  0
M  END
>  <PDBID>  (1) 
2NYR

>  <PDB ID>  (1) 
2NYR

>  <Generic Name>  (1) 
Suramin

>  <Brand Name>  (1) 
309 Fourneau#Antrypol#Bayer 205#Belganyl#Germanin#Moranyl#Naganin#Naganine#Naganol#Naphuride

>  <DrugBank ID>  (1) 
DB04786

>  <ATC Codes>  (1) 
P01CX02

>  <Ligand ID>  (1) 
SVR

>  <Target Name>  (1) 
NAD-dependent protein deacylase sirtuin-5, mitochondrial

>  <UniProt ID>  (1) 
Q9NXA8

>  <PDB ID.1>  (1) 
2NYR

>  <Seq. Identity>  (1) 
100%

$$$$
