PDB_DB00284_04
     RDKit          3D

 89 92  0  0  0  0  0  0  0  0999 V2000
   -5.8391    0.4348    0.0347 C   0  0  2  0  0  0  0  0  0  0  0  0
   -6.2651   -0.0550    1.3656 C   0  0  1  0  0  0  0  0  0  0  0  0
   -7.7623   -0.3952    1.4017 C   0  0  2  0  0  0  0  0  0  0  0  0
   -8.6216    0.6272    0.7480 C   0  0  1  0  0  0  0  0  0  0  0  0
   -8.1443    0.9991   -0.6220 C   0  0  0  0  0  0  0  0  0  0  0  0
   -9.2244    0.8653   -1.6398 C   0  0  0  0  0  0  0  0  0  0  0  0
   -6.9755    0.0794   -0.9575 C   0  0  0  0  0  0  0  0  0  0  0  0
   -5.6533   -1.2563    1.7712 O   0  0  0  0  0  0  0  0  0  0  0  0
   -8.1130   -0.3975    2.7698 O   0  0  0  0  0  0  0  0  0  0  0  0
   -9.9191    0.0985    0.6236 O   0  0  0  0  0  0  0  0  0  0  0  0
  -10.2905    1.7173   -1.2826 O   0  0  0  0  0  0  0  0  0  0  0  0
   -0.6777   -0.2393    0.2367 C   0  0  2  0  0  0  0  0  0  0  0  0
   -1.4243    0.3783    1.3438 C   0  0  1  0  0  0  0  0  0  0  0  0
   -2.9311    0.0675    1.1907 C   0  0  2  0  0  0  0  0  0  0  0  0
   -3.3523    0.4707   -0.1652 C   0  0  1  0  0  0  0  0  0  0  0  0
   -2.4120   -0.1138   -1.2314 C   0  0  1  0  0  0  0  0  0  0  0  0
   -1.7423    1.0400   -1.9233 C   0  0  0  0  0  0  0  0  0  0  0  0
   -4.6448    0.0843   -0.5358 N   0  0  0  0  0  0  0  0  0  0  0  0
   -1.1095   -0.1804    2.6005 O   0  0  0  0  0  0  0  0  0  0  0  0
   -3.5448    0.8184    2.2143 O   0  0  0  0  0  0  0  0  0  0  0  0
   -1.4487   -0.9157   -0.6620 O   0  0  0  0  0  0  0  0  0  0  0  0
    4.3817   -0.3585    0.2223 C   0  0  2  0  0  0  0  0  0  0  0  0
    3.6659    0.6429    1.0514 C   0  0  1  0  0  0  0  0  0  0  0  0
    2.3516    0.0539    1.5266 C   0  0  2  0  0  0  0  0  0  0  0  0
    1.6405   -0.4367    0.2728 C   0  0  1  0  0  0  0  0  0  0  0  0
    2.4462   -1.5271   -0.3934 C   0  0  1  0  0  0  0  0  0  0  0  0
    2.3304   -1.3309   -1.8861 C   0  0  0  0  0  0  0  0  0  0  0  0
    4.4261    1.0978    2.1353 O   0  0  0  0  0  0  0  0  0  0  0  0
    1.6393    1.0848    2.1290 O   0  0  0  0  0  0  0  0  0  0  0  0
    0.4232   -0.9673    0.6874 O   0  0  0  0  0  0  0  0  0  0  0  0
    3.7578   -1.5331   -0.0499 O   0  0  0  0  0  0  0  0  0  0  0  0
    2.8771   -0.1430   -2.3115 O   0  0  0  0  0  0  0  0  0  0  0  0
    8.4496    0.3580   -1.9145 C   0  0  1  0  0  0  0  0  0  0  0  0
    8.6769    1.1085   -0.6425 C   0  0  1  0  0  0  0  0  0  0  0  0
    7.5707    0.9430    0.3803 C   0  0  2  0  0  0  0  0  0  0  0  0
    6.6800   -0.1865   -0.1594 C   0  0  1  0  0  0  0  0  0  0  0  0
    7.6326   -1.2977   -0.5314 C   0  0  1  0  0  0  0  0  0  0  0  0
    7.0294   -2.6602   -0.4689 C   0  0  0  0  0  0  0  0  0  0  0  0
    9.6499    0.4607   -2.6542 O   0  0  0  0  0  0  0  0  0  0  0  0
    9.9223    0.8140   -0.1464 O   0  0  0  0  0  0  0  0  0  0  0  0
    6.8687    2.1174    0.5811 O   0  0  0  0  0  0  0  0  0  0  0  0
    5.7034   -0.5748    0.7106 O   0  0  0  0  0  0  0  0  0  0  0  0
    8.2350   -1.0050   -1.7509 O   0  0  0  0  0  0  0  0  0  0  0  0
    6.4674   -2.8157    0.8026 O   0  0  0  0  0  0  0  0  0  0  0  0
   -5.9299    1.5905    0.0723 H   0  0  0  0  0  0  0  0  0  0  0  0
   -6.1417    0.6868    2.1726 H   0  0  0  0  0  0  0  0  0  0  0  0
   -7.9583   -1.4226    1.0566 H   0  0  0  0  0  0  0  0  0  0  0  0
   -8.7502    1.5178    1.4282 H   0  0  0  0  0  0  0  0  0  0  0  0
   -7.8332    2.0682   -0.5936 H   0  0  0  0  0  0  0  0  0  0  0  0
   -9.6063   -0.1501   -1.7875 H   0  0  0  0  0  0  0  0  0  0  0  0
   -8.8445    1.2778   -2.6059 H   0  0  0  0  0  0  0  0  0  0  0  0
   -6.6743    0.2531   -1.9905 H   0  0  0  0  0  0  0  0  0  0  0  0
   -7.3223   -0.9559   -0.8047 H   0  0  0  0  0  0  0  0  0  0  0  0
   -5.2665   -1.7438    1.0011 H   0  0  0  0  0  0  0  0  0  0  0  0
   -8.6396   -1.1785    3.0210 H   0  0  0  0  0  0  0  0  0  0  0  0
  -10.2014   -0.1928    1.5428 H   0  0  0  0  0  0  0  0  0  0  0  0
   -9.8848    2.5612   -0.9720 H   0  0  0  0  0  0  0  0  0  0  0  0
   -0.2090    0.6136   -0.3562 H   0  0  0  0  0  0  0  0  0  0  0  0
   -1.3322    1.4777    1.3670 H   0  0  0  0  0  0  0  0  0  0  0  0
   -3.0099   -1.0064    1.4237 H   0  0  0  0  0  0  0  0  0  0  0  0
   -3.2425    1.6092   -0.2247 H   0  0  0  0  0  0  0  0  0  0  0  0
   -3.0228   -0.6236   -1.9772 H   0  0  0  0  0  0  0  0  0  0  0  0
   -2.3716    1.4659   -2.7368 H   0  0  0  0  0  0  0  0  0  0  0  0
   -1.5759    1.8507   -1.1902 H   0  0  0  0  0  0  0  0  0  0  0  0
   -0.7448    0.7236   -2.3081 H   0  0  0  0  0  0  0  0  0  0  0  0
   -4.6859   -0.5933   -1.3491 H   0  0  0  0  0  0  0  0  0  0  0  0
   -1.0831   -1.1528    2.4554 H   0  0  0  0  0  0  0  0  0  0  0  0
   -3.3123    0.3223    3.0495 H   0  0  0  0  0  0  0  0  0  0  0  0
    4.5874    0.1186   -0.7861 H   0  0  0  0  0  0  0  0  0  0  0  0
    3.3728    1.5085    0.4021 H   0  0  0  0  0  0  0  0  0  0  0  0
    2.5563   -0.7555    2.2486 H   0  0  0  0  0  0  0  0  0  0  0  0
    1.4659    0.4487   -0.3395 H   0  0  0  0  0  0  0  0  0  0  0  0
    1.9371   -2.5189   -0.1977 H   0  0  0  0  0  0  0  0  0  0  0  0
    1.3005   -1.5078   -2.2583 H   0  0  0  0  0  0  0  0  0  0  0  0
    2.9415   -2.1598   -2.3474 H   0  0  0  0  0  0  0  0  0  0  0  0
    4.5946    0.3116    2.7128 H   0  0  0  0  0  0  0  0  0  0  0  0
    1.9373    1.9841    1.8043 H   0  0  0  0  0  0  0  0  0  0  0  0
    3.1490   -0.1968   -3.2602 H   0  0  0  0  0  0  0  0  0  0  0  0
    7.6695    0.8470   -2.5384 H   0  0  0  0  0  0  0  0  0  0  0  0
    8.6748    2.2020   -0.9307 H   0  0  0  0  0  0  0  0  0  0  0  0
    8.0395    0.5362    1.2992 H   0  0  0  0  0  0  0  0  0  0  0  0
    6.2524    0.2134   -1.1007 H   0  0  0  0  0  0  0  0  0  0  0  0
    8.4700   -1.2736    0.2261 H   0  0  0  0  0  0  0  0  0  0  0  0
    6.2818   -2.8108   -1.2705 H   0  0  0  0  0  0  0  0  0  0  0  0
    7.8640   -3.3961   -0.5388 H   0  0  0  0  0  0  0  0  0  0  0  0
   10.2221   -0.3305   -2.5399 H   0  0  0  0  0  0  0  0  0  0  0  0
   10.3501    0.0155   -0.5067 H   0  0  0  0  0  0  0  0  0  0  0  0
    6.1647    2.1340   -0.1433 H   0  0  0  0  0  0  0  0  0  0  0  0
    7.0815   -2.3408    1.4322 H   0  0  0  0  0  0  0  0  0  0  0  0
  1  2  1  0
  2  3  1  0
  3  4  1  0
  4  5  1  0
  5  6  1  0
  1  7  1  0
  5  7  1  0
  2  8  1  0
  3  9  1  0
  4 10  1  0
  6 11  1  0
 12 13  1  0
 13 14  1  0
 14 15  1  0
 15 16  1  0
 16 17  1  0
  1 18  1  0
 15 18  1  0
 13 19  1  0
 14 20  1  0
 12 21  1  0
 16 21  1  0
 22 23  1  0
 23 24  1  0
 24 25  1  0
 25 26  1  0
 26 27  1  0
 23 28  1  0
 24 29  1  0
 12 30  1  0
 25 30  1  0
 22 31  1  0
 26 31  1  0
 27 32  1  0
 33 34  1  0
 34 35  1  0
 35 36  1  0
 36 37  1  0
 37 38  1  0
 33 39  1  0
 34 40  1  0
 35 41  1  0
 22 42  1  0
 36 42  1  0
 33 43  1  0
 37 43  1  0
 38 44  1  0
  1 45  1  1
  2 46  1  1
  3 47  1  6
  4 48  1  1
  5 49  1  0
  6 50  1  0
  6 51  1  0
  7 52  1  0
  7 53  1  0
  8 54  1  0
  9 55  1  0
 10 56  1  0
 11 57  1  0
 12 58  1  6
 13 59  1  1
 14 60  1  1
 15 61  1  1
 16 62  1  6
 17 63  1  0
 17 64  1  0
 17 65  1  0
 18 66  1  0
 19 67  1  0
 20 68  1  0
 22 69  1  6
 23 70  1  6
 24 71  1  1
 25 72  1  6
 26 73  1  6
 27 74  1  0
 27 75  1  0
 28 76  1  0
 29 77  1  0
 32 78  1  0
 33 79  1  6
 34 80  1  6
 35 81  1  1
 36 82  1  6
 37 83  1  1
 38 84  1  0
 38 85  1  0
 39 86  1  0
 40 87  1  0
 41 88  1  0
 44 89  1  0
M  END
>  <PDBID>  (1) 
2QMJ

>  <PDB ID>  (1) 
2QMJ

>  <Generic Name>  (1) 
Acarbose

>  <Brand Name>  (1) 
Acarbose#Glucobay#Precose#Prandase

>  <DrugBank ID>  (1) 
DB00284

>  <ATC Codes>  (1) 
A10BF01#A10BD17

>  <Ligand ID>  (1) 
ACR,QPS

>  <Target Name>  (1) 
Maltase-glucoamylase, intestinal

>  <UniProt ID>  (1) 
O43451

>  <PDB ID.1>  (1) 
2QMJ

>  <Seq. Identity>  (1) 
99%

$$$$
