PDB_DB00563_01
     RDKit          3D

 77 79  0  0  0  0  0  0  0  0999 V2000
    6.7421   -0.1644    2.0475 N   0  0  0  0  0  0  0  0  0  0  0  0
    7.9595    0.2027    1.3547 C   0  0  0  0  0  0  0  0  0  0  0  0
    8.1518    1.6276    1.2673 N   0  0  0  0  0  0  0  0  0  0  0  0
    8.0407   -0.4268    0.0944 N   0  0  0  0  0  0  0  0  0  0  0  0
    6.8655   -0.8153   -0.5683 C   0  0  2  0  0  0  0  0  0  0  0  0
    7.0157   -0.4912   -1.9901 N   0  0  0  0  0  0  0  0  0  0  0  0
    5.5549   -0.3305   -0.0436 C   0  0  0  0  0  0  0  0  0  0  0  0
    4.6179   -1.4010    0.1304 N   0  0  0  0  0  0  0  0  0  0  0  0
    3.2083   -0.9456    0.2094 C   0  0  0  0  0  0  0  0  0  0  0  0
    3.2392    0.1758    1.2127 C   0  0  0  0  0  0  0  0  0  0  0  0
    4.4511    0.1733    2.0350 N   0  0  0  0  0  0  0  0  0  0  0  0
    5.6527    0.3998    1.2683 C   0  0  0  0  0  0  0  0  0  0  0  0
    2.7409   -0.6004   -1.1412 C   0  0  0  0  0  0  0  0  0  0  0  0
    1.4505   -0.1737   -1.3619 N   0  0  0  0  0  0  0  0  0  0  0  0
    1.2319    0.2121   -2.7587 C   0  0  0  0  0  0  0  0  0  0  0  0
   -2.0986    0.3556    0.3220 C   0  0  0  0  0  0  0  0  0  0  0  0
   -1.3949   -0.8220    0.9491 C   0  0  0  0  0  0  0  0  0  0  0  0
    0.1119   -0.6385    0.6904 C   0  0  0  0  0  0  0  0  0  0  0  0
    0.3622   -0.7993   -0.7665 C   0  0  0  0  0  0  0  0  0  0  0  0
   -0.9148   -0.7137   -1.5890 C   0  0  0  0  0  0  0  0  0  0  0  0
   -1.7998    0.4201   -1.1645 C   0  0  0  0  0  0  0  0  0  0  0  0
   -3.6200    0.1674    0.4577 C   0  0  2  0  0  0  0  0  0  0  0  0
   -3.8345   -1.0661   -0.2349 O   0  0  0  0  0  0  0  0  0  0  0  0
   -4.2364    1.1969   -0.3038 N   0  0  0  0  0  0  0  0  0  0  0  0
   -5.6151    1.4987    0.0187 C   0  0  2  0  0  0  0  0  0  0  0  0
   -5.6916    2.0497    1.4310 C   0  0  0  0  0  0  0  0  0  0  0  0
   -6.9883    2.3913    1.8044 O   0  0  0  0  0  0  0  0  0  0  0  0
   -4.9753    3.2540    1.4297 O   0  0  0  0  0  0  0  0  0  0  0  0
   -6.3547    0.1882   -0.1042 C   0  0  0  0  0  0  0  0  0  0  0  0
   -7.8225    0.2520    0.1561 C   0  0  0  0  0  0  0  0  0  0  0  0
   -8.3290   -1.1976   -0.0323 C   0  0  0  0  0  0  0  0  0  0  0  0
   -8.0624   -1.6362   -1.3125 O   0  0  0  0  0  0  0  0  0  0  0  0
   -7.7503   -2.0071    0.9534 O   0  0  0  0  0  0  0  0  0  0  0  0
    6.7100    0.1963    3.0065 H   0  0  0  0  0  0  0  0  0  0  0  0
    8.8010   -0.1801    2.0027 H   0  0  0  0  0  0  0  0  0  0  0  0
    7.8512    2.0404    0.3770 H   0  0  0  0  0  0  0  0  0  0  0  0
    7.8045    2.0996    2.1275 H   0  0  0  0  0  0  0  0  0  0  0  0
    8.8073   -1.1347    0.0623 H   0  0  0  0  0  0  0  0  0  0  0  0
    6.8215   -1.9474   -0.5562 H   0  0  0  0  0  0  0  0  0  0  0  0
    7.4539    0.4388   -2.1437 H   0  0  0  0  0  0  0  0  0  0  0  0
    6.0740   -0.5994   -2.4353 H   0  0  0  0  0  0  0  0  0  0  0  0
    5.1545    0.3920   -0.7686 H   0  0  0  0  0  0  0  0  0  0  0  0
    4.6960   -2.1381   -0.6140 H   0  0  0  0  0  0  0  0  0  0  0  0
    2.6880   -1.8432    0.6224 H   0  0  0  0  0  0  0  0  0  0  0  0
    3.1162    1.1758    0.7678 H   0  0  0  0  0  0  0  0  0  0  0  0
    2.4330    0.0504    1.9761 H   0  0  0  0  0  0  0  0  0  0  0  0
    4.4951   -0.6891    2.6174 H   0  0  0  0  0  0  0  0  0  0  0  0
    5.7699    1.4782    1.1181 H   0  0  0  0  0  0  0  0  0  0  0  0
    3.4770    0.1075   -1.6693 H   0  0  0  0  0  0  0  0  0  0  0  0
    2.9266   -1.5447   -1.8022 H   0  0  0  0  0  0  0  0  0  0  0  0
    1.1512   -0.6382   -3.4244 H   0  0  0  0  0  0  0  0  0  0  0  0
    0.4804    0.9934   -2.8116 H   0  0  0  0  0  0  0  0  0  0  0  0
    2.2070    0.7264   -3.0392 H   0  0  0  0  0  0  0  0  0  0  0  0
   -1.7618    1.2705    0.8357 H   0  0  0  0  0  0  0  0  0  0  0  0
   -1.7254   -1.7579    0.5113 H   0  0  0  0  0  0  0  0  0  0  0  0
   -1.5941   -0.8008    2.0480 H   0  0  0  0  0  0  0  0  0  0  0  0
    0.3306    0.4087    1.0302 H   0  0  0  0  0  0  0  0  0  0  0  0
    0.6271   -1.3822    1.3192 H   0  0  0  0  0  0  0  0  0  0  0  0
    0.6004   -1.9445   -0.8558 H   0  0  0  0  0  0  0  0  0  0  0  0
   -1.5302   -1.6519   -1.4796 H   0  0  0  0  0  0  0  0  0  0  0  0
   -0.6816   -0.6092   -2.6539 H   0  0  0  0  0  0  0  0  0  0  0  0
   -1.4139    1.4267   -1.4205 H   0  0  0  0  0  0  0  0  0  0  0  0
   -2.7486    0.2990   -1.7535 H   0  0  0  0  0  0  0  0  0  0  0  0
   -3.9493    0.0156    1.4757 H   0  0  0  0  0  0  0  0  0  0  0  0
   -3.8404   -1.7965    0.4349 H   0  0  0  0  0  0  0  0  0  0  0  0
   -3.6547    2.0136   -0.5318 H   0  0  0  0  0  0  0  0  0  0  0  0
   -5.9910    2.2373   -0.6898 H   0  0  0  0  0  0  0  0  0  0  0  0
   -5.2965    1.3345    2.1907 H   0  0  0  0  0  0  0  0  0  0  0  0
   -6.9198    2.9738    2.6067 H   0  0  0  0  0  0  0  0  0  0  0  0
   -4.1384    3.2039    1.9187 H   0  0  0  0  0  0  0  0  0  0  0  0
   -6.1512   -0.2230   -1.1086 H   0  0  0  0  0  0  0  0  0  0  0  0
   -5.8526   -0.5100    0.6290 H   0  0  0  0  0  0  0  0  0  0  0  0
   -8.1301    0.5360    1.1589 H   0  0  0  0  0  0  0  0  0  0  0  0
   -8.3211    0.8794   -0.6068 H   0  0  0  0  0  0  0  0  0  0  0  0
   -9.4230   -1.2085    0.1431 H   0  0  0  0  0  0  0  0  0  0  0  0
   -7.6222   -2.5315   -1.2537 H   0  0  0  0  0  0  0  0  0  0  0  0
   -7.6388   -1.5030    1.8015 H   0  0  0  0  0  0  0  0  0  0  0  0
  1  2  1  0
  2  3  1  0
  2  4  1  0
  4  5  1  0
  5  6  1  0
  5  7  1  0
  7  8  1  0
  8  9  1  0
  9 10  1  0
 10 11  1  0
  1 12  1  0
  7 12  1  0
 11 12  1  0
  9 13  1  0
 13 14  1  0
 14 15  1  0
 16 17  1  0
 17 18  1  0
 14 19  1  0
 18 19  1  0
 19 20  1  0
 16 21  1  0
 20 21  1  0
 16 22  1  0
 22 23  1  0
 22 24  1  0
 24 25  1  0
 25 26  1  0
 26 27  1  0
 26 28  1  0
 25 29  1  0
 29 30  1  0
 30 31  1  0
 31 32  1  0
 31 33  1  0
  1 34  1  0
  2 35  1  0
  3 36  1  0
  3 37  1  0
  4 38  1  0
  5 39  1  6
  6 40  1  0
  6 41  1  0
  7 42  1  0
  8 43  1  0
  9 44  1  0
 10 45  1  0
 10 46  1  0
 11 47  1  0
 12 48  1  0
 13 49  1  0
 13 50  1  0
 15 51  1  0
 15 52  1  0
 15 53  1  0
 16 54  1  0
 17 55  1  0
 17 56  1  0
 18 57  1  0
 18 58  1  0
 19 59  1  0
 20 60  1  0
 20 61  1  0
 21 62  1  0
 21 63  1  0
 22 64  1  1
 23 65  1  0
 24 66  1  0
 25 67  1  6
 26 68  1  0
 27 69  1  0
 28 70  1  0
 29 71  1  0
 29 72  1  0
 30 73  1  0
 30 74  1  0
 31 75  1  0
 32 76  1  0
 33 77  1  0
M  END
>  <PDBID>  (1) 
1U72

>  <PDB ID>  (1) 
1U72

>  <Generic Name>  (1) 
Methotrexate

>  <Brand Name>  (1) 
Apo-methotrexate#Jamp-methotrexate#Methotrexate#Methotrexate Dbl Inj 10mg/ml#Methotrexate Dbl Inj 2.5mg/ml#Methotrexate Dbl Inj 25mg/ml#Methotrexate Injection BP#Methotrexate Injection USP#Methotrexate Injection, BP#Methotrexate Injection, USP#Methotrexate PF/sa Injection#Methotrexate Sod Inj 25mg/ml USP#Methotrexate Sodium#Methotrexate Sodium Inj 20mg#Methotrexate Sodium Inj 25.0mg/ml#Methotrexate Sodium Inj 25mg/ml#Methotrexate Sodium Inj 25mg/ml USP#Methotrexate Sodium Injection#Methotrexate Sodium Injection USP#Methotrexate Tab 2.5mg#Methotrexate Tab 2.5mg USP#Methotrexate Tablets, USP#Methotrexate-liq Im IV Iar Int Ivr 25mg/ml#Methotrexate-pws Im IV Iar Int Ivr 20mg/vial#Metoject#Metoject Subcutaneous#Otrexup#Rasuvo#Ratio-methotrexate Sodium#Rheumatrex Dose Pack#Rheumatrex Tab 2.5mg#Rheumatrex-tab 2.5mg#Trexall#Abitrexate#Alltrex#Artrait#Atrexel#Bendatrexat#Carditrex#Dermotrex#Ebetrex#Emtexate#Ledertrexate#Maxtrex#Meisusheng#Mexate#Rheumatrex#Trexan#Zexate

>  <DrugBank ID>  (1) 
DB00563

>  <ATC Codes>  (1) 
L01BA01#L04AX03

>  <Ligand ID>  (1) 
MTX

>  <Target Name>  (1) 
Dihydrofolate reductase

>  <UniProt ID>  (1) 
P00374

>  <PDB ID.1>  (1) 
1U72

>  <Seq. Identity>  (1) 
100%

$$$$
