PDB_DB00212_05
     RDKit          3D

220226  0  0  0  0  0  0  0  0999 V2000
   -5.5557    1.0487    0.9819 O   0  0  0  0  0  0  0  0  0  0  0  0
   -4.6370    0.0788    0.9349 S   0  0  0  0  0  0  0  0  0  0  0  0
   -3.8104    0.0663    2.6382 O   0  0  0  0  0  0  0  0  0  0  0  0
   -5.2693   -1.5898    1.0935 C   0  0  0  0  0  0  0  0  0  0  0  0
   -5.9595   -1.7438    2.4171 C   0  0  0  0  0  0  0  0  0  0  0  0
   -4.1782   -2.6021    0.9143 C   0  0  0  0  0  0  0  0  0  0  0  0
   -6.2376   -1.7937   -0.0633 C   0  0  0  0  0  0  0  0  0  0  0  0
   -3.2575   -0.1248   -0.0540 C   0  0  0  0  0  0  0  0  0  0  0  0
   -2.2531    0.9546    0.0382 C   0  0  1  0  0  0  0  0  0  0  0  0
   -2.6294    2.3406   -0.3059 C   0  0  0  0  0  0  0  0  0  0  0  0
   -3.0194    2.6972   -1.6827 C   0  0  0  0  0  0  0  0  0  0  0  0
   -4.1927    2.0048   -2.2533 C   0  0  0  0  0  0  0  0  0  0  0  0
   -4.9063    2.8465   -3.3119 C   0  0  0  0  0  0  0  0  0  0  0  0
   -5.3865    4.1573   -2.8020 C   0  0  0  0  0  0  0  0  0  0  0  0
   -4.7141    4.4566   -1.4807 C   0  0  0  0  0  0  0  0  0  0  0  0
   -3.2201    4.2381   -1.7336 C   0  0  0  0  0  0  0  0  0  0  0  0
   -1.2192    0.8171    1.1272 C   0  0  0  0  0  0  0  0  0  0  0  0
   -0.5015    2.1508    1.0325 O   0  0  0  0  0  0  0  0  0  0  0  0
   -0.1323   -0.0070    1.0303 N   0  0  0  0  0  0  0  0  0  0  0  0
    0.0464   -1.3635    0.7896 C   0  0  1  0  0  0  0  0  0  0  0  0
   -0.1557   -1.8873   -0.5572 C   0  0  0  0  0  0  0  0  0  0  0  0
    0.0240   -3.3822   -0.7762 C   0  0  0  0  0  0  0  0  0  0  0  0
   -0.8601   -4.2415    0.0285 C   0  0  0  0  0  0  0  0  0  0  0  0
   -1.8888   -4.7441   -0.8211 N   0  0  0  0  0  0  0  0  0  0  0  0
   -1.8121   -4.0251   -2.0609 C   0  0  0  0  0  0  0  0  0  0  0  0
   -0.4508   -3.5867   -2.1731 N   0  0  0  0  0  0  0  0  0  0  0  0
    1.3623   -1.8181    1.5054 C   0  0  0  0  0  0  0  0  0  0  0  0
    1.5408   -3.1261    1.2620 O   0  0  0  0  0  0  0  0  0  0  0  0
    2.3685   -0.8883    1.4880 N   0  0  0  0  0  0  0  0  0  0  0  0
    3.1151   -0.3711    0.4453 C   0  0  2  0  0  0  0  0  0  0  0  0
    4.0615   -1.2499   -0.2818 C   0  0  1  0  0  0  0  0  0  0  0  0
    3.3550   -2.3440   -0.8809 O   0  0  0  0  0  0  0  0  0  0  0  0
    4.8085   -0.6977   -1.4457 C   0  0  2  0  0  0  0  0  0  0  0  0
    5.8244   -1.7982   -1.8474 C   0  0  0  0  0  0  0  0  0  0  0  0
    6.7112   -1.5068   -3.0038 C   0  0  0  0  0  0  0  0  0  0  0  0
    5.6000   -2.5927   -3.0695 C   0  0  0  0  0  0  0  0  0  0  0  0
    5.6107    0.3878   -1.2157 O   0  0  0  0  0  0  0  0  0  0  0  0
    3.4581    1.0543    0.6603 C   0  0  0  0  0  0  0  0  0  0  0  0
    4.2247    1.4857    1.8435 C   0  0  0  0  0  0  0  0  0  0  0  0
    4.3293    3.0269    1.6581 C   0  0  0  0  0  0  0  0  0  0  0  0
    5.1572    3.6147    2.7668 C   0  0  0  0  0  0  0  0  0  0  0  0
    6.5996    3.3025    2.4201 C   0  0  0  0  0  0  0  0  0  0  0  0
    6.6494    2.0373    1.6410 C   0  0  0  0  0  0  0  0  0  0  0  0
    5.6062    1.0062    2.0329 C   0  0  0  0  0  0  0  0  0  0  0  0
   -5.5557    1.0487    0.9819 O   0  0  0  0  0  0  0  0  0  0  0  0
   -4.6370    0.0788    0.9349 S   0  0  0  0  0  0  0  0  0  0  0  0
   -3.8104    0.0663    2.6382 O   0  0  0  0  0  0  0  0  0  0  0  0
   -5.2693   -1.5898    1.0935 C   0  0  0  0  0  0  0  0  0  0  0  0
   -5.9595   -1.7438    2.4171 C   0  0  0  0  0  0  0  0  0  0  0  0
   -4.1782   -2.6021    0.9143 C   0  0  0  0  0  0  0  0  0  0  0  0
   -6.2376   -1.7937   -0.0633 C   0  0  0  0  0  0  0  0  0  0  0  0
   -3.2575   -0.1248   -0.0540 C   0  0  0  0  0  0  0  0  0  0  0  0
   -2.2531    0.9546    0.0382 C   0  0  1  0  0  0  0  0  0  0  0  0
   -2.6294    2.3406   -0.3059 C   0  0  0  0  0  0  0  0  0  0  0  0
   -3.0194    2.6972   -1.6827 C   0  0  0  0  0  0  0  0  0  0  0  0
   -4.1927    2.0048   -2.2533 C   0  0  0  0  0  0  0  0  0  0  0  0
   -4.9063    2.8465   -3.3119 C   0  0  0  0  0  0  0  0  0  0  0  0
   -5.3865    4.1573   -2.8020 C   0  0  0  0  0  0  0  0  0  0  0  0
   -4.7141    4.4566   -1.4807 C   0  0  0  0  0  0  0  0  0  0  0  0
   -3.2201    4.2381   -1.7336 C   0  0  0  0  0  0  0  0  0  0  0  0
   -1.2192    0.8171    1.1272 C   0  0  0  0  0  0  0  0  0  0  0  0
   -0.5015    2.1508    1.0325 O   0  0  0  0  0  0  0  0  0  0  0  0
   -0.1323   -0.0070    1.0303 N   0  0  0  0  0  0  0  0  0  0  0  0
    0.0464   -1.3635    0.7896 C   0  0  1  0  0  0  0  0  0  0  0  0
   -0.1557   -1.8873   -0.5572 C   0  0  0  0  0  0  0  0  0  0  0  0
    0.0240   -3.3822   -0.7762 C   0  0  0  0  0  0  0  0  0  0  0  0
   -0.8601   -4.2415    0.0285 C   0  0  0  0  0  0  0  0  0  0  0  0
   -1.8888   -4.7441   -0.8211 N   0  0  0  0  0  0  0  0  0  0  0  0
   -1.8121   -4.0251   -2.0609 C   0  0  0  0  0  0  0  0  0  0  0  0
   -0.4508   -3.5867   -2.1731 N   0  0  0  0  0  0  0  0  0  0  0  0
    1.3623   -1.8181    1.5054 C   0  0  0  0  0  0  0  0  0  0  0  0
    1.5408   -3.1261    1.2620 O   0  0  0  0  0  0  0  0  0  0  0  0
    2.3685   -0.8883    1.4880 N   0  0  0  0  0  0  0  0  0  0  0  0
    3.1151   -0.3711    0.4453 C   0  0  2  0  0  0  0  0  0  0  0  0
    4.0615   -1.2499   -0.2818 C   0  0  1  0  0  0  0  0  0  0  0  0
    3.3550   -2.3440   -0.8809 O   0  0  0  0  0  0  0  0  0  0  0  0
    4.8085   -0.6977   -1.4457 C   0  0  2  0  0  0  0  0  0  0  0  0
    5.8244   -1.7982   -1.8474 C   0  0  0  0  0  0  0  0  0  0  0  0
    6.7112   -1.5068   -3.0038 C   0  0  0  0  0  0  0  0  0  0  0  0
    5.6000   -2.5927   -3.0695 C   0  0  0  0  0  0  0  0  0  0  0  0
    5.6107    0.3878   -1.2157 O   0  0  0  0  0  0  0  0  0  0  0  0
    3.4581    1.0543    0.6603 C   0  0  0  0  0  0  0  0  0  0  0  0
    4.2247    1.4857    1.8435 C   0  0  0  0  0  0  0  0  0  0  0  0
    4.3293    3.0269    1.6581 C   0  0  0  0  0  0  0  0  0  0  0  0
    5.1572    3.6147    2.7668 C   0  0  0  0  0  0  0  0  0  0  0  0
    6.5996    3.3025    2.4201 C   0  0  0  0  0  0  0  0  0  0  0  0
    6.6494    2.0373    1.6410 C   0  0  0  0  0  0  0  0  0  0  0  0
    5.6062    1.0062    2.0329 C   0  0  0  0  0  0  0  0  0  0  0  0
   -5.7010    1.9236    1.4270 H   0  0  0  0  0  0  0  0  0  0  0  0
   -3.3557   -0.7847    2.5891 H   0  0  0  0  0  0  0  0  0  0  0  0
   -5.4209   -1.1086    3.1478 H   0  0  0  0  0  0  0  0  0  0  0  0
   -7.0219   -1.4156    2.4063 H   0  0  0  0  0  0  0  0  0  0  0  0
   -5.9039   -2.7783    2.7995 H   0  0  0  0  0  0  0  0  0  0  0  0
   -4.6598   -3.5963    1.1375 H   0  0  0  0  0  0  0  0  0  0  0  0
   -3.3394   -2.5321    1.6072 H   0  0  0  0  0  0  0  0  0  0  0  0
   -3.8578   -2.6924   -0.1389 H   0  0  0  0  0  0  0  0  0  0  0  0
   -6.2706   -2.8890   -0.2693 H   0  0  0  0  0  0  0  0  0  0  0  0
   -5.8179   -1.2992   -0.9533 H   0  0  0  0  0  0  0  0  0  0  0  0
   -7.2452   -1.4523    0.1720 H   0  0  0  0  0  0  0  0  0  0  0  0
   -2.7450   -1.0573    0.3692 H   0  0  0  0  0  0  0  0  0  0  0  0
   -3.5290   -0.3638   -1.0718 H   0  0  0  0  0  0  0  0  0  0  0  0
   -1.5526    0.6825   -0.9108 H   0  0  0  0  0  0  0  0  0  0  0  0
   -3.4498    2.7369    0.3690 H   0  0  0  0  0  0  0  0  0  0  0  0
   -1.7624    3.0251   -0.0354 H   0  0  0  0  0  0  0  0  0  0  0  0
   -2.1472    2.4916   -2.3719 H   0  0  0  0  0  0  0  0  0  0  0  0
   -4.9106    1.6214   -1.5202 H   0  0  0  0  0  0  0  0  0  0  0  0
   -3.8080    1.1113   -2.8252 H   0  0  0  0  0  0  0  0  0  0  0  0
   -4.2991    2.9282   -4.2314 H   0  0  0  0  0  0  0  0  0  0  0  0
   -5.8208    2.2387   -3.5824 H   0  0  0  0  0  0  0  0  0  0  0  0
   -6.4959    4.2054   -2.7408 H   0  0  0  0  0  0  0  0  0  0  0  0
   -4.9846    4.9393   -3.5213 H   0  0  0  0  0  0  0  0  0  0  0  0
   -4.9234    5.4919   -1.2156 H   0  0  0  0  0  0  0  0  0  0  0  0
   -5.0453    3.7022   -0.7415 H   0  0  0  0  0  0  0  0  0  0  0  0
   -2.6418    4.7148   -0.9230 H   0  0  0  0  0  0  0  0  0  0  0  0
   -2.9488    4.5767   -2.7323 H   0  0  0  0  0  0  0  0  0  0  0  0
   -1.7071    0.8740    2.0973 H   0  0  0  0  0  0  0  0  0  0  0  0
    0.0521    2.1290    1.8451 H   0  0  0  0  0  0  0  0  0  0  0  0
    0.7560    0.4180    1.4986 H   0  0  0  0  0  0  0  0  0  0  0  0
   -0.7610   -1.8901    1.4348 H   0  0  0  0  0  0  0  0  0  0  0  0
   -1.1527   -1.6696   -0.9591 H   0  0  0  0  0  0  0  0  0  0  0  0
    0.5249   -1.4177   -1.3351 H   0  0  0  0  0  0  0  0  0  0  0  0
    1.0768   -3.7198   -0.7367 H   0  0  0  0  0  0  0  0  0  0  0  0
   -0.2581   -5.0986    0.4212 H   0  0  0  0  0  0  0  0  0  0  0  0
   -1.3720   -3.7063    0.8652 H   0  0  0  0  0  0  0  0  0  0  0  0
   -2.8159   -4.8363   -0.4035 H   0  0  0  0  0  0  0  0  0  0  0  0
   -2.0807   -4.6485   -2.9409 H   0  0  0  0  0  0  0  0  0  0  0  0
   -2.4908   -3.1616   -2.0268 H   0  0  0  0  0  0  0  0  0  0  0  0
    0.1308   -4.3320   -2.6250 H   0  0  0  0  0  0  0  0  0  0  0  0
    0.9867   -1.8153    2.6102 H   0  0  0  0  0  0  0  0  0  0  0  0
    1.7996   -3.6847    2.0352 H   0  0  0  0  0  0  0  0  0  0  0  0
    2.6189   -0.5633    2.4526 H   0  0  0  0  0  0  0  0  0  0  0  0
    2.2854   -0.2419   -0.3925 H   0  0  0  0  0  0  0  0  0  0  0  0
    4.8479   -1.6960    0.4011 H   0  0  0  0  0  0  0  0  0  0  0  0
    2.8369   -1.9030   -1.5936 H   0  0  0  0  0  0  0  0  0  0  0  0
    4.1826   -0.5987   -2.3692 H   0  0  0  0  0  0  0  0  0  0  0  0
    6.2663   -2.2931   -0.9701 H   0  0  0  0  0  0  0  0  0  0  0  0
    6.5513   -0.6151   -3.6487 H   0  0  0  0  0  0  0  0  0  0  0  0
    7.7447   -1.8860   -3.0080 H   0  0  0  0  0  0  0  0  0  0  0  0
    4.8317   -2.3853   -3.8223 H   0  0  0  0  0  0  0  0  0  0  0  0
    5.9850   -3.6402   -3.0707 H   0  0  0  0  0  0  0  0  0  0  0  0
    6.5066    0.1476   -0.8695 H   0  0  0  0  0  0  0  0  0  0  0  0
    3.9797    1.5356   -0.2281 H   0  0  0  0  0  0  0  0  0  0  0  0
    2.5177    1.7108    0.6879 H   0  0  0  0  0  0  0  0  0  0  0  0
    3.6105    1.4383    2.8026 H   0  0  0  0  0  0  0  0  0  0  0  0
    3.2929    3.4644    1.6556 H   0  0  0  0  0  0  0  0  0  0  0  0
    4.7858    3.2708    0.6894 H   0  0  0  0  0  0  0  0  0  0  0  0
    4.9494    4.7039    2.8192 H   0  0  0  0  0  0  0  0  0  0  0  0
    4.8965    3.1738    3.7576 H   0  0  0  0  0  0  0  0  0  0  0  0
    6.9527    4.1768    1.7980 H   0  0  0  0  0  0  0  0  0  0  0  0
    7.2520    3.3353    3.3174 H   0  0  0  0  0  0  0  0  0  0  0  0
    7.6795    1.6003    1.7125 H   0  0  0  0  0  0  0  0  0  0  0  0
    6.5306    2.2777    0.5541 H   0  0  0  0  0  0  0  0  0  0  0  0
    5.7617    0.7493    3.1127 H   0  0  0  0  0  0  0  0  0  0  0  0
    5.8975    0.0895    1.4804 H   0  0  0  0  0  0  0  0  0  0  0  0
   -5.7010    1.9236    1.4270 H   0  0  0  0  0  0  0  0  0  0  0  0
   -3.3557   -0.7847    2.5891 H   0  0  0  0  0  0  0  0  0  0  0  0
   -5.4209   -1.1086    3.1478 H   0  0  0  0  0  0  0  0  0  0  0  0
   -7.0219   -1.4156    2.4063 H   0  0  0  0  0  0  0  0  0  0  0  0
   -5.9039   -2.7783    2.7995 H   0  0  0  0  0  0  0  0  0  0  0  0
   -4.6598   -3.5963    1.1375 H   0  0  0  0  0  0  0  0  0  0  0  0
   -3.3394   -2.5321    1.6072 H   0  0  0  0  0  0  0  0  0  0  0  0
   -3.8578   -2.6924   -0.1389 H   0  0  0  0  0  0  0  0  0  0  0  0
   -6.2706   -2.8890   -0.2693 H   0  0  0  0  0  0  0  0  0  0  0  0
   -5.8179   -1.2992   -0.9533 H   0  0  0  0  0  0  0  0  0  0  0  0
   -7.2452   -1.4523    0.1720 H   0  0  0  0  0  0  0  0  0  0  0  0
   -2.7450   -1.0573    0.3692 H   0  0  0  0  0  0  0  0  0  0  0  0
   -3.5290   -0.3638   -1.0718 H   0  0  0  0  0  0  0  0  0  0  0  0
   -1.5526    0.6825   -0.9108 H   0  0  0  0  0  0  0  0  0  0  0  0
   -3.4498    2.7369    0.3690 H   0  0  0  0  0  0  0  0  0  0  0  0
   -1.7624    3.0251   -0.0354 H   0  0  0  0  0  0  0  0  0  0  0  0
   -2.1472    2.4916   -2.3719 H   0  0  0  0  0  0  0  0  0  0  0  0
   -4.9106    1.6214   -1.5202 H   0  0  0  0  0  0  0  0  0  0  0  0
   -3.8080    1.1113   -2.8252 H   0  0  0  0  0  0  0  0  0  0  0  0
   -4.2991    2.9282   -4.2314 H   0  0  0  0  0  0  0  0  0  0  0  0
   -5.8208    2.2387   -3.5824 H   0  0  0  0  0  0  0  0  0  0  0  0
   -6.4959    4.2054   -2.7408 H   0  0  0  0  0  0  0  0  0  0  0  0
   -4.9846    4.9393   -3.5213 H   0  0  0  0  0  0  0  0  0  0  0  0
   -4.9234    5.4919   -1.2156 H   0  0  0  0  0  0  0  0  0  0  0  0
   -5.0453    3.7022   -0.7415 H   0  0  0  0  0  0  0  0  0  0  0  0
   -2.6418    4.7148   -0.9230 H   0  0  0  0  0  0  0  0  0  0  0  0
   -2.9488    4.5767   -2.7323 H   0  0  0  0  0  0  0  0  0  0  0  0
   -1.7071    0.8740    2.0973 H   0  0  0  0  0  0  0  0  0  0  0  0
    0.0521    2.1290    1.8451 H   0  0  0  0  0  0  0  0  0  0  0  0
    0.7560    0.4180    1.4986 H   0  0  0  0  0  0  0  0  0  0  0  0
   -0.7610   -1.8901    1.4348 H   0  0  0  0  0  0  0  0  0  0  0  0
   -1.1527   -1.6696   -0.9591 H   0  0  0  0  0  0  0  0  0  0  0  0
    0.5249   -1.4177   -1.3351 H   0  0  0  0  0  0  0  0  0  0  0  0
    1.0768   -3.7198   -0.7367 H   0  0  0  0  0  0  0  0  0  0  0  0
   -0.2581   -5.0986    0.4212 H   0  0  0  0  0  0  0  0  0  0  0  0
   -1.3720   -3.7063    0.8652 H   0  0  0  0  0  0  0  0  0  0  0  0
   -2.8159   -4.8363   -0.4035 H   0  0  0  0  0  0  0  0  0  0  0  0
   -2.0807   -4.6485   -2.9409 H   0  0  0  0  0  0  0  0  0  0  0  0
   -2.4908   -3.1616   -2.0268 H   0  0  0  0  0  0  0  0  0  0  0  0
    0.1308   -4.3320   -2.6250 H   0  0  0  0  0  0  0  0  0  0  0  0
    0.9867   -1.8153    2.6102 H   0  0  0  0  0  0  0  0  0  0  0  0
    1.7996   -3.6847    2.0352 H   0  0  0  0  0  0  0  0  0  0  0  0
    2.6189   -0.5633    2.4526 H   0  0  0  0  0  0  0  0  0  0  0  0
    2.2854   -0.2419   -0.3925 H   0  0  0  0  0  0  0  0  0  0  0  0
    4.8479   -1.6960    0.4011 H   0  0  0  0  0  0  0  0  0  0  0  0
    2.8369   -1.9030   -1.5936 H   0  0  0  0  0  0  0  0  0  0  0  0
    4.1826   -0.5987   -2.3692 H   0  0  0  0  0  0  0  0  0  0  0  0
    6.2663   -2.2931   -0.9701 H   0  0  0  0  0  0  0  0  0  0  0  0
    6.5513   -0.6151   -3.6487 H   0  0  0  0  0  0  0  0  0  0  0  0
    7.7447   -1.8860   -3.0080 H   0  0  0  0  0  0  0  0  0  0  0  0
    4.8317   -2.3853   -3.8223 H   0  0  0  0  0  0  0  0  0  0  0  0
    5.9850   -3.6402   -3.0707 H   0  0  0  0  0  0  0  0  0  0  0  0
    6.5066    0.1476   -0.8695 H   0  0  0  0  0  0  0  0  0  0  0  0
    3.9797    1.5356   -0.2281 H   0  0  0  0  0  0  0  0  0  0  0  0
    2.5177    1.7108    0.6879 H   0  0  0  0  0  0  0  0  0  0  0  0
    3.6105    1.4383    2.8026 H   0  0  0  0  0  0  0  0  0  0  0  0
    3.2929    3.4644    1.6556 H   0  0  0  0  0  0  0  0  0  0  0  0
    4.7858    3.2708    0.6894 H   0  0  0  0  0  0  0  0  0  0  0  0
    4.9494    4.7039    2.8192 H   0  0  0  0  0  0  0  0  0  0  0  0
    4.8965    3.1738    3.7576 H   0  0  0  0  0  0  0  0  0  0  0  0
    6.9527    4.1768    1.7980 H   0  0  0  0  0  0  0  0  0  0  0  0
    7.2520    3.3353    3.3174 H   0  0  0  0  0  0  0  0  0  0  0  0
    7.6795    1.6003    1.7125 H   0  0  0  0  0  0  0  0  0  0  0  0
    6.5306    2.2777    0.5541 H   0  0  0  0  0  0  0  0  0  0  0  0
    5.7617    0.7493    3.1127 H   0  0  0  0  0  0  0  0  0  0  0  0
    5.8975    0.0895    1.4804 H   0  0  0  0  0  0  0  0  0  0  0  0
  2  1  1  0
  2  3  1  0
  2  4  1  0
  4  5  1  0
  4  6  1  0
  4  7  1  0
  2  8  1  0
  8  9  1  0
  9 10  1  0
 10 11  1  0
 11 12  1  0
 12 13  1  0
 13 14  1  0
 14 15  1  0
 11 16  1  0
 15 16  1  0
  9 17  1  0
 17 18  1  0
 17 19  1  0
 19 20  1  0
 20 21  1  0
 21 22  1  0
 22 23  1  0
 23 24  1  0
 24 25  1  0
 22 26  1  0
 25 26  1  0
 20 27  1  0
 27 28  1  0
 27 29  1  0
 29 30  1  0
 30 31  1  0
 31 32  1  0
 31 33  1  0
 33 34  1  0
 34 35  1  0
 34 36  1  0
 35 36  1  0
 33 37  1  0
 30 38  1  0
 38 39  1  0
 39 40  1  0
 40 41  1  0
 41 42  1  0
 42 43  1  0
 39 44  1  0
 43 44  1  0
 46 45  1  0
 46 47  1  0
 46 48  1  0
 48 49  1  0
 48 50  1  0
 48 51  1  0
 46 52  1  0
 52 53  1  0
 53 54  1  0
 54 55  1  0
 55 56  1  0
 56 57  1  0
 57 58  1  0
 58 59  1  0
 55 60  1  0
 59 60  1  0
 53 61  1  0
 61 62  1  0
 61 63  1  0
 63 64  1  0
 64 65  1  0
 65 66  1  0
 66 67  1  0
 67 68  1  0
 68 69  1  0
 66 70  1  0
 69 70  1  0
 64 71  1  0
 71 72  1  0
 71 73  1  0
 73 74  1  0
 74 75  1  0
 75 76  1  0
 75 77  1  0
 77 78  1  0
 78 79  1  0
 78 80  1  0
 79 80  1  0
 77 81  1  0
 74 82  1  0
 82 83  1  0
 83 84  1  0
 84 85  1  0
 85 86  1  0
 86 87  1  0
 83 88  1  0
 87 88  1  0
  1 89  1  0
  3 90  1  0
  5 91  1  0
  5 92  1  0
  5 93  1  0
  6 94  1  0
  6 95  1  0
  6 96  1  0
  7 97  1  0
  7 98  1  0
  7 99  1  0
  8100  1  0
  8101  1  0
  9102  1  6
 10103  1  0
 10104  1  0
 11105  1  0
 12106  1  0
 12107  1  0
 13108  1  0
 13109  1  0
 14110  1  0
 14111  1  0
 15112  1  0
 15113  1  0
 16114  1  0
 16115  1  0
 17116  1  0
 18117  1  0
 19118  1  0
 20119  1  1
 21120  1  0
 21121  1  0
 22122  1  0
 23123  1  0
 23124  1  0
 24125  1  0
 25126  1  0
 25127  1  0
 26128  1  0
 27129  1  0
 28130  1  0
 29131  1  0
 30132  1  6
 31133  1  1
 32134  1  0
 33135  1  6
 34136  1  0
 35137  1  0
 35138  1  0
 36139  1  0
 36140  1  0
 37141  1  0
 38142  1  0
 38143  1  0
 39144  1  0
 40145  1  0
 40146  1  0
 41147  1  0
 41148  1  0
 42149  1  0
 42150  1  0
 43151  1  0
 43152  1  0
 44153  1  0
 44154  1  0
 45155  1  0
 47156  1  0
 49157  1  0
 49158  1  0
 49159  1  0
 50160  1  0
 50161  1  0
 50162  1  0
 51163  1  0
 51164  1  0
 51165  1  0
 52166  1  0
 52167  1  0
 53168  1  6
 54169  1  0
 54170  1  0
 55171  1  0
 56172  1  0
 56173  1  0
 57174  1  0
 57175  1  0
 58176  1  0
 58177  1  0
 59178  1  0
 59179  1  0
 60180  1  0
 60181  1  0
 61182  1  0
 62183  1  0
 63184  1  0
 64185  1  1
 65186  1  0
 65187  1  0
 66188  1  0
 67189  1  0
 67190  1  0
 68191  1  0
 69192  1  0
 69193  1  0
 70194  1  0
 71195  1  0
 72196  1  0
 73197  1  0
 74198  1  6
 75199  1  1
 76200  1  0
 77201  1  6
 78202  1  0
 79203  1  0
 79204  1  0
 80205  1  0
 80206  1  0
 81207  1  0
 82208  1  0
 82209  1  0
 83210  1  0
 84211  1  0
 84212  1  0
 85213  1  0
 85214  1  0
 86215  1  0
 86216  1  0
 87217  1  0
 87218  1  0
 88219  1  0
 88220  1  0
M  END
>  <PDBID>  (1) 
3D91

>  <PDB ID>  (1) 
3D91

>  <Generic Name>  (1) 
Remikiren

>  <Brand Name>  (1) 
nan

>  <DrugBank ID>  (1) 
DB00212

>  <ATC Codes>  (1) 
C09XA01

>  <Ligand ID>  (1) 
REM

>  <Target Name>  (1) 
Renin

>  <UniProt ID>  (1) 
P00797

>  <PDB ID.1>  (1) 
3D91

>  <Seq. Identity>  (1) 
100%

$$$$
