PDB_DB04839_07
     RDKit          3D

 68 72  0  0  0  0  0  0  0  0999 V2000
   -4.8555    0.6599   -0.3788 C   0  0  0  0  0  0  0  0  0  0  0  0
    0.5252    0.0797    1.1712 C   0  0  1  0  0  0  0  0  0  0  0  0
   -3.5175    0.2506    0.1512 C   0  0  2  0  0  0  0  0  0  0  0  0
   -3.0725    1.2142    1.2314 C   0  0  0  0  0  0  0  0  0  0  0  0
   -0.1623   -0.4730   -1.4286 C   0  0  0  0  0  0  0  0  0  0  0  0
   -1.8152    0.6224    1.8335 C   0  0  0  0  0  0  0  0  0  0  0  0
   -0.7458    0.6227    0.7487 C   0  0  2  0  0  0  0  0  0  0  0  0
   -1.1936   -0.2841   -0.3947 C   0  0  1  0  0  0  0  0  0  0  0  0
   -2.5227    0.0838   -0.9556 C   0  0  2  0  0  0  0  0  0  0  0  0
    1.2349   -0.7091   -0.9362 C   0  0  0  0  0  0  0  0  0  0  0  0
    1.5953    0.2998    0.1381 C   0  0  1  0  0  0  0  0  0  0  0  0
   -5.3735   -0.1875   -1.4768 C   0  0  0  0  0  0  0  0  0  0  0  0
   -2.3919    1.2949   -1.8261 C   0  0  0  0  0  0  0  0  0  0  0  0
   -3.0161   -1.0326   -1.8421 C   0  0  1  0  0  0  0  0  0  0  0  0
   -3.7873   -2.1753   -1.3872 C   0  0  0  0  0  0  0  0  0  0  0  0
   -4.4210   -1.0258   -2.2019 C   0  0  1  0  0  0  0  0  0  0  0  0
   -6.4157   -1.0126   -0.9895 O   0  0  0  0  0  0  0  0  0  0  0  0
   -2.8563    2.8660    0.6618 Cl  0  0  0  0  0  0  0  0  0  0  0  0
    1.6160    1.6526   -0.4982 C   0  0  0  0  0  0  0  0  0  0  0  0
    1.1920    0.5901    2.3950 C   0  0  0  0  0  0  0  0  0  0  0  0
    2.4197   -0.2902    2.2977 C   0  0  0  0  0  0  0  0  0  0  0  0
    2.8771   -0.0294    0.8711 C   0  0  2  0  0  0  0  0  0  0  0  0
    3.7382    1.2608    1.0628 C   0  0  0  0  0  0  0  0  0  0  0  0
    4.9917    0.9131    1.8423 C   0  0  0  0  0  0  0  0  0  0  0  0
    4.1552    1.7595   -0.1634 O   0  0  0  0  0  0  0  0  0  0  0  0
    3.5834   -0.8505    0.2594 O   0  0  0  0  0  0  0  0  0  0  0  0
    4.1465   -1.7722   -0.3377 C   0  0  0  0  0  0  0  0  0  0  0  0
    4.6088   -1.4324   -1.7457 C   0  0  0  0  0  0  0  0  0  0  0  0
    5.2720   -2.4159    0.2368 O   0  0  0  0  0  0  0  0  0  0  0  0
   -5.5704    0.6209    0.4957 H   0  0  0  0  0  0  0  0  0  0  0  0
   -4.8027    1.7405   -0.6419 H   0  0  0  0  0  0  0  0  0  0  0  0
    0.4422   -1.0457    1.3229 H   0  0  0  0  0  0  0  0  0  0  0  0
   -3.5678   -0.7473    0.6802 H   0  0  0  0  0  0  0  0  0  0  0  0
   -3.8906    1.2441    1.9896 H   0  0  0  0  0  0  0  0  0  0  0  0
   -0.4214   -1.4092   -2.0091 H   0  0  0  0  0  0  0  0  0  0  0  0
   -0.1100    0.3330   -2.1951 H   0  0  0  0  0  0  0  0  0  0  0  0
   -1.4670    1.3224    2.6128 H   0  0  0  0  0  0  0  0  0  0  0  0
   -2.0509   -0.3755    2.2002 H   0  0  0  0  0  0  0  0  0  0  0  0
   -0.7560    1.6544    0.3569 H   0  0  0  0  0  0  0  0  0  0  0  0
   -1.3395   -1.2888    0.1094 H   0  0  0  0  0  0  0  0  0  0  0  0
    1.2859   -1.7213   -0.5041 H   0  0  0  0  0  0  0  0  0  0  0  0
    1.9138   -0.6107   -1.7758 H   0  0  0  0  0  0  0  0  0  0  0  0
   -5.8944    0.4955   -2.2118 H   0  0  0  0  0  0  0  0  0  0  0  0
   -1.9536    0.9710   -2.8161 H   0  0  0  0  0  0  0  0  0  0  0  0
   -3.3678    1.7527   -2.0910 H   0  0  0  0  0  0  0  0  0  0  0  0
   -1.7009    2.0711   -1.4507 H   0  0  0  0  0  0  0  0  0  0  0  0
   -2.3112   -1.2112   -2.7091 H   0  0  0  0  0  0  0  0  0  0  0  0
   -3.6911   -3.1350   -1.9717 H   0  0  0  0  0  0  0  0  0  0  0  0
   -4.1893   -2.3519   -0.3944 H   0  0  0  0  0  0  0  0  0  0  0  0
   -4.7295   -1.2836   -3.2582 H   0  0  0  0  0  0  0  0  0  0  0  0
   -6.6044   -0.8024   -0.0284 H   0  0  0  0  0  0  0  0  0  0  0  0
    1.9520    2.4803    0.1137 H   0  0  0  0  0  0  0  0  0  0  0  0
    2.2946    1.5590   -1.4082 H   0  0  0  0  0  0  0  0  0  0  0  0
    0.6216    1.8172   -0.9881 H   0  0  0  0  0  0  0  0  0  0  0  0
    1.3862    1.6559    2.2775 H   0  0  0  0  0  0  0  0  0  0  0  0
    0.6201    0.3825    3.3314 H   0  0  0  0  0  0  0  0  0  0  0  0
    3.1726   -0.0990    3.0509 H   0  0  0  0  0  0  0  0  0  0  0  0
    2.0309   -1.3240    2.4295 H   0  0  0  0  0  0  0  0  0  0  0  0
    3.2185    2.0107    1.6529 H   0  0  0  0  0  0  0  0  0  0  0  0
    4.8533    1.0447    2.9415 H   0  0  0  0  0  0  0  0  0  0  0  0
    5.7512    1.7077    1.5741 H   0  0  0  0  0  0  0  0  0  0  0  0
    5.4487   -0.0342    1.5708 H   0  0  0  0  0  0  0  0  0  0  0  0
    5.1264    1.7940   -0.2716 H   0  0  0  0  0  0  0  0  0  0  0  0
    3.4548   -2.6729   -0.4877 H   0  0  0  0  0  0  0  0  0  0  0  0
    3.8595   -1.7982   -2.4775 H   0  0  0  0  0  0  0  0  0  0  0  0
    5.5744   -1.9015   -2.0067 H   0  0  0  0  0  0  0  0  0  0  0  0
    4.6236   -0.3300   -1.8725 H   0  0  0  0  0  0  0  0  0  0  0  0
    4.9789   -2.9952    0.9985 H   0  0  0  0  0  0  0  0  0  0  0  0
  1  3  1  0
  3  4  1  0
  4  6  1  0
  2  7  1  0
  6  7  1  0
  5  8  1  0
  7  8  1  0
  3  9  1  0
  8  9  1  0
  5 10  1  0
  2 11  1  0
 10 11  1  0
  1 12  1  0
  9 13  1  6
  9 14  1  0
 14 15  1  0
 12 16  1  0
 14 16  1  0
 15 16  1  0
 12 17  1  0
  4 18  1  0
 11 19  1  6
  2 20  1  0
 20 21  1  0
 11 22  1  0
 21 22  1  0
 22 23  1  0
 23 24  1  0
 23 25  1  0
 22 26  1  6
 26 27  1  0
 27 28  1  0
 27 29  1  0
  1 30  1  0
  1 31  1  0
  2 32  1  1
  3 33  1  1
  4 34  1  0
  5 35  1  0
  5 36  1  0
  6 37  1  0
  6 38  1  0
  7 39  1  6
  8 40  1  1
 10 41  1  0
 10 42  1  0
 12 43  1  0
 13 44  1  0
 13 45  1  0
 13 46  1  0
 14 47  1  6
 15 48  1  0
 15 49  1  0
 16 50  1  6
 17 51  1  0
 19 52  1  0
 19 53  1  0
 19 54  1  0
 20 55  1  0
 20 56  1  0
 21 57  1  0
 21 58  1  0
 23 59  1  0
 24 60  1  0
 24 61  1  0
 24 62  1  0
 25 63  1  0
 27 64  1  0
 28 65  1  0
 28 66  1  0
 28 67  1  0
 29 68  1  0
M  END
>  <PDBID>  (1) 
2OZ7

>  <PDB ID>  (1) 
2OZ7

>  <Generic Name>  (1) 
Cyproterone acetate

>  <Brand Name>  (1) 
Alti-cpa#Androcur#Androcur Depot#ClÃ©o -35#Cyestra-35#Cyproterone#Diane-35#Med-cyproterone#Mylan-cyproterone#Novo-cyproterone#Novo-cyproterone/ethinyl Estradiol#Ran-cyproterone/ethinyl Estradiol#Riva-cyproterone#Riva-cyproterone 50 mg#Cyprostat

>  <DrugBank ID>  (1) 
DB04839

>  <ATC Codes>  (1) 
G03HB01#G03HA01

>  <Ligand ID>  (1) 
CA4

>  <Target Name>  (1) 
Androgen receptor

>  <UniProt ID>  (1) 
P10275

>  <PDB ID.1>  (1) 
2OZ7

>  <Seq. Identity>  (1) 
100%

$$$$
