PDB_DB00819_00
     RDKit          3D

 27 27  0  0  0  0  0  0  0  0999 V2000
   -1.6118    0.6205    0.3073 C   0  0  2  0  0  0  0  0  0  0  0  0
    0.7788   -0.0644   -0.7481 C   0  0  2  0  0  0  0  0  0  0  0  0
    2.8415    0.3396    0.4709 C   0  0  0  0  0  0  0  0  0  0  0  0
    3.6990   -0.4021   -0.5368 C   0  0  0  0  0  0  0  0  0  0  0  0
   -3.9596    0.8546   -0.9740 N   0  0  0  0  0  0  0  0  0  0  0  0
    0.1018   -0.9158    0.2084 N   0  0  0  0  0  0  0  0  0  0  0  0
   -0.6017   -0.1033    1.0513 N   0  0  0  0  0  0  0  0  0  0  0  0
    1.6955    0.8617   -0.1783 N   0  0  0  0  0  0  0  0  0  0  0  0
   -3.0669   -1.5734   -0.2510 O   0  0  0  0  0  0  0  0  0  0  0  0
   -3.9446    0.1441    1.5574 O   0  0  0  0  0  0  0  0  0  0  0  0
    2.4979   -0.4507    1.5474 O   0  0  0  0  0  0  0  0  0  0  0  0
   -3.0353   -0.0522    0.0785 S   0  0  0  0  0  0  0  0  0  0  0  0
   -0.6864    0.9073   -1.2599 S   0  0  0  0  0  0  0  0  0  0  0  0
   -1.6450    1.6592    0.7574 H   0  0  0  0  0  0  0  0  0  0  0  0
    1.1825   -0.6404   -1.6030 H   0  0  0  0  0  0  0  0  0  0  0  0
    3.4217    1.2025    0.8784 H   0  0  0  0  0  0  0  0  0  0  0  0
    4.6582    0.1496   -0.6939 H   0  0  0  0  0  0  0  0  0  0  0  0
    3.8923   -1.4342   -0.1901 H   0  0  0  0  0  0  0  0  0  0  0  0
    3.1999   -0.4333   -1.5254 H   0  0  0  0  0  0  0  0  0  0  0  0
   -3.5859    0.8412   -1.9540 H   0  0  0  0  0  0  0  0  0  0  0  0
   -4.0535    1.8537   -0.6470 H   0  0  0  0  0  0  0  0  0  0  0  0
    0.6643   -1.6050    0.6827 H   0  0  0  0  0  0  0  0  0  0  0  0
   -0.0552    0.4777    1.6852 H   0  0  0  0  0  0  0  0  0  0  0  0
    1.8707    1.6644   -0.8042 H   0  0  0  0  0  0  0  0  0  0  0  0
   -2.4697   -2.1354    0.2761 H   0  0  0  0  0  0  0  0  0  0  0  0
   -4.7325   -0.4333    1.3923 H   0  0  0  0  0  0  0  0  0  0  0  0
    2.9440   -1.3325    1.5151 H   0  0  0  0  0  0  0  0  0  0  0  0
  3  4  1  0
  2  6  1  0
  1  7  1  0
  6  7  1  0
  2  8  1  0
  3  8  1  0
  3 11  1  0
  1 12  1  0
  5 12  1  0
 12  9  1  0
 10 12  1  0
  1 13  1  0
  2 13  1  0
  1 14  1  1
  2 15  1  6
  3 16  1  0
  4 17  1  0
  4 18  1  0
  4 19  1  0
  5 20  1  0
  5 21  1  0
  6 22  1  0
  7 23  1  0
  8 24  1  0
  9 25  1  0
 10 26  1  0
 11 27  1  0
M  END
>  <PDBID>  (1) 
1AZM

>  <PDB ID>  (1) 
1AZM

>  <Generic Name>  (1) 
Acetazolamide

>  <Brand Name>  (1) 
Acetazolam#Acetazolamide#Acetazolamide for Injection, USP#Diamox IV 500mg#Diamox Pws 500mg/vial#Diamox Sequels#Diamox Src 500mg#Diamox Tab 250mg#Diamox Tablets 250mg#Novo-zolamide Tab 250mg#Acemit#Acemox#Acetak#Acetamide#Acetazolamax#Azm#Azol#Azomid#Carbinib#Defiltran#Diabo#Diacarb#Diamox#Diamox Depot#Diazomid#Diluran#Diuramid#Défiltran#Edemox#Glaumox#Glaupax#Glupax#Huma-Zolamide#Iopar-SR#Medene#Oculten#Uramox#Zolmide#Ödemin

>  <DrugBank ID>  (1) 
DB00819

>  <ATC Codes>  (1) 
S01EC01

>  <Ligand ID>  (1) 
AZM

>  <Target Name>  (1) 
Carbonic anhydrase 1

>  <UniProt ID>  (1) 
P00915

>  <PDB ID.1>  (1) 
1AZM

>  <Seq. Identity>  (1) 
100%

$$$$
