PDB_DB00775_07
     RDKit          3D

 76 77  0  0  0  0  0  0  0  0999 V2000
    8.3474   -2.8811    0.8171 C   0  0  0  0  0  0  0  0  0  0  0  0
    7.5812   -1.6026    1.1151 C   0  0  0  0  0  0  0  0  0  0  0  0
    6.1497   -1.8629    0.7094 C   0  0  0  0  0  0  0  0  0  0  0  0
    5.2722   -0.6175    0.9716 C   0  0  0  0  0  0  0  0  0  0  0  0
    5.7112    0.7434    0.1762 S   0  0  0  0  0  0  0  0  0  0  0  0
    7.0492    1.3766    0.3427 O   0  0  0  0  0  0  0  0  0  0  0  0
    5.8734    0.0863   -1.6158 O   0  0  0  0  0  0  0  0  0  0  0  0
    4.4896    1.7962   -0.0271 N   0  0  0  0  0  0  0  0  0  0  0  0
    4.0047    1.9961   -1.3497 C   0  0  1  0  0  0  0  0  0  0  0  0
    3.0618    0.9765   -1.8509 C   0  0  0  0  0  0  0  0  0  0  0  0
    1.7673    0.8156   -1.1450 C   0  0  0  0  0  0  0  0  0  0  0  0
    1.0140   -0.3038   -1.8966 C   0  0  0  0  0  0  0  0  0  0  0  0
   -0.0556   -0.8839   -0.9799 C   0  0  0  0  0  0  0  0  0  0  0  0
   -0.5747    0.2024   -0.0896 C   0  0  0  0  0  0  0  0  0  0  0  0
   -1.7370   -0.2252    0.5624 O   0  0  0  0  0  0  0  0  0  0  0  0
    0.4727    0.6454    0.9298 C   0  0  0  0  0  0  0  0  0  0  0  0
    1.8197    0.3614    0.2802 C   0  0  0  0  0  0  0  0  0  0  0  0
    3.5190    3.4195   -1.5816 C   0  0  0  0  0  0  0  0  0  0  0  0
    4.6159    4.2556   -1.3541 O   0  0  0  0  0  0  0  0  0  0  0  0
    2.5048    3.7795   -0.7301 O   0  0  0  0  0  0  0  0  0  0  0  0
   -2.7689    0.6236    0.2035 C   0  0  0  0  0  0  0  0  0  0  0  0
   -4.0642    0.2194    0.8750 C   0  0  0  0  0  0  0  0  0  0  0  0
   -4.4484   -1.1859    0.4743 C   0  0  0  0  0  0  0  0  0  0  0  0
   -5.7322   -1.6458    1.1164 C   0  0  0  0  0  0  0  0  0  0  0  0
   -6.8883   -0.7510    0.7318 C   0  0  0  0  0  0  0  0  0  0  0  0
   -8.1538   -1.2824    1.4207 C   0  0  0  0  0  0  0  0  0  0  0  0
   -9.2165   -0.2185    1.2485 C   0  0  0  0  0  0  0  0  0  0  0  0
   -8.9233    0.6503    0.1235 N   0  0  0  0  0  0  0  0  0  0  0  0
   -8.4659   -0.1083   -1.0281 C   0  0  0  0  0  0  0  0  0  0  0  0
   -7.1654   -0.8345   -0.7538 C   0  0  0  0  0  0  0  0  0  0  0  0
    8.1094   -3.5876    1.6538 H   0  0  0  0  0  0  0  0  0  0  0  0
    9.4424   -2.7233    0.8702 H   0  0  0  0  0  0  0  0  0  0  0  0
    8.0118   -3.3770   -0.1040 H   0  0  0  0  0  0  0  0  0  0  0  0
    8.0197   -0.7278    0.6374 H   0  0  0  0  0  0  0  0  0  0  0  0
    7.6548   -1.4526    2.2117 H   0  0  0  0  0  0  0  0  0  0  0  0
    5.7577   -2.6948    1.3285 H   0  0  0  0  0  0  0  0  0  0  0  0
    6.0626   -2.1602   -0.3473 H   0  0  0  0  0  0  0  0  0  0  0  0
    5.3163   -0.4999    2.0737 H   0  0  0  0  0  0  0  0  0  0  0  0
    4.2501   -0.9872    0.7614 H   0  0  0  0  0  0  0  0  0  0  0  0
    7.6152    1.6265   -0.4237 H   0  0  0  0  0  0  0  0  0  0  0  0
    6.6682   -0.4983   -1.4107 H   0  0  0  0  0  0  0  0  0  0  0  0
    4.5025    2.6626    0.5562 H   0  0  0  0  0  0  0  0  0  0  0  0
    4.9252    1.9279   -2.0152 H   0  0  0  0  0  0  0  0  0  0  0  0
    2.8524    1.1165   -2.9555 H   0  0  0  0  0  0  0  0  0  0  0  0
    3.5643   -0.0390   -1.8151 H   0  0  0  0  0  0  0  0  0  0  0  0
    1.0890    1.7010   -1.2757 H   0  0  0  0  0  0  0  0  0  0  0  0
    1.7222   -1.1239   -2.1343 H   0  0  0  0  0  0  0  0  0  0  0  0
    0.5993    0.0596   -2.8443 H   0  0  0  0  0  0  0  0  0  0  0  0
    0.3098   -1.7663   -0.4325 H   0  0  0  0  0  0  0  0  0  0  0  0
   -0.8736   -1.2203   -1.6321 H   0  0  0  0  0  0  0  0  0  0  0  0
   -0.7759    1.0963   -0.7162 H   0  0  0  0  0  0  0  0  0  0  0  0
    0.4204    0.0513    1.8508 H   0  0  0  0  0  0  0  0  0  0  0  0
    0.4294    1.7391    1.1011 H   0  0  0  0  0  0  0  0  0  0  0  0
    1.9358   -0.7640    0.2814 H   0  0  0  0  0  0  0  0  0  0  0  0
    2.6156    0.7641    0.8952 H   0  0  0  0  0  0  0  0  0  0  0  0
    3.2744    3.5091   -2.6534 H   0  0  0  0  0  0  0  0  0  0  0  0
    4.6320    4.6070   -0.4367 H   0  0  0  0  0  0  0  0  0  0  0  0
    2.8557    4.0174    0.1508 H   0  0  0  0  0  0  0  0  0  0  0  0
   -2.9162    0.6524   -0.9136 H   0  0  0  0  0  0  0  0  0  0  0  0
   -2.5521    1.6661    0.5049 H   0  0  0  0  0  0  0  0  0  0  0  0
   -4.8229    0.9476    0.5942 H   0  0  0  0  0  0  0  0  0  0  0  0
   -3.8753    0.2412    1.9630 H   0  0  0  0  0  0  0  0  0  0  0  0
   -3.6366   -1.8955    0.6860 H   0  0  0  0  0  0  0  0  0  0  0  0
   -4.6006   -1.2169   -0.6333 H   0  0  0  0  0  0  0  0  0  0  0  0
   -5.6189   -1.6994    2.2176 H   0  0  0  0  0  0  0  0  0  0  0  0
   -5.9178   -2.6798    0.7016 H   0  0  0  0  0  0  0  0  0  0  0  0
   -6.6917    0.2875    1.0237 H   0  0  0  0  0  0  0  0  0  0  0  0
   -7.9668   -1.5564    2.4589 H   0  0  0  0  0  0  0  0  0  0  0  0
   -8.4753   -2.1684    0.8274 H   0  0  0  0  0  0  0  0  0  0  0  0
   -9.2183    0.4023    2.1642 H   0  0  0  0  0  0  0  0  0  0  0  0
  -10.2209   -0.6484    1.1209 H   0  0  0  0  0  0  0  0  0  0  0  0
   -8.2671    1.4148    0.3768 H   0  0  0  0  0  0  0  0  0  0  0  0
   -8.2702    0.6395   -1.8297 H   0  0  0  0  0  0  0  0  0  0  0  0
   -9.2820   -0.7905   -1.3381 H   0  0  0  0  0  0  0  0  0  0  0  0
   -6.3451   -0.4738   -1.3784 H   0  0  0  0  0  0  0  0  0  0  0  0
   -7.3686   -1.9228   -0.9633 H   0  0  0  0  0  0  0  0  0  0  0  0
  1  2  1  0
  2  3  1  0
  3  4  1  0
  4  5  1  0
  5  6  1  0
  5  7  1  0
  5  8  1  0
  8  9  1  0
  9 10  1  0
 10 11  1  0
 11 12  1  0
 12 13  1  0
 13 14  1  0
 14 15  1  0
 14 16  1  0
 11 17  1  0
 16 17  1  0
  9 18  1  0
 18 19  1  0
 18 20  1  0
 15 21  1  0
 21 22  1  0
 22 23  1  0
 23 24  1  0
 24 25  1  0
 25 26  1  0
 26 27  1  0
 27 28  1  0
 28 29  1  0
 25 30  1  0
 29 30  1  0
  1 31  1  0
  1 32  1  0
  1 33  1  0
  2 34  1  0
  2 35  1  0
  3 36  1  0
  3 37  1  0
  4 38  1  0
  4 39  1  0
  6 40  1  0
  7 41  1  0
  8 42  1  0
  9 43  1  6
 10 44  1  0
 10 45  1  0
 11 46  1  0
 12 47  1  0
 12 48  1  0
 13 49  1  0
 13 50  1  0
 14 51  1  0
 16 52  1  0
 16 53  1  0
 17 54  1  0
 17 55  1  0
 18 56  1  0
 19 57  1  0
 20 58  1  0
 21 59  1  0
 21 60  1  0
 22 61  1  0
 22 62  1  0
 23 63  1  0
 23 64  1  0
 24 65  1  0
 24 66  1  0
 25 67  1  0
 26 68  1  0
 26 69  1  0
 27 70  1  0
 27 71  1  0
 28 72  1  0
 29 73  1  0
 29 74  1  0
 30 75  1  0
 30 76  1  0
M  END
>  <PDBID>  (1) 
2VDM

>  <PDB ID>  (1) 
2VDM

>  <Generic Name>  (1) 
Tirofiban

>  <Brand Name>  (1) 
Aggrastat#Aggribloc#Agrastat

>  <DrugBank ID>  (1) 
DB00775

>  <ATC Codes>  (1) 
B01AC17

>  <Ligand ID>  (1) 
AGG

>  <Target Name>  (1) 
Integrin alpha-IIb

>  <UniProt ID>  (1) 
P08514

>  <PDB ID.1>  (1) 
2VDM

>  <Seq. Identity>  (1) 
100%

$$$$
