PDB_DB01273_07
     RDKit          3D

195210  0  0  0  0  0  0  0  0999 V2000
    3.2941    0.8548    0.3171 C   0  0  0  0  0  0  0  0  0  0  0  0
    3.3981   -0.4961    0.7238 N   0  0  0  0  0  0  0  0  0  0  0  0
    2.9491   -1.4649   -0.2542 C   0  0  0  0  0  0  0  0  0  0  0  0
    1.5295   -1.0115   -0.6357 C   0  0  2  0  0  0  0  0  0  0  0  0
    1.8145    0.2181   -1.5084 C   0  0  0  0  0  0  0  0  0  0  0  0
    2.0525    1.2404   -0.4040 C   0  0  1  0  0  0  0  0  0  0  0  0
    0.7965    0.9956    0.4444 C   0  0  0  0  0  0  0  0  0  0  0  0
   -0.3723    1.4756   -0.3204 C   0  0  0  0  0  0  0  0  0  0  0  0
   -1.4245    0.4610   -0.6116 C   0  0  0  0  0  0  0  0  0  0  0  0
   -2.6413    1.1822   -0.9391 N   0  0  0  0  0  0  0  0  0  0  0  0
   -3.8188    0.6227   -0.3710 C   0  0  0  0  0  0  0  0  0  0  0  0
   -3.8262   -0.8820   -0.3441 C   0  0  0  0  0  0  0  0  0  0  0  0
   -2.6217   -1.4529    0.1621 N   0  0  0  0  0  0  0  0  0  0  0  0
   -1.6382   -0.4343    0.5599 C   0  0  0  0  0  0  0  0  0  0  0  0
   -0.4033   -1.1593    0.9608 C   0  0  0  0  0  0  0  0  0  0  0  0
    0.8808   -0.4963    0.6242 C   0  0  0  0  0  0  0  0  0  0  0  0
    3.2941    0.8548    0.3171 C   0  0  0  0  0  0  0  0  0  0  0  0
    3.3981   -0.4961    0.7238 N   0  0  0  0  0  0  0  0  0  0  0  0
    2.9491   -1.4649   -0.2542 C   0  0  0  0  0  0  0  0  0  0  0  0
    1.5295   -1.0115   -0.6357 C   0  0  2  0  0  0  0  0  0  0  0  0
    1.8145    0.2181   -1.5084 C   0  0  0  0  0  0  0  0  0  0  0  0
    2.0525    1.2404   -0.4040 C   0  0  1  0  0  0  0  0  0  0  0  0
    0.7965    0.9956    0.4444 C   0  0  0  0  0  0  0  0  0  0  0  0
   -0.3723    1.4756   -0.3204 C   0  0  0  0  0  0  0  0  0  0  0  0
   -1.4245    0.4610   -0.6116 C   0  0  0  0  0  0  0  0  0  0  0  0
   -2.6413    1.1822   -0.9391 N   0  0  0  0  0  0  0  0  0  0  0  0
   -3.8188    0.6227   -0.3710 C   0  0  0  0  0  0  0  0  0  0  0  0
   -3.8262   -0.8820   -0.3441 C   0  0  0  0  0  0  0  0  0  0  0  0
   -2.6217   -1.4529    0.1621 N   0  0  0  0  0  0  0  0  0  0  0  0
   -1.6382   -0.4343    0.5599 C   0  0  0  0  0  0  0  0  0  0  0  0
   -0.4033   -1.1593    0.9608 C   0  0  0  0  0  0  0  0  0  0  0  0
    0.8808   -0.4963    0.6242 C   0  0  0  0  0  0  0  0  0  0  0  0
    3.2941    0.8548    0.3171 C   0  0  0  0  0  0  0  0  0  0  0  0
    3.3981   -0.4961    0.7238 N   0  0  0  0  0  0  0  0  0  0  0  0
    2.9491   -1.4649   -0.2542 C   0  0  0  0  0  0  0  0  0  0  0  0
    1.5295   -1.0115   -0.6357 C   0  0  2  0  0  0  0  0  0  0  0  0
    1.8145    0.2181   -1.5084 C   0  0  0  0  0  0  0  0  0  0  0  0
    2.0525    1.2404   -0.4040 C   0  0  1  0  0  0  0  0  0  0  0  0
    0.7965    0.9956    0.4444 C   0  0  0  0  0  0  0  0  0  0  0  0
   -0.3723    1.4756   -0.3204 C   0  0  0  0  0  0  0  0  0  0  0  0
   -1.4245    0.4610   -0.6116 C   0  0  0  0  0  0  0  0  0  0  0  0
   -2.6413    1.1822   -0.9391 N   0  0  0  0  0  0  0  0  0  0  0  0
   -3.8188    0.6227   -0.3710 C   0  0  0  0  0  0  0  0  0  0  0  0
   -3.8262   -0.8820   -0.3441 C   0  0  0  0  0  0  0  0  0  0  0  0
   -2.6217   -1.4529    0.1621 N   0  0  0  0  0  0  0  0  0  0  0  0
   -1.6382   -0.4343    0.5599 C   0  0  0  0  0  0  0  0  0  0  0  0
   -0.4033   -1.1593    0.9608 C   0  0  0  0  0  0  0  0  0  0  0  0
    0.8808   -0.4963    0.6242 C   0  0  0  0  0  0  0  0  0  0  0  0
    3.2941    0.8548    0.3171 C   0  0  0  0  0  0  0  0  0  0  0  0
    3.3981   -0.4961    0.7238 N   0  0  0  0  0  0  0  0  0  0  0  0
    2.9491   -1.4649   -0.2542 C   0  0  0  0  0  0  0  0  0  0  0  0
    1.5295   -1.0115   -0.6357 C   0  0  2  0  0  0  0  0  0  0  0  0
    1.8145    0.2181   -1.5084 C   0  0  0  0  0  0  0  0  0  0  0  0
    2.0525    1.2404   -0.4040 C   0  0  1  0  0  0  0  0  0  0  0  0
    0.7965    0.9956    0.4444 C   0  0  0  0  0  0  0  0  0  0  0  0
   -0.3723    1.4756   -0.3204 C   0  0  0  0  0  0  0  0  0  0  0  0
   -1.4245    0.4610   -0.6116 C   0  0  0  0  0  0  0  0  0  0  0  0
   -2.6413    1.1822   -0.9391 N   0  0  0  0  0  0  0  0  0  0  0  0
   -3.8188    0.6227   -0.3710 C   0  0  0  0  0  0  0  0  0  0  0  0
   -3.8262   -0.8820   -0.3441 C   0  0  0  0  0  0  0  0  0  0  0  0
   -2.6217   -1.4529    0.1621 N   0  0  0  0  0  0  0  0  0  0  0  0
   -1.6382   -0.4343    0.5599 C   0  0  0  0  0  0  0  0  0  0  0  0
   -0.4033   -1.1593    0.9608 C   0  0  0  0  0  0  0  0  0  0  0  0
    0.8808   -0.4963    0.6242 C   0  0  0  0  0  0  0  0  0  0  0  0
    3.2941    0.8548    0.3171 C   0  0  0  0  0  0  0  0  0  0  0  0
    3.3981   -0.4961    0.7238 N   0  0  0  0  0  0  0  0  0  0  0  0
    2.9491   -1.4649   -0.2542 C   0  0  0  0  0  0  0  0  0  0  0  0
    1.5295   -1.0115   -0.6357 C   0  0  2  0  0  0  0  0  0  0  0  0
    1.8145    0.2181   -1.5084 C   0  0  0  0  0  0  0  0  0  0  0  0
    2.0525    1.2404   -0.4040 C   0  0  1  0  0  0  0  0  0  0  0  0
    0.7965    0.9956    0.4444 C   0  0  0  0  0  0  0  0  0  0  0  0
   -0.3723    1.4756   -0.3204 C   0  0  0  0  0  0  0  0  0  0  0  0
   -1.4245    0.4610   -0.6116 C   0  0  0  0  0  0  0  0  0  0  0  0
   -2.6413    1.1822   -0.9391 N   0  0  0  0  0  0  0  0  0  0  0  0
   -3.8188    0.6227   -0.3710 C   0  0  0  0  0  0  0  0  0  0  0  0
   -3.8262   -0.8820   -0.3441 C   0  0  0  0  0  0  0  0  0  0  0  0
   -2.6217   -1.4529    0.1621 N   0  0  0  0  0  0  0  0  0  0  0  0
   -1.6382   -0.4343    0.5599 C   0  0  0  0  0  0  0  0  0  0  0  0
   -0.4033   -1.1593    0.9608 C   0  0  0  0  0  0  0  0  0  0  0  0
    0.8808   -0.4963    0.6242 C   0  0  0  0  0  0  0  0  0  0  0  0
    3.3443    1.4916    1.2489 H   0  0  0  0  0  0  0  0  0  0  0  0
    4.1576    1.1908   -0.2944 H   0  0  0  0  0  0  0  0  0  0  0  0
    4.4211   -0.7033    0.9155 H   0  0  0  0  0  0  0  0  0  0  0  0
    3.5901   -1.4010   -1.1567 H   0  0  0  0  0  0  0  0  0  0  0  0
    2.9417   -2.4589    0.2175 H   0  0  0  0  0  0  0  0  0  0  0  0
    0.9720   -1.7784   -1.1558 H   0  0  0  0  0  0  0  0  0  0  0  0
    1.0008    0.4686   -2.1702 H   0  0  0  0  0  0  0  0  0  0  0  0
    2.7252    0.0647   -2.1197 H   0  0  0  0  0  0  0  0  0  0  0  0
    2.1229    2.2601   -0.7639 H   0  0  0  0  0  0  0  0  0  0  0  0
    0.9885    1.5505    1.3979 H   0  0  0  0  0  0  0  0  0  0  0  0
   -0.8657    2.2929    0.2849 H   0  0  0  0  0  0  0  0  0  0  0  0
   -0.0743    2.0001   -1.2728 H   0  0  0  0  0  0  0  0  0  0  0  0
   -1.2043   -0.1860   -1.4891 H   0  0  0  0  0  0  0  0  0  0  0  0
   -2.5761    2.1932   -0.6941 H   0  0  0  0  0  0  0  0  0  0  0  0
   -4.6891    0.9308   -1.0203 H   0  0  0  0  0  0  0  0  0  0  0  0
   -3.9967    1.0556    0.6269 H   0  0  0  0  0  0  0  0  0  0  0  0
   -4.6710   -1.1992    0.3015 H   0  0  0  0  0  0  0  0  0  0  0  0
   -3.9887   -1.2234   -1.3898 H   0  0  0  0  0  0  0  0  0  0  0  0
   -2.7578   -2.1532    0.9155 H   0  0  0  0  0  0  0  0  0  0  0  0
   -2.0992    0.1473    1.4070 H   0  0  0  0  0  0  0  0  0  0  0  0
   -0.3669   -2.1969    0.5122 H   0  0  0  0  0  0  0  0  0  0  0  0
   -0.4980   -1.3665    2.0690 H   0  0  0  0  0  0  0  0  0  0  0  0
    1.5551   -0.6324    1.5250 H   0  0  0  0  0  0  0  0  0  0  0  0
    3.3443    1.4916    1.2489 H   0  0  0  0  0  0  0  0  0  0  0  0
    4.1576    1.1908   -0.2944 H   0  0  0  0  0  0  0  0  0  0  0  0
    4.4211   -0.7033    0.9155 H   0  0  0  0  0  0  0  0  0  0  0  0
    3.5901   -1.4010   -1.1567 H   0  0  0  0  0  0  0  0  0  0  0  0
    2.9417   -2.4589    0.2175 H   0  0  0  0  0  0  0  0  0  0  0  0
    0.9720   -1.7784   -1.1558 H   0  0  0  0  0  0  0  0  0  0  0  0
    1.0008    0.4686   -2.1702 H   0  0  0  0  0  0  0  0  0  0  0  0
    2.7252    0.0647   -2.1197 H   0  0  0  0  0  0  0  0  0  0  0  0
    2.1229    2.2601   -0.7639 H   0  0  0  0  0  0  0  0  0  0  0  0
    0.9885    1.5505    1.3979 H   0  0  0  0  0  0  0  0  0  0  0  0
   -0.8657    2.2929    0.2849 H   0  0  0  0  0  0  0  0  0  0  0  0
   -0.0743    2.0001   -1.2728 H   0  0  0  0  0  0  0  0  0  0  0  0
   -1.2043   -0.1860   -1.4891 H   0  0  0  0  0  0  0  0  0  0  0  0
   -2.5761    2.1932   -0.6941 H   0  0  0  0  0  0  0  0  0  0  0  0
   -4.6891    0.9308   -1.0203 H   0  0  0  0  0  0  0  0  0  0  0  0
   -3.9967    1.0556    0.6269 H   0  0  0  0  0  0  0  0  0  0  0  0
   -4.6710   -1.1992    0.3015 H   0  0  0  0  0  0  0  0  0  0  0  0
   -3.9887   -1.2234   -1.3898 H   0  0  0  0  0  0  0  0  0  0  0  0
   -2.7578   -2.1532    0.9155 H   0  0  0  0  0  0  0  0  0  0  0  0
   -2.0992    0.1473    1.4070 H   0  0  0  0  0  0  0  0  0  0  0  0
   -0.3669   -2.1969    0.5122 H   0  0  0  0  0  0  0  0  0  0  0  0
   -0.4980   -1.3665    2.0690 H   0  0  0  0  0  0  0  0  0  0  0  0
    1.5551   -0.6324    1.5250 H   0  0  0  0  0  0  0  0  0  0  0  0
    3.3443    1.4916    1.2489 H   0  0  0  0  0  0  0  0  0  0  0  0
    4.1576    1.1908   -0.2944 H   0  0  0  0  0  0  0  0  0  0  0  0
    4.4211   -0.7033    0.9155 H   0  0  0  0  0  0  0  0  0  0  0  0
    3.5901   -1.4010   -1.1567 H   0  0  0  0  0  0  0  0  0  0  0  0
    2.9417   -2.4589    0.2175 H   0  0  0  0  0  0  0  0  0  0  0  0
    0.9720   -1.7784   -1.1558 H   0  0  0  0  0  0  0  0  0  0  0  0
    1.0008    0.4686   -2.1702 H   0  0  0  0  0  0  0  0  0  0  0  0
    2.7252    0.0647   -2.1197 H   0  0  0  0  0  0  0  0  0  0  0  0
    2.1229    2.2601   -0.7639 H   0  0  0  0  0  0  0  0  0  0  0  0
    0.9885    1.5505    1.3979 H   0  0  0  0  0  0  0  0  0  0  0  0
   -0.8657    2.2929    0.2849 H   0  0  0  0  0  0  0  0  0  0  0  0
   -0.0743    2.0001   -1.2728 H   0  0  0  0  0  0  0  0  0  0  0  0
   -1.2043   -0.1860   -1.4891 H   0  0  0  0  0  0  0  0  0  0  0  0
   -2.5761    2.1932   -0.6941 H   0  0  0  0  0  0  0  0  0  0  0  0
   -4.6891    0.9308   -1.0203 H   0  0  0  0  0  0  0  0  0  0  0  0
   -3.9967    1.0556    0.6269 H   0  0  0  0  0  0  0  0  0  0  0  0
   -4.6710   -1.1992    0.3015 H   0  0  0  0  0  0  0  0  0  0  0  0
   -3.9887   -1.2234   -1.3898 H   0  0  0  0  0  0  0  0  0  0  0  0
   -2.7578   -2.1532    0.9155 H   0  0  0  0  0  0  0  0  0  0  0  0
   -2.0992    0.1473    1.4070 H   0  0  0  0  0  0  0  0  0  0  0  0
   -0.3669   -2.1969    0.5122 H   0  0  0  0  0  0  0  0  0  0  0  0
   -0.4980   -1.3665    2.0690 H   0  0  0  0  0  0  0  0  0  0  0  0
    1.5551   -0.6324    1.5250 H   0  0  0  0  0  0  0  0  0  0  0  0
    3.3443    1.4916    1.2489 H   0  0  0  0  0  0  0  0  0  0  0  0
    4.1576    1.1908   -0.2944 H   0  0  0  0  0  0  0  0  0  0  0  0
    4.4211   -0.7033    0.9155 H   0  0  0  0  0  0  0  0  0  0  0  0
    3.5901   -1.4010   -1.1567 H   0  0  0  0  0  0  0  0  0  0  0  0
    2.9417   -2.4589    0.2175 H   0  0  0  0  0  0  0  0  0  0  0  0
    0.9720   -1.7784   -1.1558 H   0  0  0  0  0  0  0  0  0  0  0  0
    1.0008    0.4686   -2.1702 H   0  0  0  0  0  0  0  0  0  0  0  0
    2.7252    0.0647   -2.1197 H   0  0  0  0  0  0  0  0  0  0  0  0
    2.1229    2.2601   -0.7639 H   0  0  0  0  0  0  0  0  0  0  0  0
    0.9885    1.5505    1.3979 H   0  0  0  0  0  0  0  0  0  0  0  0
   -0.8657    2.2929    0.2849 H   0  0  0  0  0  0  0  0  0  0  0  0
   -0.0743    2.0001   -1.2728 H   0  0  0  0  0  0  0  0  0  0  0  0
   -1.2043   -0.1860   -1.4891 H   0  0  0  0  0  0  0  0  0  0  0  0
   -2.5761    2.1932   -0.6941 H   0  0  0  0  0  0  0  0  0  0  0  0
   -4.6891    0.9308   -1.0203 H   0  0  0  0  0  0  0  0  0  0  0  0
   -3.9967    1.0556    0.6269 H   0  0  0  0  0  0  0  0  0  0  0  0
   -4.6710   -1.1992    0.3015 H   0  0  0  0  0  0  0  0  0  0  0  0
   -3.9887   -1.2234   -1.3898 H   0  0  0  0  0  0  0  0  0  0  0  0
   -2.7578   -2.1532    0.9155 H   0  0  0  0  0  0  0  0  0  0  0  0
   -2.0992    0.1473    1.4070 H   0  0  0  0  0  0  0  0  0  0  0  0
   -0.3669   -2.1969    0.5122 H   0  0  0  0  0  0  0  0  0  0  0  0
   -0.4980   -1.3665    2.0690 H   0  0  0  0  0  0  0  0  0  0  0  0
    1.5551   -0.6324    1.5250 H   0  0  0  0  0  0  0  0  0  0  0  0
    3.3443    1.4916    1.2489 H   0  0  0  0  0  0  0  0  0  0  0  0
    4.1576    1.1908   -0.2944 H   0  0  0  0  0  0  0  0  0  0  0  0
    4.4211   -0.7033    0.9155 H   0  0  0  0  0  0  0  0  0  0  0  0
    3.5901   -1.4010   -1.1567 H   0  0  0  0  0  0  0  0  0  0  0  0
    2.9417   -2.4589    0.2175 H   0  0  0  0  0  0  0  0  0  0  0  0
    0.9720   -1.7784   -1.1558 H   0  0  0  0  0  0  0  0  0  0  0  0
    1.0008    0.4686   -2.1702 H   0  0  0  0  0  0  0  0  0  0  0  0
    2.7252    0.0647   -2.1197 H   0  0  0  0  0  0  0  0  0  0  0  0
    2.1229    2.2601   -0.7639 H   0  0  0  0  0  0  0  0  0  0  0  0
    0.9885    1.5505    1.3979 H   0  0  0  0  0  0  0  0  0  0  0  0
   -0.8657    2.2929    0.2849 H   0  0  0  0  0  0  0  0  0  0  0  0
   -0.0743    2.0001   -1.2728 H   0  0  0  0  0  0  0  0  0  0  0  0
   -1.2043   -0.1860   -1.4891 H   0  0  0  0  0  0  0  0  0  0  0  0
   -2.5761    2.1932   -0.6941 H   0  0  0  0  0  0  0  0  0  0  0  0
   -4.6891    0.9308   -1.0203 H   0  0  0  0  0  0  0  0  0  0  0  0
   -3.9967    1.0556    0.6269 H   0  0  0  0  0  0  0  0  0  0  0  0
   -4.6710   -1.1992    0.3015 H   0  0  0  0  0  0  0  0  0  0  0  0
   -3.9887   -1.2234   -1.3898 H   0  0  0  0  0  0  0  0  0  0  0  0
   -2.7578   -2.1532    0.9155 H   0  0  0  0  0  0  0  0  0  0  0  0
   -2.0992    0.1473    1.4070 H   0  0  0  0  0  0  0  0  0  0  0  0
   -0.3669   -2.1969    0.5122 H   0  0  0  0  0  0  0  0  0  0  0  0
   -0.4980   -1.3665    2.0690 H   0  0  0  0  0  0  0  0  0  0  0  0
    1.5551   -0.6324    1.5250 H   0  0  0  0  0  0  0  0  0  0  0  0
  1  2  1  0
  2  3  1  0
  3  4  1  0
  4  5  1  0
  1  6  1  0
  5  6  1  0
  6  7  1  0
  7  8  1  0
  8  9  1  0
  9 10  1  0
 10 11  1  0
 11 12  1  0
 12 13  1  0
  9 14  1  0
 13 14  1  0
 14 15  1  0
  4 16  1  0
  7 16  1  0
 15 16  1  0
 17 18  1  0
 18 19  1  0
 19 20  1  0
 20 21  1  0
 17 22  1  0
 21 22  1  0
 22 23  1  0
 23 24  1  0
 24 25  1  0
 25 26  1  0
 26 27  1  0
 27 28  1  0
 28 29  1  0
 25 30  1  0
 29 30  1  0
 30 31  1  0
 20 32  1  0
 23 32  1  0
 31 32  1  0
 33 34  1  0
 34 35  1  0
 35 36  1  0
 36 37  1  0
 33 38  1  0
 37 38  1  0
 38 39  1  0
 39 40  1  0
 40 41  1  0
 41 42  1  0
 42 43  1  0
 43 44  1  0
 44 45  1  0
 41 46  1  0
 45 46  1  0
 46 47  1  0
 36 48  1  0
 39 48  1  0
 47 48  1  0
 49 50  1  0
 50 51  1  0
 51 52  1  0
 52 53  1  0
 49 54  1  0
 53 54  1  0
 54 55  1  0
 55 56  1  0
 56 57  1  0
 57 58  1  0
 58 59  1  0
 59 60  1  0
 60 61  1  0
 57 62  1  0
 61 62  1  0
 62 63  1  0
 52 64  1  0
 55 64  1  0
 63 64  1  0
 65 66  1  0
 66 67  1  0
 67 68  1  0
 68 69  1  0
 65 70  1  0
 69 70  1  0
 70 71  1  0
 71 72  1  0
 72 73  1  0
 73 74  1  0
 74 75  1  0
 75 76  1  0
 76 77  1  0
 73 78  1  0
 77 78  1  0
 78 79  1  0
 68 80  1  0
 71 80  1  0
 79 80  1  0
  1 81  1  0
  1 82  1  0
  2 83  1  0
  3 84  1  0
  3 85  1  0
  4 86  1  6
  5 87  1  0
  5 88  1  0
  6 89  1  6
  7 90  1  0
  8 91  1  0
  8 92  1  0
  9 93  1  0
 10 94  1  0
 11 95  1  0
 11 96  1  0
 12 97  1  0
 12 98  1  0
 13 99  1  0
 14100  1  0
 15101  1  0
 15102  1  0
 16103  1  0
 17104  1  0
 17105  1  0
 18106  1  0
 19107  1  0
 19108  1  0
 20109  1  6
 21110  1  0
 21111  1  0
 22112  1  6
 23113  1  0
 24114  1  0
 24115  1  0
 25116  1  0
 26117  1  0
 27118  1  0
 27119  1  0
 28120  1  0
 28121  1  0
 29122  1  0
 30123  1  0
 31124  1  0
 31125  1  0
 32126  1  0
 33127  1  0
 33128  1  0
 34129  1  0
 35130  1  0
 35131  1  0
 36132  1  6
 37133  1  0
 37134  1  0
 38135  1  6
 39136  1  0
 40137  1  0
 40138  1  0
 41139  1  0
 42140  1  0
 43141  1  0
 43142  1  0
 44143  1  0
 44144  1  0
 45145  1  0
 46146  1  0
 47147  1  0
 47148  1  0
 48149  1  0
 49150  1  0
 49151  1  0
 50152  1  0
 51153  1  0
 51154  1  0
 52155  1  6
 53156  1  0
 53157  1  0
 54158  1  6
 55159  1  0
 56160  1  0
 56161  1  0
 57162  1  0
 58163  1  0
 59164  1  0
 59165  1  0
 60166  1  0
 60167  1  0
 61168  1  0
 62169  1  0
 63170  1  0
 63171  1  0
 64172  1  0
 65173  1  0
 65174  1  0
 66175  1  0
 67176  1  0
 67177  1  0
 68178  1  6
 69179  1  0
 69180  1  0
 70181  1  6
 71182  1  0
 72183  1  0
 72184  1  0
 73185  1  0
 74186  1  0
 75187  1  0
 75188  1  0
 76189  1  0
 76190  1  0
 77191  1  0
 78192  1  0
 79193  1  0
 79194  1  0
 80195  1  0
M  END
>  <PDBID>  (1) 
4AFG

>  <PDB ID>  (1) 
4AFG

>  <Generic Name>  (1) 
Varenicline

>  <Brand Name>  (1) 
Champix#Chantix#Gd-varenicline

>  <DrugBank ID>  (1) 
DB01273

>  <ATC Codes>  (1) 
N07BA03

>  <Ligand ID>  (1) 
QMR

>  <Target Name>  (1) 
Neuronal acetylcholine receptor subunit alpha-4

>  <UniProt ID>  (1) 
P43681

>  <PDB ID.1>  (1) 
4AFG

>  <Seq. Identity>  (1) 
31%

$$$$
