PDB_DB00367_01
     RDKit          3D

118124  0  0  0  0  0  0  0  0999 V2000
    2.9805   -1.6494    0.7173 C   0  0  0  0  0  0  0  0  0  0  0  0
    4.4042   -1.4565    1.1731 C   0  0  0  0  0  0  0  0  0  0  0  0
    5.1416   -0.6667    0.1122 C   0  0  1  0  0  0  0  0  0  0  0  0
    4.1507    0.1579   -0.7156 C   0  0  0  0  0  0  0  0  0  0  0  0
    3.0836    0.7312    0.2274 C   0  0  1  0  0  0  0  0  0  0  0  0
    2.4126    1.8837   -0.4243 C   0  0  0  0  0  0  0  0  0  0  0  0
    1.2115    1.5381   -1.2399 C   0  0  0  0  0  0  0  0  0  0  0  0
    0.2829    0.7524   -0.3277 C   0  0  2  0  0  0  0  0  0  0  0  0
    0.9629   -0.5815   -0.0898 C   0  0  1  0  0  0  0  0  0  0  0  0
    2.2064   -0.3253    0.7682 C   0  0  1  0  0  0  0  0  0  0  0  0
    0.1336   -1.6448    0.4806 C   0  0  0  0  0  0  0  0  0  0  0  0
   -1.3421   -1.5473    0.3811 C   0  0  0  0  0  0  0  0  0  0  0  0
   -1.8919   -0.1640    0.1606 C   0  0  1  0  0  0  0  0  0  0  0  0
   -1.0330    0.4680   -0.8864 C   0  0  1  0  0  0  0  0  0  0  0  0
   -1.8168    1.5774   -1.4822 C   0  0  0  0  0  0  0  0  0  0  0  0
   -3.2156    0.9944   -1.5094 C   0  0  0  0  0  0  0  0  0  0  0  0
   -3.2377   -0.1362   -0.4928 C   0  0  1  0  0  0  0  0  0  0  0  0
   -1.9408    0.5291    1.4663 C   0  0  0  0  0  0  0  0  0  0  0  0
   -2.4418    1.9129    1.5161 C   0  0  0  0  0  0  0  0  0  0  0  0
   -3.5992   -1.4422   -1.1608 C   0  0  0  0  0  0  0  0  0  0  0  0
   -4.9873   -1.2682   -1.7801 C   0  0  0  0  0  0  0  0  0  0  0  0
    6.0444    0.1581    0.7719 O   0  0  0  0  0  0  0  0  0  0  0  0
   -4.2477    0.1297    0.4300 O   0  0  0  0  0  0  0  0  0  0  0  0
    2.9805   -1.6494    0.7173 C   0  0  0  0  0  0  0  0  0  0  0  0
    4.4042   -1.4565    1.1731 C   0  0  0  0  0  0  0  0  0  0  0  0
    5.1416   -0.6667    0.1122 C   0  0  1  0  0  0  0  0  0  0  0  0
    4.1507    0.1579   -0.7156 C   0  0  0  0  0  0  0  0  0  0  0  0
    3.0836    0.7312    0.2274 C   0  0  1  0  0  0  0  0  0  0  0  0
    2.4126    1.8837   -0.4243 C   0  0  0  0  0  0  0  0  0  0  0  0
    1.2115    1.5381   -1.2399 C   0  0  0  0  0  0  0  0  0  0  0  0
    0.2829    0.7524   -0.3277 C   0  0  2  0  0  0  0  0  0  0  0  0
    0.9629   -0.5815   -0.0898 C   0  0  1  0  0  0  0  0  0  0  0  0
    2.2064   -0.3253    0.7682 C   0  0  1  0  0  0  0  0  0  0  0  0
    0.1336   -1.6448    0.4806 C   0  0  0  0  0  0  0  0  0  0  0  0
   -1.3421   -1.5473    0.3811 C   0  0  0  0  0  0  0  0  0  0  0  0
   -1.8919   -0.1640    0.1606 C   0  0  1  0  0  0  0  0  0  0  0  0
   -1.0330    0.4680   -0.8864 C   0  0  1  0  0  0  0  0  0  0  0  0
   -1.8168    1.5774   -1.4822 C   0  0  0  0  0  0  0  0  0  0  0  0
   -3.2156    0.9944   -1.5094 C   0  0  0  0  0  0  0  0  0  0  0  0
   -3.2377   -0.1362   -0.4928 C   0  0  1  0  0  0  0  0  0  0  0  0
   -1.9408    0.5291    1.4663 C   0  0  0  0  0  0  0  0  0  0  0  0
   -2.4418    1.9129    1.5161 C   0  0  0  0  0  0  0  0  0  0  0  0
   -3.5992   -1.4422   -1.1608 C   0  0  0  0  0  0  0  0  0  0  0  0
   -4.9873   -1.2682   -1.7801 C   0  0  0  0  0  0  0  0  0  0  0  0
    6.0444    0.1581    0.7719 O   0  0  0  0  0  0  0  0  0  0  0  0
   -4.2477    0.1297    0.4300 O   0  0  0  0  0  0  0  0  0  0  0  0
    2.4822   -2.4277    1.2944 H   0  0  0  0  0  0  0  0  0  0  0  0
    3.0272   -1.9899   -0.3477 H   0  0  0  0  0  0  0  0  0  0  0  0
    4.8520   -2.4614    1.2783 H   0  0  0  0  0  0  0  0  0  0  0  0
    4.4192   -0.9619    2.1640 H   0  0  0  0  0  0  0  0  0  0  0  0
    5.7002   -1.3346   -0.5743 H   0  0  0  0  0  0  0  0  0  0  0  0
    4.7330    1.0107   -1.1209 H   0  0  0  0  0  0  0  0  0  0  0  0
    3.7065   -0.4308   -1.5195 H   0  0  0  0  0  0  0  0  0  0  0  0
    3.6837    1.1459    1.0921 H   0  0  0  0  0  0  0  0  0  0  0  0
    2.0923    2.6078    0.3678 H   0  0  0  0  0  0  0  0  0  0  0  0
    3.1739    2.4196   -1.0431 H   0  0  0  0  0  0  0  0  0  0  0  0
    0.7547    2.4542   -1.6158 H   0  0  0  0  0  0  0  0  0  0  0  0
    1.5314    0.8300   -2.0401 H   0  0  0  0  0  0  0  0  0  0  0  0
    0.3011    1.2839    0.6437 H   0  0  0  0  0  0  0  0  0  0  0  0
    1.3865   -0.8795   -1.0956 H   0  0  0  0  0  0  0  0  0  0  0  0
    1.9203   -0.1884    1.8341 H   0  0  0  0  0  0  0  0  0  0  0  0
    0.3917   -1.7469    1.5781 H   0  0  0  0  0  0  0  0  0  0  0  0
    0.4757   -2.6265    0.0531 H   0  0  0  0  0  0  0  0  0  0  0  0
   -1.6778   -2.1931   -0.4569 H   0  0  0  0  0  0  0  0  0  0  0  0
   -1.8451   -1.9577    1.2842 H   0  0  0  0  0  0  0  0  0  0  0  0
   -0.9118   -0.3129   -1.6974 H   0  0  0  0  0  0  0  0  0  0  0  0
   -1.7473    2.5415   -0.9878 H   0  0  0  0  0  0  0  0  0  0  0  0
   -1.4758    1.7199   -2.5320 H   0  0  0  0  0  0  0  0  0  0  0  0
   -4.0083    1.7254   -1.3756 H   0  0  0  0  0  0  0  0  0  0  0  0
   -3.3915    0.5383   -2.5292 H   0  0  0  0  0  0  0  0  0  0  0  0
   -0.9640    0.4962    2.0272 H   0  0  0  0  0  0  0  0  0  0  0  0
   -2.6194   -0.0992    2.1224 H   0  0  0  0  0  0  0  0  0  0  0  0
   -3.2510    2.1890    0.8478 H   0  0  0  0  0  0  0  0  0  0  0  0
   -1.6602    2.6982    1.4048 H   0  0  0  0  0  0  0  0  0  0  0  0
   -2.8420    2.0931    2.5617 H   0  0  0  0  0  0  0  0  0  0  0  0
   -2.9356   -1.7160   -1.9874 H   0  0  0  0  0  0  0  0  0  0  0  0
   -3.7145   -2.2075   -0.3786 H   0  0  0  0  0  0  0  0  0  0  0  0
   -5.7028   -0.8322   -1.0862 H   0  0  0  0  0  0  0  0  0  0  0  0
   -4.9390   -0.7831   -2.7699 H   0  0  0  0  0  0  0  0  0  0  0  0
   -5.3412   -2.3215   -1.9822 H   0  0  0  0  0  0  0  0  0  0  0  0
    6.1065    1.0632    0.3934 H   0  0  0  0  0  0  0  0  0  0  0  0
   -4.9717    0.7032    0.0442 H   0  0  0  0  0  0  0  0  0  0  0  0
    2.4822   -2.4277    1.2944 H   0  0  0  0  0  0  0  0  0  0  0  0
    3.0272   -1.9899   -0.3477 H   0  0  0  0  0  0  0  0  0  0  0  0
    4.8520   -2.4614    1.2783 H   0  0  0  0  0  0  0  0  0  0  0  0
    4.4192   -0.9619    2.1640 H   0  0  0  0  0  0  0  0  0  0  0  0
    5.7002   -1.3346   -0.5743 H   0  0  0  0  0  0  0  0  0  0  0  0
    4.7330    1.0107   -1.1209 H   0  0  0  0  0  0  0  0  0  0  0  0
    3.7065   -0.4308   -1.5195 H   0  0  0  0  0  0  0  0  0  0  0  0
    3.6837    1.1459    1.0921 H   0  0  0  0  0  0  0  0  0  0  0  0
    2.0923    2.6078    0.3678 H   0  0  0  0  0  0  0  0  0  0  0  0
    3.1739    2.4196   -1.0431 H   0  0  0  0  0  0  0  0  0  0  0  0
    0.7547    2.4542   -1.6158 H   0  0  0  0  0  0  0  0  0  0  0  0
    1.5314    0.8300   -2.0401 H   0  0  0  0  0  0  0  0  0  0  0  0
    0.3011    1.2839    0.6437 H   0  0  0  0  0  0  0  0  0  0  0  0
    1.3865   -0.8795   -1.0956 H   0  0  0  0  0  0  0  0  0  0  0  0
    1.9203   -0.1884    1.8341 H   0  0  0  0  0  0  0  0  0  0  0  0
    0.3917   -1.7469    1.5781 H   0  0  0  0  0  0  0  0  0  0  0  0
    0.4757   -2.6265    0.0531 H   0  0  0  0  0  0  0  0  0  0  0  0
   -1.6778   -2.1931   -0.4569 H   0  0  0  0  0  0  0  0  0  0  0  0
   -1.8451   -1.9577    1.2842 H   0  0  0  0  0  0  0  0  0  0  0  0
   -0.9118   -0.3129   -1.6974 H   0  0  0  0  0  0  0  0  0  0  0  0
   -1.7473    2.5415   -0.9878 H   0  0  0  0  0  0  0  0  0  0  0  0
   -1.4758    1.7199   -2.5320 H   0  0  0  0  0  0  0  0  0  0  0  0
   -4.0083    1.7254   -1.3756 H   0  0  0  0  0  0  0  0  0  0  0  0
   -3.3915    0.5383   -2.5292 H   0  0  0  0  0  0  0  0  0  0  0  0
   -0.9640    0.4962    2.0272 H   0  0  0  0  0  0  0  0  0  0  0  0
   -2.6194   -0.0992    2.1224 H   0  0  0  0  0  0  0  0  0  0  0  0
   -3.2510    2.1890    0.8478 H   0  0  0  0  0  0  0  0  0  0  0  0
   -1.6602    2.6982    1.4048 H   0  0  0  0  0  0  0  0  0  0  0  0
   -2.8420    2.0931    2.5617 H   0  0  0  0  0  0  0  0  0  0  0  0
   -2.9356   -1.7160   -1.9874 H   0  0  0  0  0  0  0  0  0  0  0  0
   -3.7145   -2.2075   -0.3786 H   0  0  0  0  0  0  0  0  0  0  0  0
   -5.7028   -0.8322   -1.0862 H   0  0  0  0  0  0  0  0  0  0  0  0
   -4.9390   -0.7831   -2.7699 H   0  0  0  0  0  0  0  0  0  0  0  0
   -5.3412   -2.3215   -1.9822 H   0  0  0  0  0  0  0  0  0  0  0  0
    6.1065    1.0632    0.3934 H   0  0  0  0  0  0  0  0  0  0  0  0
   -4.9717    0.7032    0.0442 H   0  0  0  0  0  0  0  0  0  0  0  0
  1  2  1  0
  2  3  1  0
  3  4  1  0
  4  5  1  0
  5  6  1  0
  6  7  1  0
  7  8  1  0
  8  9  1  0
  1 10  1  0
  5 10  1  0
  9 10  1  0
  9 11  1  0
 11 12  1  0
 12 13  1  0
  8 14  1  0
 13 14  1  0
 14 15  1  0
 15 16  1  0
 13 17  1  0
 16 17  1  0
 13 18  1  1
 18 19  1  0
 17 20  1  0
 20 21  1  0
  3 22  1  0
 17 23  1  1
 24 25  1  0
 25 26  1  0
 26 27  1  0
 27 28  1  0
 28 29  1  0
 29 30  1  0
 30 31  1  0
 31 32  1  0
 24 33  1  0
 28 33  1  0
 32 33  1  0
 32 34  1  0
 34 35  1  0
 35 36  1  0
 31 37  1  0
 36 37  1  0
 37 38  1  0
 38 39  1  0
 36 40  1  0
 39 40  1  0
 36 41  1  1
 41 42  1  0
 40 43  1  0
 43 44  1  0
 26 45  1  0
 40 46  1  1
  1 47  1  0
  1 48  1  0
  2 49  1  0
  2 50  1  0
  3 51  1  6
  4 52  1  0
  4 53  1  0
  5 54  1  1
  6 55  1  0
  6 56  1  0
  7 57  1  0
  7 58  1  0
  8 59  1  1
  9 60  1  6
 10 61  1  1
 11 62  1  0
 11 63  1  0
 12 64  1  0
 12 65  1  0
 14 66  1  6
 15 67  1  0
 15 68  1  0
 16 69  1  0
 16 70  1  0
 18 71  1  0
 18 72  1  0
 19 73  1  0
 19 74  1  0
 19 75  1  0
 20 76  1  0
 20 77  1  0
 21 78  1  0
 21 79  1  0
 21 80  1  0
 22 81  1  0
 23 82  1  0
 24 83  1  0
 24 84  1  0
 25 85  1  0
 25 86  1  0
 26 87  1  6
 27 88  1  0
 27 89  1  0
 28 90  1  1
 29 91  1  0
 29 92  1  0
 30 93  1  0
 30 94  1  0
 31 95  1  1
 32 96  1  6
 33 97  1  1
 34 98  1  0
 34 99  1  0
 35100  1  0
 35101  1  0
 37102  1  6
 38103  1  0
 38104  1  0
 39105  1  0
 39106  1  0
 41107  1  0
 41108  1  0
 42109  1  0
 42110  1  0
 42111  1  0
 43112  1  0
 43113  1  0
 44114  1  0
 44115  1  0
 44116  1  0
 45117  1  0
 46118  1  0
M  END
>  <PDBID>  (1) 
3D90

>  <PDB ID>  (1) 
3D90

>  <Generic Name>  (1) 
Levonorgestrel

>  <Brand Name>  (1) 
Afirmelle#Aftera#Afterpill#Alesse 21#Alesse 28#Altavera#Alysena 21#Alysena 28#Amethia#Amethyst#Athentia Next#Aubra#Aviane#Aviane 21#Aviane 28#Aviane 28 Day#Ayuna#Backup Plan#Backup Plan Onestep#Camrese#Camrese Lo#Chateal#Climara Pro#Contingency#Contingency One#Daysee#Delyla#Econtra Ez#Enpresse#Esme 21#Esme 28#Falessa#Fallback Solo#Falmina#Her Style#Indayo#Introvale#Jaydess#Jolessa#Kurvelo#Kyleena#Larissia#Lessina#Levonest#Levonorgestrel#Levonorgestrel Emergency Contraceptive#Levonorgestrel Tablets, 0.75mg#Levonorgestrel and Ethinyl Estradiol#Levonorgestrel and Ethinyl Estradiol Tablets, 0.1 Mg/0.02 mg#Levonorgestrel and Ethinyl Estradiol and Ethinyl Estradiol#Levora#Liletta#Lillow#Lutera#Lutera 21#Lutera 28#Marlissa#Min-ovral 21#Min-ovral 21 Tab#Min-ovral 28#Min-ovral 28 Tab#Mirena#Morning After#My Way#Myzilra#Next Choice#Next Choice One Dose#Norlevo#Norplant System Kit 36mg/implant#Opcicon One-step#Option 2#Orsythia#Ovima 21#Ovima 28#Plan B#Plan B One-step#Portia#Portia 21#Portia 28#Preven Emergency Contraceptive#Preven Tablets#Quasense#React#Seasonale#Seasonique#Setlakin#Skyla#Sronyx#Take Action#Teva-levonorgestrel#Triphasil 21#Triphasil 21 Tab#Triphasil 28#Triphasil 28 Tab#Triquilar 21#Triquilar 28#Trivora#Vienva Tm#Jadelle#Levonelle#Medonor#Microlut#Microval#Neogest#Norgeston#Norplant#Postinor

>  <DrugBank ID>  (1) 
DB00367

>  <ATC Codes>  (1) 
G03FA11#G03FB09#G03AC03#G03AB03#G03AA07#G03AD01

>  <Ligand ID>  (1) 
NOG

>  <Target Name>  (1) 
Estrogen receptor

>  <UniProt ID>  (1) 
P03372

>  <PDB ID.1>  (1) 
3D90

>  <Seq. Identity>  (1) 
31%

$$$$
