PDB_DB01064_07
     RDKit          3D

 76 76  0  0  0  0  0  0  0  0999 V2000
   -3.8483    1.5892    0.2004 C   0  0  0  0  0  0  0  0  0  0  0  0
   -3.7399    0.2302   -0.4100 C   0  0  0  0  0  0  0  0  0  0  0  0
   -4.9512   -0.5777    0.0922 C   0  0  0  0  0  0  0  0  0  0  0  0
   -2.5904   -0.5290   -0.0517 N   0  0  0  0  0  0  0  0  0  0  0  0
   -1.3247    0.0423   -0.4319 C   0  0  0  0  0  0  0  0  0  0  0  0
   -0.2207   -0.9370   -0.0500 C   0  0  2  0  0  0  0  0  0  0  0  0
   -0.2861   -1.1279    1.3178 O   0  0  0  0  0  0  0  0  0  0  0  0
    1.1273   -0.4781   -0.5391 C   0  0  0  0  0  0  0  0  0  0  0  0
    2.2223   -1.4498   -0.1659 C   0  0  0  0  0  0  0  0  0  0  0  0
    1.4778    0.9327   -0.1238 C   0  0  0  0  0  0  0  0  0  0  0  0
    2.8124    1.2179   -0.8307 C   0  0  0  0  0  0  0  0  0  0  0  0
    3.8595    0.4500   -0.0642 C   0  0  0  0  0  0  0  0  0  0  0  0
    4.2379    1.2709    1.0287 O   0  0  0  0  0  0  0  0  0  0  0  0
    3.3950   -0.8395    0.5093 C   0  0  0  0  0  0  0  0  0  0  0  0
    4.4649   -1.7603    0.3727 O   0  0  0  0  0  0  0  0  0  0  0  0
   -3.8483    1.5892    0.2004 C   0  0  0  0  0  0  0  0  0  0  0  0
   -3.7399    0.2302   -0.4100 C   0  0  0  0  0  0  0  0  0  0  0  0
   -4.9512   -0.5777    0.0922 C   0  0  0  0  0  0  0  0  0  0  0  0
   -2.5904   -0.5290   -0.0517 N   0  0  0  0  0  0  0  0  0  0  0  0
   -1.3247    0.0423   -0.4319 C   0  0  0  0  0  0  0  0  0  0  0  0
   -0.2207   -0.9370   -0.0500 C   0  0  2  0  0  0  0  0  0  0  0  0
   -0.2861   -1.1279    1.3178 O   0  0  0  0  0  0  0  0  0  0  0  0
    1.1273   -0.4781   -0.5391 C   0  0  0  0  0  0  0  0  0  0  0  0
    2.2223   -1.4498   -0.1659 C   0  0  0  0  0  0  0  0  0  0  0  0
    1.4778    0.9327   -0.1238 C   0  0  0  0  0  0  0  0  0  0  0  0
    2.8124    1.2179   -0.8307 C   0  0  0  0  0  0  0  0  0  0  0  0
    3.8595    0.4500   -0.0642 C   0  0  0  0  0  0  0  0  0  0  0  0
    4.2379    1.2709    1.0287 O   0  0  0  0  0  0  0  0  0  0  0  0
    3.3950   -0.8395    0.5093 C   0  0  0  0  0  0  0  0  0  0  0  0
    4.4649   -1.7603    0.3727 O   0  0  0  0  0  0  0  0  0  0  0  0
   -4.6227    2.1487   -0.3911 H   0  0  0  0  0  0  0  0  0  0  0  0
   -2.9298    2.2041    0.1451 H   0  0  0  0  0  0  0  0  0  0  0  0
   -4.2118    1.5006    1.2608 H   0  0  0  0  0  0  0  0  0  0  0  0
   -3.8082    0.3038   -1.5154 H   0  0  0  0  0  0  0  0  0  0  0  0
   -4.7126   -1.6401   -0.1316 H   0  0  0  0  0  0  0  0  0  0  0  0
   -4.8716   -0.4945    1.2075 H   0  0  0  0  0  0  0  0  0  0  0  0
   -5.8945   -0.2188   -0.3053 H   0  0  0  0  0  0  0  0  0  0  0  0
   -2.5842   -0.9112    0.9148 H   0  0  0  0  0  0  0  0  0  0  0  0
   -1.1315    1.0143    0.0721 H   0  0  0  0  0  0  0  0  0  0  0  0
   -1.2522    0.1870   -1.5224 H   0  0  0  0  0  0  0  0  0  0  0  0
   -0.4727   -1.9179   -0.5249 H   0  0  0  0  0  0  0  0  0  0  0  0
   -0.1218   -0.3310    1.8419 H   0  0  0  0  0  0  0  0  0  0  0  0
    1.1010   -0.4514   -1.6630 H   0  0  0  0  0  0  0  0  0  0  0  0
    2.5726   -2.0561   -1.0490 H   0  0  0  0  0  0  0  0  0  0  0  0
    1.7669   -2.1882    0.5425 H   0  0  0  0  0  0  0  0  0  0  0  0
    1.6260    0.9305    0.9855 H   0  0  0  0  0  0  0  0  0  0  0  0
    0.7033    1.6354   -0.4523 H   0  0  0  0  0  0  0  0  0  0  0  0
    3.0546    2.2973   -0.7890 H   0  0  0  0  0  0  0  0  0  0  0  0
    2.7797    0.7961   -1.8495 H   0  0  0  0  0  0  0  0  0  0  0  0
    4.8050    0.3540   -0.6618 H   0  0  0  0  0  0  0  0  0  0  0  0
    4.1874    2.2342    0.7847 H   0  0  0  0  0  0  0  0  0  0  0  0
    3.2074   -0.8099    1.6105 H   0  0  0  0  0  0  0  0  0  0  0  0
    4.1737   -2.6209    0.0012 H   0  0  0  0  0  0  0  0  0  0  0  0
   -4.6227    2.1487   -0.3911 H   0  0  0  0  0  0  0  0  0  0  0  0
   -2.9298    2.2041    0.1451 H   0  0  0  0  0  0  0  0  0  0  0  0
   -4.2118    1.5006    1.2608 H   0  0  0  0  0  0  0  0  0  0  0  0
   -3.8082    0.3038   -1.5154 H   0  0  0  0  0  0  0  0  0  0  0  0
   -4.7126   -1.6401   -0.1316 H   0  0  0  0  0  0  0  0  0  0  0  0
   -4.8716   -0.4945    1.2075 H   0  0  0  0  0  0  0  0  0  0  0  0
   -5.8945   -0.2188   -0.3053 H   0  0  0  0  0  0  0  0  0  0  0  0
   -2.5842   -0.9112    0.9148 H   0  0  0  0  0  0  0  0  0  0  0  0
   -1.1315    1.0143    0.0721 H   0  0  0  0  0  0  0  0  0  0  0  0
   -1.2522    0.1870   -1.5224 H   0  0  0  0  0  0  0  0  0  0  0  0
   -0.4727   -1.9179   -0.5249 H   0  0  0  0  0  0  0  0  0  0  0  0
   -0.1218   -0.3310    1.8419 H   0  0  0  0  0  0  0  0  0  0  0  0
    1.1010   -0.4514   -1.6630 H   0  0  0  0  0  0  0  0  0  0  0  0
    2.5726   -2.0561   -1.0490 H   0  0  0  0  0  0  0  0  0  0  0  0
    1.7669   -2.1882    0.5425 H   0  0  0  0  0  0  0  0  0  0  0  0
    1.6260    0.9305    0.9855 H   0  0  0  0  0  0  0  0  0  0  0  0
    0.7033    1.6354   -0.4523 H   0  0  0  0  0  0  0  0  0  0  0  0
    3.0546    2.2973   -0.7890 H   0  0  0  0  0  0  0  0  0  0  0  0
    2.7797    0.7961   -1.8495 H   0  0  0  0  0  0  0  0  0  0  0  0
    4.8050    0.3540   -0.6618 H   0  0  0  0  0  0  0  0  0  0  0  0
    4.1874    2.2342    0.7847 H   0  0  0  0  0  0  0  0  0  0  0  0
    3.2074   -0.8099    1.6105 H   0  0  0  0  0  0  0  0  0  0  0  0
    4.1737   -2.6209    0.0012 H   0  0  0  0  0  0  0  0  0  0  0  0
  1  2  1  0
  2  3  1  0
  2  4  1  0
  4  5  1  0
  5  6  1  0
  6  7  1  0
  6  8  1  0
  8  9  1  0
  8 10  1  0
 10 11  1  0
 11 12  1  0
 12 13  1  0
  9 14  1  0
 12 14  1  0
 14 15  1  0
 16 17  1  0
 17 18  1  0
 17 19  1  0
 19 20  1  0
 20 21  1  0
 21 22  1  0
 21 23  1  0
 23 24  1  0
 23 25  1  0
 25 26  1  0
 26 27  1  0
 27 28  1  0
 24 29  1  0
 27 29  1  0
 29 30  1  0
  1 31  1  0
  1 32  1  0
  1 33  1  0
  2 34  1  0
  3 35  1  0
  3 36  1  0
  3 37  1  0
  4 38  1  0
  5 39  1  0
  5 40  1  0
  6 41  1  6
  7 42  1  0
  8 43  1  0
  9 44  1  0
  9 45  1  0
 10 46  1  0
 10 47  1  0
 11 48  1  0
 11 49  1  0
 12 50  1  0
 13 51  1  0
 14 52  1  0
 15 53  1  0
 16 54  1  0
 16 55  1  0
 16 56  1  0
 17 57  1  0
 18 58  1  0
 18 59  1  0
 18 60  1  0
 19 61  1  0
 20 62  1  0
 20 63  1  0
 21 64  1  6
 22 65  1  0
 23 66  1  0
 24 67  1  0
 24 68  1  0
 25 69  1  0
 25 70  1  0
 26 71  1  0
 26 72  1  0
 27 73  1  0
 28 74  1  0
 29 75  1  0
 30 76  1  0
M  END
>  <PDBID>  (1) 
2Y03

>  <PDB ID>  (1) 
2Y03

>  <Generic Name>  (1) 
Isoprenaline

>  <Brand Name>  (1) 
Isoproterenol HCl Inj 1:5000#Isoproterenol Hydrochloride Injection USP#Isuprel#Isuprel Inj 0.2mg/ml#Isuprel Liq 0.2mg/ml#Isuprel Liq 0.5%#Isuprel Liq Inh 0.5%#Isuprel Mistometer 125mcg/aem#Isuprel Mistometer Aem 0.25%#Medihaler-Iso#Proternol L#Saventrine

>  <DrugBank ID>  (1) 
DB01064

>  <ATC Codes>  (1) 
R03AK02#R03CB01#R03CB51#R03AB02#C01CA02

>  <Ligand ID>  (1) 
5FW

>  <Target Name>  (1) 
Beta-1 adrenergic receptor

>  <UniProt ID>  (1) 
P08588

>  <PDB ID.1>  (1) 
2Y03

>  <Seq. Identity>  (1) 
63%

$$$$
