PDB_DB01041_02
     RDKit          3D

172180  0  0  0  0  0  0  0  0999 V2000
   -2.3308    0.1669    2.3728 O   0  0  0  0  0  0  0  0  0  0  0  0
   -2.4036   -0.5568    1.1865 C   0  0  0  0  0  0  0  0  0  0  0  0
   -3.7378   -0.8555    0.8144 N   0  0  0  0  0  0  0  0  0  0  0  0
   -4.2868   -0.0720   -0.2460 C   0  0  0  0  0  0  0  0  0  0  0  0
   -4.7186    1.1845    0.2333 O   0  0  0  0  0  0  0  0  0  0  0  0
   -3.4218    0.0420   -1.4557 C   0  0  0  0  0  0  0  0  0  0  0  0
   -2.0159   -0.4430   -1.2099 C   0  0  0  0  0  0  0  0  0  0  0  0
   -1.5927    0.1536    0.1416 C   0  0  2  0  0  0  0  0  0  0  0  0
   -0.2271    0.1022    0.2467 N   0  0  0  0  0  0  0  0  0  0  0  0
    4.2316    0.6969    0.2190 C   0  0  0  0  0  0  0  0  0  0  0  0
    3.0329    1.5905    0.3803 C   0  0  0  0  0  0  0  0  0  0  0  0
    1.8399    0.8914   -0.1489 C   0  0  0  0  0  0  0  0  0  0  0  0
    1.9652   -0.5820    0.2752 C   0  0  0  0  0  0  0  0  0  0  0  0
    0.8934    1.1432    1.9735 O   0  0  0  0  0  0  0  0  0  0  0  0
    0.2957   -1.7080   -1.0417 O   0  0  0  0  0  0  0  0  0  0  0  0
    2.8916   -1.2284   -0.6801 C   0  0  0  0  0  0  0  0  0  0  0  0
    4.0773   -0.3138   -0.8924 C   0  0  0  0  0  0  0  0  0  0  0  0
    0.5259   -1.0683    0.1804 C   0  0  2  0  0  0  0  0  0  0  0  0
    0.5529    1.2134    0.6286 C   0  0  0  0  0  0  0  0  0  0  0  0
   -2.3308    0.1669    2.3728 O   0  0  0  0  0  0  0  0  0  0  0  0
   -2.4036   -0.5568    1.1865 C   0  0  0  0  0  0  0  0  0  0  0  0
   -3.7378   -0.8555    0.8144 N   0  0  0  0  0  0  0  0  0  0  0  0
   -4.2868   -0.0720   -0.2460 C   0  0  0  0  0  0  0  0  0  0  0  0
   -4.7186    1.1845    0.2333 O   0  0  0  0  0  0  0  0  0  0  0  0
   -3.4218    0.0420   -1.4557 C   0  0  0  0  0  0  0  0  0  0  0  0
   -2.0159   -0.4430   -1.2099 C   0  0  0  0  0  0  0  0  0  0  0  0
   -1.5927    0.1536    0.1416 C   0  0  2  0  0  0  0  0  0  0  0  0
   -0.2271    0.1022    0.2467 N   0  0  0  0  0  0  0  0  0  0  0  0
    4.2316    0.6969    0.2190 C   0  0  0  0  0  0  0  0  0  0  0  0
    3.0329    1.5905    0.3803 C   0  0  0  0  0  0  0  0  0  0  0  0
    1.8399    0.8914   -0.1489 C   0  0  0  0  0  0  0  0  0  0  0  0
    1.9652   -0.5820    0.2752 C   0  0  0  0  0  0  0  0  0  0  0  0
    0.8934    1.1432    1.9735 O   0  0  0  0  0  0  0  0  0  0  0  0
    0.2957   -1.7080   -1.0417 O   0  0  0  0  0  0  0  0  0  0  0  0
    2.8916   -1.2284   -0.6801 C   0  0  0  0  0  0  0  0  0  0  0  0
    4.0773   -0.3138   -0.8924 C   0  0  0  0  0  0  0  0  0  0  0  0
    0.5259   -1.0683    0.1804 C   0  0  2  0  0  0  0  0  0  0  0  0
    0.5529    1.2134    0.6286 C   0  0  0  0  0  0  0  0  0  0  0  0
    2.7035    1.9957   -0.0413 O   0  0  0  0  0  0  0  0  0  0  0  0
    2.2578    0.9435   -0.8757 C   0  0  0  0  0  0  0  0  0  0  0  0
    3.4521    0.4022   -1.4944 N   0  0  0  0  0  0  0  0  0  0  0  0
    4.3544   -0.1558   -0.5211 C   0  0  0  0  0  0  0  0  0  0  0  0
    4.6146    0.6843    0.5386 O   0  0  0  0  0  0  0  0  0  0  0  0
    3.6686   -1.3928    0.0488 C   0  0  0  0  0  0  0  0  0  0  0  0
    2.2057   -1.4196   -0.2371 C   0  0  0  0  0  0  0  0  0  0  0  0
    1.5323   -0.0564   -0.0116 C   0  0  2  0  0  0  0  0  0  0  0  0
    0.1663   -0.2319   -0.3770 N   0  0  0  0  0  0  0  0  0  0  0  0
   -4.3064    0.3742   -0.5901 C   0  0  0  0  0  0  0  0  0  0  0  0
   -3.0389    0.9508   -1.2247 C   0  0  0  0  0  0  0  0  0  0  0  0
   -1.9471    0.7597   -0.2093 C   0  0  0  0  0  0  0  0  0  0  0  0
   -1.9997   -0.7351    0.1475 C   0  0  0  0  0  0  0  0  0  0  0  0
   -0.0080    2.0469   -0.0532 O   0  0  0  0  0  0  0  0  0  0  0  0
   -0.3724   -0.5159    1.8979 O   0  0  0  0  0  0  0  0  0  0  0  0
   -3.0450   -0.8771    1.1971 C   0  0  0  0  0  0  0  0  0  0  0  0
   -4.1351    0.1552    0.8945 C   0  0  0  0  0  0  0  0  0  0  0  0
   -0.5943   -0.9730    0.6037 C   0  0  0  0  0  0  0  0  0  0  0  0
   -0.5627    0.9398   -0.7375 C   0  0  0  0  0  0  0  0  0  0  0  0
   -2.3308    0.1669    2.3728 O   0  0  0  0  0  0  0  0  0  0  0  0
   -2.4036   -0.5568    1.1865 C   0  0  0  0  0  0  0  0  0  0  0  0
   -3.7378   -0.8555    0.8144 N   0  0  0  0  0  0  0  0  0  0  0  0
   -4.2868   -0.0720   -0.2460 C   0  0  0  0  0  0  0  0  0  0  0  0
   -4.7186    1.1845    0.2333 O   0  0  0  0  0  0  0  0  0  0  0  0
   -3.4218    0.0420   -1.4557 C   0  0  0  0  0  0  0  0  0  0  0  0
   -2.0159   -0.4430   -1.2099 C   0  0  0  0  0  0  0  0  0  0  0  0
   -1.5927    0.1536    0.1416 C   0  0  2  0  0  0  0  0  0  0  0  0
   -0.2271    0.1022    0.2467 N   0  0  0  0  0  0  0  0  0  0  0  0
    4.2316    0.6969    0.2190 C   0  0  0  0  0  0  0  0  0  0  0  0
    3.0329    1.5905    0.3803 C   0  0  0  0  0  0  0  0  0  0  0  0
    1.8399    0.8914   -0.1489 C   0  0  0  0  0  0  0  0  0  0  0  0
    1.9652   -0.5820    0.2752 C   0  0  0  0  0  0  0  0  0  0  0  0
    0.8934    1.1432    1.9735 O   0  0  0  0  0  0  0  0  0  0  0  0
    0.2957   -1.7080   -1.0417 O   0  0  0  0  0  0  0  0  0  0  0  0
    2.8916   -1.2284   -0.6801 C   0  0  0  0  0  0  0  0  0  0  0  0
    4.0773   -0.3138   -0.8924 C   0  0  0  0  0  0  0  0  0  0  0  0
    0.5259   -1.0683    0.1804 C   0  0  2  0  0  0  0  0  0  0  0  0
    0.5529    1.2134    0.6286 C   0  0  0  0  0  0  0  0  0  0  0  0
   -2.0744   -0.3872    3.1516 H   0  0  0  0  0  0  0  0  0  0  0  0
   -1.8839   -1.5434    1.3694 H   0  0  0  0  0  0  0  0  0  0  0  0
   -4.3544   -0.6915    1.6635 H   0  0  0  0  0  0  0  0  0  0  0  0
   -5.2330   -0.5924   -0.5746 H   0  0  0  0  0  0  0  0  0  0  0  0
   -5.5080    1.1112    0.7957 H   0  0  0  0  0  0  0  0  0  0  0  0
   -3.3439    1.1380   -1.7128 H   0  0  0  0  0  0  0  0  0  0  0  0
   -3.8144   -0.4552   -2.3551 H   0  0  0  0  0  0  0  0  0  0  0  0
   -2.0623   -1.5461   -1.0533 H   0  0  0  0  0  0  0  0  0  0  0  0
   -1.3566   -0.1298   -2.0178 H   0  0  0  0  0  0  0  0  0  0  0  0
   -1.9679    1.2081    0.1056 H   0  0  0  0  0  0  0  0  0  0  0  0
    4.5717    0.2334    1.1544 H   0  0  0  0  0  0  0  0  0  0  0  0
    5.0785    1.3692   -0.1075 H   0  0  0  0  0  0  0  0  0  0  0  0
    2.8936    1.7849    1.4596 H   0  0  0  0  0  0  0  0  0  0  0  0
    3.1625    2.5735   -0.1276 H   0  0  0  0  0  0  0  0  0  0  0  0
    1.6762    0.9640   -1.2253 H   0  0  0  0  0  0  0  0  0  0  0  0
    2.3570   -0.5974    1.2968 H   0  0  0  0  0  0  0  0  0  0  0  0
    0.5132    1.8783    2.5176 H   0  0  0  0  0  0  0  0  0  0  0  0
    0.5549   -2.6558   -1.0298 H   0  0  0  0  0  0  0  0  0  0  0  0
    2.3755   -1.3309   -1.6692 H   0  0  0  0  0  0  0  0  0  0  0  0
    3.1960   -2.2598   -0.3873 H   0  0  0  0  0  0  0  0  0  0  0  0
    4.9932   -0.9719   -0.8250 H   0  0  0  0  0  0  0  0  0  0  0  0
    4.1152    0.1385   -1.8855 H   0  0  0  0  0  0  0  0  0  0  0  0
    0.4017   -1.7790    1.0374 H   0  0  0  0  0  0  0  0  0  0  0  0
    0.1384    2.1846    0.3305 H   0  0  0  0  0  0  0  0  0  0  0  0
   -2.0744   -0.3872    3.1516 H   0  0  0  0  0  0  0  0  0  0  0  0
   -1.8839   -1.5434    1.3694 H   0  0  0  0  0  0  0  0  0  0  0  0
   -4.3544   -0.6915    1.6635 H   0  0  0  0  0  0  0  0  0  0  0  0
   -5.2330   -0.5924   -0.5746 H   0  0  0  0  0  0  0  0  0  0  0  0
   -5.5080    1.1112    0.7957 H   0  0  0  0  0  0  0  0  0  0  0  0
   -3.3439    1.1380   -1.7128 H   0  0  0  0  0  0  0  0  0  0  0  0
   -3.8144   -0.4552   -2.3551 H   0  0  0  0  0  0  0  0  0  0  0  0
   -2.0623   -1.5461   -1.0533 H   0  0  0  0  0  0  0  0  0  0  0  0
   -1.3566   -0.1298   -2.0178 H   0  0  0  0  0  0  0  0  0  0  0  0
   -1.9679    1.2081    0.1056 H   0  0  0  0  0  0  0  0  0  0  0  0
    4.5717    0.2334    1.1544 H   0  0  0  0  0  0  0  0  0  0  0  0
    5.0785    1.3692   -0.1075 H   0  0  0  0  0  0  0  0  0  0  0  0
    2.8936    1.7849    1.4596 H   0  0  0  0  0  0  0  0  0  0  0  0
    3.1625    2.5735   -0.1276 H   0  0  0  0  0  0  0  0  0  0  0  0
    1.6762    0.9640   -1.2253 H   0  0  0  0  0  0  0  0  0  0  0  0
    2.3570   -0.5974    1.2968 H   0  0  0  0  0  0  0  0  0  0  0  0
    0.5132    1.8783    2.5176 H   0  0  0  0  0  0  0  0  0  0  0  0
    0.5549   -2.6558   -1.0298 H   0  0  0  0  0  0  0  0  0  0  0  0
    2.3755   -1.3309   -1.6692 H   0  0  0  0  0  0  0  0  0  0  0  0
    3.1960   -2.2598   -0.3873 H   0  0  0  0  0  0  0  0  0  0  0  0
    4.9932   -0.9719   -0.8250 H   0  0  0  0  0  0  0  0  0  0  0  0
    4.1152    0.1385   -1.8855 H   0  0  0  0  0  0  0  0  0  0  0  0
    0.4017   -1.7790    1.0374 H   0  0  0  0  0  0  0  0  0  0  0  0
    0.1384    2.1846    0.3305 H   0  0  0  0  0  0  0  0  0  0  0  0
    2.5698    1.7626    0.9111 H   0  0  0  0  0  0  0  0  0  0  0  0
    1.6172    1.3466   -1.6842 H   0  0  0  0  0  0  0  0  0  0  0  0
    3.2861   -0.2767   -2.2412 H   0  0  0  0  0  0  0  0  0  0  0  0
    5.2971   -0.3963   -1.0331 H   0  0  0  0  0  0  0  0  0  0  0  0
    5.0529    1.5225    0.3176 H   0  0  0  0  0  0  0  0  0  0  0  0
    3.8582   -1.5126    1.1331 H   0  0  0  0  0  0  0  0  0  0  0  0
    4.1266   -2.2653   -0.5008 H   0  0  0  0  0  0  0  0  0  0  0  0
    1.7145   -2.1530    0.4333 H   0  0  0  0  0  0  0  0  0  0  0  0
    2.0176   -1.7634   -1.2768 H   0  0  0  0  0  0  0  0  0  0  0  0
    1.6472    0.1884    1.0512 H   0  0  0  0  0  0  0  0  0  0  0  0
   -4.6206   -0.5648   -1.0545 H   0  0  0  0  0  0  0  0  0  0  0  0
   -5.1014    1.1068   -0.7243 H   0  0  0  0  0  0  0  0  0  0  0  0
   -3.1752    1.9768   -1.5671 H   0  0  0  0  0  0  0  0  0  0  0  0
   -2.7907    0.2568   -2.0768 H   0  0  0  0  0  0  0  0  0  0  0  0
   -2.1485    1.3750    0.6959 H   0  0  0  0  0  0  0  0  0  0  0  0
   -2.2133   -1.3527   -0.7250 H   0  0  0  0  0  0  0  0  0  0  0  0
    0.0657    1.7174    0.8988 H   0  0  0  0  0  0  0  0  0  0  0  0
   -0.1136   -1.3039    2.4393 H   0  0  0  0  0  0  0  0  0  0  0  0
   -3.4710   -1.8916    1.2932 H   0  0  0  0  0  0  0  0  0  0  0  0
   -2.6114   -0.5859    2.1986 H   0  0  0  0  0  0  0  0  0  0  0  0
   -4.0064    1.0774    1.4730 H   0  0  0  0  0  0  0  0  0  0  0  0
   -5.0861   -0.3059    1.2467 H   0  0  0  0  0  0  0  0  0  0  0  0
   -0.3555   -2.0480    0.4944 H   0  0  0  0  0  0  0  0  0  0  0  0
   -0.5048    1.1951   -1.8087 H   0  0  0  0  0  0  0  0  0  0  0  0
   -2.0744   -0.3872    3.1516 H   0  0  0  0  0  0  0  0  0  0  0  0
   -1.8839   -1.5434    1.3694 H   0  0  0  0  0  0  0  0  0  0  0  0
   -4.3544   -0.6915    1.6635 H   0  0  0  0  0  0  0  0  0  0  0  0
   -5.2330   -0.5924   -0.5746 H   0  0  0  0  0  0  0  0  0  0  0  0
   -5.5080    1.1112    0.7957 H   0  0  0  0  0  0  0  0  0  0  0  0
   -3.3439    1.1380   -1.7128 H   0  0  0  0  0  0  0  0  0  0  0  0
   -3.8144   -0.4552   -2.3551 H   0  0  0  0  0  0  0  0  0  0  0  0
   -2.0623   -1.5461   -1.0533 H   0  0  0  0  0  0  0  0  0  0  0  0
   -1.3566   -0.1298   -2.0178 H   0  0  0  0  0  0  0  0  0  0  0  0
   -1.9679    1.2081    0.1056 H   0  0  0  0  0  0  0  0  0  0  0  0
    4.5717    0.2334    1.1544 H   0  0  0  0  0  0  0  0  0  0  0  0
    5.0785    1.3692   -0.1075 H   0  0  0  0  0  0  0  0  0  0  0  0
    2.8936    1.7849    1.4596 H   0  0  0  0  0  0  0  0  0  0  0  0
    3.1625    2.5735   -0.1276 H   0  0  0  0  0  0  0  0  0  0  0  0
    1.6762    0.9640   -1.2253 H   0  0  0  0  0  0  0  0  0  0  0  0
    2.3570   -0.5974    1.2968 H   0  0  0  0  0  0  0  0  0  0  0  0
    0.5132    1.8783    2.5176 H   0  0  0  0  0  0  0  0  0  0  0  0
    0.5549   -2.6558   -1.0298 H   0  0  0  0  0  0  0  0  0  0  0  0
    2.3755   -1.3309   -1.6692 H   0  0  0  0  0  0  0  0  0  0  0  0
    3.1960   -2.2598   -0.3873 H   0  0  0  0  0  0  0  0  0  0  0  0
    4.9932   -0.9719   -0.8250 H   0  0  0  0  0  0  0  0  0  0  0  0
    4.1152    0.1385   -1.8855 H   0  0  0  0  0  0  0  0  0  0  0  0
    0.4017   -1.7790    1.0374 H   0  0  0  0  0  0  0  0  0  0  0  0
    0.1384    2.1846    0.3305 H   0  0  0  0  0  0  0  0  0  0  0  0
  1  2  1  0
  2  3  1  0
  3  4  1  0
  4  5  1  0
  4  6  1  0
  6  7  1  0
  2  8  1  0
  7  8  1  0
  8  9  1  0
 10 11  1  0
 11 12  1  0
 12 13  1  0
 13 16  1  0
 10 17  1  0
 16 17  1  0
  9 18  1  0
 13 18  1  0
 15 18  1  0
  9 19  1  0
 12 19  1  0
 14 19  1  0
 20 21  1  0
 21 22  1  0
 22 23  1  0
 23 24  1  0
 23 25  1  0
 25 26  1  0
 21 27  1  0
 26 27  1  0
 27 28  1  0
 29 30  1  0
 30 31  1  0
 31 32  1  0
 32 35  1  0
 29 36  1  0
 35 36  1  0
 28 37  1  0
 32 37  1  0
 34 37  1  0
 28 38  1  0
 31 38  1  0
 33 38  1  0
 39 40  1  0
 40 41  1  0
 41 42  1  0
 42 43  1  0
 42 44  1  0
 44 45  1  0
 40 46  1  0
 45 46  1  0
 46 47  1  0
 48 49  1  0
 49 50  1  0
 50 51  1  0
 51 54  1  0
 48 55  1  0
 54 55  1  0
 47 56  1  0
 51 56  1  0
 53 56  1  0
 47 57  1  0
 50 57  1  0
 52 57  1  0
 58 59  1  0
 59 60  1  0
 60 61  1  0
 61 62  1  0
 61 63  1  0
 63 64  1  0
 59 65  1  0
 64 65  1  0
 65 66  1  0
 67 68  1  0
 68 69  1  0
 69 70  1  0
 70 73  1  0
 67 74  1  0
 73 74  1  0
 66 75  1  0
 70 75  1  0
 72 75  1  0
 66 76  1  0
 69 76  1  0
 71 76  1  0
  1 77  1  0
  2 78  1  0
  3 79  1  0
  4 80  1  0
  5 81  1  0
  6 82  1  0
  6 83  1  0
  7 84  1  0
  7 85  1  0
  8 86  1  6
 10 87  1  0
 10 88  1  0
 11 89  1  0
 11 90  1  0
 12 91  1  0
 13 92  1  0
 14 93  1  0
 15 94  1  0
 16 95  1  0
 16 96  1  0
 17 97  1  0
 17 98  1  0
 18 99  1  1
 19100  1  0
 20101  1  0
 21102  1  0
 22103  1  0
 23104  1  0
 24105  1  0
 25106  1  0
 25107  1  0
 26108  1  0
 26109  1  0
 27110  1  6
 29111  1  0
 29112  1  0
 30113  1  0
 30114  1  0
 31115  1  0
 32116  1  0
 33117  1  0
 34118  1  0
 35119  1  0
 35120  1  0
 36121  1  0
 36122  1  0
 37123  1  1
 38124  1  0
 39125  1  0
 40126  1  0
 41127  1  0
 42128  1  0
 43129  1  0
 44130  1  0
 44131  1  0
 45132  1  0
 45133  1  0
 46134  1  1
 48135  1  0
 48136  1  0
 49137  1  0
 49138  1  0
 50139  1  0
 51140  1  0
 52141  1  0
 53142  1  0
 54143  1  0
 54144  1  0
 55145  1  0
 55146  1  0
 56147  1  0
 57148  1  0
 58149  1  0
 59150  1  0
 60151  1  0
 61152  1  0
 62153  1  0
 63154  1  0
 63155  1  0
 64156  1  0
 64157  1  0
 65158  1  6
 67159  1  0
 67160  1  0
 68161  1  0
 68162  1  0
 69163  1  0
 70164  1  0
 71165  1  0
 72166  1  0
 73167  1  0
 73168  1  0
 74169  1  0
 74170  1  0
 75171  1  1
 76172  1  0
M  END
>  <PDBID>  (1) 
4TZC

>  <PDB ID>  (1) 
4TZC

>  <Generic Name>  (1) 
Thalidomide

>  <Brand Name>  (1) 
Thalomid#Contergan#Distaval#K-17#Pro-ban M#Sedalis#Softenon#Talimol#Thaled

>  <DrugBank ID>  (1) 
DB01041

>  <ATC Codes>  (1) 
L04AX02

>  <Ligand ID>  (1) 
EF2

>  <Target Name>  (1) 
Protein cereblon

>  <UniProt ID>  (1) 
Q96SW2

>  <PDB ID.1>  (1) 
4TZC

>  <Seq. Identity>  (1) 
97%

$$$$
