PDB_DB01204_01
     RDKit          3D

152156  0  0  0  0  0  0  0  0999 V2000
   -6.6112    4.1892   -0.7541 O   0  0  0  0  0  0  0  0  0  0  0  0
   -5.7518    3.0485   -0.9092 C   0  0  0  0  0  0  0  0  0  0  0  0
   -6.5979    1.8442   -0.6360 C   0  0  0  0  0  0  0  0  0  0  0  0
   -6.0360    0.5853   -0.7387 N   0  0  0  0  0  0  0  0  0  0  0  0
   -5.0811    0.0401    0.0970 C   0  0  0  0  0  0  0  0  0  0  0  0
   -3.6601    0.5619    0.0161 C   0  0  0  0  0  0  0  0  0  0  0  0
   -2.8708   -0.1722    0.9994 N   0  0  0  0  0  0  0  0  0  0  0  0
   -1.4767    0.1649    1.0019 C   0  0  0  0  0  0  0  0  0  0  0  0
   -1.1717    1.5867    1.2660 C   0  0  0  0  0  0  0  0  0  0  0  0
    0.0946    1.9798    0.5158 C   0  0  0  0  0  0  0  0  0  0  0  0
   -0.8323   -0.4467   -0.2247 C   0  0  0  0  0  0  0  0  0  0  0  0
   -1.3163   -1.8599   -0.2900 C   0  0  0  0  0  0  0  0  0  0  0  0
   -2.1280   -2.0725   -1.4390 O   0  0  0  0  0  0  0  0  0  0  0  0
   -0.3294   -2.9439   -0.2777 C   0  0  0  0  0  0  0  0  0  0  0  0
   -0.8350   -4.1197    0.5747 C   0  0  0  0  0  0  0  0  0  0  0  0
   -2.1904   -4.2680    0.5452 O   0  0  0  0  0  0  0  0  0  0  0  0
   -0.0364   -5.3252    0.1544 C   0  0  0  0  0  0  0  0  0  0  0  0
    1.4120   -5.0744    0.5049 C   0  0  0  0  0  0  0  0  0  0  0  0
    1.9058   -3.8048   -0.1710 C   0  0  0  0  0  0  0  0  0  0  0  0
    1.6220   -3.9711   -1.5450 O   0  0  0  0  0  0  0  0  0  0  0  0
    1.0256   -2.6313    0.2891 C   0  0  0  0  0  0  0  0  0  0  0  0
    1.5293   -1.3926   -0.3390 C   0  0  0  0  0  0  0  0  0  0  0  0
    1.9400   -1.7232   -1.6487 O   0  0  0  0  0  0  0  0  0  0  0  0
    0.6372   -0.2140   -0.3376 C   0  0  0  0  0  0  0  0  0  0  0  0
    1.0751    0.7841    0.6987 C   0  0  0  0  0  0  0  0  0  0  0  0
    2.4078    1.2396    0.6662 N   0  0  0  0  0  0  0  0  0  0  0  0
    2.9174    1.8211   -0.5180 C   0  0  0  0  0  0  0  0  0  0  0  0
    4.2076    2.5516   -0.0990 C   0  0  0  0  0  0  0  0  0  0  0  0
    4.8715    3.1787   -1.1985 N   0  0  0  0  0  0  0  0  0  0  0  0
    5.9257    4.0223   -0.7052 C   0  0  0  0  0  0  0  0  0  0  0  0
    7.0709    3.3122   -0.0490 C   0  0  0  0  0  0  0  0  0  0  0  0
    8.0301    4.2551    0.3855 O   0  0  0  0  0  0  0  0  0  0  0  0
   -6.6112    4.1892   -0.7541 O   0  0  0  0  0  0  0  0  0  0  0  0
   -5.7518    3.0485   -0.9092 C   0  0  0  0  0  0  0  0  0  0  0  0
   -6.5979    1.8442   -0.6360 C   0  0  0  0  0  0  0  0  0  0  0  0
   -6.0360    0.5853   -0.7387 N   0  0  0  0  0  0  0  0  0  0  0  0
   -5.0811    0.0401    0.0970 C   0  0  0  0  0  0  0  0  0  0  0  0
   -3.6601    0.5619    0.0161 C   0  0  0  0  0  0  0  0  0  0  0  0
   -2.8708   -0.1722    0.9994 N   0  0  0  0  0  0  0  0  0  0  0  0
   -1.4767    0.1649    1.0019 C   0  0  0  0  0  0  0  0  0  0  0  0
   -1.1717    1.5867    1.2660 C   0  0  0  0  0  0  0  0  0  0  0  0
    0.0946    1.9798    0.5158 C   0  0  0  0  0  0  0  0  0  0  0  0
   -0.8323   -0.4467   -0.2247 C   0  0  0  0  0  0  0  0  0  0  0  0
   -1.3163   -1.8599   -0.2900 C   0  0  0  0  0  0  0  0  0  0  0  0
   -2.1280   -2.0725   -1.4390 O   0  0  0  0  0  0  0  0  0  0  0  0
   -0.3294   -2.9439   -0.2777 C   0  0  0  0  0  0  0  0  0  0  0  0
   -0.8350   -4.1197    0.5747 C   0  0  0  0  0  0  0  0  0  0  0  0
   -2.1904   -4.2680    0.5452 O   0  0  0  0  0  0  0  0  0  0  0  0
   -0.0364   -5.3252    0.1544 C   0  0  0  0  0  0  0  0  0  0  0  0
    1.4120   -5.0744    0.5049 C   0  0  0  0  0  0  0  0  0  0  0  0
    1.9058   -3.8048   -0.1710 C   0  0  0  0  0  0  0  0  0  0  0  0
    1.6220   -3.9711   -1.5450 O   0  0  0  0  0  0  0  0  0  0  0  0
    1.0256   -2.6313    0.2891 C   0  0  0  0  0  0  0  0  0  0  0  0
    1.5293   -1.3926   -0.3390 C   0  0  0  0  0  0  0  0  0  0  0  0
    1.9400   -1.7232   -1.6487 O   0  0  0  0  0  0  0  0  0  0  0  0
    0.6372   -0.2140   -0.3376 C   0  0  0  0  0  0  0  0  0  0  0  0
    1.0751    0.7841    0.6987 C   0  0  0  0  0  0  0  0  0  0  0  0
    2.4078    1.2396    0.6662 N   0  0  0  0  0  0  0  0  0  0  0  0
    2.9174    1.8211   -0.5180 C   0  0  0  0  0  0  0  0  0  0  0  0
    4.2076    2.5516   -0.0990 C   0  0  0  0  0  0  0  0  0  0  0  0
    4.8715    3.1787   -1.1985 N   0  0  0  0  0  0  0  0  0  0  0  0
    5.9257    4.0223   -0.7052 C   0  0  0  0  0  0  0  0  0  0  0  0
    7.0709    3.3122   -0.0490 C   0  0  0  0  0  0  0  0  0  0  0  0
    8.0301    4.2551    0.3855 O   0  0  0  0  0  0  0  0  0  0  0  0
   -7.0505    3.9902    0.1278 H   0  0  0  0  0  0  0  0  0  0  0  0
   -5.3460    2.9926   -1.9241 H   0  0  0  0  0  0  0  0  0  0  0  0
   -4.9554    3.2492   -0.1516 H   0  0  0  0  0  0  0  0  0  0  0  0
   -7.0671    1.9763    0.4164 H   0  0  0  0  0  0  0  0  0  0  0  0
   -7.5210    1.9701   -1.3041 H   0  0  0  0  0  0  0  0  0  0  0  0
   -6.2637    0.0389   -1.6101 H   0  0  0  0  0  0  0  0  0  0  0  0
   -5.0077   -1.0830   -0.0980 H   0  0  0  0  0  0  0  0  0  0  0  0
   -5.4363    0.0533    1.1719 H   0  0  0  0  0  0  0  0  0  0  0  0
   -3.2929    0.4594   -1.0114 H   0  0  0  0  0  0  0  0  0  0  0  0
   -3.6709    1.5920    0.3886 H   0  0  0  0  0  0  0  0  0  0  0  0
   -3.3294   -0.1247    1.9109 H   0  0  0  0  0  0  0  0  0  0  0  0
   -1.0907   -0.4080    1.9280 H   0  0  0  0  0  0  0  0  0  0  0  0
   -1.9702    2.3213    1.0058 H   0  0  0  0  0  0  0  0  0  0  0  0
   -0.9841    1.7450    2.3434 H   0  0  0  0  0  0  0  0  0  0  0  0
   -0.1725    1.9830   -0.5481 H   0  0  0  0  0  0  0  0  0  0  0  0
    0.5830    2.8751    0.9021 H   0  0  0  0  0  0  0  0  0  0  0  0
   -1.3179    0.0977   -1.0888 H   0  0  0  0  0  0  0  0  0  0  0  0
   -2.0605   -2.0774    0.5394 H   0  0  0  0  0  0  0  0  0  0  0  0
   -1.9760   -1.2836   -2.0227 H   0  0  0  0  0  0  0  0  0  0  0  0
   -0.1806   -3.3696   -1.3086 H   0  0  0  0  0  0  0  0  0  0  0  0
   -0.5344   -3.8826    1.6383 H   0  0  0  0  0  0  0  0  0  0  0  0
   -2.5433   -4.5125   -0.3233 H   0  0  0  0  0  0  0  0  0  0  0  0
   -0.4031   -6.1807    0.7689 H   0  0  0  0  0  0  0  0  0  0  0  0
   -0.1697   -5.5177   -0.9196 H   0  0  0  0  0  0  0  0  0  0  0  0
    1.4778   -4.9139    1.5872 H   0  0  0  0  0  0  0  0  0  0  0  0
    2.0341   -5.9280    0.1548 H   0  0  0  0  0  0  0  0  0  0  0  0
    2.9583   -3.6368    0.0335 H   0  0  0  0  0  0  0  0  0  0  0  0
    1.7586   -4.9431   -1.7917 H   0  0  0  0  0  0  0  0  0  0  0  0
    0.9796   -2.6279    1.3837 H   0  0  0  0  0  0  0  0  0  0  0  0
    2.4893   -1.1057    0.1875 H   0  0  0  0  0  0  0  0  0  0  0  0
    1.3971   -1.1822   -2.2689 H   0  0  0  0  0  0  0  0  0  0  0  0
    0.8586    0.3242   -1.3182 H   0  0  0  0  0  0  0  0  0  0  0  0
    0.9035    0.3540    1.7312 H   0  0  0  0  0  0  0  0  0  0  0  0
    2.6237    1.7660    1.5187 H   0  0  0  0  0  0  0  0  0  0  0  0
    2.3063    2.5509   -1.0384 H   0  0  0  0  0  0  0  0  0  0  0  0
    3.2556    0.9724   -1.1833 H   0  0  0  0  0  0  0  0  0  0  0  0
    4.8539    1.8595    0.4386 H   0  0  0  0  0  0  0  0  0  0  0  0
    3.8310    3.2972    0.6630 H   0  0  0  0  0  0  0  0  0  0  0  0
    5.2805    2.4620   -1.8262 H   0  0  0  0  0  0  0  0  0  0  0  0
    5.4818    4.7056    0.0606 H   0  0  0  0  0  0  0  0  0  0  0  0
    6.3453    4.6729   -1.5307 H   0  0  0  0  0  0  0  0  0  0  0  0
    7.5765    2.5506   -0.6621 H   0  0  0  0  0  0  0  0  0  0  0  0
    6.7299    2.7528    0.8726 H   0  0  0  0  0  0  0  0  0  0  0  0
    8.8725    4.0195   -0.0539 H   0  0  0  0  0  0  0  0  0  0  0  0
   -7.0505    3.9902    0.1278 H   0  0  0  0  0  0  0  0  0  0  0  0
   -5.3460    2.9926   -1.9241 H   0  0  0  0  0  0  0  0  0  0  0  0
   -4.9554    3.2492   -0.1516 H   0  0  0  0  0  0  0  0  0  0  0  0
   -7.0671    1.9763    0.4164 H   0  0  0  0  0  0  0  0  0  0  0  0
   -7.5210    1.9701   -1.3041 H   0  0  0  0  0  0  0  0  0  0  0  0
   -6.2637    0.0389   -1.6101 H   0  0  0  0  0  0  0  0  0  0  0  0
   -5.0077   -1.0830   -0.0980 H   0  0  0  0  0  0  0  0  0  0  0  0
   -5.4363    0.0533    1.1719 H   0  0  0  0  0  0  0  0  0  0  0  0
   -3.2929    0.4594   -1.0114 H   0  0  0  0  0  0  0  0  0  0  0  0
   -3.6709    1.5920    0.3886 H   0  0  0  0  0  0  0  0  0  0  0  0
   -3.3294   -0.1247    1.9109 H   0  0  0  0  0  0  0  0  0  0  0  0
   -1.0907   -0.4080    1.9280 H   0  0  0  0  0  0  0  0  0  0  0  0
   -1.9702    2.3213    1.0058 H   0  0  0  0  0  0  0  0  0  0  0  0
   -0.9841    1.7450    2.3434 H   0  0  0  0  0  0  0  0  0  0  0  0
   -0.1725    1.9830   -0.5481 H   0  0  0  0  0  0  0  0  0  0  0  0
    0.5830    2.8751    0.9021 H   0  0  0  0  0  0  0  0  0  0  0  0
   -1.3179    0.0977   -1.0888 H   0  0  0  0  0  0  0  0  0  0  0  0
   -2.0605   -2.0774    0.5394 H   0  0  0  0  0  0  0  0  0  0  0  0
   -1.9760   -1.2836   -2.0227 H   0  0  0  0  0  0  0  0  0  0  0  0
   -0.1806   -3.3696   -1.3086 H   0  0  0  0  0  0  0  0  0  0  0  0
   -0.5344   -3.8826    1.6383 H   0  0  0  0  0  0  0  0  0  0  0  0
   -2.5433   -4.5125   -0.3233 H   0  0  0  0  0  0  0  0  0  0  0  0
   -0.4031   -6.1807    0.7689 H   0  0  0  0  0  0  0  0  0  0  0  0
   -0.1697   -5.5177   -0.9196 H   0  0  0  0  0  0  0  0  0  0  0  0
    1.4778   -4.9139    1.5872 H   0  0  0  0  0  0  0  0  0  0  0  0
    2.0341   -5.9280    0.1548 H   0  0  0  0  0  0  0  0  0  0  0  0
    2.9583   -3.6368    0.0335 H   0  0  0  0  0  0  0  0  0  0  0  0
    1.7586   -4.9431   -1.7917 H   0  0  0  0  0  0  0  0  0  0  0  0
    0.9796   -2.6279    1.3837 H   0  0  0  0  0  0  0  0  0  0  0  0
    2.4893   -1.1057    0.1875 H   0  0  0  0  0  0  0  0  0  0  0  0
    1.3971   -1.1822   -2.2689 H   0  0  0  0  0  0  0  0  0  0  0  0
    0.8586    0.3242   -1.3182 H   0  0  0  0  0  0  0  0  0  0  0  0
    0.9035    0.3540    1.7312 H   0  0  0  0  0  0  0  0  0  0  0  0
    2.6237    1.7660    1.5187 H   0  0  0  0  0  0  0  0  0  0  0  0
    2.3063    2.5509   -1.0384 H   0  0  0  0  0  0  0  0  0  0  0  0
    3.2556    0.9724   -1.1833 H   0  0  0  0  0  0  0  0  0  0  0  0
    4.8539    1.8595    0.4386 H   0  0  0  0  0  0  0  0  0  0  0  0
    3.8310    3.2972    0.6630 H   0  0  0  0  0  0  0  0  0  0  0  0
    5.2805    2.4620   -1.8262 H   0  0  0  0  0  0  0  0  0  0  0  0
    5.4818    4.7056    0.0606 H   0  0  0  0  0  0  0  0  0  0  0  0
    6.3453    4.6729   -1.5307 H   0  0  0  0  0  0  0  0  0  0  0  0
    7.5765    2.5506   -0.6621 H   0  0  0  0  0  0  0  0  0  0  0  0
    6.7299    2.7528    0.8726 H   0  0  0  0  0  0  0  0  0  0  0  0
    8.8725    4.0195   -0.0539 H   0  0  0  0  0  0  0  0  0  0  0  0
  1  2  1  0
  2  3  1  0
  3  4  1  0
  4  5  1  0
  5  6  1  0
  6  7  1  0
  7  8  1  0
  8  9  1  0
  9 10  1  0
  8 11  1  0
 11 12  1  0
 12 13  1  0
 12 14  1  0
 14 15  1  0
 15 16  1  0
 15 17  1  0
 17 18  1  0
 18 19  1  0
 19 20  1  0
 14 21  1  0
 19 21  1  0
 21 22  1  0
 22 23  1  0
 11 24  1  0
 22 24  1  0
 10 25  1  0
 24 25  1  0
 25 26  1  0
 26 27  1  0
 27 28  1  0
 28 29  1  0
 29 30  1  0
 30 31  1  0
 31 32  1  0
 33 34  1  0
 34 35  1  0
 35 36  1  0
 36 37  1  0
 37 38  1  0
 38 39  1  0
 39 40  1  0
 40 41  1  0
 41 42  1  0
 40 43  1  0
 43 44  1  0
 44 45  1  0
 44 46  1  0
 46 47  1  0
 47 48  1  0
 47 49  1  0
 49 50  1  0
 50 51  1  0
 51 52  1  0
 46 53  1  0
 51 53  1  0
 53 54  1  0
 54 55  1  0
 43 56  1  0
 54 56  1  0
 42 57  1  0
 56 57  1  0
 57 58  1  0
 58 59  1  0
 59 60  1  0
 60 61  1  0
 61 62  1  0
 62 63  1  0
 63 64  1  0
  1 65  1  0
  2 66  1  0
  2 67  1  0
  3 68  1  0
  3 69  1  0
  4 70  1  0
  5 71  1  0
  5 72  1  0
  6 73  1  0
  6 74  1  0
  7 75  1  0
  8 76  1  0
  9 77  1  0
  9 78  1  0
 10 79  1  0
 10 80  1  0
 11 81  1  0
 12 82  1  0
 13 83  1  0
 14 84  1  0
 15 85  1  0
 16 86  1  0
 17 87  1  0
 17 88  1  0
 18 89  1  0
 18 90  1  0
 19 91  1  0
 20 92  1  0
 21 93  1  0
 22 94  1  0
 23 95  1  0
 24 96  1  0
 25 97  1  0
 26 98  1  0
 27 99  1  0
 27100  1  0
 28101  1  0
 28102  1  0
 29103  1  0
 30104  1  0
 30105  1  0
 31106  1  0
 31107  1  0
 32108  1  0
 33109  1  0
 34110  1  0
 34111  1  0
 35112  1  0
 35113  1  0
 36114  1  0
 37115  1  0
 37116  1  0
 38117  1  0
 38118  1  0
 39119  1  0
 40120  1  0
 41121  1  0
 41122  1  0
 42123  1  0
 42124  1  0
 43125  1  0
 44126  1  0
 45127  1  0
 46128  1  0
 47129  1  0
 48130  1  0
 49131  1  0
 49132  1  0
 50133  1  0
 50134  1  0
 51135  1  0
 52136  1  0
 53137  1  0
 54138  1  0
 55139  1  0
 56140  1  0
 57141  1  0
 58142  1  0
 59143  1  0
 59144  1  0
 60145  1  0
 60146  1  0
 61147  1  0
 62148  1  0
 62149  1  0
 63150  1  0
 63151  1  0
 64152  1  0
M  END
>  <PDBID>  (1) 
4G0V

>  <PDB ID>  (1) 
4G0V

>  <Generic Name>  (1) 
Mitoxantrone

>  <Brand Name>  (1) 
Mitoxantrone#Mitoxantrone Hydrochloride#Mitoxantrone Injection#Mitoxantrone Injection USP#Novantrone#Novantrone Inj 2mg/ml

>  <DrugBank ID>  (1) 
DB01204

>  <ATC Codes>  (1) 
L01DB07

>  <Ligand ID>  (1) 
MIX

>  <Target Name>  (1) 
DNA topoisomerase 2-alpha

>  <UniProt ID>  (1) 
P11388

>  <PDB ID.1>  (1) 
4G0V

>  <Seq. Identity>  (1) 
78%

$$$$
