PDB_DB09053_09
     RDKit          3D

 81 85  0  0  0  0  0  0  0  0999 V2000
   -0.1103   -3.0867   -1.6572 N   0  0  0  0  0  0  0  0  0  0  0  0
   -0.8687   -3.8045   -0.6559 C   0  0  0  0  0  0  0  0  0  0  0  0
   -2.0575   -3.0321   -0.2305 N   0  0  0  0  0  0  0  0  0  0  0  0
   -1.7191   -1.6995   -0.5255 C   0  0  0  0  0  0  0  0  0  0  0  0
   -0.2841   -1.5057    0.0410 C   0  0  0  0  0  0  0  0  0  0  0  0
    0.5647   -1.9001   -1.0765 C   0  0  1  0  0  0  0  0  0  0  0  0
   -7.8411    3.0125    1.0790 C   0  0  0  0  0  0  0  0  0  0  0  0
    1.8992   -2.3556   -0.7804 N   0  0  0  0  0  0  0  0  0  0  0  0
   -5.1330    3.2108    0.1686 O   0  0  0  0  0  0  0  0  0  0  0  0
   -7.3417    2.6133   -0.2690 C   0  0  0  0  0  0  0  0  0  0  0  0
    8.0485   -0.2294   -1.4180 C   0  0  0  0  0  0  0  0  0  0  0  0
    8.0857    1.1035   -0.6968 C   0  0  0  0  0  0  0  0  0  0  0  0
    7.5997   -1.2677   -0.4343 C   0  0  0  0  0  0  0  0  0  0  0  0
    6.6482    1.4926   -0.4292 C   0  0  0  0  0  0  0  0  0  0  0  0
    6.7834   -0.6640    0.7108 C   0  0  0  0  0  0  0  0  0  0  0  0
    2.9623   -0.2096    1.7331 C   0  0  0  0  0  0  0  0  0  0  0  0
    2.7769    1.8724    0.5135 C   0  0  0  0  0  0  0  0  0  0  0  0
    1.5572    0.0920    2.0437 C   0  0  0  0  0  0  0  0  0  0  0  0
    1.4789    1.3648   -0.1386 C   0  0  0  0  0  0  0  0  0  0  0  0
   -5.8673   -0.7622   -1.1882 C   0  0  0  0  0  0  0  0  0  0  0  0
   -4.3838   -0.5470   -1.3222 C   0  0  0  0  0  0  0  0  0  0  0  0
   -6.3480   -0.1814    0.1199 C   0  0  0  0  0  0  0  0  0  0  0  0
   -4.2368    0.8131    0.6932 C   0  0  0  0  0  0  0  0  0  0  0  0
   -1.4873    0.4329   -0.1648 N   0  0  0  0  0  0  0  0  0  0  0  0
    4.9133    0.8401    0.9877 O   0  0  0  0  0  0  0  0  0  0  0  0
   -5.9293    2.1479   -0.2954 C   0  0  0  0  0  0  0  0  0  0  0  0
    5.8376    0.3349    0.1109 C   0  0  0  0  0  0  0  0  0  0  0  0
    3.6050    0.6066    0.6466 C   0  0  0  0  0  0  0  0  0  0  0  0
    0.7144    0.6959    0.9567 C   0  0  0  0  0  0  0  0  0  0  0  0
   -0.3799   -0.1902    0.5962 C   0  0  0  0  0  0  0  0  0  0  0  0
   -3.7140   -0.4414    0.0560 C   0  0  2  0  0  0  0  0  0  0  0  0
   -2.3795   -0.5984   -0.0742 N   0  0  0  0  0  0  0  0  0  0  0  0
   -5.6501    1.0025    0.5092 N   0  0  0  0  0  0  0  0  0  0  0  0
    0.5570   -3.7435   -2.0686 H   0  0  0  0  0  0  0  0  0  0  0  0
   -0.2811   -4.1678    0.1856 H   0  0  0  0  0  0  0  0  0  0  0  0
   -1.2745   -4.6986   -1.1735 H   0  0  0  0  0  0  0  0  0  0  0  0
   -2.9015   -3.3362   -0.7470 H   0  0  0  0  0  0  0  0  0  0  0  0
   -1.7094   -1.6310   -1.6582 H   0  0  0  0  0  0  0  0  0  0  0  0
   -0.0974   -2.2606    0.8668 H   0  0  0  0  0  0  0  0  0  0  0  0
    0.5487   -1.1941   -1.9491 H   0  0  0  0  0  0  0  0  0  0  0  0
   -7.1144    2.8535    1.8911 H   0  0  0  0  0  0  0  0  0  0  0  0
   -8.1147    4.1078    1.1194 H   0  0  0  0  0  0  0  0  0  0  0  0
   -8.8205    2.4908    1.2727 H   0  0  0  0  0  0  0  0  0  0  0  0
    1.9334   -3.1328   -0.1150 H   0  0  0  0  0  0  0  0  0  0  0  0
    2.4167   -2.5132   -1.6753 H   0  0  0  0  0  0  0  0  0  0  0  0
   -5.4930    4.0910   -0.1157 H   0  0  0  0  0  0  0  0  0  0  0  0
   -8.0480    1.8946   -0.7624 H   0  0  0  0  0  0  0  0  0  0  0  0
   -7.3907    3.5270   -0.9322 H   0  0  0  0  0  0  0  0  0  0  0  0
    9.0384   -0.4985   -1.8343 H   0  0  0  0  0  0  0  0  0  0  0  0
    7.3102   -0.0817   -2.2612 H   0  0  0  0  0  0  0  0  0  0  0  0
    8.6422    0.9806    0.2541 H   0  0  0  0  0  0  0  0  0  0  0  0
    8.5490    1.9048   -1.2976 H   0  0  0  0  0  0  0  0  0  0  0  0
    7.0181   -2.0417   -0.9805 H   0  0  0  0  0  0  0  0  0  0  0  0
    8.5323   -1.7509   -0.0335 H   0  0  0  0  0  0  0  0  0  0  0  0
    6.6363    2.2948    0.3341 H   0  0  0  0  0  0  0  0  0  0  0  0
    6.1561    1.8112   -1.3612 H   0  0  0  0  0  0  0  0  0  0  0  0
    6.2664   -1.5211    1.1891 H   0  0  0  0  0  0  0  0  0  0  0  0
    7.4952   -0.2331    1.4200 H   0  0  0  0  0  0  0  0  0  0  0  0
    3.0554   -1.3173    1.5146 H   0  0  0  0  0  0  0  0  0  0  0  0
    3.5661   -0.1151    2.6905 H   0  0  0  0  0  0  0  0  0  0  0  0
    2.5880    2.2604    1.5326 H   0  0  0  0  0  0  0  0  0  0  0  0
    3.2551    2.6537   -0.0706 H   0  0  0  0  0  0  0  0  0  0  0  0
    1.5436    0.7197    2.9891 H   0  0  0  0  0  0  0  0  0  0  0  0
    1.0613   -0.8620    2.3952 H   0  0  0  0  0  0  0  0  0  0  0  0
    0.9865    2.2684   -0.5531 H   0  0  0  0  0  0  0  0  0  0  0  0
    1.7919    0.7327   -0.9590 H   0  0  0  0  0  0  0  0  0  0  0  0
   -6.3695   -0.3339   -2.0630 H   0  0  0  0  0  0  0  0  0  0  0  0
   -6.1011   -1.8624   -1.1607 H   0  0  0  0  0  0  0  0  0  0  0  0
   -3.9687   -1.4704   -1.7849 H   0  0  0  0  0  0  0  0  0  0  0  0
   -4.1062    0.2864   -1.9802 H   0  0  0  0  0  0  0  0  0  0  0  0
   -6.1619   -0.9547    0.9105 H   0  0  0  0  0  0  0  0  0  0  0  0
   -7.4257    0.0125    0.1096 H   0  0  0  0  0  0  0  0  0  0  0  0
   -3.7355    1.7358    0.3512 H   0  0  0  0  0  0  0  0  0  0  0  0
   -4.0548    0.7455    1.7948 H   0  0  0  0  0  0  0  0  0  0  0  0
   -1.7476    1.3446    0.1908 H   0  0  0  0  0  0  0  0  0  0  0  0
   -5.6436    2.0195   -1.3697 H   0  0  0  0  0  0  0  0  0  0  0  0
    5.2758   -0.1648   -0.7088 H   0  0  0  0  0  0  0  0  0  0  0  0
    3.4922    0.0324   -0.3015 H   0  0  0  0  0  0  0  0  0  0  0  0
    0.2041    1.5831    1.4656 H   0  0  0  0  0  0  0  0  0  0  0  0
   -0.9327   -0.3292    1.5991 H   0  0  0  0  0  0  0  0  0  0  0  0
   -4.1715   -1.2958    0.6418 H   0  0  0  0  0  0  0  0  0  0  0  0
  1  2  1  0
  2  3  1  0
  3  4  1  0
  4  5  1  0
  1  6  1  0
  5  6  1  0
  6  8  1  0
  7 10  1  0
 11 12  1  0
 11 13  1  0
 12 14  1  0
 13 15  1  0
 16 18  1  0
 17 19  1  0
 20 21  1  0
 20 22  1  0
  9 26  1  0
 10 26  1  0
 14 27  1  0
 15 27  1  0
 25 27  1  0
 16 28  1  0
 17 28  1  0
 25 28  1  0
 18 29  1  0
 19 29  1  0
  5 30  1  0
 24 30  1  0
 29 30  1  0
 21 31  1  0
 23 31  1  0
  4 32  1  0
 24 32  1  0
 31 32  1  0
 22 33  1  0
 23 33  1  0
 26 33  1  0
  1 34  1  0
  2 35  1  0
  2 36  1  0
  3 37  1  0
  4 38  1  0
  5 39  1  0
  6 40  1  6
  7 41  1  0
  7 42  1  0
  7 43  1  0
  8 44  1  0
  8 45  1  0
  9 46  1  0
 10 47  1  0
 10 48  1  0
 11 49  1  0
 11 50  1  0
 12 51  1  0
 12 52  1  0
 13 53  1  0
 13 54  1  0
 14 55  1  0
 14 56  1  0
 15 57  1  0
 15 58  1  0
 16 59  1  0
 16 60  1  0
 17 61  1  0
 17 62  1  0
 18 63  1  0
 18 64  1  0
 19 65  1  0
 19 66  1  0
 20 67  1  0
 20 68  1  0
 21 69  1  0
 21 70  1  0
 22 71  1  0
 22 72  1  0
 23 73  1  0
 23 74  1  0
 24 75  1  0
 26 76  1  0
 27 77  1  0
 28 78  1  0
 29 79  1  0
 30 80  1  0
 31 81  1  1
M  END
>  <PDBID>  (1) 
5P9I

>  <PDB ID>  (1) 
5P9I

>  <Generic Name>  (1) 
Ibrutinib

>  <Brand Name>  (1) 
Imbruvica

>  <DrugBank ID>  (1) 
DB09053

>  <ATC Codes>  (1) 
L01XE27

>  <Ligand ID>  (1) 
100000000

>  <Target Name>  (1) 
Tyrosine-protein kinase BTK

>  <UniProt ID>  (1) 
Q06187

>  <PDB ID.1>  (1) 
5P9I

>  <Seq. Identity>  (1) 
100%

$$$$
