PDB_DB01144_05
     RDKit          3D

 32 32  0  0  0  0  0  0  0  0999 V2000
    2.7405    0.6226   -0.1892 S   0  0  0  0  0  0  0  0  0  0  0  0
    2.8308    2.1921   -0.6830 O   0  0  0  0  0  0  0  0  0  0  0  0
    3.6976   -0.1561   -1.4512 O   0  0  0  0  0  0  0  0  0  0  0  0
    3.3806    0.2813    1.1326 N   0  0  0  0  0  0  0  0  0  0  0  0
   -2.5770    0.7363    0.6474 S   0  0  0  0  0  0  0  0  0  0  0  0
   -3.7144   -0.5617    0.8084 O   0  0  0  0  0  0  0  0  0  0  0  0
   -2.4066    1.2535    2.2380 O   0  0  0  0  0  0  0  0  0  0  0  0
   -3.0781    1.7815   -0.2581 N   0  0  0  0  0  0  0  0  0  0  0  0
    1.1869    0.0384   -0.5530 C   0  0  0  0  0  0  0  0  0  0  0  0
    0.0617    0.7699    0.1072 C   0  0  0  0  0  0  0  0  0  0  0  0
   -1.1313   -0.1121    0.3113 C   0  0  0  0  0  0  0  0  0  0  0  0
   -1.2359   -1.0196   -0.9121 C   0  0  0  0  0  0  0  0  0  0  0  0
   -0.1529   -2.0658   -0.7767 C   0  0  0  0  0  0  0  0  0  0  0  0
    1.1341   -1.4638   -0.2553 C   0  0  0  0  0  0  0  0  0  0  0  0
   -2.8271   -1.8150   -0.9868 Cl  0  0  0  0  0  0  0  0  0  0  0  0
    0.0834   -2.9485   -2.2849 Cl  0  0  0  0  0  0  0  0  0  0  0  0
    2.2012    2.7343   -0.1430 H   0  0  0  0  0  0  0  0  0  0  0  0
    4.0611   -0.9804   -1.0441 H   0  0  0  0  0  0  0  0  0  0  0  0
    3.3172    0.9249    1.9465 H   0  0  0  0  0  0  0  0  0  0  0  0
    4.3792   -0.0838    1.1533 H   0  0  0  0  0  0  0  0  0  0  0  0
   -3.3026   -1.2228    1.4489 H   0  0  0  0  0  0  0  0  0  0  0  0
   -3.3454    1.4054    2.5693 H   0  0  0  0  0  0  0  0  0  0  0  0
   -3.4502    2.7140    0.0889 H   0  0  0  0  0  0  0  0  0  0  0  0
   -3.6389    1.5856   -1.1242 H   0  0  0  0  0  0  0  0  0  0  0  0
    1.0143    0.1066   -1.6675 H   0  0  0  0  0  0  0  0  0  0  0  0
   -0.2655    1.6057   -0.5731 H   0  0  0  0  0  0  0  0  0  0  0  0
    0.3712    1.1963    1.0827 H   0  0  0  0  0  0  0  0  0  0  0  0
   -0.9126   -0.7984    1.1746 H   0  0  0  0  0  0  0  0  0  0  0  0
   -1.1302   -0.4241   -1.8402 H   0  0  0  0  0  0  0  0  0  0  0  0
   -0.5060   -2.7759    0.0169 H   0  0  0  0  0  0  0  0  0  0  0  0
    1.2449   -1.6003    0.8312 H   0  0  0  0  0  0  0  0  0  0  0  0
    1.9700   -1.9204   -0.8149 H   0  0  0  0  0  0  0  0  0  0  0  0
  1  2  1  0
  1  3  1  0
  1  4  1  0
  5  6  1  0
  5  7  1  0
  5  8  1  0
  1  9  1  0
  9 10  1  0
  5 11  1  0
 10 11  1  0
 11 12  1  0
 12 13  1  0
  9 14  1  0
 13 14  1  0
 12 15  1  0
 13 16  1  0
  2 17  1  0
  3 18  1  0
  4 19  1  0
  4 20  1  0
  6 21  1  0
  7 22  1  0
  8 23  1  0
  8 24  1  0
  9 25  1  0
 10 26  1  0
 10 27  1  0
 11 28  1  0
 12 29  1  0
 13 30  1  0
 14 31  1  0
 14 32  1  0
M  END
>  <PDBID>  (1) 
2POU

>  <PDB ID>  (1) 
2POU

>  <Generic Name>  (1) 
Diclofenamide

>  <Brand Name>  (1) 
Daranide#Keveyis#Oratrol

>  <DrugBank ID>  (1) 
DB01144

>  <ATC Codes>  (1) 
S01EC02

>  <Ligand ID>  (1) 
I7A

>  <Target Name>  (1) 
Carbonic anhydrase 1

>  <UniProt ID>  (1) 
P00915

>  <PDB ID.1>  (1) 
2POU

>  <Seq. Identity>  (1) 
61%

$$$$
