PDB_DB01132_08
     RDKit          3D

122126  0  0  0  0  0  0  0  0999 V2000
    6.6766    1.0229   -0.9228 O   0  0  0  0  0  0  0  0  0  0  0  0
    5.9007    0.7411    0.1731 C   0  0  1  0  0  0  0  0  0  0  0  0
    5.8531    1.8985    1.0128 N   0  0  0  0  0  0  0  0  0  0  0  0
    4.4545    0.4176   -0.2325 C   0  0  2  0  0  0  0  0  0  0  0  0
    3.6462    0.7194    1.3929 S   0  0  0  0  0  0  0  0  0  0  0  0
    5.0840    1.5265    2.2111 C   0  0  0  0  0  0  0  0  0  0  0  0
    4.6458    2.6402    2.8881 O   0  0  0  0  0  0  0  0  0  0  0  0
    4.4194   -1.0311   -0.5890 C   0  0  0  0  0  0  0  0  0  0  0  0
   -4.0731    0.0692    1.9197 C   0  0  0  0  0  0  0  0  0  0  0  0
    3.0719   -1.5239   -1.0135 C   0  0  0  0  0  0  0  0  0  0  0  0
    2.0146   -1.3558    0.0570 C   0  0  0  0  0  0  0  0  0  0  0  0
    0.8000   -2.1535   -0.3858 C   0  0  0  0  0  0  0  0  0  0  0  0
    0.2968   -1.6315   -1.7139 C   0  0  0  0  0  0  0  0  0  0  0  0
    1.3936   -1.7734   -2.7715 C   0  0  0  0  0  0  0  0  0  0  0  0
    2.5588   -0.9192   -2.2792 C   0  0  0  0  0  0  0  0  0  0  0  0
   -0.2273   -0.3752   -1.6818 O   0  0  0  0  0  0  0  0  0  0  0  0
   -1.5195   -0.1929   -2.0417 C   0  0  0  0  0  0  0  0  0  0  0  0
   -2.4418   -0.8850   -1.0808 C   0  0  0  0  0  0  0  0  0  0  0  0
   -6.7689    1.9997    0.0409 C   0  0  0  0  0  0  0  0  0  0  0  0
   -5.9861    1.4692    1.2143 C   0  0  0  0  0  0  0  0  0  0  0  0
   -4.8506    0.5943    0.7182 C   0  0  0  0  0  0  0  0  0  0  0  0
   -3.9281    1.4367   -0.1337 C   0  0  0  0  0  0  0  0  0  0  0  0
   -2.5739    1.1723    0.2231 N   0  0  0  0  0  0  0  0  0  0  0  0
   -3.0373   -0.8968    1.3657 C   0  0  0  0  0  0  0  0  0  0  0  0
   -2.2484   -0.2422    0.2822 C   0  0  0  0  0  0  0  0  0  0  0  0
    6.3671   -2.3917    0.0557 O   0  0  0  0  0  0  0  0  0  0  0  0
    6.5834   -1.0470   -0.1787 C   0  0  0  0  0  0  0  0  0  0  0  0
    7.3988   -0.5486    0.9191 N   0  0  0  0  0  0  0  0  0  0  0  0
    5.2707   -0.2418   -0.0717 C   0  0  2  0  0  0  0  0  0  0  0  0
    5.0043   -0.5230    1.7310 S   0  0  0  0  0  0  0  0  0  0  0  0
    6.7427   -0.9577    2.1485 C   0  0  0  0  0  0  0  0  0  0  0  0
    7.2121   -0.1529    3.1820 O   0  0  0  0  0  0  0  0  0  0  0  0
    4.2171   -0.8685   -0.9030 C   0  0  0  0  0  0  0  0  0  0  0  0
   -4.5724   -0.1894    1.7111 C   0  0  0  0  0  0  0  0  0  0  0  0
    2.8871   -0.2180   -0.9364 C   0  0  0  0  0  0  0  0  0  0  0  0
    2.1671   -0.0807    0.3572 C   0  0  0  0  0  0  0  0  0  0  0  0
    0.9317    0.8066    0.1935 C   0  0  0  0  0  0  0  0  0  0  0  0
    0.5064    0.8569   -1.2434 C   0  0  0  0  0  0  0  0  0  0  0  0
    1.5813    1.4279   -2.1521 C   0  0  0  0  0  0  0  0  0  0  0  0
    2.9363    1.1841   -1.5485 C   0  0  0  0  0  0  0  0  0  0  0  0
   -0.7092    1.4982   -1.4707 O   0  0  0  0  0  0  0  0  0  0  0  0
   -1.6948    0.7459   -2.0203 C   0  0  0  0  0  0  0  0  0  0  0  0
   -2.1448   -0.3351   -1.0769 C   0  0  0  0  0  0  0  0  0  0  0  0
   -7.7417   -0.2501   -0.4100 C   0  0  0  0  0  0  0  0  0  0  0  0
   -6.9082   -0.0102    0.8305 C   0  0  0  0  0  0  0  0  0  0  0  0
   -5.4828   -0.3985    0.5197 C   0  0  0  0  0  0  0  0  0  0  0  0
   -5.0105    0.4019   -0.6516 C   0  0  0  0  0  0  0  0  0  0  0  0
   -3.8718    1.2021   -0.2853 N   0  0  0  0  0  0  0  0  0  0  0  0
   -3.1614   -0.5353    1.2262 C   0  0  0  0  0  0  0  0  0  0  0  0
   -2.7378    0.3847    0.1348 C   0  0  0  0  0  0  0  0  0  0  0  0
    7.2427    0.2385   -1.1163 H   0  0  0  0  0  0  0  0  0  0  0  0
    6.2724   -0.1436    0.7307 H   0  0  0  0  0  0  0  0  0  0  0  0
    5.2908    2.6433    0.5310 H   0  0  0  0  0  0  0  0  0  0  0  0
    4.0731    1.0876   -0.9989 H   0  0  0  0  0  0  0  0  0  0  0  0
    5.6531    0.8116    2.8158 H   0  0  0  0  0  0  0  0  0  0  0  0
    5.4536    3.1694    3.1416 H   0  0  0  0  0  0  0  0  0  0  0  0
    4.7638   -1.6460    0.2501 H   0  0  0  0  0  0  0  0  0  0  0  0
    5.1152   -1.1935   -1.4315 H   0  0  0  0  0  0  0  0  0  0  0  0
   -3.5071    0.9528    2.3360 H   0  0  0  0  0  0  0  0  0  0  0  0
   -4.7242   -0.3818    2.6646 H   0  0  0  0  0  0  0  0  0  0  0  0
    3.1846   -2.6305   -1.2042 H   0  0  0  0  0  0  0  0  0  0  0  0
    1.7128   -0.2877    0.0705 H   0  0  0  0  0  0  0  0  0  0  0  0
    2.3667   -1.6566    1.0444 H   0  0  0  0  0  0  0  0  0  0  0  0
    1.2167   -3.1819   -0.6134 H   0  0  0  0  0  0  0  0  0  0  0  0
    0.0472   -2.2923    0.3784 H   0  0  0  0  0  0  0  0  0  0  0  0
   -0.4966   -2.3274   -2.0555 H   0  0  0  0  0  0  0  0  0  0  0  0
    1.0503   -1.5016   -3.7647 H   0  0  0  0  0  0  0  0  0  0  0  0
    1.7503   -2.8220   -2.7983 H   0  0  0  0  0  0  0  0  0  0  0  0
    3.3374   -0.8077   -3.0551 H   0  0  0  0  0  0  0  0  0  0  0  0
    2.1339    0.0790   -2.0326 H   0  0  0  0  0  0  0  0  0  0  0  0
   -1.7525   -0.4170   -3.1012 H   0  0  0  0  0  0  0  0  0  0  0  0
   -1.7576    0.9096   -1.9472 H   0  0  0  0  0  0  0  0  0  0  0  0
   -3.5031   -0.8479   -1.4012 H   0  0  0  0  0  0  0  0  0  0  0  0
   -2.1326   -1.9372   -0.9783 H   0  0  0  0  0  0  0  0  0  0  0  0
   -7.1570    3.0194    0.2256 H   0  0  0  0  0  0  0  0  0  0  0  0
   -6.2025    1.9775   -0.9055 H   0  0  0  0  0  0  0  0  0  0  0  0
   -7.6708    1.3422   -0.1042 H   0  0  0  0  0  0  0  0  0  0  0  0
   -5.4998    2.3266    1.7519 H   0  0  0  0  0  0  0  0  0  0  0  0
   -6.5914    0.8652    1.9019 H   0  0  0  0  0  0  0  0  0  0  0  0
   -5.2273   -0.3024    0.1854 H   0  0  0  0  0  0  0  0  0  0  0  0
   -4.1497    1.2819   -1.2070 H   0  0  0  0  0  0  0  0  0  0  0  0
   -4.1280    2.5117    0.0682 H   0  0  0  0  0  0  0  0  0  0  0  0
   -2.1881    1.7264    0.9860 H   0  0  0  0  0  0  0  0  0  0  0  0
   -2.3813   -1.2120    2.2246 H   0  0  0  0  0  0  0  0  0  0  0  0
   -3.5865   -1.7990    1.0575 H   0  0  0  0  0  0  0  0  0  0  0  0
   -1.1698   -0.2812    0.5191 H   0  0  0  0  0  0  0  0  0  0  0  0
    6.9520   -2.9929   -0.4626 H   0  0  0  0  0  0  0  0  0  0  0  0
    7.1155   -0.8259   -1.1055 H   0  0  0  0  0  0  0  0  0  0  0  0
    7.4543    0.5007    0.8932 H   0  0  0  0  0  0  0  0  0  0  0  0
    5.5009    0.7945   -0.2951 H   0  0  0  0  0  0  0  0  0  0  0  0
    6.8620   -2.0231    2.3377 H   0  0  0  0  0  0  0  0  0  0  0  0
    6.8257    0.7468    3.1324 H   0  0  0  0  0  0  0  0  0  0  0  0
    4.0441   -1.9305   -0.5555 H   0  0  0  0  0  0  0  0  0  0  0  0
    4.5837   -0.8985   -1.9707 H   0  0  0  0  0  0  0  0  0  0  0  0
   -4.6343    0.8869    1.9801 H   0  0  0  0  0  0  0  0  0  0  0  0
   -4.8513   -0.8425    2.5530 H   0  0  0  0  0  0  0  0  0  0  0  0
    2.2797   -0.8183   -1.6863 H   0  0  0  0  0  0  0  0  0  0  0  0
    2.8388    0.5041    1.0429 H   0  0  0  0  0  0  0  0  0  0  0  0
    1.9204   -1.0417    0.8324 H   0  0  0  0  0  0  0  0  0  0  0  0
    0.1291    0.2721    0.7744 H   0  0  0  0  0  0  0  0  0  0  0  0
    1.0831    1.8206    0.6278 H   0  0  0  0  0  0  0  0  0  0  0  0
    0.3642   -0.1891   -1.5887 H   0  0  0  0  0  0  0  0  0  0  0  0
    1.4247    2.4891   -2.3794 H   0  0  0  0  0  0  0  0  0  0  0  0
    1.5783    0.9003   -3.1460 H   0  0  0  0  0  0  0  0  0  0  0  0
    3.7585    1.2496   -2.2752 H   0  0  0  0  0  0  0  0  0  0  0  0
    3.1431    1.8718   -0.6881 H   0  0  0  0  0  0  0  0  0  0  0  0
   -1.4783    0.3632   -3.0376 H   0  0  0  0  0  0  0  0  0  0  0  0
   -2.5855    1.4245   -2.1710 H   0  0  0  0  0  0  0  0  0  0  0  0
   -2.9079   -1.0041   -1.5419 H   0  0  0  0  0  0  0  0  0  0  0  0
   -1.2943   -0.9291   -0.7284 H   0  0  0  0  0  0  0  0  0  0  0  0
   -8.1641    0.6674   -0.8346 H   0  0  0  0  0  0  0  0  0  0  0  0
   -7.1567   -0.7423   -1.2166 H   0  0  0  0  0  0  0  0  0  0  0  0
   -8.5863   -0.9257   -0.1596 H   0  0  0  0  0  0  0  0  0  0  0  0
   -6.9316    1.0645    1.1049 H   0  0  0  0  0  0  0  0  0  0  0  0
   -7.2585   -0.6456    1.6700 H   0  0  0  0  0  0  0  0  0  0  0  0
   -5.4328   -1.4867    0.2773 H   0  0  0  0  0  0  0  0  0  0  0  0
   -4.8050   -0.2665   -1.5109 H   0  0  0  0  0  0  0  0  0  0  0  0
   -5.8041    1.1163   -0.9987 H   0  0  0  0  0  0  0  0  0  0  0  0
   -4.0858    1.9764    0.3456 H   0  0  0  0  0  0  0  0  0  0  0  0
   -2.5028   -0.3676    2.1247 H   0  0  0  0  0  0  0  0  0  0  0  0
   -3.1721   -1.6003    0.9521 H   0  0  0  0  0  0  0  0  0  0  0  0
   -1.9777    1.1217    0.4643 H   0  0  0  0  0  0  0  0  0  0  0  0
  1  2  1  0
  2  3  1  0
  2  4  1  0
  4  5  1  0
  3  6  1  0
  5  6  1  0
  6  7  1  0
  4  8  1  0
  8 10  1  0
 10 11  1  0
 11 12  1  0
 12 13  1  0
 13 14  1  0
 10 15  1  0
 14 15  1  0
 13 16  1  0
 16 17  1  0
 17 18  1  0
 19 20  1  0
  9 21  1  0
 20 21  1  0
 21 22  1  0
 22 23  1  0
  9 24  1  0
 18 25  1  0
 23 25  1  0
 24 25  1  0
 26 27  1  0
 27 28  1  0
 27 29  1  0
 29 30  1  0
 28 31  1  0
 30 31  1  0
 31 32  1  0
 29 33  1  0
 33 35  1  0
 35 36  1  0
 36 37  1  0
 37 38  1  0
 38 39  1  0
 35 40  1  0
 39 40  1  0
 38 41  1  0
 41 42  1  0
 42 43  1  0
 44 45  1  0
 34 46  1  0
 45 46  1  0
 46 47  1  0
 47 48  1  0
 34 49  1  0
 43 50  1  0
 48 50  1  0
 49 50  1  0
  1 51  1  0
  2 52  1  1
  3 53  1  0
  4 54  1  6
  6 55  1  0
  7 56  1  0
  8 57  1  0
  8 58  1  0
  9 59  1  0
  9 60  1  0
 10 61  1  0
 11 62  1  0
 11 63  1  0
 12 64  1  0
 12 65  1  0
 13 66  1  0
 14 67  1  0
 14 68  1  0
 15 69  1  0
 15 70  1  0
 17 71  1  0
 17 72  1  0
 18 73  1  0
 18 74  1  0
 19 75  1  0
 19 76  1  0
 19 77  1  0
 20 78  1  0
 20 79  1  0
 21 80  1  0
 22 81  1  0
 22 82  1  0
 23 83  1  0
 24 84  1  0
 24 85  1  0
 25 86  1  0
 26 87  1  0
 27 88  1  0
 28 89  1  0
 29 90  1  1
 31 91  1  0
 32 92  1  0
 33 93  1  0
 33 94  1  0
 34 95  1  0
 34 96  1  0
 35 97  1  0
 36 98  1  0
 36 99  1  0
 37100  1  0
 37101  1  0
 38102  1  0
 39103  1  0
 39104  1  0
 40105  1  0
 40106  1  0
 42107  1  0
 42108  1  0
 43109  1  0
 43110  1  0
 44111  1  0
 44112  1  0
 44113  1  0
 45114  1  0
 45115  1  0
 46116  1  0
 47117  1  0
 47118  1  0
 48119  1  0
 49120  1  0
 49121  1  0
 50122  1  0
M  END
>  <PDBID>  (1) 
2XKW

>  <PDB ID>  (1) 
2XKW

>  <Generic Name>  (1) 
Pioglitazone

>  <Brand Name>  (1) 
Accel Pioglitazone#Ach-pioglitazone#Act Pioglitazone#Actoplus Met#Actoplus Met XR#Actos#Actos (15mg)#Actos (30mg)#Actos (45mg)#Ag-pioglitazone#Alogliptin and Pioglitazone#Apo-pioglitazone#Auro-pioglitazone#Ava-pioglitazone#Dom-pioglitazone#Duetact#Jamp-pioglitazone#Mint-pioglitazone#Mylan-pioglitazone#Oseni#PHL-pioglitazone#PMS-pioglitazone#Pioglitazole and Metformin Hydrochloride#Pioglitazone#Pioglitazone HCl#Pioglitazone HCl and Metformin HCl#Pioglitazone Hydrochloride#Pioglitazone Hydrochloride and Glimepiride#Pioglitazone Hydrochloride and Metformin Hydrochloride#Pioglitazone and Glimepiride#Pioglitazone and Metformin#Pioglitazone and Metformin Hydrochloride#Pioglitazone and Metformin Hydrocholride#Pioglitazonehydrochloride#Pro-pioglitazone#Ran-pioglitazone#Ratio-pioglitazone#Sandoz Pioglitazone#Teva-pioglitazone#Torrent-pioglitazone#Van-pioglitazone#Zym-pioglitazone#Actost#Glustin

>  <DrugBank ID>  (1) 
DB01132

>  <ATC Codes>  (1) 
A10BD12#A10BD09#A10BG03#A10BD06#A10BD05

>  <Ligand ID>  (1) 
8N6,P1B

>  <Target Name>  (1) 
Peroxisome proliferator-activated receptor gamma

>  <UniProt ID>  (1) 
P37231

>  <PDB ID.1>  (1) 
2XKW

>  <Seq. Identity>  (1) 
95%

$$$$
