PDB_DB00932_03
     RDKit          3D

 99102  0  0  0  0  0  0  0  0999 V2000
   -3.0630   -0.5705   -1.0891 O   0  0  0  0  0  0  0  0  0  0  0  0
   -1.9500    0.1091   -0.6050 C   0  0  0  0  0  0  0  0  0  0  0  0
   -0.9907   -0.8169    0.0858 C   0  0  0  0  0  0  0  0  0  0  0  0
   -1.5790   -2.1937   -0.1397 C   0  0  0  0  0  0  0  0  0  0  0  0
   -2.9097   -2.1358    0.6321 C   0  0  0  0  0  0  0  0  0  0  0  0
   -3.8534   -1.2170   -0.1078 C   0  0  2  0  0  0  0  0  0  0  0  0
   -1.3548    0.5889   -1.8090 O   0  0  0  0  0  0  0  0  0  0  0  0
   -1.7787   -2.5144   -1.4558 O   0  0  0  0  0  0  0  0  0  0  0  0
   -4.8422   -1.9941   -0.8869 C   0  0  0  0  0  0  0  0  0  0  0  0
   -5.8884   -2.7955   -0.2787 C   0  0  0  0  0  0  0  0  0  0  0  0
   -5.5327   -3.9673    0.5942 C   0  0  0  0  0  0  0  0  0  0  0  0
   -4.3149   -0.1714    0.8192 C   0  0  0  0  0  0  0  0  0  0  0  0
   -5.1026    0.9770    0.3921 C   0  0  0  0  0  0  0  0  0  0  0  0
   -6.4885    0.7347   -0.0500 C   0  0  0  0  0  0  0  0  0  0  0  0
   -7.1271    2.0683   -0.5181 C   0  0  0  0  0  0  0  0  0  0  0  0
   -8.4567    1.7063   -1.1374 C   0  0  0  0  0  0  0  0  0  0  0  0
   -9.3992    1.1258   -0.0978 C   0  0  0  0  0  0  0  0  0  0  0  0
   -8.7213   -0.0077    0.6540 C   0  0  0  0  0  0  0  0  0  0  0  0
   -7.3781    0.3971    1.1842 C   0  0  0  0  0  0  0  0  0  0  0  0
    0.4522   -0.6848   -0.1653 C   0  0  2  0  0  0  0  0  0  0  0  0
    1.2934   -1.7027    0.5448 C   0  0  0  0  0  0  0  0  0  0  0  0
    1.2410   -1.7868    2.0039 C   0  0  0  0  0  0  0  0  0  0  0  0
    1.0325    0.7108   -0.1088 C   0  0  0  0  0  0  0  0  0  0  0  0
    0.8969    1.4643    1.1428 C   0  0  0  0  0  0  0  0  0  0  0  0
    2.0586    1.6452    2.0342 C   0  0  0  0  0  0  0  0  0  0  0  0
    3.3263    1.0179    1.6065 C   0  0  0  0  0  0  0  0  0  0  0  0
    3.5708    0.9484    0.1450 C   0  0  0  0  0  0  0  0  0  0  0  0
    4.3790    2.0649   -0.2500 N   0  0  0  0  0  0  0  0  0  0  0  0
    2.4094    0.7314   -0.7428 C   0  0  0  0  0  0  0  0  0  0  0  0
    5.7692    2.2387    0.4382 S   0  0  0  0  0  0  0  0  0  0  0  0
    6.2103    2.6451    1.6533 O   0  0  0  0  0  0  0  0  0  0  0  0
    6.1197    3.9768   -0.5804 O   0  0  0  0  0  0  0  0  0  0  0  0
    7.0937    1.4823   -0.5742 C   0  0  1  0  0  0  0  0  0  0  0  0
    8.2914    1.8587    0.1787 N   0  0  0  0  0  0  0  0  0  0  0  0
    9.4916    1.3916   -0.4812 C   0  0  0  0  0  0  0  0  0  0  0  0
    9.2251    0.1825   -1.3510 C   0  0  2  0  0  0  0  0  0  0  0  0
    8.2520   -0.7380   -0.6825 C   0  0  0  0  0  0  0  0  0  0  0  0
    6.9413   -0.0155   -0.5042 C   0  0  0  0  0  0  0  0  0  0  0  0
   10.5154   -0.6251   -1.5525 C   0  0  0  0  0  0  0  0  0  0  0  0
   11.4895    0.1356   -2.1640 F   0  0  0  0  0  0  0  0  0  0  0  0
   10.2120   -1.6836   -2.3928 F   0  0  0  0  0  0  0  0  0  0  0  0
   10.9431   -1.1274   -0.3323 F   0  0  0  0  0  0  0  0  0  0  0  0
   -2.2473    0.9944   -0.0446 H   0  0  0  0  0  0  0  0  0  0  0  0
   -1.2153   -0.6443    1.2071 H   0  0  0  0  0  0  0  0  0  0  0  0
   -1.0081   -2.9982    0.3394 H   0  0  0  0  0  0  0  0  0  0  0  0
   -2.6627   -1.6162    1.6113 H   0  0  0  0  0  0  0  0  0  0  0  0
   -3.2555   -3.1064    0.9013 H   0  0  0  0  0  0  0  0  0  0  0  0
   -1.5340    0.0133   -2.5694 H   0  0  0  0  0  0  0  0  0  0  0  0
   -1.0656   -2.2808   -2.0649 H   0  0  0  0  0  0  0  0  0  0  0  0
   -4.2133   -2.7743   -1.5124 H   0  0  0  0  0  0  0  0  0  0  0  0
   -5.2516   -1.4045   -1.7751 H   0  0  0  0  0  0  0  0  0  0  0  0
   -6.7161   -2.1952    0.2049 H   0  0  0  0  0  0  0  0  0  0  0  0
   -6.4817   -3.2871   -1.1402 H   0  0  0  0  0  0  0  0  0  0  0  0
   -6.4418   -4.6497    0.6989 H   0  0  0  0  0  0  0  0  0  0  0  0
   -4.7643   -4.6326    0.1971 H   0  0  0  0  0  0  0  0  0  0  0  0
   -5.3118   -3.7037    1.6454 H   0  0  0  0  0  0  0  0  0  0  0  0
   -4.8736   -0.7447    1.6566 H   0  0  0  0  0  0  0  0  0  0  0  0
   -3.3903    0.1572    1.4118 H   0  0  0  0  0  0  0  0  0  0  0  0
   -5.1983    1.6612    1.3135 H   0  0  0  0  0  0  0  0  0  0  0  0
   -4.5434    1.6673   -0.3110 H   0  0  0  0  0  0  0  0  0  0  0  0
   -6.7150    0.0012   -0.7980 H   0  0  0  0  0  0  0  0  0  0  0  0
   -6.5013    2.5016   -1.3066 H   0  0  0  0  0  0  0  0  0  0  0  0
   -7.3235    2.7201    0.3352 H   0  0  0  0  0  0  0  0  0  0  0  0
   -8.9645    2.5731   -1.5801 H   0  0  0  0  0  0  0  0  0  0  0  0
   -8.3473    0.9281   -1.9281 H   0  0  0  0  0  0  0  0  0  0  0  0
   -9.7766    1.8585    0.6170 H   0  0  0  0  0  0  0  0  0  0  0  0
  -10.2547    0.6844   -0.6421 H   0  0  0  0  0  0  0  0  0  0  0  0
   -8.6215   -0.9013    0.0321 H   0  0  0  0  0  0  0  0  0  0  0  0
   -9.4149   -0.2661    1.4887 H   0  0  0  0  0  0  0  0  0  0  0  0
   -6.8970   -0.4168    1.7092 H   0  0  0  0  0  0  0  0  0  0  0  0
   -7.4529    1.3288    1.8028 H   0  0  0  0  0  0  0  0  0  0  0  0
    0.5855   -0.9631   -1.2635 H   0  0  0  0  0  0  0  0  0  0  0  0
    0.9936   -2.7079    0.1238 H   0  0  0  0  0  0  0  0  0  0  0  0
    2.3397   -1.5703    0.1564 H   0  0  0  0  0  0  0  0  0  0  0  0
    0.9229   -0.9318    2.5867 H   0  0  0  0  0  0  0  0  0  0  0  0
    2.2852   -2.0353    2.3724 H   0  0  0  0  0  0  0  0  0  0  0  0
    0.6670   -2.7059    2.3552 H   0  0  0  0  0  0  0  0  0  0  0  0
    0.4199    1.2620   -0.8635 H   0  0  0  0  0  0  0  0  0  0  0  0
    0.0369    1.0845    1.7319 H   0  0  0  0  0  0  0  0  0  0  0  0
    0.5481    2.5226    0.8944 H   0  0  0  0  0  0  0  0  0  0  0  0
    2.2725    2.7326    2.2769 H   0  0  0  0  0  0  0  0  0  0  0  0
    1.8344    1.2332    3.0667 H   0  0  0  0  0  0  0  0  0  0  0  0
    3.4771    0.0175    2.1156 H   0  0  0  0  0  0  0  0  0  0  0  0
    4.1844    1.6049    2.0566 H   0  0  0  0  0  0  0  0  0  0  0  0
    4.2500    0.0485    0.0011 H   0  0  0  0  0  0  0  0  0  0  0  0
    4.1787    2.2775   -1.2490 H   0  0  0  0  0  0  0  0  0  0  0  0
    2.4874    1.5221   -1.5559 H   0  0  0  0  0  0  0  0  0  0  0  0
    2.4826   -0.2137   -1.3396 H   0  0  0  0  0  0  0  0  0  0  0  0
    6.5760    2.2807    2.4907 H   0  0  0  0  0  0  0  0  0  0  0  0
    5.4486    4.4091   -0.0049 H   0  0  0  0  0  0  0  0  0  0  0  0
    7.0884    1.9082   -1.5706 H   0  0  0  0  0  0  0  0  0  0  0  0
    8.3330    2.9121    0.1639 H   0  0  0  0  0  0  0  0  0  0  0  0
   10.1968    1.0647    0.3178 H   0  0  0  0  0  0  0  0  0  0  0  0
    9.9927    2.2058   -1.0417 H   0  0  0  0  0  0  0  0  0  0  0  0
    8.8533    0.5008   -2.3337 H   0  0  0  0  0  0  0  0  0  0  0  0
    8.6637   -1.0815    0.2904 H   0  0  0  0  0  0  0  0  0  0  0  0
    8.0678   -1.6143   -1.3381 H   0  0  0  0  0  0  0  0  0  0  0  0
    6.5413   -0.3550    0.4693 H   0  0  0  0  0  0  0  0  0  0  0  0
    6.2326   -0.3287   -1.2857 H   0  0  0  0  0  0  0  0  0  0  0  0
  1  2  1  0
  2  3  1  0
  3  4  1  0
  4  5  1  0
  1  6  1  0
  5  6  1  0
  2  7  1  0
  4  8  1  0
  6  9  1  6
  9 10  1  0
 10 11  1  0
  6 12  1  0
 12 13  1  0
 13 14  1  0
 14 15  1  0
 15 16  1  0
 16 17  1  0
 17 18  1  0
 14 19  1  0
 18 19  1  0
  3 20  1  0
 20 21  1  0
 21 22  1  0
 20 23  1  0
 23 24  1  0
 24 25  1  0
 25 26  1  0
 26 27  1  0
 27 28  1  0
 23 29  1  0
 27 29  1  0
 28 30  1  0
 30 31  1  0
 30 32  1  0
 30 33  1  0
 33 34  1  0
 34 35  1  0
 35 36  1  0
 36 37  1  0
 33 38  1  0
 37 38  1  0
 36 39  1  0
 39 40  1  0
 39 41  1  0
 39 42  1  0
  2 43  1  0
  3 44  1  0
  4 45  1  0
  5 46  1  0
  5 47  1  0
  7 48  1  0
  8 49  1  0
  9 50  1  0
  9 51  1  0
 10 52  1  0
 10 53  1  0
 11 54  1  0
 11 55  1  0
 11 56  1  0
 12 57  1  0
 12 58  1  0
 13 59  1  0
 13 60  1  0
 14 61  1  0
 15 62  1  0
 15 63  1  0
 16 64  1  0
 16 65  1  0
 17 66  1  0
 17 67  1  0
 18 68  1  0
 18 69  1  0
 19 70  1  0
 19 71  1  0
 20 72  1  6
 21 73  1  0
 21 74  1  0
 22 75  1  0
 22 76  1  0
 22 77  1  0
 23 78  1  0
 24 79  1  0
 24 80  1  0
 25 81  1  0
 25 82  1  0
 26 83  1  0
 26 84  1  0
 27 85  1  0
 28 86  1  0
 29 87  1  0
 29 88  1  0
 31 89  1  0
 32 90  1  0
 33 91  1  6
 34 92  1  0
 35 93  1  0
 35 94  1  0
 36 95  1  6
 37 96  1  0
 37 97  1  0
 38 98  1  0
 38 99  1  0
M  END
>  <PDBID>  (1) 
2O4P

>  <PDB ID>  (1) 
2O4P

>  <Generic Name>  (1) 
Tipranavir

>  <Brand Name>  (1) 
Aptivus

>  <DrugBank ID>  (1) 
DB00932

>  <ATC Codes>  (1) 
J05AE09

>  <Ligand ID>  (1) 
TPV

>  <Target Name>  (1) 
Pol polyprotein

>  <UniProt ID>  (1) 
Q72874

>  <PDB ID.1>  (1) 
2O4P

>  <Seq. Identity>  (1) 
98%

$$$$
