PDB_DB00282_02
     RDKit          3D

 28 27  0  0  0  0  0  0  0  0999 V2000
   -1.4082   -0.8002   -0.3424 P   0  0  0  0  0  0  0  0  0  0  0  0
   -1.5172   -1.1801    1.1519 O   0  0  0  0  0  0  0  0  0  0  0  0
   -0.9984   -2.4421   -0.6021 O   0  0  0  0  0  0  0  0  0  0  0  0
   -2.9219   -0.2719   -0.2947 O   0  0  0  0  0  0  0  0  0  0  0  0
   -0.0177    0.2729   -0.2261 C   0  0  0  0  0  0  0  0  0  0  0  0
   -0.3696    1.9757   -0.0694 P   0  0  0  0  0  0  0  0  0  0  0  0
   -0.9926    2.6291    1.2675 O   0  0  0  0  0  0  0  0  0  0  0  0
   -0.2591    2.9520   -1.4896 O   0  0  0  0  0  0  0  0  0  0  0  0
    1.0742    2.4468    0.1878 O   0  0  0  0  0  0  0  0  0  0  0  0
    0.8976    0.1890   -1.3244 O   0  0  0  0  0  0  0  0  0  0  0  0
    0.9114   -0.1604    0.9164 C   0  0  0  0  0  0  0  0  0  0  0  0
    1.4486   -1.5388    0.7515 C   0  0  0  0  0  0  0  0  0  0  0  0
    2.2121   -1.6451   -0.4857 N   0  0  0  0  0  0  0  0  0  0  0  0
   -1.4485   -0.8156   -1.6272 H   0  0  0  0  0  0  0  0  0  0  0  0
   -2.1443   -1.8050    1.5398 H   0  0  0  0  0  0  0  0  0  0  0  0
   -1.8044   -2.9664   -0.6232 H   0  0  0  0  0  0  0  0  0  0  0  0
   -3.4299    0.2023   -0.9272 H   0  0  0  0  0  0  0  0  0  0  0  0
   -1.5797    1.8874   -0.5156 H   0  0  0  0  0  0  0  0  0  0  0  0
   -0.5287    2.7157    2.0941 H   0  0  0  0  0  0  0  0  0  0  0  0
    0.1073    2.3619   -2.1583 H   0  0  0  0  0  0  0  0  0  0  0  0
    1.2927    3.3448    0.4654 H   0  0  0  0  0  0  0  0  0  0  0  0
    0.5344   -0.5664   -1.8698 H   0  0  0  0  0  0  0  0  0  0  0  0
    0.4681    0.0500    1.8915 H   0  0  0  0  0  0  0  0  0  0  0  0
    1.7955    0.5391    0.8327 H   0  0  0  0  0  0  0  0  0  0  0  0
    2.2337   -1.6432    1.5620 H   0  0  0  0  0  0  0  0  0  0  0  0
    0.7535   -2.3597    0.9088 H   0  0  0  0  0  0  0  0  0  0  0  0
    2.8093   -2.5201   -0.4424 H   0  0  0  0  0  0  0  0  0  0  0  0
    2.8817   -0.8518   -0.5713 H   0  0  0  0  0  0  0  0  0  0  0  0
  1  2  1  0
  1  3  1  0
  1  4  1  0
  1  5  1  0
  5  6  1  0
  6  7  1  0
  6  8  1  0
  6  9  1  0
  5 10  1  0
  5 11  1  0
 11 12  1  0
 12 13  1  0
  1 14  1  0
  2 15  1  0
  3 16  1  0
  4 17  1  0
  6 18  1  0
  7 19  1  0
  8 20  1  0
  9 21  1  0
 10 22  1  0
 11 23  1  0
 11 24  1  0
 12 25  1  0
 12 26  1  0
 13 27  1  0
 13 28  1  0
M  END
>  <PDBID>  (1) 
2F89

>  <PDB ID>  (1) 
2F89

>  <Generic Name>  (1) 
Pamidronate

>  <Brand Name>  (1) 
Aredia#Aredia 30mg#Aredia 90mg#Aredia Liq Inj 3mg/ml#PMS-pamidronate#Pamidronate Disodium#Pamidronate Disodium Omega 3 mg/ml#Pamidronate Disodium Omega 6 mg/ml#Pamidronate Disodium Omega 9 mg/ml#Pamidronate Disodium for Injection#Val-pamidronate Disodium#Aminomux#Pamimed

>  <DrugBank ID>  (1) 
DB00282

>  <ATC Codes>  (1) 
M05BA03

>  <Ligand ID>  (1) 
210

>  <Target Name>  (1) 
Farnesyl pyrophosphate synthase

>  <UniProt ID>  (1) 
P14324

>  <PDB ID.1>  (1) 
2F89

>  <Seq. Identity>  (1) 
100%

$$$$
