PDB_DB00224_03
     RDKit          3D

114118  0  0  0  0  0  0  0  0999 V2000
    4.3657    1.2510   -0.9105 N   0  0  0  0  0  0  0  0  0  0  0  0
    4.2813    0.0897   -0.1291 C   0  0  0  0  0  0  0  0  0  0  0  0
    2.8980   -0.5488   -0.4660 C   0  0  1  0  0  0  0  0  0  0  0  0
    2.9060   -1.9867   -0.0737 C   0  0  0  0  0  0  0  0  0  0  0  0
    3.0657   -2.2353    1.2669 O   0  0  0  0  0  0  0  0  0  0  0  0
    3.9035   -2.6537   -0.8929 N   0  0  0  0  0  0  0  0  0  0  0  0
    4.4948   -3.8111   -0.3274 C   0  0  0  0  0  0  0  0  0  0  0  0
    3.4126   -4.8414   -0.0643 C   0  0  0  0  0  0  0  0  0  0  0  0
    5.3790   -4.4249   -1.4251 C   0  0  0  0  0  0  0  0  0  0  0  0
    5.3869   -3.5566    0.8335 C   0  0  0  0  0  0  0  0  0  0  0  0
    1.8759    0.2807    0.0774 N   0  0  0  0  0  0  0  0  0  0  0  0
    2.1442    1.6618    0.0130 C   0  0  0  0  0  0  0  0  0  0  0  0
    3.1843    2.0084   -1.0546 C   0  0  0  0  0  0  0  0  0  0  0  0
    0.5449   -0.2002    0.0593 C   0  0  0  0  0  0  0  0  0  0  0  0
   -0.5112    0.6451    0.6307 C   0  0  1  0  0  0  0  0  0  0  0  0
   -0.7489    1.8620   -0.0345 O   0  0  0  0  0  0  0  0  0  0  0  0
   -1.8413    0.0839    0.9675 C   0  0  0  0  0  0  0  0  0  0  0  0
   -2.7031   -0.5114   -0.0371 C   0  0  1  0  0  0  0  0  0  0  0  0
   -2.3836   -1.6786   -0.8383 C   0  0  0  0  0  0  0  0  0  0  0  0
   -2.0741   -3.0011   -0.2865 C   0  0  0  0  0  0  0  0  0  0  0  0
   -3.0861   -3.6609    0.5733 C   0  0  0  0  0  0  0  0  0  0  0  0
   -2.7258   -5.1485    0.6368 C   0  0  0  0  0  0  0  0  0  0  0  0
   -3.3890   -5.7446   -0.6036 C   0  0  0  0  0  0  0  0  0  0  0  0
   -3.2166   -4.7317   -1.7308 C   0  0  0  0  0  0  0  0  0  0  0  0
   -1.9292   -3.9484   -1.5122 C   0  0  0  0  0  0  0  0  0  0  0  0
   -4.2216   -0.4745    0.3391 C   0  0  2  0  0  0  0  0  0  0  0  0
   -4.8278   -1.1358   -0.7664 O   0  0  0  0  0  0  0  0  0  0  0  0
   -4.6896    0.8317    0.3137 N   0  0  0  0  0  0  0  0  0  0  0  0
   -5.2816    1.5123    1.3592 C   0  0  2  0  0  0  0  0  0  0  0  0
   -6.5895    0.9767    1.8655 C   0  0  2  0  0  0  0  0  0  0  0  0
   -6.6755   -0.3347    2.1502 O   0  0  0  0  0  0  0  0  0  0  0  0
   -7.5758    1.4487    0.7644 C   0  0  0  0  0  0  0  0  0  0  0  0
   -7.2419    2.9152    0.8656 C   0  0  0  0  0  0  0  0  0  0  0  0
   -7.6632    3.7714   -0.2756 C   0  0  0  0  0  0  0  0  0  0  0  0
   -6.7433    5.0063   -0.2050 C   0  0  0  0  0  0  0  0  0  0  0  0
   -6.1668    5.1982    1.1805 C   0  0  0  0  0  0  0  0  0  0  0  0
   -5.2435    4.0472    1.5873 C   0  0  0  0  0  0  0  0  0  0  0  0
   -5.7164    2.8612    0.8016 C   0  0  0  0  0  0  0  0  0  0  0  0
    5.5567    1.6943   -1.4649 C   0  0  0  0  0  0  0  0  0  0  0  0
    6.6197    2.2246   -0.5250 C   0  0  0  0  0  0  0  0  0  0  0  0
    7.8248    2.6518   -1.3751 C   0  0  0  0  0  0  0  0  0  0  0  0
    8.7497    3.4739   -0.6674 N   0  0  0  0  0  0  0  0  0  0  0  0
    8.4636    3.6336    0.7295 C   0  0  0  0  0  0  0  0  0  0  0  0
    7.0945    4.2805    0.8367 C   0  0  0  0  0  0  0  0  0  0  0  0
    6.0755    3.5402    0.0427 C   0  0  0  0  0  0  0  0  0  0  0  0
    4.2701    0.2869    0.9869 H   0  0  0  0  0  0  0  0  0  0  0  0
    5.0462   -0.6545   -0.3296 H   0  0  0  0  0  0  0  0  0  0  0  0
    2.8617   -0.4850   -1.5749 H   0  0  0  0  0  0  0  0  0  0  0  0
    1.8953   -2.3898   -0.3450 H   0  0  0  0  0  0  0  0  0  0  0  0
    3.6532   -1.6062    1.7270 H   0  0  0  0  0  0  0  0  0  0  0  0
    3.5704   -2.7599   -1.8634 H   0  0  0  0  0  0  0  0  0  0  0  0
    2.6468   -4.7037   -0.8523 H   0  0  0  0  0  0  0  0  0  0  0  0
    3.8613   -5.8515   -0.2027 H   0  0  0  0  0  0  0  0  0  0  0  0
    2.9881   -4.6911    0.9565 H   0  0  0  0  0  0  0  0  0  0  0  0
    4.7649   -4.9413   -2.1930 H   0  0  0  0  0  0  0  0  0  0  0  0
    6.0664   -3.6860   -1.8557 H   0  0  0  0  0  0  0  0  0  0  0  0
    6.0061   -5.2090   -0.9301 H   0  0  0  0  0  0  0  0  0  0  0  0
    6.2395   -4.3088    0.8692 H   0  0  0  0  0  0  0  0  0  0  0  0
    5.9081   -2.5848    0.7338 H   0  0  0  0  0  0  0  0  0  0  0  0
    4.8679   -3.6638    1.8100 H   0  0  0  0  0  0  0  0  0  0  0  0
    2.5320    2.0932    0.9755 H   0  0  0  0  0  0  0  0  0  0  0  0
    1.2693    2.2577   -0.2412 H   0  0  0  0  0  0  0  0  0  0  0  0
    3.3083    3.0919   -1.0739 H   0  0  0  0  0  0  0  0  0  0  0  0
    2.7184    1.7016   -2.0388 H   0  0  0  0  0  0  0  0  0  0  0  0
    0.2791   -0.3481   -1.0465 H   0  0  0  0  0  0  0  0  0  0  0  0
    0.4995   -1.2209    0.4878 H   0  0  0  0  0  0  0  0  0  0  0  0
   -0.0765    1.0376    1.6479 H   0  0  0  0  0  0  0  0  0  0  0  0
   -1.3172    1.7507   -0.8156 H   0  0  0  0  0  0  0  0  0  0  0  0
   -2.4181    1.0042    1.3636 H   0  0  0  0  0  0  0  0  0  0  0  0
   -1.6557   -0.5820    1.8657 H   0  0  0  0  0  0  0  0  0  0  0  0
   -2.7328    0.3314   -0.8747 H   0  0  0  0  0  0  0  0  0  0  0  0
   -3.2938   -1.8312   -1.5304 H   0  0  0  0  0  0  0  0  0  0  0  0
   -1.6093   -1.4217   -1.6110 H   0  0  0  0  0  0  0  0  0  0  0  0
   -1.1022   -3.0244    0.2111 H   0  0  0  0  0  0  0  0  0  0  0  0
   -3.0760   -3.3389    1.6320 H   0  0  0  0  0  0  0  0  0  0  0  0
   -4.1279   -3.6172    0.2477 H   0  0  0  0  0  0  0  0  0  0  0  0
   -1.6306   -5.2955    0.6058 H   0  0  0  0  0  0  0  0  0  0  0  0
   -3.1020   -5.6515    1.5250 H   0  0  0  0  0  0  0  0  0  0  0  0
   -4.4686   -5.8818   -0.4538 H   0  0  0  0  0  0  0  0  0  0  0  0
   -2.9189   -6.6838   -0.8888 H   0  0  0  0  0  0  0  0  0  0  0  0
   -4.1010   -4.0780   -1.8605 H   0  0  0  0  0  0  0  0  0  0  0  0
   -3.0840   -5.3035   -2.6609 H   0  0  0  0  0  0  0  0  0  0  0  0
   -1.0860   -4.6221   -1.4209 H   0  0  0  0  0  0  0  0  0  0  0  0
   -1.8013   -3.3341   -2.4231 H   0  0  0  0  0  0  0  0  0  0  0  0
   -4.2741   -1.0431    1.2607 H   0  0  0  0  0  0  0  0  0  0  0  0
   -5.0315   -0.4818   -1.4482 H   0  0  0  0  0  0  0  0  0  0  0  0
   -4.1627    1.3939   -0.3844 H   0  0  0  0  0  0  0  0  0  0  0  0
   -4.5894    1.7125    2.1910 H   0  0  0  0  0  0  0  0  0  0  0  0
   -6.8728    1.5711    2.7513 H   0  0  0  0  0  0  0  0  0  0  0  0
   -7.0456   -0.8810    1.4021 H   0  0  0  0  0  0  0  0  0  0  0  0
   -8.6194    1.2154    1.0458 H   0  0  0  0  0  0  0  0  0  0  0  0
   -7.2786    1.0445   -0.2020 H   0  0  0  0  0  0  0  0  0  0  0  0
   -7.5768    3.3231    1.8479 H   0  0  0  0  0  0  0  0  0  0  0  0
   -7.4045    3.2130   -1.2218 H   0  0  0  0  0  0  0  0  0  0  0  0
   -8.7112    4.0477   -0.2200 H   0  0  0  0  0  0  0  0  0  0  0  0
   -7.3968    5.8752   -0.4020 H   0  0  0  0  0  0  0  0  0  0  0  0
   -5.9822    5.0031   -0.9939 H   0  0  0  0  0  0  0  0  0  0  0  0
   -6.9749    5.2821    1.9074 H   0  0  0  0  0  0  0  0  0  0  0  0
   -5.5843    6.1144    1.1623 H   0  0  0  0  0  0  0  0  0  0  0  0
   -4.2306    4.3138    1.2470 H   0  0  0  0  0  0  0  0  0  0  0  0
   -5.3363    3.8497    2.6509 H   0  0  0  0  0  0  0  0  0  0  0  0
   -5.4429    2.9617   -0.2869 H   0  0  0  0  0  0  0  0  0  0  0  0
    6.0291    0.8585   -2.0606 H   0  0  0  0  0  0  0  0  0  0  0  0
    5.3218    2.4571   -2.2580 H   0  0  0  0  0  0  0  0  0  0  0  0
    6.9321    1.5398    0.2489 H   0  0  0  0  0  0  0  0  0  0  0  0
    8.3423    1.7804   -1.7886 H   0  0  0  0  0  0  0  0  0  0  0  0
    7.4632    3.2566   -2.2514 H   0  0  0  0  0  0  0  0  0  0  0  0
    9.0594    4.3319   -1.1497 H   0  0  0  0  0  0  0  0  0  0  0  0
    9.2472    4.3280    1.1300 H   0  0  0  0  0  0  0  0  0  0  0  0
    8.5173    2.6559    1.2314 H   0  0  0  0  0  0  0  0  0  0  0  0
    6.8495    4.4006    1.9134 H   0  0  0  0  0  0  0  0  0  0  0  0
    7.2287    5.3005    0.3698 H   0  0  0  0  0  0  0  0  0  0  0  0
    5.7122    4.1511   -0.8162 H   0  0  0  0  0  0  0  0  0  0  0  0
    5.1796    3.3178    0.6525 H   0  0  0  0  0  0  0  0  0  0  0  0
  1  2  1  0
  2  3  1  0
  3  4  1  0
  4  5  1  0
  4  6  1  0
  7  6  1  0
  7  8  1  0
  7  9  1  0
  7 10  1  0
  3 11  1  0
 11 12  1  0
  1 13  1  0
 12 13  1  0
 11 14  1  0
 14 15  1  0
 15 16  1  0
 15 17  1  0
 17 18  1  0
 18 19  1  0
 19 20  1  0
 20 21  1  0
 21 22  1  0
 22 23  1  0
 23 24  1  0
 20 25  1  0
 24 25  1  0
 18 26  1  0
 26 27  1  0
 26 28  1  0
 28 29  1  0
 29 30  1  0
 30 31  1  0
 30 32  1  0
 32 33  1  0
 33 34  1  0
 34 35  1  0
 35 36  1  0
 36 37  1  0
 29 38  1  0
 33 38  1  0
 37 38  1  0
  1 39  1  0
 39 40  1  0
 40 41  1  0
 41 42  1  0
 42 43  1  0
 43 44  1  0
 40 45  1  0
 44 45  1  0
  2 46  1  0
  2 47  1  0
  3 48  1  6
  4 49  1  0
  5 50  1  0
  6 51  1  0
  8 52  1  0
  8 53  1  0
  8 54  1  0
  9 55  1  0
  9 56  1  0
  9 57  1  0
 10 58  1  0
 10 59  1  0
 10 60  1  0
 12 61  1  0
 12 62  1  0
 13 63  1  0
 13 64  1  0
 14 65  1  0
 14 66  1  0
 15 67  1  1
 16 68  1  0
 17 69  1  0
 17 70  1  0
 18 71  1  6
 19 72  1  0
 19 73  1  0
 20 74  1  0
 21 75  1  0
 21 76  1  0
 22 77  1  0
 22 78  1  0
 23 79  1  0
 23 80  1  0
 24 81  1  0
 24 82  1  0
 25 83  1  0
 25 84  1  0
 26 85  1  1
 27 86  1  0
 28 87  1  0
 29 88  1  1
 30 89  1  1
 31 90  1  0
 32 91  1  0
 32 92  1  0
 33 93  1  0
 34 94  1  0
 34 95  1  0
 35 96  1  0
 35 97  1  0
 36 98  1  0
 36 99  1  0
 37100  1  0
 37101  1  0
 38102  1  0
 39103  1  0
 39104  1  0
 40105  1  0
 41106  1  0
 41107  1  0
 42108  1  0
 43109  1  0
 43110  1  0
 44111  1  0
 44112  1  0
 45113  1  0
 45114  1  0
M  END
>  <PDBID>  (1) 
1HSG

>  <PDB ID>  (1) 
1HSG

>  <Generic Name>  (1) 
Indinavir

>  <Brand Name>  (1) 
Crixivan

>  <DrugBank ID>  (1) 
DB00224

>  <ATC Codes>  (1) 
J05AE02

>  <Ligand ID>  (1) 
MK1

>  <Target Name>  (1) 
Pol polyprotein

>  <UniProt ID>  (1) 
Q72874

>  <PDB ID.1>  (1) 
1HSG

>  <Seq. Identity>  (1) 
99%

$$$$
