PDB_DB00530_08
     RDKit          3D

 72 74  0  0  0  0  0  0  0  0999 V2000
    8.1323    0.7255    0.1649 C   0  0  0  0  0  0  0  0  0  0  0  0
    6.7606    0.7651   -0.4503 C   0  0  0  0  0  0  0  0  0  0  0  0
    5.6853    0.7112    0.6092 C   0  0  0  0  0  0  0  0  0  0  0  0
    4.3090    0.7476    0.0635 C   0  0  0  0  0  0  0  0  0  0  0  0
    3.7119   -0.5525   -0.3307 C   0  0  0  0  0  0  0  0  0  0  0  0
    2.5029   -0.8866    0.3605 N   0  0  0  0  0  0  0  0  0  0  0  0
    1.4106    0.0050    0.1540 C   0  0  0  0  0  0  0  0  0  0  0  0
    0.1286   -0.5800    0.7503 C   0  0  0  0  0  0  0  0  0  0  0  0
   -0.6765    0.5104    1.3046 C   0  0  0  0  0  0  0  0  0  0  0  0
   -2.1346    0.5776    0.9126 C   0  0  0  0  0  0  0  0  0  0  0  0
   -2.2740    1.5407   -0.0773 O   0  0  0  0  0  0  0  0  0  0  0  0
   -3.0429    2.6196    0.2221 C   0  0  0  0  0  0  0  0  0  0  0  0
   -4.4745    2.3286    0.5208 C   0  0  0  0  0  0  0  0  0  0  0  0
   -5.1791    3.4962    0.8246 O   0  0  0  0  0  0  0  0  0  0  0  0
   -5.1888    4.4332   -0.1775 C   0  0  0  0  0  0  0  0  0  0  0  0
   -2.6619   -0.7149    0.3999 C   0  0  0  0  0  0  0  0  0  0  0  0
   -3.9485   -0.5744   -0.0541 O   0  0  0  0  0  0  0  0  0  0  0  0
   -4.7267   -1.5761    0.5239 C   0  0  0  0  0  0  0  0  0  0  0  0
   -6.1742   -1.4807    0.0578 C   0  0  0  0  0  0  0  0  0  0  0  0
   -6.8737   -2.5113    0.6794 O   0  0  0  0  0  0  0  0  0  0  0  0
   -8.2154   -2.5134    0.3192 C   0  0  0  0  0  0  0  0  0  0  0  0
   -1.7889   -1.0272   -0.8309 C   0  0  0  0  0  0  0  0  0  0  0  0
   -0.4804   -1.4814   -0.2600 C   0  0  0  0  0  0  0  0  0  0  0  0
    0.3991   -1.7598   -1.4044 N   0  0  0  0  0  0  0  0  0  0  0  0
    0.7322   -0.5302   -2.0918 C   0  0  0  0  0  0  0  0  0  0  0  0
    1.1860    0.4449   -1.1696 N   0  0  0  0  0  0  0  0  0  0  0  0
    4.6410   -1.7252   -0.2547 C   0  0  0  0  0  0  0  0  0  0  0  0
    5.5769   -1.7411    0.8863 C   0  0  0  0  0  0  0  0  0  0  0  0
    5.8231   -0.4383    1.5567 C   0  0  0  0  0  0  0  0  0  0  0  0
    8.1929    1.4952    0.9640 H   0  0  0  0  0  0  0  0  0  0  0  0
    8.8578    0.9220   -0.6697 H   0  0  0  0  0  0  0  0  0  0  0  0
    8.3186   -0.3066    0.5360 H   0  0  0  0  0  0  0  0  0  0  0  0
    6.6344    1.7567   -0.9643 H   0  0  0  0  0  0  0  0  0  0  0  0
    6.6968   -0.0194   -1.2040 H   0  0  0  0  0  0  0  0  0  0  0  0
    5.8272    1.6494    1.2249 H   0  0  0  0  0  0  0  0  0  0  0  0
    3.6460    1.2299    0.8420 H   0  0  0  0  0  0  0  0  0  0  0  0
    4.3068    1.5052   -0.7745 H   0  0  0  0  0  0  0  0  0  0  0  0
    3.4203   -0.4599   -1.4209 H   0  0  0  0  0  0  0  0  0  0  0  0
    2.2782   -1.8810    0.4161 H   0  0  0  0  0  0  0  0  0  0  0  0
    1.6312    0.9193    0.7787 H   0  0  0  0  0  0  0  0  0  0  0  0
    0.5051   -1.2338    1.5949 H   0  0  0  0  0  0  0  0  0  0  0  0
   -0.2183    1.5140    1.0770 H   0  0  0  0  0  0  0  0  0  0  0  0
   -0.6565    0.4728    2.4271 H   0  0  0  0  0  0  0  0  0  0  0  0
   -2.7544    0.9059    1.7813 H   0  0  0  0  0  0  0  0  0  0  0  0
   -2.6082    3.1801    1.0799 H   0  0  0  0  0  0  0  0  0  0  0  0
   -2.9742    3.3282   -0.6523 H   0  0  0  0  0  0  0  0  0  0  0  0
   -4.9851    1.8965   -0.3867 H   0  0  0  0  0  0  0  0  0  0  0  0
   -4.5665    1.6702    1.3898 H   0  0  0  0  0  0  0  0  0  0  0  0
   -5.6386    4.0754   -1.1344 H   0  0  0  0  0  0  0  0  0  0  0  0
   -4.2086    4.8926   -0.3567 H   0  0  0  0  0  0  0  0  0  0  0  0
   -5.8382    5.2822    0.2032 H   0  0  0  0  0  0  0  0  0  0  0  0
   -2.5302   -1.5623    1.1051 H   0  0  0  0  0  0  0  0  0  0  0  0
   -4.3685   -2.5800    0.1897 H   0  0  0  0  0  0  0  0  0  0  0  0
   -4.7297   -1.5134    1.6233 H   0  0  0  0  0  0  0  0  0  0  0  0
   -6.6151   -0.5124    0.3721 H   0  0  0  0  0  0  0  0  0  0  0  0
   -6.2543   -1.6407   -1.0240 H   0  0  0  0  0  0  0  0  0  0  0  0
   -8.6572   -1.5262    0.6316 H   0  0  0  0  0  0  0  0  0  0  0  0
   -8.3791   -2.6027   -0.7819 H   0  0  0  0  0  0  0  0  0  0  0  0
   -8.7539   -3.3065    0.8679 H   0  0  0  0  0  0  0  0  0  0  0  0
   -2.2872   -1.8414   -1.3496 H   0  0  0  0  0  0  0  0  0  0  0  0
   -1.7416   -0.0794   -1.3839 H   0  0  0  0  0  0  0  0  0  0  0  0
   -0.6797   -2.5066    0.1754 H   0  0  0  0  0  0  0  0  0  0  0  0
   -0.1761   -2.3838   -2.0308 H   0  0  0  0  0  0  0  0  0  0  0  0
    1.4594   -0.7935   -2.8867 H   0  0  0  0  0  0  0  0  0  0  0  0
   -0.1461   -0.1019   -2.6449 H   0  0  0  0  0  0  0  0  0  0  0  0
    1.8528    1.1393   -1.5411 H   0  0  0  0  0  0  0  0  0  0  0  0
    3.9977   -2.6518   -0.1757 H   0  0  0  0  0  0  0  0  0  0  0  0
    5.1692   -1.8629   -1.2347 H   0  0  0  0  0  0  0  0  0  0  0  0
    6.5761   -2.1562    0.5580 H   0  0  0  0  0  0  0  0  0  0  0  0
    5.2487   -2.4628    1.6916 H   0  0  0  0  0  0  0  0  0  0  0  0
    5.1197   -0.2522    2.3987 H   0  0  0  0  0  0  0  0  0  0  0  0
    6.8691   -0.4098    1.9675 H   0  0  0  0  0  0  0  0  0  0  0  0
  1  2  1  0
  2  3  1  0
  3  4  1  0
  4  5  1  0
  5  6  1  0
  6  7  1  0
  7  8  1  0
  8  9  1  0
  9 10  1  0
 10 11  1  0
 11 12  1  0
 12 13  1  0
 13 14  1  0
 14 15  1  0
 10 16  1  0
 16 17  1  0
 17 18  1  0
 18 19  1  0
 19 20  1  0
 20 21  1  0
 16 22  1  0
  8 23  1  0
 22 23  1  0
 23 24  1  0
 24 25  1  0
  7 26  1  0
 25 26  1  0
  5 27  1  0
 27 28  1  0
  3 29  1  0
 28 29  1  0
  1 30  1  0
  1 31  1  0
  1 32  1  0
  2 33  1  0
  2 34  1  0
  3 35  1  0
  4 36  1  0
  4 37  1  0
  5 38  1  0
  6 39  1  0
  7 40  1  0
  8 41  1  0
  9 42  1  0
  9 43  1  0
 10 44  1  0
 12 45  1  0
 12 46  1  0
 13 47  1  0
 13 48  1  0
 15 49  1  0
 15 50  1  0
 15 51  1  0
 16 52  1  0
 18 53  1  0
 18 54  1  0
 19 55  1  0
 19 56  1  0
 21 57  1  0
 21 58  1  0
 21 59  1  0
 22 60  1  0
 22 61  1  0
 23 62  1  0
 24 63  1  0
 25 64  1  0
 25 65  1  0
 26 66  1  0
 27 67  1  0
 27 68  1  0
 28 69  1  0
 28 70  1  0
 29 71  1  0
 29 72  1  0
M  END
>  <PDBID>  (1) 
1M17

>  <PDB ID>  (1) 
1M17

>  <Generic Name>  (1) 
Erlotinib

>  <Brand Name>  (1) 
PMS-erlotinib#Tarceva#Teva-erlotinib

>  <DrugBank ID>  (1) 
DB00530

>  <ATC Codes>  (1) 
L01XE03

>  <Ligand ID>  (1) 
AQ4

>  <Target Name>  (1) 
Epidermal growth factor receptor

>  <UniProt ID>  (1) 
P00533

>  <PDB ID.1>  (1) 
1M17

>  <Seq. Identity>  (1) 
96%

$$$$
