PDB_DB00710_08
     RDKit          3D

 46 45  0  0  0  0  0  0  0  0999 V2000
   -3.0820    1.9081   -0.5947 P   0  0  0  0  0  0  0  0  0  0  0  0
   -2.0331    2.9073   -1.3422 O   0  0  0  0  0  0  0  0  0  0  0  0
   -4.7304    1.8706   -0.9237 O   0  0  0  0  0  0  0  0  0  0  0  0
   -3.3971    2.9868    0.4527 O   0  0  0  0  0  0  0  0  0  0  0  0
   -2.4574    0.6189    0.4486 C   0  0  0  0  0  0  0  0  0  0  0  0
   -3.5917   -0.5614    0.7450 P   0  0  0  0  0  0  0  0  0  0  0  0
   -4.5786    0.6348    1.3593 O   0  0  0  0  0  0  0  0  0  0  0  0
   -4.7372   -1.5464    1.0137 O   0  0  0  0  0  0  0  0  0  0  0  0
   -3.6592   -0.8722   -0.8734 O   0  0  0  0  0  0  0  0  0  0  0  0
   -1.9199    1.1698    1.6556 O   0  0  0  0  0  0  0  0  0  0  0  0
   -1.1836    0.0880   -0.2011 C   0  0  0  0  0  0  0  0  0  0  0  0
   -0.5038   -1.0080    0.5156 C   0  0  0  0  0  0  0  0  0  0  0  0
    0.6924   -1.4764   -0.0708 N   0  0  0  0  0  0  0  0  0  0  0  0
    1.8155   -0.6411   -0.0927 C   0  0  0  0  0  0  0  0  0  0  0  0
    3.0382   -1.2288   -0.7328 C   0  0  0  0  0  0  0  0  0  0  0  0
    4.2078   -0.2922   -0.7276 C   0  0  0  0  0  0  0  0  0  0  0  0
    4.6255    0.1154    0.6740 C   0  0  0  0  0  0  0  0  0  0  0  0
    5.8222    1.0566    0.4918 C   0  0  0  0  0  0  0  0  0  0  0  0
    0.7324   -2.7483   -0.6496 C   0  0  0  0  0  0  0  0  0  0  0  0
   -3.0124    1.1789   -1.6535 H   0  0  0  0  0  0  0  0  0  0  0  0
   -2.5204    3.5352   -1.8800 H   0  0  0  0  0  0  0  0  0  0  0  0
   -4.9400    2.5886   -1.5233 H   0  0  0  0  0  0  0  0  0  0  0  0
   -2.6977    3.1280    1.1071 H   0  0  0  0  0  0  0  0  0  0  0  0
   -2.7775   -1.2680    1.5720 H   0  0  0  0  0  0  0  0  0  0  0  0
   -4.3876    0.6848    2.3034 H   0  0  0  0  0  0  0  0  0  0  0  0
   -5.5878   -1.4938    0.5716 H   0  0  0  0  0  0  0  0  0  0  0  0
   -2.9602   -1.4999   -1.0735 H   0  0  0  0  0  0  0  0  0  0  0  0
   -1.2069    1.7543    1.3614 H   0  0  0  0  0  0  0  0  0  0  0  0
   -1.4142   -0.1639   -1.2750 H   0  0  0  0  0  0  0  0  0  0  0  0
   -0.4588    0.9377   -0.2901 H   0  0  0  0  0  0  0  0  0  0  0  0
   -1.2379   -1.8756    0.5560 H   0  0  0  0  0  0  0  0  0  0  0  0
   -0.3119   -0.7043    1.5628 H   0  0  0  0  0  0  0  0  0  0  0  0
    1.5631    0.3194   -0.5815 H   0  0  0  0  0  0  0  0  0  0  0  0
    2.0793   -0.3869    0.9758 H   0  0  0  0  0  0  0  0  0  0  0  0
    3.3592   -2.1784   -0.2603 H   0  0  0  0  0  0  0  0  0  0  0  0
    2.7946   -1.4609   -1.7910 H   0  0  0  0  0  0  0  0  0  0  0  0
    5.1024   -0.8042   -1.1787 H   0  0  0  0  0  0  0  0  0  0  0  0
    4.0353    0.6258   -1.3167 H   0  0  0  0  0  0  0  0  0  0  0  0
    5.0260   -0.7612    1.2435 H   0  0  0  0  0  0  0  0  0  0  0  0
    3.8518    0.6523    1.2224 H   0  0  0  0  0  0  0  0  0  0  0  0
    5.6775    1.7378   -0.3720 H   0  0  0  0  0  0  0  0  0  0  0  0
    6.0733    1.5762    1.4322 H   0  0  0  0  0  0  0  0  0  0  0  0
    6.6812    0.3732    0.2214 H   0  0  0  0  0  0  0  0  0  0  0  0
    1.0428   -2.7973   -1.7097 H   0  0  0  0  0  0  0  0  0  0  0  0
   -0.2608   -3.2268   -0.5721 H   0  0  0  0  0  0  0  0  0  0  0  0
    1.4277   -3.4526   -0.1039 H   0  0  0  0  0  0  0  0  0  0  0  0
  1  2  1  0
  1  3  1  0
  1  4  1  0
  1  5  1  0
  5  6  1  0
  6  7  1  0
  6  8  1  0
  6  9  1  0
  5 10  1  0
  5 11  1  0
 11 12  1  0
 12 13  1  0
 13 14  1  0
 14 15  1  0
 15 16  1  0
 16 17  1  0
 17 18  1  0
 13 19  1  0
  1 20  1  0
  2 21  1  0
  3 22  1  0
  4 23  1  0
  6 24  1  0
  7 25  1  0
  8 26  1  0
  9 27  1  0
 10 28  1  0
 11 29  1  0
 11 30  1  0
 12 31  1  0
 12 32  1  0
 14 33  1  0
 14 34  1  0
 15 35  1  0
 15 36  1  0
 16 37  1  0
 16 38  1  0
 17 39  1  0
 17 40  1  0
 18 41  1  0
 18 42  1  0
 18 43  1  0
 19 44  1  0
 19 45  1  0
 19 46  1  0
M  END
>  <PDBID>  (1) 
2F94

>  <PDB ID>  (1) 
2F94

>  <Generic Name>  (1) 
Ibandronate

>  <Brand Name>  (1) 
Bondronat#Boniva#Ibandronate Sodium#ADRONiL#Bonviva

>  <DrugBank ID>  (1) 
DB00710

>  <ATC Codes>  (1) 
M05BA06

>  <Ligand ID>  (1) 
BFQ

>  <Target Name>  (1) 
Farnesyl pyrophosphate synthase

>  <UniProt ID>  (1) 
P14324

>  <PDB ID.1>  (1) 
2F94

>  <Seq. Identity>  (1) 
100%

$$$$
