PDB_DB04868_05
     RDKit          3D

 91 95  0  0  0  0  0  0  0  0999 V2000
   -2.3530   -0.1321    1.7372 O   0  0  0  0  0  0  0  0  0  0  0  0
   -1.9008   -1.2680    1.0617 C   0  0  1  0  0  0  0  0  0  0  0  0
   -2.9882   -1.9317    0.4615 N   0  0  0  0  0  0  0  0  0  0  0  0
   -3.7283   -1.3534   -0.5750 C   0  0  2  0  0  0  0  0  0  0  0  0
   -4.5122   -0.1244   -0.2729 C   0  0  0  0  0  0  0  0  0  0  0  0
   -5.6858   -0.3394    0.6496 C   0  0  0  0  0  0  0  0  0  0  0  0
   -6.6236    0.7570    0.5713 N   0  0  0  0  0  0  0  0  0  0  0  0
   -6.1082    2.0198    0.9738 C   0  0  0  0  0  0  0  0  0  0  0  0
   -6.7156    3.0245    0.0228 C   0  0  0  0  0  0  0  0  0  0  0  0
   -7.8603    3.7883    0.6751 C   0  0  0  0  0  0  0  0  0  0  0  0
   -7.2608    2.2704   -1.0720 N   0  0  0  0  0  0  0  0  0  0  0  0
   -7.2907    0.8812   -0.6815 C   0  0  0  0  0  0  0  0  0  0  0  0
   -6.4343   -1.6082    0.4394 C   0  0  0  0  0  0  0  0  0  0  0  0
   -4.7287   -2.4275   -1.0617 C   0  0  0  0  0  0  0  0  0  0  0  0
   -5.5424   -2.7937    0.1581 C   0  0  0  0  0  0  0  0  0  0  0  0
   -6.4555   -3.9765   -0.1521 C   0  0  0  0  0  0  0  0  0  0  0  0
   -5.7462   -5.1138   -0.4244 F   0  0  0  0  0  0  0  0  0  0  0  0
   -7.2004   -3.6362   -1.2835 F   0  0  0  0  0  0  0  0  0  0  0  0
   -7.3122   -4.1167    0.9097 F   0  0  0  0  0  0  0  0  0  0  0  0
   -0.6931   -0.9969    0.2119 C   0  0  1  0  0  0  0  0  0  0  0  0
   -0.8031    0.0188   -0.8474 C   0  0  0  0  0  0  0  0  0  0  0  0
    0.3166    1.0252   -0.8596 C   0  0  0  0  0  0  0  0  0  0  0  0
    1.6955    0.4730   -0.7062 C   0  0  0  0  0  0  0  0  0  0  0  0
    2.2585    0.2442   -2.0890 C   0  0  0  0  0  0  0  0  0  0  0  0
    1.7909   -0.7399    0.1550 C   0  0  2  0  0  0  0  0  0  0  0  0
    0.5672   -0.8506    1.0479 C   0  0  0  0  0  0  0  0  0  0  0  0
    2.9245   -0.7350    0.9732 N   0  0  0  0  0  0  0  0  0  0  0  0
    4.2269   -0.7775    0.4419 C   0  0  0  0  0  0  0  0  0  0  0  0
    4.5060   -1.9293   -0.3829 N   0  0  0  0  0  0  0  0  0  0  0  0
    5.8226   -1.8607   -0.9484 C   0  0  0  0  0  0  0  0  0  0  0  0
    5.9711   -0.5831   -1.7378 C   0  0  0  0  0  0  0  0  0  0  0  0
    5.8288    0.5588   -0.7796 C   0  0  0  0  0  0  0  0  0  0  0  0
    4.5597    0.4798   -0.1187 N   0  0  0  0  0  0  0  0  0  0  0  0
    6.9946    0.6966    0.1584 C   0  0  0  0  0  0  0  0  0  0  0  0
    6.7182    1.8817    1.0608 C   0  0  0  0  0  0  0  0  0  0  0  0
    7.9972    2.5429    1.5288 C   0  0  0  0  0  0  0  0  0  0  0  0
    9.0658    1.4492    1.5565 C   0  0  0  0  0  0  0  0  0  0  0  0
    9.4044    1.1645    0.1911 N   0  0  0  0  0  0  0  0  0  0  0  0
    8.2460    0.9388   -0.6450 C   0  0  0  0  0  0  0  0  0  0  0  0
   -2.8731   -0.4455    2.5134 H   0  0  0  0  0  0  0  0  0  0  0  0
   -1.4885   -2.0031    1.8625 H   0  0  0  0  0  0  0  0  0  0  0  0
   -2.8982   -2.9658    0.3786 H   0  0  0  0  0  0  0  0  0  0  0  0
   -3.1440   -1.1357   -1.5085 H   0  0  0  0  0  0  0  0  0  0  0  0
   -3.8868    0.6613    0.1879 H   0  0  0  0  0  0  0  0  0  0  0  0
   -4.8578    0.3024   -1.2592 H   0  0  0  0  0  0  0  0  0  0  0  0
   -5.2704   -0.3135    1.6884 H   0  0  0  0  0  0  0  0  0  0  0  0
   -6.5352    2.2507    1.9929 H   0  0  0  0  0  0  0  0  0  0  0  0
   -5.0268    2.1023    1.0640 H   0  0  0  0  0  0  0  0  0  0  0  0
   -5.9786    3.7464   -0.3627 H   0  0  0  0  0  0  0  0  0  0  0  0
   -7.8345    3.6227    1.7775 H   0  0  0  0  0  0  0  0  0  0  0  0
   -8.8502    3.4198    0.3412 H   0  0  0  0  0  0  0  0  0  0  0  0
   -7.7813    4.8730    0.4970 H   0  0  0  0  0  0  0  0  0  0  0  0
   -8.1997    2.5924   -1.3876 H   0  0  0  0  0  0  0  0  0  0  0  0
   -8.3678    0.5864   -0.5296 H   0  0  0  0  0  0  0  0  0  0  0  0
   -6.8836    0.2794   -1.4992 H   0  0  0  0  0  0  0  0  0  0  0  0
   -7.1958   -1.5469   -0.3652 H   0  0  0  0  0  0  0  0  0  0  0  0
   -6.9879   -1.8362    1.3796 H   0  0  0  0  0  0  0  0  0  0  0  0
   -5.3621   -1.9720   -1.8470 H   0  0  0  0  0  0  0  0  0  0  0  0
   -4.1414   -3.2751   -1.4609 H   0  0  0  0  0  0  0  0  0  0  0  0
   -4.9005   -2.9813    1.0172 H   0  0  0  0  0  0  0  0  0  0  0  0
   -0.5189   -1.9964   -0.3225 H   0  0  0  0  0  0  0  0  0  0  0  0
   -0.8844   -0.4544   -1.8475 H   0  0  0  0  0  0  0  0  0  0  0  0
   -1.7526    0.5926   -0.7205 H   0  0  0  0  0  0  0  0  0  0  0  0
    0.1678    1.7668   -0.0237 H   0  0  0  0  0  0  0  0  0  0  0  0
    0.2090    1.6191   -1.7912 H   0  0  0  0  0  0  0  0  0  0  0  0
    2.3865    1.2378   -0.2414 H   0  0  0  0  0  0  0  0  0  0  0  0
    1.4084    0.2295   -2.7984 H   0  0  0  0  0  0  0  0  0  0  0  0
    2.9328    1.0593   -2.4205 H   0  0  0  0  0  0  0  0  0  0  0  0
    2.7285   -0.7591   -2.1893 H   0  0  0  0  0  0  0  0  0  0  0  0
    1.7089   -1.6146   -0.5363 H   0  0  0  0  0  0  0  0  0  0  0  0
    0.4342    0.0433    1.6815 H   0  0  0  0  0  0  0  0  0  0  0  0
    0.7232   -1.7172    1.7142 H   0  0  0  0  0  0  0  0  0  0  0  0
    2.8202   -1.0475    1.9486 H   0  0  0  0  0  0  0  0  0  0  0  0
    4.9258   -0.9091    1.3317 H   0  0  0  0  0  0  0  0  0  0  0  0
    4.5093   -2.7603    0.2622 H   0  0  0  0  0  0  0  0  0  0  0  0
    6.6276   -1.9443   -0.1858 H   0  0  0  0  0  0  0  0  0  0  0  0
    5.9933   -2.6956   -1.6582 H   0  0  0  0  0  0  0  0  0  0  0  0
    5.1009   -0.5323   -2.4344 H   0  0  0  0  0  0  0  0  0  0  0  0
    6.8679   -0.5522   -2.3653 H   0  0  0  0  0  0  0  0  0  0  0  0
    5.8105    1.4963   -1.4012 H   0  0  0  0  0  0  0  0  0  0  0  0
    4.5985    1.1766    0.6853 H   0  0  0  0  0  0  0  0  0  0  0  0
    7.0947   -0.2201    0.8040 H   0  0  0  0  0  0  0  0  0  0  0  0
    6.1583    2.6545    0.4899 H   0  0  0  0  0  0  0  0  0  0  0  0
    6.1377    1.6045    1.9613 H   0  0  0  0  0  0  0  0  0  0  0  0
    7.8403    2.9616    2.5584 H   0  0  0  0  0  0  0  0  0  0  0  0
    8.3316    3.3600    0.8572 H   0  0  0  0  0  0  0  0  0  0  0  0
    8.5689    0.5679    2.0578 H   0  0  0  0  0  0  0  0  0  0  0  0
    9.9727    1.7706    2.0887 H   0  0  0  0  0  0  0  0  0  0  0  0
   10.0837    0.3807    0.1819 H   0  0  0  0  0  0  0  0  0  0  0  0
    8.0686    1.8052   -1.2991 H   0  0  0  0  0  0  0  0  0  0  0  0
    8.4592   -0.0046   -1.2153 H   0  0  0  0  0  0  0  0  0  0  0  0
  1  2  1  0
  2  3  1  0
  3  4  1  0
  4  5  1  0
  5  6  1  0
  6  7  1  0
  7  8  1  0
  8  9  1  0
  9 10  1  0
  9 11  1  0
  7 12  1  0
 11 12  1  0
  6 13  1  0
  4 14  1  0
 13 15  1  0
 14 15  1  0
 15 16  1  0
 16 17  1  0
 16 18  1  0
 16 19  1  0
  2 20  1  0
 20 21  1  0
 21 22  1  0
 22 23  1  0
 23 24  1  0
 23 25  1  0
 20 26  1  0
 25 26  1  0
 25 27  1  0
 27 28  1  0
 28 29  1  0
 29 30  1  0
 30 31  1  0
 31 32  1  0
 28 33  1  0
 32 33  1  0
 32 34  1  0
 34 35  1  0
 35 36  1  0
 36 37  1  0
 37 38  1  0
 34 39  1  0
 38 39  1  0
  1 40  1  0
  2 41  1  1
  3 42  1  0
  4 43  1  6
  5 44  1  0
  5 45  1  0
  6 46  1  0
  8 47  1  0
  8 48  1  0
  9 49  1  0
 10 50  1  0
 10 51  1  0
 10 52  1  0
 11 53  1  0
 12 54  1  0
 12 55  1  0
 13 56  1  0
 13 57  1  0
 14 58  1  0
 14 59  1  0
 15 60  1  0
 20 61  1  6
 21 62  1  0
 21 63  1  0
 22 64  1  0
 22 65  1  0
 23 66  1  0
 24 67  1  0
 24 68  1  0
 24 69  1  0
 25 70  1  6
 26 71  1  0
 26 72  1  0
 27 73  1  0
 28 74  1  0
 29 75  1  0
 30 76  1  0
 30 77  1  0
 31 78  1  0
 31 79  1  0
 32 80  1  0
 33 81  1  0
 34 82  1  0
 35 83  1  0
 35 84  1  0
 36 85  1  0
 36 86  1  0
 37 87  1  0
 37 88  1  0
 38 89  1  0
 39 90  1  0
 39 91  1  0
M  END
>  <PDBID>  (1) 
5MO4

>  <PDB ID>  (1) 
5MO4

>  <Generic Name>  (1) 
Nilotinib

>  <Brand Name>  (1) 
Tasigna

>  <DrugBank ID>  (1) 
DB04868

>  <ATC Codes>  (1) 
L01XE08

>  <Ligand ID>  (1) 
NIL

>  <Target Name>  (1) 
Tyrosine-protein kinase ABL1

>  <UniProt ID>  (1) 
P00519

>  <PDB ID.1>  (1) 
5MO4

>  <Seq. Identity>  (1) 
97%

$$$$
