PDB_DB01263_09
     RDKit          3D

119125  0  0  0  0  0  0  0  0999 V2000
   10.1362    2.4698   -0.5555 C   0  0  0  0  0  0  0  0  0  0  0  0
   10.4554    0.6516    3.3643 C   0  0  0  0  0  0  0  0  0  0  0  0
    8.9096   -1.4312    2.0996 O   0  0  0  0  0  0  0  0  0  0  0  0
   12.4408    1.4558    2.5081 O   0  0  0  0  0  0  0  0  0  0  0  0
  -11.0387    0.4082    0.4730 F   0  0  0  0  0  0  0  0  0  0  0  0
  -11.1318    0.6923    3.1396 F   0  0  0  0  0  0  0  0  0  0  0  0
   -9.9920   -1.0552    2.0001 C   0  0  0  0  0  0  0  0  0  0  0  0
   -2.4433   -2.0618    0.5348 C   0  0  0  0  0  0  0  0  0  0  0  0
   -1.8600   -2.0829   -1.7626 C   0  0  0  0  0  0  0  0  0  0  0  0
   -1.6176   -0.8494    0.8792 C   0  0  0  0  0  0  0  0  0  0  0  0
   -0.7791   -1.1206   -1.4947 C   0  0  0  0  0  0  0  0  0  0  0  0
    4.7822   -2.1888   -1.0471 C   0  0  0  0  0  0  0  0  0  0  0  0
    5.1927    0.3021   -0.8456 C   0  0  0  0  0  0  0  0  0  0  0  0
    6.2742   -2.3837   -1.1943 C   0  0  0  0  0  0  0  0  0  0  0  0
    6.6696   -0.0123   -1.1297 C   0  0  0  0  0  0  0  0  0  0  0  0
  -10.0335   -0.1591    3.1922 C   0  0  0  0  0  0  0  0  0  0  0  0
  -11.0334    2.8062   -1.7293 C   0  0  0  0  0  0  0  0  0  0  0  0
   -8.6510    0.6948    0.7625 C   0  0  1  0  0  0  0  0  0  0  0  0
   -9.5533    1.9880   -3.2954 C   0  0  0  0  0  0  0  0  0  0  0  0
    9.2410   -1.8043   -1.0712 C   0  0  0  0  0  0  0  0  0  0  0  0
   10.6019    2.0618    0.8133 C   0  0  0  0  0  0  0  0  0  0  0  0
   -6.5306    1.1569   -0.5304 C   0  0  0  0  0  0  0  0  0  0  0  0
    1.2564   -1.0663    0.8262 C   0  0  0  0  0  0  0  0  0  0  0  0
    1.2306    0.9894   -0.4469 C   0  0  0  0  0  0  0  0  0  0  0  0
    2.7466   -0.7571    0.5900 C   0  0  0  0  0  0  0  0  0  0  0  0
    2.2040    0.3947   -1.4386 C   0  0  0  0  0  0  0  0  0  0  0  0
   -4.2698    0.3285   -1.1536 C   0  0  0  0  0  0  0  0  0  0  0  0
   -8.5476    0.5862   -1.7109 C   0  0  0  0  0  0  0  0  0  0  0  0
  -10.9419    2.2515   -3.0533 N   0  0  0  0  0  0  0  0  0  0  0  0
   -9.7417    2.5902   -1.1560 N   0  0  0  0  0  0  0  0  0  0  0  0
   10.2004   -0.6845   -0.9207 N   0  0  0  0  0  0  0  0  0  0  0  0
   -3.2393   -0.4333   -0.9047 O   0  0  0  0  0  0  0  0  0  0  0  0
   -7.4631   -0.9950   -0.4076 O   0  0  0  0  0  0  0  0  0  0  0  0
   -9.8407   -0.2263    0.7314 C   0  0  0  0  0  0  0  0  0  0  0  0
   -7.8796    0.3950    2.0480 C   0  0  0  0  0  0  0  0  0  0  0  0
   -3.0640   -1.7249   -0.8532 C   0  0  0  0  0  0  0  0  0  0  0  0
   -0.7862   -0.3409   -0.2478 C   0  0  0  0  0  0  0  0  0  0  0  0
    4.2853   -0.8173   -1.2940 C   0  0  0  0  0  0  0  0  0  0  0  0
    6.9605   -1.2819   -0.4178 C   0  0  0  0  0  0  0  0  0  0  0  0
   -8.7867    0.7016    3.2149 C   0  0  0  0  0  0  0  0  0  0  0  0
    8.8781   -0.6466    0.9064 C   0  0  0  0  0  0  0  0  0  0  0  0
   11.4961    0.3928    2.3266 C   0  0  2  0  0  0  0  0  0  0  0  0
   11.0124    0.6035    0.8895 C   0  0  1  0  0  0  0  0  0  0  0  0
    0.5208   -0.0067    0.2717 N   0  0  0  0  0  0  0  0  0  0  0  0
    2.9724   -0.6395   -0.8054 N   0  0  0  0  0  0  0  0  0  0  0  0
   -8.9163    1.9242   -2.0013 N   0  0  0  0  0  0  0  0  0  0  0  0
    8.2863   -1.5674   -0.0580 N   0  0  0  0  0  0  0  0  0  0  0  0
   10.1314   -0.3498    0.4105 N   0  0  0  0  0  0  0  0  0  0  0  0
   -7.7730    0.3622   -0.4379 C   0  0  2  0  0  0  0  0  0  0  0  0
   -6.0932   -1.1539   -0.4532 C   0  0  0  0  0  0  0  0  0  0  0  0
   -5.4310    0.1658   -0.1804 C   0  0  2  0  0  0  0  0  0  0  0  0
   10.8794    2.0562   -1.3031 H   0  0  0  0  0  0  0  0  0  0  0  0
   10.2358    3.5772   -0.7097 H   0  0  0  0  0  0  0  0  0  0  0  0
    9.1343    2.1857   -0.8368 H   0  0  0  0  0  0  0  0  0  0  0  0
   10.7781    1.4765    4.0912 H   0  0  0  0  0  0  0  0  0  0  0  0
    9.4853    1.0004    3.0089 H   0  0  0  0  0  0  0  0  0  0  0  0
   10.2729   -0.2031    4.0672 H   0  0  0  0  0  0  0  0  0  0  0  0
    9.1053   -2.3687    1.9054 H   0  0  0  0  0  0  0  0  0  0  0  0
   13.0176    1.1720    3.2376 H   0  0  0  0  0  0  0  0  0  0  0  0
  -10.9713   -1.6071    1.9099 H   0  0  0  0  0  0  0  0  0  0  0  0
   -9.2134   -1.8119    2.0784 H   0  0  0  0  0  0  0  0  0  0  0  0
   -1.8866   -2.9976    0.5014 H   0  0  0  0  0  0  0  0  0  0  0  0
   -3.2955   -2.1151    1.2250 H   0  0  0  0  0  0  0  0  0  0  0  0
   -2.1723   -2.0429   -2.8149 H   0  0  0  0  0  0  0  0  0  0  0  0
   -1.6344   -3.1342   -1.5135 H   0  0  0  0  0  0  0  0  0  0  0  0
   -0.9613   -1.1557    1.7488 H   0  0  0  0  0  0  0  0  0  0  0  0
   -2.3183   -0.0978    1.3111 H   0  0  0  0  0  0  0  0  0  0  0  0
   -0.6974   -0.4499   -2.4067 H   0  0  0  0  0  0  0  0  0  0  0  0
    0.1904   -1.7075   -1.5788 H   0  0  0  0  0  0  0  0  0  0  0  0
    4.3491   -2.8375   -1.8747 H   0  0  0  0  0  0  0  0  0  0  0  0
    4.5274   -2.6228   -0.0599 H   0  0  0  0  0  0  0  0  0  0  0  0
    5.1457    0.4643    0.2506 H   0  0  0  0  0  0  0  0  0  0  0  0
    4.9756    1.2098   -1.4313 H   0  0  0  0  0  0  0  0  0  0  0  0
    6.5037   -2.3212   -2.2793 H   0  0  0  0  0  0  0  0  0  0  0  0
    6.5251   -3.3762   -0.7702 H   0  0  0  0  0  0  0  0  0  0  0  0
    7.2047    0.8660   -0.7166 H   0  0  0  0  0  0  0  0  0  0  0  0
    6.7372   -0.0753   -2.2397 H   0  0  0  0  0  0  0  0  0  0  0  0
  -10.0262   -0.7885    4.1022 H   0  0  0  0  0  0  0  0  0  0  0  0
  -11.8721    2.3631   -1.1616 H   0  0  0  0  0  0  0  0  0  0  0  0
  -11.2384    3.9002   -1.7707 H   0  0  0  0  0  0  0  0  0  0  0  0
   -8.8756    1.7521    0.7926 H   0  0  0  0  0  0  0  0  0  0  0  0
   -9.0883    2.7871   -3.9416 H   0  0  0  0  0  0  0  0  0  0  0  0
   -9.4698    1.0281   -3.8480 H   0  0  0  0  0  0  0  0  0  0  0  0
    8.8127   -1.8444   -2.0769 H   0  0  0  0  0  0  0  0  0  0  0  0
    9.8120   -2.7238   -0.8679 H   0  0  0  0  0  0  0  0  0  0  0  0
    9.9445    2.3944    1.6194 H   0  0  0  0  0  0  0  0  0  0  0  0
   11.5628    2.6388    0.9747 H   0  0  0  0  0  0  0  0  0  0  0  0
   -6.3252    1.5492   -1.5559 H   0  0  0  0  0  0  0  0  0  0  0  0
   -6.5051    2.0519    0.1249 H   0  0  0  0  0  0  0  0  0  0  0  0
    1.0605   -2.0698    0.4701 H   0  0  0  0  0  0  0  0  0  0  0  0
    1.1377   -1.0821    1.9376 H   0  0  0  0  0  0  0  0  0  0  0  0
    1.7841    1.6612    0.2633 H   0  0  0  0  0  0  0  0  0  0  0  0
    0.4911    1.6543   -0.9493 H   0  0  0  0  0  0  0  0  0  0  0  0
    3.2723   -1.6016    1.0380 H   0  0  0  0  0  0  0  0  0  0  0  0
    2.9091    0.2042    1.1415 H   0  0  0  0  0  0  0  0  0  0  0  0
    1.6407    0.0490   -2.3273 H   0  0  0  0  0  0  0  0  0  0  0  0
    2.8193    1.2510   -1.7833 H   0  0  0  0  0  0  0  0  0  0  0  0
   -3.9334    1.4192   -1.1271 H   0  0  0  0  0  0  0  0  0  0  0  0
   -4.6676    0.2460   -2.2121 H   0  0  0  0  0  0  0  0  0  0  0  0
   -9.3830   -0.1408   -1.8577 H   0  0  0  0  0  0  0  0  0  0  0  0
   -7.8134    0.2866   -2.5352 H   0  0  0  0  0  0  0  0  0  0  0  0
  -11.3425    2.9347   -3.7358 H   0  0  0  0  0  0  0  0  0  0  0  0
   -9.3306    3.4705   -0.8158 H   0  0  0  0  0  0  0  0  0  0  0  0
    9.8192    0.0265   -1.5885 H   0  0  0  0  0  0  0  0  0  0  0  0
   -9.6884   -0.9785   -0.0844 H   0  0  0  0  0  0  0  0  0  0  0  0
   -6.9936    1.0537    2.1665 H   0  0  0  0  0  0  0  0  0  0  0  0
   -7.5590   -0.6462    2.1184 H   0  0  0  0  0  0  0  0  0  0  0  0
   -3.8779   -2.4425   -1.0529 H   0  0  0  0  0  0  0  0  0  0  0  0
   -1.2275    0.6772   -0.5018 H   0  0  0  0  0  0  0  0  0  0  0  0
    4.2227   -0.6825   -2.4203 H   0  0  0  0  0  0  0  0  0  0  0  0
    6.3713   -1.2299    0.5569 H   0  0  0  0  0  0  0  0  0  0  0  0
   -8.2018    0.5133    4.1420 H   0  0  0  0  0  0  0  0  0  0  0  0
   -9.0212    1.7841    3.2300 H   0  0  0  0  0  0  0  0  0  0  0  0
    8.1433    0.1766    1.0053 H   0  0  0  0  0  0  0  0  0  0  0  0
   12.0743   -0.5286    2.4379 H   0  0  0  0  0  0  0  0  0  0  0  0
   11.9558    0.5442    0.2661 H   0  0  0  0  0  0  0  0  0  0  0  0
   -5.8925   -1.5212   -1.5034 H   0  0  0  0  0  0  0  0  0  0  0  0
   -5.7521   -1.9502    0.2280 H   0  0  0  0  0  0  0  0  0  0  0  0
   -5.1120    0.1973    0.8631 H   0  0  0  0  0  0  0  0  0  0  0  0
  8 10  1  0
  9 11  1  0
 12 14  1  0
 13 15  1  0
  6 16  1  0
  7 16  1  0
  1 21  1  0
 23 25  1  0
 24 26  1  0
 17 29  1  0
 19 29  1  0
 17 30  1  0
 20 31  1  0
 27 32  1  0
  5 34  1  0
  7 34  1  0
 18 34  1  0
 18 35  1  0
  8 36  1  0
  9 36  1  0
 32 36  1  0
 10 37  1  0
 11 37  1  0
 12 38  1  0
 13 38  1  0
 14 39  1  0
 15 39  1  0
 16 40  1  0
 35 40  1  0
  3 41  1  0
  2 42  1  0
  4 42  1  0
 21 43  1  0
 42 43  1  0
 23 44  1  0
 24 44  1  0
 37 44  1  0
 25 45  1  0
 26 45  1  0
 38 45  1  0
 19 46  1  0
 28 46  1  0
 30 46  1  0
 20 47  1  0
 39 47  1  0
 41 47  1  0
 31 48  1  0
 41 48  1  0
 43 48  1  0
 18 49  1  0
 22 49  1  0
 49 28  1  6
 33 49  1  0
 33 50  1  0
 22 51  1  0
 27 51  1  0
 50 51  1  0
  1 52  1  0
  1 53  1  0
  1 54  1  0
  2 55  1  0
  2 56  1  0
  2 57  1  0
  3 58  1  0
  4 59  1  0
  7 60  1  0
  7 61  1  0
  8 62  1  0
  8 63  1  0
  9 64  1  0
  9 65  1  0
 10 66  1  0
 10 67  1  0
 11 68  1  0
 11 69  1  0
 12 70  1  0
 12 71  1  0
 13 72  1  0
 13 73  1  0
 14 74  1  0
 14 75  1  0
 15 76  1  0
 15 77  1  0
 16 78  1  0
 17 79  1  0
 17 80  1  0
 18 81  1  1
 19 82  1  0
 19 83  1  0
 20 84  1  0
 20 85  1  0
 21 86  1  0
 21 87  1  0
 22 88  1  0
 22 89  1  0
 23 90  1  0
 23 91  1  0
 24 92  1  0
 24 93  1  0
 25 94  1  0
 25 95  1  0
 26 96  1  0
 26 97  1  0
 27 98  1  0
 27 99  1  0
 28100  1  0
 28101  1  0
 29102  1  0
 30103  1  0
 31104  1  0
 34105  1  0
 35106  1  0
 35107  1  0
 36108  1  0
 37109  1  0
 38110  1  0
 39111  1  0
 40112  1  0
 40113  1  0
 41114  1  0
 42115  1  6
 43116  1  6
 50117  1  0
 50118  1  0
 51119  1  1
M  END
>  <PDBID>  (1) 
4ZE1

>  <PDB ID>  (1) 
4ZE1

>  <Generic Name>  (1) 
Posaconazole

>  <Brand Name>  (1) 
Noxafil#Posanol

>  <DrugBank ID>  (1) 
DB01263

>  <ATC Codes>  (1) 
J02AC04

>  <Ligand ID>  (1) 
X2N

>  <Target Name>  (1) 
Lanosterol 14-alpha demethylase

>  <UniProt ID>  (1) 
P10613

>  <PDB ID.1>  (1) 
4ZE1

>  <Seq. Identity>  (1) 
65%

$$$$
