PDB_DB00866_04
     RDKit          3D

 49 49  0  0  0  0  0  0  0  0999 V2000
    5.1908    0.8103    1.3089 C   0  0  0  0  0  0  0  0  0  0  0  0
    3.2789    1.0310   -0.2165 N   0  0  0  0  0  0  0  0  0  0  0  0
    1.0655   -0.1652   -1.6582 O   0  0  0  0  0  0  0  0  0  0  0  0
    4.6592    1.3285   -0.0070 C   0  0  0  0  0  0  0  0  0  0  0  0
   -0.5743   -0.8636    0.7097 O   0  0  0  0  0  0  0  0  0  0  0  0
    5.5484    0.8068   -1.1239 C   0  0  0  0  0  0  0  0  0  0  0  0
    2.9969   -0.3807   -0.2845 C   0  0  0  0  0  0  0  0  0  0  0  0
    1.5382   -0.7027   -0.4907 C   0  0  1  0  0  0  0  0  0  0  0  0
    0.7008   -0.4186    0.7069 C   0  0  0  0  0  0  0  0  0  0  0  0
   -1.4484   -0.3999   -0.2327 C   0  0  0  0  0  0  0  0  0  0  0  0
   -1.9519   -1.6493   -0.9767 C   0  0  0  0  0  0  0  0  0  0  0  0
   -2.3014   -2.6498    0.0945 C   0  0  0  0  0  0  0  0  0  0  0  0
   -3.3904   -2.1833    1.0043 C   0  0  0  0  0  0  0  0  0  0  0  0
   -3.0465   -0.8432    1.5795 C   0  0  0  0  0  0  0  0  0  0  0  0
   -2.6633    0.1531    0.4838 C   0  0  0  0  0  0  0  0  0  0  0  0
   -3.8640    0.3223   -0.3839 C   0  0  0  0  0  0  0  0  0  0  0  0
   -3.6600    1.2589   -1.5479 C   0  0  0  0  0  0  0  0  0  0  0  0
   -3.2859    2.6537   -1.0855 C   0  0  0  0  0  0  0  0  0  0  0  0
    4.4626    0.9384    2.1348 H   0  0  0  0  0  0  0  0  0  0  0  0
    5.5432   -0.2390    1.2272 H   0  0  0  0  0  0  0  0  0  0  0  0
    6.0876    1.4165    1.5676 H   0  0  0  0  0  0  0  0  0  0  0  0
    2.9497    1.5610   -1.0286 H   0  0  0  0  0  0  0  0  0  0  0  0
    1.1780    0.8160   -1.6792 H   0  0  0  0  0  0  0  0  0  0  0  0
    4.7786    2.4302    0.0039 H   0  0  0  0  0  0  0  0  0  0  0  0
    6.5812    1.1664   -1.0198 H   0  0  0  0  0  0  0  0  0  0  0  0
    5.1633    1.2203   -2.0818 H   0  0  0  0  0  0  0  0  0  0  0  0
    5.5227   -0.2959   -1.0755 H   0  0  0  0  0  0  0  0  0  0  0  0
    3.4176   -0.9095    0.5765 H   0  0  0  0  0  0  0  0  0  0  0  0
    3.5316   -0.7737   -1.1925 H   0  0  0  0  0  0  0  0  0  0  0  0
    1.5110   -1.8278   -0.6294 H   0  0  0  0  0  0  0  0  0  0  0  0
    1.2158   -0.8593    1.6112 H   0  0  0  0  0  0  0  0  0  0  0  0
    0.7386    0.6967    0.9059 H   0  0  0  0  0  0  0  0  0  0  0  0
   -1.0374    0.3328   -0.9197 H   0  0  0  0  0  0  0  0  0  0  0  0
   -1.1131   -2.0901   -1.5694 H   0  0  0  0  0  0  0  0  0  0  0  0
   -2.7512   -1.4332   -1.6800 H   0  0  0  0  0  0  0  0  0  0  0  0
   -2.5469   -3.6074   -0.4185 H   0  0  0  0  0  0  0  0  0  0  0  0
   -1.3863   -2.7878    0.7156 H   0  0  0  0  0  0  0  0  0  0  0  0
   -4.4039   -2.2313    0.5618 H   0  0  0  0  0  0  0  0  0  0  0  0
   -3.4181   -2.9063    1.8706 H   0  0  0  0  0  0  0  0  0  0  0  0
   -2.2224   -0.9620    2.2996 H   0  0  0  0  0  0  0  0  0  0  0  0
   -3.9481   -0.4417    2.0844 H   0  0  0  0  0  0  0  0  0  0  0  0
   -2.4202    1.1133    0.9693 H   0  0  0  0  0  0  0  0  0  0  0  0
   -4.6433    0.8234    0.2614 H   0  0  0  0  0  0  0  0  0  0  0  0
   -4.3382   -0.6103   -0.7208 H   0  0  0  0  0  0  0  0  0  0  0  0
   -2.9781    0.8752   -2.3130 H   0  0  0  0  0  0  0  0  0  0  0  0
   -4.6592    1.3640   -2.0471 H   0  0  0  0  0  0  0  0  0  0  0  0
   -2.1923    2.8106   -1.1690 H   0  0  0  0  0  0  0  0  0  0  0  0
   -3.7608    3.4346   -1.7477 H   0  0  0  0  0  0  0  0  0  0  0  0
   -3.6547    2.8675   -0.0672 H   0  0  0  0  0  0  0  0  0  0  0  0
  1  4  1  0
  2  4  1  0
  4  6  1  0
  2  7  1  0
  3  8  1  0
  7  8  1  0
  5  9  1  0
  8  9  1  0
  5 10  1  0
 10 11  1  0
 11 12  1  0
 12 13  1  0
 13 14  1  0
 10 15  1  0
 14 15  1  0
 15 16  1  0
 16 17  1  0
 17 18  1  0
  1 19  1  0
  1 20  1  0
  1 21  1  0
  2 22  1  0
  3 23  1  0
  4 24  1  0
  6 25  1  0
  6 26  1  0
  6 27  1  0
  7 28  1  0
  7 29  1  0
  8 30  1  6
  9 31  1  0
  9 32  1  0
 10 33  1  0
 11 34  1  0
 11 35  1  0
 12 36  1  0
 12 37  1  0
 13 38  1  0
 13 39  1  0
 14 40  1  0
 14 41  1  0
 15 42  1  0
 16 43  1  0
 16 44  1  0
 17 45  1  0
 17 46  1  0
 18 47  1  0
 18 48  1  0
 18 49  1  0
M  END
>  <PDBID>  (1) 
3NYA

>  <PDB ID>  (1) 
3NYA

>  <Generic Name>  (1) 
Alprenolol

>  <Brand Name>  (1) 
Apllobal#Aptin#Aptine#Aptol Duriles#Atenenol#Elp#Gubernal#Regletin#Skajilol#Yobir

>  <DrugBank ID>  (1) 
DB00866

>  <ATC Codes>  (1) 
C07AA01

>  <Ligand ID>  (1) 
JTZ

>  <Target Name>  (1) 
Beta-1 adrenergic receptor

>  <UniProt ID>  (1) 
P08588

>  <PDB ID.1>  (1) 
3NYA

>  <Seq. Identity>  (1) 
67%

$$$$
