PDB_DB01034_07
     RDKit          3D

 82 82  0  0  0  0  0  0  0  0999 V2000
    4.0560   -1.5147    0.6163 O   0  0  0  0  0  0  0  0  0  0  0  0
    4.3539   -0.7220   -0.4576 C   0  0  0  0  0  0  0  0  0  0  0  0
    5.8104   -0.5979   -0.5218 N   0  0  0  0  0  0  0  0  0  0  0  0
    3.7745    0.6365   -0.4687 C   0  0  2  0  0  0  0  0  0  0  0  0
    4.1004    1.5406    0.5473 O   0  0  0  0  0  0  0  0  0  0  0  0
    2.7323    1.1690    0.4372 C   0  0  2  0  0  0  0  0  0  0  0  0
    2.1404    0.5035    1.6135 C   0  0  1  0  0  0  0  0  0  0  0  0
    2.0914    1.3976    2.7325 O   0  0  0  0  0  0  0  0  0  0  0  0
    0.9974   -0.3906    1.5187 C   0  0  0  0  0  0  0  0  0  0  0  0
   -0.3192    0.0077    1.0127 C   0  0  0  0  0  0  0  0  0  0  0  0
   -0.3085    0.4323   -0.4206 C   0  0  0  0  0  0  0  0  0  0  0  0
   -1.7142    0.7905   -0.9062 C   0  0  0  0  0  0  0  0  0  0  0  0
   -2.6765   -0.3697   -0.8023 C   0  0  0  0  0  0  0  0  0  0  0  0
   -4.0081    0.1828   -1.3382 C   0  0  0  0  0  0  0  0  0  0  0  0
   -5.0791   -0.8828   -1.2938 C   0  0  0  0  0  0  0  0  0  0  0  0
   -5.2518   -1.3184    0.1429 C   0  0  0  0  0  0  0  0  0  0  0  0
    3.6761   -0.3470    1.9722 O   0  0  0  0  0  0  0  0  0  0  0  0
    4.7137    0.1928    1.2607 C   0  0  0  0  0  0  0  0  0  0  0  0
    5.8700   -0.6926    1.4347 N   0  0  0  0  0  0  0  0  0  0  0  0
    4.4761    0.4516   -0.1789 C   0  0  2  0  0  0  0  0  0  0  0  0
    3.3253    1.3317   -0.3794 O   0  0  0  0  0  0  0  0  0  0  0  0
    3.3787    0.0672   -0.9955 C   0  0  2  0  0  0  0  0  0  0  0  0
    2.2621   -0.8462   -0.6587 C   0  0  0  0  0  0  0  0  0  0  0  0
    2.4970   -2.0824   -1.3360 O   0  0  0  0  0  0  0  0  0  0  0  0
    0.8953   -0.4080   -1.1287 C   0  0  0  0  0  0  0  0  0  0  0  0
    0.4975    0.9011   -0.5514 C   0  0  0  0  0  0  0  0  0  0  0  0
   -0.8827    1.3472   -0.9936 C   0  0  0  0  0  0  0  0  0  0  0  0
   -1.9724    0.3746   -0.5959 C   0  0  0  0  0  0  0  0  0  0  0  0
   -3.2742    0.9551   -1.1002 C   0  0  0  0  0  0  0  0  0  0  0  0
   -4.4593    0.0885   -0.7751 C   0  0  0  0  0  0  0  0  0  0  0  0
   -4.6359   -0.1143    0.7118 C   0  0  0  0  0  0  0  0  0  0  0  0
   -5.8611   -1.0026    0.8998 C   0  0  0  0  0  0  0  0  0  0  0  0
    4.8066   -1.5708    1.2329 H   0  0  0  0  0  0  0  0  0  0  0  0
    4.1002   -1.2702   -1.4203 H   0  0  0  0  0  0  0  0  0  0  0  0
    6.1528    0.1487    0.1219 H   0  0  0  0  0  0  0  0  0  0  0  0
    6.1187   -0.4727   -1.4916 H   0  0  0  0  0  0  0  0  0  0  0  0
    3.8726    1.1359   -1.4940 H   0  0  0  0  0  0  0  0  0  0  0  0
    2.2065    2.1025    0.0284 H   0  0  0  0  0  0  0  0  0  0  0  0
    3.0077   -0.1841    2.0027 H   0  0  0  0  0  0  0  0  0  0  0  0
    2.1265    2.3311    2.4256 H   0  0  0  0  0  0  0  0  0  0  0  0
    0.8671   -0.8509    2.5741 H   0  0  0  0  0  0  0  0  0  0  0  0
    1.3740   -1.3338    0.9680 H   0  0  0  0  0  0  0  0  0  0  0  0
   -0.9939   -0.9139    1.0469 H   0  0  0  0  0  0  0  0  0  0  0  0
   -0.8492    0.7497    1.6640 H   0  0  0  0  0  0  0  0  0  0  0  0
    0.1557   -0.3182   -1.0568 H   0  0  0  0  0  0  0  0  0  0  0  0
    0.2422    1.3863   -0.5089 H   0  0  0  0  0  0  0  0  0  0  0  0
   -1.6668    1.0656   -1.9794 H   0  0  0  0  0  0  0  0  0  0  0  0
   -2.1141    1.6221   -0.3049 H   0  0  0  0  0  0  0  0  0  0  0  0
   -2.8315   -0.6973    0.2587 H   0  0  0  0  0  0  0  0  0  0  0  0
   -2.3668   -1.2344   -1.3999 H   0  0  0  0  0  0  0  0  0  0  0  0
   -3.7990    0.5393   -2.3563 H   0  0  0  0  0  0  0  0  0  0  0  0
   -4.2676    1.0282   -0.6697 H   0  0  0  0  0  0  0  0  0  0  0  0
   -6.0293   -0.3782   -1.5838 H   0  0  0  0  0  0  0  0  0  0  0  0
   -4.9069   -1.6981   -1.9920 H   0  0  0  0  0  0  0  0  0  0  0  0
   -4.7865   -2.3263    0.2340 H   0  0  0  0  0  0  0  0  0  0  0  0
   -4.7898   -0.6257    0.8627 H   0  0  0  0  0  0  0  0  0  0  0  0
   -6.3286   -1.4077    0.4256 H   0  0  0  0  0  0  0  0  0  0  0  0
    4.0102   -0.9141    2.6900 H   0  0  0  0  0  0  0  0  0  0  0  0
    5.0250    1.1436    1.7897 H   0  0  0  0  0  0  0  0  0  0  0  0
    5.7356   -1.4801    0.7460 H   0  0  0  0  0  0  0  0  0  0  0  0
    6.7531   -0.1854    1.1936 H   0  0  0  0  0  0  0  0  0  0  0  0
    5.3544    0.9512   -0.6740 H   0  0  0  0  0  0  0  0  0  0  0  0
    3.5345    0.1352   -2.1172 H   0  0  0  0  0  0  0  0  0  0  0  0
    2.1535   -1.1176    0.3992 H   0  0  0  0  0  0  0  0  0  0  0  0
    3.3162   -2.5137   -0.9725 H   0  0  0  0  0  0  0  0  0  0  0  0
    0.8073   -0.4537   -2.2337 H   0  0  0  0  0  0  0  0  0  0  0  0
    0.1539   -1.1731   -0.7519 H   0  0  0  0  0  0  0  0  0  0  0  0
    1.1756    1.7028   -0.9753 H   0  0  0  0  0  0  0  0  0  0  0  0
    0.5848    0.9533    0.5296 H   0  0  0  0  0  0  0  0  0  0  0  0
   -1.0754    2.3127   -0.4973 H   0  0  0  0  0  0  0  0  0  0  0  0
   -0.8475    1.5288   -2.0692 H   0  0  0  0  0  0  0  0  0  0  0  0
   -1.7952   -0.6474   -0.9633 H   0  0  0  0  0  0  0  0  0  0  0  0
   -2.0216    0.3127    0.5105 H   0  0  0  0  0  0  0  0  0  0  0  0
   -3.2004    1.0130   -2.2055 H   0  0  0  0  0  0  0  0  0  0  0  0
   -3.3617    1.9794   -0.7135 H   0  0  0  0  0  0  0  0  0  0  0  0
   -4.3208   -0.8907   -1.2586 H   0  0  0  0  0  0  0  0  0  0  0  0
   -5.3609    0.6208   -1.1427 H   0  0  0  0  0  0  0  0  0  0  0  0
   -3.7769   -0.6965    1.1344 H   0  0  0  0  0  0  0  0  0  0  0  0
   -4.8207    0.8110    1.2560 H   0  0  0  0  0  0  0  0  0  0  0  0
   -6.2498   -0.9488    1.9203 H   0  0  0  0  0  0  0  0  0  0  0  0
   -6.6715   -0.6084    0.2200 H   0  0  0  0  0  0  0  0  0  0  0  0
   -5.6079   -2.0518    0.6668 H   0  0  0  0  0  0  0  0  0  0  0  0
  1  2  1  0
  2  3  1  0
  2  4  1  0
  4  5  1  0
  4  6  1  0
  5  6  1  0
  6  7  1  0
  7  8  1  0
  7  9  1  0
  9 10  1  0
 10 11  1  0
 11 12  1  0
 12 13  1  0
 13 14  1  0
 14 15  1  0
 15 16  1  0
 17 18  1  0
 18 19  1  0
 18 20  1  0
 20 21  1  0
 20 22  1  0
 21 22  1  0
 22 23  1  0
 23 24  1  0
 23 25  1  0
 25 26  1  0
 26 27  1  0
 27 28  1  0
 28 29  1  0
 29 30  1  0
 30 31  1  0
 31 32  1  0
  1 33  1  0
  2 34  1  0
  3 35  1  0
  3 36  1  0
  4 37  1  6
  6 38  1  6
  7 39  1  1
  8 40  1  0
  9 41  1  0
  9 42  1  0
 10 43  1  0
 10 44  1  0
 11 45  1  0
 11 46  1  0
 12 47  1  0
 12 48  1  0
 13 49  1  0
 13 50  1  0
 14 51  1  0
 14 52  1  0
 15 53  1  0
 15 54  1  0
 16 55  1  0
 16 56  1  0
 16 57  1  0
 17 58  1  0
 18 59  1  0
 19 60  1  0
 19 61  1  0
 20 62  1  6
 22 63  1  6
 23 64  1  0
 24 65  1  0
 25 66  1  0
 25 67  1  0
 26 68  1  0
 26 69  1  0
 27 70  1  0
 27 71  1  0
 28 72  1  0
 28 73  1  0
 29 74  1  0
 29 75  1  0
 30 76  1  0
 30 77  1  0
 31 78  1  0
 31 79  1  0
 32 80  1  0
 32 81  1  0
 32 82  1  0
M  END
>  <PDBID>  (1) 
4LS7

>  <PDB ID>  (1) 
4LS7

>  <Generic Name>  (1) 
Cerulenin

>  <Brand Name>  (1) 
Helicocerin

>  <DrugBank ID>  (1) 
DB01034

>  <ATC Codes>  (1) 
nan

>  <Ligand ID>  (1) 
1X9

>  <Target Name>  (1) 
3-oxoacyl-[acyl-carrier-protein] synthase 2

>  <UniProt ID>  (1) 
P0AAI5

>  <PDB ID.1>  (1) 
4LS7

>  <Seq. Identity>  (1) 
51%

$$$$
