PDB_DB00456_04
     RDKit          3D

 56 58  0  0  0  0  0  0  0  0999 V2000
    0.0626    0.4506    0.4637 S   0  0  0  0  0  0  0  0  0  0  0  0
    1.8643    0.6004    0.7189 C   0  0  0  0  0  0  0  0  0  0  0  0
    2.6190    0.1382   -0.4797 C   0  0  0  0  0  0  0  0  0  0  0  0
    4.0554    0.5077   -0.4585 C   0  0  0  0  0  0  0  0  0  0  0  0
    4.8671    0.0741    0.5225 O   0  0  0  0  0  0  0  0  0  0  0  0
    4.7646    0.4494    1.8077 C   0  0  0  0  0  0  0  0  0  0  0  0
    5.9819    1.0357    2.2681 O   0  0  0  0  0  0  0  0  0  0  0  0
    4.6188   -0.8108    2.6614 C   0  0  0  0  0  0  0  0  0  0  0  0
    1.9347    0.7002   -1.7039 C   0  0  0  0  0  0  0  0  0  0  0  0
    2.8305    0.7748   -2.9261 C   0  0  0  0  0  0  0  0  0  0  0  0
    3.2236   -0.4656   -3.3693 O   0  0  0  0  0  0  0  0  0  0  0  0
    3.8399    1.7190   -2.8289 O   0  0  0  0  0  0  0  0  0  0  0  0
    0.7715   -0.0031   -2.0868 N   0  0  0  0  0  0  0  0  0  0  0  0
   -0.3983    0.3058   -1.2485 C   0  0  1  0  0  0  0  0  0  0  0  0
   -0.9161   -1.0346   -1.7073 C   0  0  1  0  0  0  0  0  0  0  0  0
    0.5926   -1.3831   -1.7586 C   0  0  0  0  0  0  0  0  0  0  0  0
    0.9227   -2.2073   -2.8158 O   0  0  0  0  0  0  0  0  0  0  0  0
   -1.7004   -1.7347   -0.8065 N   0  0  0  0  0  0  0  0  0  0  0  0
   -2.9603   -1.3244   -0.3918 C   0  0  2  0  0  0  0  0  0  0  0  0
   -3.8147   -1.3763   -1.5200 O   0  0  0  0  0  0  0  0  0  0  0  0
   -3.1481   -0.0640    0.3719 C   0  0  0  0  0  0  0  0  0  0  0  0
   -4.6380    0.1461    0.6896 C   0  0  0  0  0  0  0  0  0  0  0  0
   -4.8297    1.4078    1.4513 C   0  0  0  0  0  0  0  0  0  0  0  0
   -5.4925    1.2628    2.7478 C   0  0  0  0  0  0  0  0  0  0  0  0
   -6.2140   -0.0246    2.9105 C   0  0  0  0  0  0  0  0  0  0  0  0
   -5.2200   -1.1291    1.8300 S   0  0  0  0  0  0  0  0  0  0  0  0
    2.1068   -0.0109    1.6251 H   0  0  0  0  0  0  0  0  0  0  0  0
    2.0351    1.6861    0.9647 H   0  0  0  0  0  0  0  0  0  0  0  0
    2.5994   -0.9802   -0.4698 H   0  0  0  0  0  0  0  0  0  0  0  0
    4.2153    1.6192   -0.5560 H   0  0  0  0  0  0  0  0  0  0  0  0
    4.5457    0.1140   -1.4303 H   0  0  0  0  0  0  0  0  0  0  0  0
    3.9868    1.1751    2.0714 H   0  0  0  0  0  0  0  0  0  0  0  0
    6.6012    1.1015    1.5055 H   0  0  0  0  0  0  0  0  0  0  0  0
    3.9585   -0.6204    3.5162 H   0  0  0  0  0  0  0  0  0  0  0  0
    4.1732   -1.6279    2.0499 H   0  0  0  0  0  0  0  0  0  0  0  0
    5.6060   -1.1842    2.9935 H   0  0  0  0  0  0  0  0  0  0  0  0
    1.6592    1.7495   -1.4598 H   0  0  0  0  0  0  0  0  0  0  0  0
    2.1908    1.1800   -3.7965 H   0  0  0  0  0  0  0  0  0  0  0  0
    3.0495   -0.6505   -4.3251 H   0  0  0  0  0  0  0  0  0  0  0  0
    3.4398    2.5944   -2.6079 H   0  0  0  0  0  0  0  0  0  0  0  0
   -0.9082    1.1845   -1.6786 H   0  0  0  0  0  0  0  0  0  0  0  0
   -1.2412   -1.0340   -2.7860 H   0  0  0  0  0  0  0  0  0  0  0  0
    0.8437   -1.7613   -0.7763 H   0  0  0  0  0  0  0  0  0  0  0  0
    0.6194   -1.7233   -3.6445 H   0  0  0  0  0  0  0  0  0  0  0  0
   -1.3524   -2.6454   -0.4737 H   0  0  0  0  0  0  0  0  0  0  0  0
   -3.3849   -2.1648    0.2596 H   0  0  0  0  0  0  0  0  0  0  0  0
   -3.9741   -2.3208   -1.7826 H   0  0  0  0  0  0  0  0  0  0  0  0
   -2.8135    0.8610   -0.1098 H   0  0  0  0  0  0  0  0  0  0  0  0
   -2.6214   -0.1429    1.3521 H   0  0  0  0  0  0  0  0  0  0  0  0
   -5.2276    0.1589   -0.2527 H   0  0  0  0  0  0  0  0  0  0  0  0
   -5.4347    2.1194    0.8132 H   0  0  0  0  0  0  0  0  0  0  0  0
   -3.8425    1.9262    1.6447 H   0  0  0  0  0  0  0  0  0  0  0  0
   -6.2926    2.0699    2.8299 H   0  0  0  0  0  0  0  0  0  0  0  0
   -4.8361    1.4976    3.6273 H   0  0  0  0  0  0  0  0  0  0  0  0
   -6.0499   -0.4003    3.9456 H   0  0  0  0  0  0  0  0  0  0  0  0
   -7.2689   -0.0281    2.6092 H   0  0  0  0  0  0  0  0  0  0  0  0
  1  2  1  0
  2  3  1  0
  3  4  1  0
  4  5  1  0
  5  6  1  0
  6  7  1  0
  6  8  1  0
  3  9  1  0
  9 10  1  0
 10 11  1  0
 10 12  1  0
  9 13  1  0
  1 14  1  0
 13 14  1  0
 14 15  1  0
 13 16  1  0
 15 16  1  0
 16 17  1  0
 15 18  1  0
 18 19  1  0
 19 20  1  0
 19 21  1  0
 21 22  1  0
 22 23  1  0
 23 24  1  0
 24 25  1  0
 22 26  1  0
 25 26  1  0
  2 27  1  0
  2 28  1  0
  3 29  1  0
  4 30  1  0
  4 31  1  0
  6 32  1  0
  7 33  1  0
  8 34  1  0
  8 35  1  0
  8 36  1  0
  9 37  1  0
 10 38  1  0
 11 39  1  0
 12 40  1  0
 14 41  1  6
 15 42  1  6
 16 43  1  0
 17 44  1  0
 18 45  1  0
 19 46  1  1
 20 47  1  0
 21 48  1  0
 21 49  1  0
 22 50  1  0
 23 51  1  0
 23 52  1  0
 24 53  1  0
 24 54  1  0
 25 55  1  0
 25 56  1  0
M  END
>  <PDBID>  (1) 
1KVL

>  <PDB ID>  (1) 
1KVL

>  <Generic Name>  (1) 
Cefalotin

>  <Brand Name>  (1) 
Ceporacin#Keflin Add-vantage Inj 1gm/vial#Keflin Neutral Inj 1gm#Keflin Neutral Inj 2gm/vial#Coaxin#Keflin

>  <DrugBank ID>  (1) 
DB00456

>  <ATC Codes>  (1) 
J01DB03

>  <Ligand ID>  (1) 
CLS

>  <Target Name>  (1) 
Beta-lactamase

>  <UniProt ID>  (1) 
P00811

>  <PDB ID.1>  (1) 
1KVL

>  <Seq. Identity>  (1) 
100%

$$$$
