PDB_DB11730_02
     RDKit          3D

 78 82  0  0  0  0  0  0  0  0999 V2000
    0.2242   -0.5358   -0.2753 C   0  0  2  0  0  0  0  0  0  0  0  0
   -0.7081    0.9915    1.3595 C   0  0  0  0  0  0  0  0  0  0  0  0
   -1.8144    0.8224    0.3498 C   0  0  0  0  0  0  0  0  0  0  0  0
   -2.1012   -0.6678    0.3392 C   0  0  0  0  0  0  0  0  0  0  0  0
    4.8414   -0.8101   -0.9130 C   0  0  0  0  0  0  0  0  0  0  0  0
    3.6802   -1.7276   -0.8972 N   0  0  0  0  0  0  0  0  0  0  0  0
   -3.1446    1.3344    0.8737 C   0  0  0  0  0  0  0  0  0  0  0  0
    4.3704   -1.0985    1.5389 C   0  0  0  0  0  0  0  0  0  0  0  0
    4.9860   -0.2135    0.4640 C   0  0  0  0  0  0  0  0  0  0  0  0
   -4.0771    0.4974   -0.0146 C   0  0  0  0  0  0  0  0  0  0  0  0
    2.5998   -1.0459   -0.2203 C   0  0  0  0  0  0  0  0  0  0  0  0
   -4.2863    1.3556   -1.2547 C   0  0  2  0  0  0  0  0  0  0  0  0
   -6.2471   -2.2415   -0.7073 C   0  0  0  0  0  0  0  0  0  0  0  0
   -6.3406   -1.8851    0.7583 C   0  0  0  0  0  0  0  0  0  0  0  0
   -4.8165   -2.6106   -0.9830 C   0  0  0  0  0  0  0  0  0  0  0  0
   -4.9449   -1.7976    1.2857 C   0  0  0  0  0  0  0  0  0  0  0  0
    7.3640   -0.5462    0.8879 C   0  0  0  0  0  0  0  0  0  0  0  0
    6.4823    1.6789    0.6847 C   0  0  0  0  0  0  0  0  0  0  0  0
    8.2977   -0.2987   -0.3002 C   0  0  0  0  0  0  0  0  0  0  0  0
    7.6744    1.9596   -0.2098 C   0  0  0  0  0  0  0  0  0  0  0  0
   -4.0460   -1.9252    0.1170 C   0  0  0  0  0  0  0  0  0  0  0  0
   -6.1950    2.5288   -0.3656 C   0  0  0  0  0  0  0  0  0  0  0  0
   -4.7781    3.6233   -1.9521 C   0  0  0  0  0  0  0  0  0  0  0  0
    2.8435   -1.1050    1.2512 C   0  0  0  0  0  0  0  0  0  0  0  0
    0.4194    0.2282    0.8951 N   0  0  0  0  0  0  0  0  0  0  0  0
   -1.0109   -1.3105   -0.3020 N   0  0  0  0  0  0  0  0  0  0  0  0
   -3.3809   -0.7187   -0.2847 N   0  0  0  0  0  0  0  0  0  0  0  0
    6.2248    0.2892    0.8395 N   0  0  0  0  0  0  0  0  0  0  0  0
    1.2908   -1.4383   -0.5800 N   0  0  0  0  0  0  0  0  0  0  0  0
   -4.8865    2.6238   -0.9344 N   0  0  0  0  0  0  0  0  0  0  0  0
    7.8081    0.8401   -1.0981 N   0  0  0  0  0  0  0  0  0  0  0  0
   -5.0292    0.7147   -2.2288 O   0  0  0  0  0  0  0  0  0  0  0  0
   -0.5007    2.0872    1.4714 H   0  0  0  0  0  0  0  0  0  0  0  0
    4.6146   -0.0288   -1.6408 H   0  0  0  0  0  0  0  0  0  0  0  0
   -3.1758    2.3996    0.6499 H   0  0  0  0  0  0  0  0  0  0  0  0
    4.5022   -0.5676    2.4949 H   0  0  0  0  0  0  0  0  0  0  0  0
   -6.8870   -3.1159   -0.9686 H   0  0  0  0  0  0  0  0  0  0  0  0
   -6.5449   -1.4179   -1.3560 H   0  0  0  0  0  0  0  0  0  0  0  0
   -6.9621   -0.9798    0.9356 H   0  0  0  0  0  0  0  0  0  0  0  0
   -6.9271   -2.7185    1.2382 H   0  0  0  0  0  0  0  0  0  0  0  0
   -4.4897   -2.3223   -2.0037 H   0  0  0  0  0  0  0  0  0  0  0  0
   -4.6807   -3.7237   -0.9257 H   0  0  0  0  0  0  0  0  0  0  0  0
   -4.7501   -0.9338    1.9466 H   0  0  0  0  0  0  0  0  0  0  0  0
   -4.8022   -2.6833    1.9701 H   0  0  0  0  0  0  0  0  0  0  0  0
    7.9665   -0.2828    1.7861 H   0  0  0  0  0  0  0  0  0  0  0  0
    7.0742   -1.5887    0.9945 H   0  0  0  0  0  0  0  0  0  0  0  0
    5.6005    2.1685    0.2352 H   0  0  0  0  0  0  0  0  0  0  0  0
    6.6699    2.1599    1.6743 H   0  0  0  0  0  0  0  0  0  0  0  0
    8.3888   -1.1897   -0.9524 H   0  0  0  0  0  0  0  0  0  0  0  0
    9.3219   -0.0221    0.0152 H   0  0  0  0  0  0  0  0  0  0  0  0
    7.4714    2.8809   -0.8045 H   0  0  0  0  0  0  0  0  0  0  0  0
    8.5515    2.1357    0.4428 H   0  0  0  0  0  0  0  0  0  0  0  0
   -3.2230   -2.6595    0.3873 H   0  0  0  0  0  0  0  0  0  0  0  0
   -6.2524    2.5864    0.7257 H   0  0  0  0  0  0  0  0  0  0  0  0
   -6.7968    3.3849   -0.7597 H   0  0  0  0  0  0  0  0  0  0  0  0
   -6.7417    1.6082   -0.7332 H   0  0  0  0  0  0  0  0  0  0  0  0
   -4.3593    4.5833   -1.5864 H   0  0  0  0  0  0  0  0  0  0  0  0
   -4.0996    3.2536   -2.7490 H   0  0  0  0  0  0  0  0  0  0  0  0
   -5.7920    3.8709   -2.3462 H   0  0  0  0  0  0  0  0  0  0  0  0
    2.3281   -0.4390    1.9061 H   0  0  0  0  0  0  0  0  0  0  0  0
    1.0863   -2.4043   -0.2657 H   0  0  0  0  0  0  0  0  0  0  0  0
    8.5519    1.0686   -1.7925 H   0  0  0  0  0  0  0  0  0  0  0  0
    0.1383    0.1451   -1.1762 H   0  0  0  0  0  0  0  0  0  0  0  0
   -1.0350    0.5947    2.3238 H   0  0  0  0  0  0  0  0  0  0  0  0
   -1.5889    1.1973   -0.6470 H   0  0  0  0  0  0  0  0  0  0  0  0
   -2.1499   -0.9490    1.4327 H   0  0  0  0  0  0  0  0  0  0  0  0
    5.6837   -1.3901   -1.2581 H   0  0  0  0  0  0  0  0  0  0  0  0
    3.9400   -2.6257   -0.4320 H   0  0  0  0  0  0  0  0  0  0  0  0
   -3.2321    1.0663    1.9324 H   0  0  0  0  0  0  0  0  0  0  0  0
    4.7897   -2.1019    1.5503 H   0  0  0  0  0  0  0  0  0  0  0  0
    4.2811    0.6903    0.4455 H   0  0  0  0  0  0  0  0  0  0  0  0
   -5.0625    0.3864    0.4455 H   0  0  0  0  0  0  0  0  0  0  0  0
    2.7150    0.0283   -0.5981 H   0  0  0  0  0  0  0  0  0  0  0  0
   -3.2888    1.5675   -1.7167 H   0  0  0  0  0  0  0  0  0  0  0  0
    2.5392   -2.1527    1.5688 H   0  0  0  0  0  0  0  0  0  0  0  0
    1.1085    1.0141    0.5969 H   0  0  0  0  0  0  0  0  0  0  0  0
   -0.8172   -2.2047    0.2439 H   0  0  0  0  0  0  0  0  0  0  0  0
   -4.4633    0.1125   -2.7554 H   0  0  0  0  0  0  0  0  0  0  0  0
  2  3  1  0
  3  4  1  0
  5  6  1  0
  3  7  1  0
  5  9  1  0
  8  9  1  0
  7 10  1  0
  6 11  1  0
 10 12  1  0
 13 14  1  0
 13 15  1  0
 14 16  1  0
 17 19  1  0
 18 20  1  0
 15 21  1  0
 16 21  1  0
  8 24  1  0
 11 24  1  0
  1 25  1  0
  2 25  1  0
  1 26  1  0
  4 26  1  0
  4 27  1  0
 10 27  1  0
 21 27  1  0
  9 28  1  0
 17 28  1  0
 18 28  1  0
  1 29  1  0
 11 29  1  0
 12 30  1  0
 22 30  1  0
 23 30  1  0
 19 31  1  0
 20 31  1  0
 12 32  1  0
  2 33  1  0
  5 34  1  0
  7 35  1  0
  8 36  1  0
 13 37  1  0
 13 38  1  0
 14 39  1  0
 14 40  1  0
 15 41  1  0
 15 42  1  0
 16 43  1  0
 16 44  1  0
 17 45  1  0
 17 46  1  0
 18 47  1  0
 18 48  1  0
 19 49  1  0
 19 50  1  0
 20 51  1  0
 20 52  1  0
 21 53  1  0
 22 54  1  0
 22 55  1  0
 22 56  1  0
 23 57  1  0
 23 58  1  0
 23 59  1  0
 24 60  1  0
 29 61  1  0
 31 62  1  0
  1 63  1  6
  2 64  1  0
  3 65  1  0
  4 66  1  0
  5 67  1  0
  6 68  1  0
  7 69  1  0
  8 70  1  0
  9 71  1  0
 10 72  1  0
 11 73  1  0
 12 74  1  6
 24 75  1  0
 25 76  1  0
 26 77  1  0
 32 78  1  0
M  END
>  <PDBID>  (1) 
5L2T

>  <PDB ID>  (1) 
5L2T

>  <Generic Name>  (1) 
Ribociclib

>  <Brand Name>  (1) 
Kisqali

>  <DrugBank ID>  (1) 
DB11730

>  <ATC Codes>  (1) 
nan

>  <Ligand ID>  (1) 
6ZZ

>  <Target Name>  (1) 
Cyclin-dependent kinase 6

>  <UniProt ID>  (1) 
Q00534

>  <PDB ID.1>  (1) 
5L2T

>  <Seq. Identity>  (1) 
100%

$$$$
