PDB_DB04835_00
     RDKit          3D

180188  0  0  0  0  0  0  0  0999 V2000
    7.2635    2.4704    1.8520 F   0  0  0  0  0  0  0  0  0  0  0  0
    4.2088    0.8500   -2.3665 O   0  0  0  0  0  0  0  0  0  0  0  0
   -3.2162    0.3824    0.3440 C   0  0  0  0  0  0  0  0  0  0  0  0
   -4.4017    0.3597    1.0111 N   0  0  0  0  0  0  0  0  0  0  0  0
    0.3469   -0.5571   -0.6236 C   0  0  0  0  0  0  0  0  0  0  0  0
   -6.1693    1.3686   -0.4313 C   0  0  0  0  0  0  0  0  0  0  0  0
    1.2442   -0.2694    0.5482 C   0  0  0  0  0  0  0  0  0  0  0  0
    2.6078   -0.8982    0.3567 C   0  0  1  0  0  0  0  0  0  0  0  0
   -4.5000   -2.0737    1.2744 C   0  0  0  0  0  0  0  0  0  0  0  0
    2.4567   -2.4334    0.2210 C   0  0  0  0  0  0  0  0  0  0  0  0
    3.6867    0.8292   -1.0239 C   0  0  2  0  0  0  0  0  0  0  0  0
    4.7291    1.4516   -0.1783 C   0  0  0  0  0  0  0  0  0  0  0  0
    6.2877    3.2928    1.3113 C   0  0  0  0  0  0  0  0  0  0  0  0
   -7.3931    2.3009   -0.2296 C   0  0  0  0  0  0  0  0  0  0  0  0
    6.5273    4.6124    1.7165 F   0  0  0  0  0  0  0  0  0  0  0  0
   -0.9530    0.0172   -0.5134 N   0  0  0  0  0  0  0  0  0  0  0  0
   -1.8201   -0.2145   -1.6259 C   0  0  1  0  0  0  0  0  0  0  0  0
   -6.7201    0.1215   -1.0415 C   0  0  0  0  0  0  0  0  0  0  0  0
    4.4442    1.5772    1.2727 C   0  0  0  0  0  0  0  0  0  0  0  0
    4.9600    2.8870   -0.6958 C   0  0  0  0  0  0  0  0  0  0  0  0
    4.9335    2.9136    1.8335 C   0  0  0  0  0  0  0  0  0  0  0  0
    6.3454    3.2775   -0.1961 C   0  0  0  0  0  0  0  0  0  0  0  0
    1.8337   -3.0565    1.4146 C   0  0  0  0  0  0  0  0  0  0  0  0
    3.8619   -2.9979    0.0305 C   0  0  0  0  0  0  0  0  0  0  0  0
    2.6892   -4.1824    1.9838 C   0  0  0  0  0  0  0  0  0  0  0  0
    3.8378   -4.4686   -0.2152 C   0  0  0  0  0  0  0  0  0  0  0  0
    3.1192   -5.1523    0.9030 C   0  0  0  0  0  0  0  0  0  0  0  0
   -1.0604    1.3984   -0.2463 C   0  0  2  0  0  0  0  0  0  0  0  0
   -6.5590    0.4785    1.7096 N   0  0  0  0  0  0  0  0  0  0  0  0
   -5.5013    1.1483    0.9192 C   0  0  1  0  0  0  0  0  0  0  0  0
   -5.9546   -0.5096    2.4210 N   0  0  0  0  0  0  0  0  0  0  0  0
    3.2767   -0.4801   -0.8043 N   0  0  0  0  0  0  0  0  0  0  0  0
   -3.2548    0.0830   -1.1443 C   0  0  0  0  0  0  0  0  0  0  0  0
   -2.3319    1.6082    0.5925 C   0  0  0  0  0  0  0  0  0  0  0  0
   -4.6404   -0.7044    1.9249 C   0  0  0  0  0  0  0  0  0  0  0  0
   -1.3593    0.9089   -2.5720 C   0  0  0  0  0  0  0  0  0  0  0  0
   -1.3166    2.0639   -1.5875 C   0  0  0  0  0  0  0  0  0  0  0  0
    6.9703    2.6631    1.8891 F   0  0  0  0  0  0  0  0  0  0  0  0
    4.3363    0.7845   -2.3697 O   0  0  0  0  0  0  0  0  0  0  0  0
   -3.3255   -0.1535    0.2750 C   0  0  0  0  0  0  0  0  0  0  0  0
   -4.6931    0.1385    0.6302 N   0  0  0  0  0  0  0  0  0  0  0  0
    0.3511   -0.8146   -0.6861 C   0  0  0  0  0  0  0  0  0  0  0  0
   -6.2941    1.9728    0.1939 C   0  0  0  0  0  0  0  0  0  0  0  0
    1.2554   -0.3495    0.4143 C   0  0  0  0  0  0  0  0  0  0  0  0
    2.6482   -0.8877    0.3415 C   0  0  1  0  0  0  0  0  0  0  0  0
   -4.8699   -2.1231    1.6420 C   0  0  0  0  0  0  0  0  0  0  0  0
    2.7066   -2.4086    0.3989 C   0  0  0  0  0  0  0  0  0  0  0  0
    3.6969    0.8284   -1.0786 C   0  0  2  0  0  0  0  0  0  0  0  0
    4.6368    1.5674   -0.2129 C   0  0  0  0  0  0  0  0  0  0  0  0
    6.0438    3.4981    1.2691 C   0  0  0  0  0  0  0  0  0  0  0  0
   -5.5664    3.0009    1.0287 C   0  0  0  0  0  0  0  0  0  0  0  0
    6.3652    4.7880    1.6571 F   0  0  0  0  0  0  0  0  0  0  0  0
   -0.9594   -0.3321   -0.6451 N   0  0  0  0  0  0  0  0  0  0  0  0
   -1.8521   -0.7444   -1.6619 C   0  0  1  0  0  0  0  0  0  0  0  0
   -7.5544    1.4687    0.8477 C   0  0  0  0  0  0  0  0  0  0  0  0
    4.2050    1.7796    1.1968 C   0  0  0  0  0  0  0  0  0  0  0  0
    4.8633    2.9746   -0.8032 C   0  0  0  0  0  0  0  0  0  0  0  0
    4.6419    3.1673    1.7038 C   0  0  0  0  0  0  0  0  0  0  0  0
    6.1784    3.4543   -0.2269 C   0  0  0  0  0  0  0  0  0  0  0  0
    2.1203   -2.9482    1.6629 C   0  0  0  0  0  0  0  0  0  0  0  0
    4.1905   -2.7524    0.4105 C   0  0  0  0  0  0  0  0  0  0  0  0
    2.9652   -4.0642    2.2451 C   0  0  0  0  0  0  0  0  0  0  0  0
    4.3959   -4.2171    0.2133 C   0  0  0  0  0  0  0  0  0  0  0  0
    3.5002   -4.9738    1.1619 C   0  0  0  0  0  0  0  0  0  0  0  0
   -1.2303    1.0409   -0.4788 C   0  0  2  0  0  0  0  0  0  0  0  0
   -6.2791   -0.0839   -0.9573 N   0  0  0  0  0  0  0  0  0  0  0  0
   -5.3940    0.8917   -0.3488 C   0  0  0  0  0  0  0  0  0  0  0  0
   -6.1756   -1.2750   -0.2857 N   0  0  0  0  0  0  0  0  0  0  0  0
    3.3615   -0.4969   -0.8013 N   0  0  0  0  0  0  0  0  0  0  0  0
   -3.1972   -0.9640   -0.9612 C   0  0  0  0  0  0  0  0  0  0  0  0
   -2.5252    1.1038    0.3410 C   0  0  0  0  0  0  0  0  0  0  0  0
   -5.5065   -0.9757    0.9577 C   0  0  0  0  0  0  0  0  0  0  0  0
   -2.0327    0.3884   -2.6274 C   0  0  0  0  0  0  0  0  0  0  0  0
   -1.6076    1.5880   -1.8607 C   0  0  0  0  0  0  0  0  0  0  0  0
    4.7718    0.0239   -2.4041 H   0  0  0  0  0  0  0  0  0  0  0  0
   -2.5564   -0.4634    0.7464 H   0  0  0  0  0  0  0  0  0  0  0  0
    0.8384   -0.1451   -1.5279 H   0  0  0  0  0  0  0  0  0  0  0  0
    0.1931   -1.6590   -0.6608 H   0  0  0  0  0  0  0  0  0  0  0  0
   -5.5622    1.9016   -1.1569 H   0  0  0  0  0  0  0  0  0  0  0  0
    1.3597    0.7795    0.7714 H   0  0  0  0  0  0  0  0  0  0  0  0
    0.7765   -0.7442    1.4395 H   0  0  0  0  0  0  0  0  0  0  0  0
    3.1567   -0.7769    1.3188 H   0  0  0  0  0  0  0  0  0  0  0  0
   -4.6618   -2.8117    2.1137 H   0  0  0  0  0  0  0  0  0  0  0  0
   -5.3478   -2.2247    0.5865 H   0  0  0  0  0  0  0  0  0  0  0  0
   -3.5181   -2.2556    0.8415 H   0  0  0  0  0  0  0  0  0  0  0  0
    1.9140   -2.7109   -0.6931 H   0  0  0  0  0  0  0  0  0  0  0  0
    2.7979    1.5314   -1.1289 H   0  0  0  0  0  0  0  0  0  0  0  0
    5.7312    0.9712   -0.2911 H   0  0  0  0  0  0  0  0  0  0  0  0
   -6.9675    3.2627    0.1117 H   0  0  0  0  0  0  0  0  0  0  0  0
   -7.7905    2.4498   -1.2543 H   0  0  0  0  0  0  0  0  0  0  0  0
   -8.0933    1.8543    0.4789 H   0  0  0  0  0  0  0  0  0  0  0  0
   -1.7105   -1.2015   -2.0592 H   0  0  0  0  0  0  0  0  0  0  0  0
   -6.0491   -0.3737   -1.7687 H   0  0  0  0  0  0  0  0  0  0  0  0
   -7.0146   -0.6584   -0.3082 H   0  0  0  0  0  0  0  0  0  0  0  0
   -7.6611    0.3209   -1.6323 H   0  0  0  0  0  0  0  0  0  0  0  0
    5.0169    0.8034    1.8676 H   0  0  0  0  0  0  0  0  0  0  0  0
    3.3692    1.5593    1.5099 H   0  0  0  0  0  0  0  0  0  0  0  0
    4.1673    3.5659   -0.3690 H   0  0  0  0  0  0  0  0  0  0  0  0
    4.9784    2.8950   -1.8113 H   0  0  0  0  0  0  0  0  0  0  0  0
    4.1754    3.7039    1.6637 H   0  0  0  0  0  0  0  0  0  0  0  0
    5.0258    2.7823    2.9308 H   0  0  0  0  0  0  0  0  0  0  0  0
    6.6677    4.2379   -0.6273 H   0  0  0  0  0  0  0  0  0  0  0  0
    7.0279    2.4505   -0.5448 H   0  0  0  0  0  0  0  0  0  0  0  0
    0.8450   -3.5395    1.1929 H   0  0  0  0  0  0  0  0  0  0  0  0
    1.6598   -2.3675    2.2667 H   0  0  0  0  0  0  0  0  0  0  0  0
    4.4307   -2.7835    0.9479 H   0  0  0  0  0  0  0  0  0  0  0  0
    4.3602   -2.4718   -0.8145 H   0  0  0  0  0  0  0  0  0  0  0  0
    2.1073   -4.7826    2.7163 H   0  0  0  0  0  0  0  0  0  0  0  0
    3.5819   -3.7891    2.4921 H   0  0  0  0  0  0  0  0  0  0  0  0
    3.3730   -4.6933   -1.1991 H   0  0  0  0  0  0  0  0  0  0  0  0
    4.8982   -4.8167   -0.3002 H   0  0  0  0  0  0  0  0  0  0  0  0
    3.8402   -5.8556    1.3941 H   0  0  0  0  0  0  0  0  0  0  0  0
    2.2284   -5.7270    0.5315 H   0  0  0  0  0  0  0  0  0  0  0  0
   -0.2511    1.8789    0.3083 H   0  0  0  0  0  0  0  0  0  0  0  0
   -7.1645    1.1357    2.2054 H   0  0  0  0  0  0  0  0  0  0  0  0
   -5.4295    2.1549    1.4529 H   0  0  0  0  0  0  0  0  0  0  0  0
   -6.5274   -1.4037    2.3902 H   0  0  0  0  0  0  0  0  0  0  0  0
    3.0865   -0.9936   -1.6664 H   0  0  0  0  0  0  0  0  0  0  0  0
   -3.7828   -0.8886   -1.2710 H   0  0  0  0  0  0  0  0  0  0  0  0
   -3.5953    0.8954   -1.7731 H   0  0  0  0  0  0  0  0  0  0  0  0
   -2.1046    1.6144    1.6750 H   0  0  0  0  0  0  0  0  0  0  0  0
   -2.7913    2.5435    0.2852 H   0  0  0  0  0  0  0  0  0  0  0  0
   -3.9374   -0.6284    2.8043 H   0  0  0  0  0  0  0  0  0  0  0  0
   -0.3721    0.6476   -2.9510 H   0  0  0  0  0  0  0  0  0  0  0  0
   -2.1478    1.0160   -3.3332 H   0  0  0  0  0  0  0  0  0  0  0  0
   -0.5501    2.8146   -1.8346 H   0  0  0  0  0  0  0  0  0  0  0  0
   -2.3012    2.5686   -1.6453 H   0  0  0  0  0  0  0  0  0  0  0  0
    4.9994    0.0430   -2.2655 H   0  0  0  0  0  0  0  0  0  0  0  0
   -2.9246   -0.8002    1.1151 H   0  0  0  0  0  0  0  0  0  0  0  0
    0.7625   -0.6455   -1.7013 H   0  0  0  0  0  0  0  0  0  0  0  0
    0.3029   -1.9378   -0.5810 H   0  0  0  0  0  0  0  0  0  0  0  0
   -6.6905    2.5938   -0.6905 H   0  0  0  0  0  0  0  0  0  0  0  0
    1.3131    0.7512    0.3251 H   0  0  0  0  0  0  0  0  0  0  0  0
    0.7630   -0.5566    1.3852 H   0  0  0  0  0  0  0  0  0  0  0  0
    3.1739   -0.5689    1.2632 H   0  0  0  0  0  0  0  0  0  0  0  0
   -4.1574   -1.7256    2.4097 H   0  0  0  0  0  0  0  0  0  0  0  0
   -5.6589   -2.6323    2.2859 H   0  0  0  0  0  0  0  0  0  0  0  0
   -4.4715   -2.9257    1.0242 H   0  0  0  0  0  0  0  0  0  0  0  0
    2.3168   -2.8726   -0.5239 H   0  0  0  0  0  0  0  0  0  0  0  0
    2.8078    1.4952   -1.2984 H   0  0  0  0  0  0  0  0  0  0  0  0
    5.6693    1.1281   -0.2057 H   0  0  0  0  0  0  0  0  0  0  0  0
   -4.9231    3.5905    0.3310 H   0  0  0  0  0  0  0  0  0  0  0  0
   -6.3373    3.6645    1.4563 H   0  0  0  0  0  0  0  0  0  0  0  0
   -4.9783    2.5400    1.8439 H   0  0  0  0  0  0  0  0  0  0  0  0
   -1.4976   -1.6754   -2.1524 H   0  0  0  0  0  0  0  0  0  0  0  0
   -7.4810    1.4101    1.9622 H   0  0  0  0  0  0  0  0  0  0  0  0
   -7.9413    0.5513    0.3955 H   0  0  0  0  0  0  0  0  0  0  0  0
   -8.4030    2.2143    0.6993 H   0  0  0  0  0  0  0  0  0  0  0  0
    4.7151    1.0752    1.9132 H   0  0  0  0  0  0  0  0  0  0  0  0
    3.1218    1.7686    1.3620 H   0  0  0  0  0  0  0  0  0  0  0  0
    4.0250    3.6340   -0.5871 H   0  0  0  0  0  0  0  0  0  0  0  0
    5.0151    2.8102   -1.8941 H   0  0  0  0  0  0  0  0  0  0  0  0
    3.9267    3.9483    1.4221 H   0  0  0  0  0  0  0  0  0  0  0  0
    4.6365    3.1054    2.8044 H   0  0  0  0  0  0  0  0  0  0  0  0
    6.5567    4.3806   -0.6838 H   0  0  0  0  0  0  0  0  0  0  0  0
    6.9306    2.6527   -0.4859 H   0  0  0  0  0  0  0  0  0  0  0  0
    1.0979   -3.3475    1.5491 H   0  0  0  0  0  0  0  0  0  0  0  0
    2.1432   -2.1326    2.4458 H   0  0  0  0  0  0  0  0  0  0  0  0
    4.7043   -2.3429    1.3005 H   0  0  0  0  0  0  0  0  0  0  0  0
    4.6370   -2.2325   -0.4670 H   0  0  0  0  0  0  0  0  0  0  0  0
    2.3963   -4.6922    2.9521 H   0  0  0  0  0  0  0  0  0  0  0  0
    3.8391   -3.6540    2.8241 H   0  0  0  0  0  0  0  0  0  0  0  0
    4.1559   -4.4489   -0.8641 H   0  0  0  0  0  0  0  0  0  0  0  0
    5.4671   -4.4666    0.3569 H   0  0  0  0  0  0  0  0  0  0  0  0
    4.1277   -5.7464    1.6498 H   0  0  0  0  0  0  0  0  0  0  0  0
    2.6557   -5.4039    0.6012 H   0  0  0  0  0  0  0  0  0  0  0  0
   -0.4658    1.6560   -0.0006 H   0  0  0  0  0  0  0  0  0  0  0  0
   -6.2609   -0.1126   -1.9725 H   0  0  0  0  0  0  0  0  0  0  0  0
   -4.7499    1.3904   -1.1152 H   0  0  0  0  0  0  0  0  0  0  0  0
   -5.7966   -2.0675   -0.8054 H   0  0  0  0  0  0  0  0  0  0  0  0
    2.9469   -0.9441   -1.6461 H   0  0  0  0  0  0  0  0  0  0  0  0
   -3.2003   -2.0470   -0.7325 H   0  0  0  0  0  0  0  0  0  0  0  0
   -3.9745   -0.7894   -1.7250 H   0  0  0  0  0  0  0  0  0  0  0  0
   -2.2851    1.3714    1.3962 H   0  0  0  0  0  0  0  0  0  0  0  0
   -3.1291    1.9457   -0.0401 H   0  0  0  0  0  0  0  0  0  0  0  0
   -6.3303   -0.6180    1.6513 H   0  0  0  0  0  0  0  0  0  0  0  0
   -1.4923    0.2417   -3.5814 H   0  0  0  0  0  0  0  0  0  0  0  0
   -3.1214    0.4370   -2.9247 H   0  0  0  0  0  0  0  0  0  0  0  0
   -0.8154    2.1774   -2.3164 H   0  0  0  0  0  0  0  0  0  0  0  0
   -2.4908    2.2759   -1.7775 H   0  0  0  0  0  0  0  0  0  0  0  0
  3  4  1  0
  5  7  1  0
  7  8  1  0
  8 10  1  0
  2 11  1  0
 11 12  1  0
 13  1  1  0
  6 14  1  0
 13 15  1  0
  5 16  1  0
 16 17  1  0
  6 18  1  0
 12 19  1  0
 12 20  1  0
 13 21  1  0
 19 21  1  0
 13 22  1  0
 20 22  1  0
 10 23  1  0
 10 24  1  0
 23 25  1  0
 24 26  1  0
 25 27  1  0
 26 27  1  0
 16 28  1  0
  4 30  1  0
  6 30  1  0
 29 30  1  0
 29 31  1  0
  8 32  1  0
 11 32  1  0
  3 33  1  0
 17 33  1  0
  3 34  1  0
 28 34  1  0
  4 35  1  0
  9 35  1  0
 31 35  1  0
 17 36  1  0
 28 37  1  0
 36 37  1  0
 40 41  1  0
 42 44  1  0
 44 45  1  0
 45 47  1  0
 39 48  1  0
 48 49  1  0
 50 38  1  0
 43 51  1  0
 50 52  1  0
 42 53  1  0
 53 54  1  0
 43 55  1  0
 49 56  1  0
 49 57  1  0
 50 58  1  0
 56 58  1  0
 50 59  1  0
 57 59  1  0
 47 60  1  0
 47 61  1  0
 60 62  1  0
 61 63  1  0
 62 64  1  0
 63 64  1  0
 53 65  1  0
 41 67  1  0
 43 67  1  0
 66 67  1  0
 66 68  1  0
 45 69  1  0
 48 69  1  0
 40 70  1  0
 54 70  1  0
 40 71  1  0
 65 71  1  0
 41 72  1  0
 46 72  1  0
 68 72  1  0
 54 73  1  0
 65 74  1  0
 73 74  1  0
  2 75  1  0
  3 76  1  0
  5 77  1  0
  5 78  1  0
  6 79  1  0
  7 80  1  0
  7 81  1  0
  8 82  1  1
  9 83  1  0
  9 84  1  0
  9 85  1  0
 10 86  1  0
 11 87  1  6
 12 88  1  0
 14 89  1  0
 14 90  1  0
 14 91  1  0
 17 92  1  6
 18 93  1  0
 18 94  1  0
 18 95  1  0
 19 96  1  0
 19 97  1  0
 20 98  1  0
 20 99  1  0
 21100  1  0
 21101  1  0
 22102  1  0
 22103  1  0
 23104  1  0
 23105  1  0
 24106  1  0
 24107  1  0
 25108  1  0
 25109  1  0
 26110  1  0
 26111  1  0
 27112  1  0
 27113  1  0
 28114  1  1
 29115  1  0
 30116  1  1
 31117  1  0
 32118  1  0
 33119  1  0
 33120  1  0
 34121  1  0
 34122  1  0
 35123  1  0
 36124  1  0
 36125  1  0
 37126  1  0
 37127  1  0
 39128  1  0
 40129  1  0
 42130  1  0
 42131  1  0
 43132  1  0
 44133  1  0
 44134  1  0
 45135  1  1
 46136  1  0
 46137  1  0
 46138  1  0
 47139  1  0
 48140  1  6
 49141  1  0
 51142  1  0
 51143  1  0
 51144  1  0
 54145  1  6
 55146  1  0
 55147  1  0
 55148  1  0
 56149  1  0
 56150  1  0
 57151  1  0
 57152  1  0
 58153  1  0
 58154  1  0
 59155  1  0
 59156  1  0
 60157  1  0
 60158  1  0
 61159  1  0
 61160  1  0
 62161  1  0
 62162  1  0
 63163  1  0
 63164  1  0
 64165  1  0
 64166  1  0
 65167  1  1
 66168  1  0
 67169  1  0
 68170  1  0
 69171  1  0
 70172  1  0
 70173  1  0
 71174  1  0
 71175  1  0
 72176  1  0
 73177  1  0
 73178  1  0
 74179  1  0
 74180  1  0
M  END
>  <PDBID>  (1) 
4MBS

>  <PDB ID>  (1) 
4MBS

>  <Generic Name>  (1) 
Maraviroc

>  <Brand Name>  (1) 
Celsentri#Selzentry

>  <DrugBank ID>  (1) 
DB04835

>  <ATC Codes>  (1) 
J05AX09

>  <Ligand ID>  (1) 
MRV

>  <Target Name>  (1) 
C-C chemokine receptor type 5

>  <UniProt ID>  (1) 
P51681

>  <PDB ID.1>  (1) 
4MBS

>  <Seq. Identity>  (1) 
74%

$$$$
