PDB_DB00380_09
     RDKit          3D

 43 44  0  0  0  0  0  0  0  0999 V2000
    4.0305   -1.6216    1.4746 O   0  0  0  0  0  0  0  0  0  0  0  0
    3.3527   -0.6494    0.7658 C   0  0  0  0  0  0  0  0  0  0  0  0
    4.2867   -0.0852   -0.2031 N   0  0  0  0  0  0  0  0  0  0  0  0
    3.6691    0.8811   -1.0572 C   0  0  0  0  0  0  0  0  0  0  0  0
    3.8437    2.1367   -0.4666 O   0  0  0  0  0  0  0  0  0  0  0  0
    2.3174    0.5753   -1.5337 C   0  0  0  0  0  0  0  0  0  0  0  0
    2.2199   -1.2334   -0.0634 C   0  0  0  0  0  0  0  0  0  0  0  0
    1.4565   -0.2285   -0.6994 N   0  0  0  0  0  0  0  0  0  0  0  0
    0.6088    0.5980    0.0447 C   0  0  0  0  0  0  0  0  0  0  0  0
   -0.5187   -0.0138    0.8155 C   0  0  2  0  0  0  0  0  0  0  0  0
   -0.1449   -0.9951    1.8751 C   0  0  0  0  0  0  0  0  0  0  0  0
   -1.5437   -0.5503   -0.0867 N   0  0  0  0  0  0  0  0  0  0  0  0
   -2.6537   -0.9827    0.7225 C   0  0  0  0  0  0  0  0  0  0  0  0
   -3.5992    0.1693    1.0418 C   0  0  0  0  0  0  0  0  0  0  0  0
   -4.6452   -0.4100    1.7990 O   0  0  0  0  0  0  0  0  0  0  0  0
   -4.1912    0.7597   -0.1261 N   0  0  0  0  0  0  0  0  0  0  0  0
   -3.4224    0.4754   -1.2999 C   0  0  0  0  0  0  0  0  0  0  0  0
   -1.9627    0.5682   -0.9098 C   0  0  0  0  0  0  0  0  0  0  0  0
   -3.7454   -0.7145   -1.9186 O   0  0  0  0  0  0  0  0  0  0  0  0
    4.7081   -1.1747    2.0324 H   0  0  0  0  0  0  0  0  0  0  0  0
    3.0438    0.1625    1.4186 H   0  0  0  0  0  0  0  0  0  0  0  0
    4.6600   -0.8757   -0.8144 H   0  0  0  0  0  0  0  0  0  0  0  0
    4.3376    0.9408   -1.9739 H   0  0  0  0  0  0  0  0  0  0  0  0
    3.0610    2.4550    0.0209 H   0  0  0  0  0  0  0  0  0  0  0  0
    2.3213    0.0542   -2.5355 H   0  0  0  0  0  0  0  0  0  0  0  0
    1.7659    1.5394   -1.7361 H   0  0  0  0  0  0  0  0  0  0  0  0
    2.7754   -1.7672   -0.9122 H   0  0  0  0  0  0  0  0  0  0  0  0
    1.6968   -2.0452    0.4373 H   0  0  0  0  0  0  0  0  0  0  0  0
    0.1756    1.3671   -0.6287 H   0  0  0  0  0  0  0  0  0  0  0  0
    1.1575    1.2303    0.8201 H   0  0  0  0  0  0  0  0  0  0  0  0
   -1.0265    0.8333    1.3348 H   0  0  0  0  0  0  0  0  0  0  0  0
   -0.7796   -0.8438    2.8136 H   0  0  0  0  0  0  0  0  0  0  0  0
   -0.3369   -2.0423    1.6111 H   0  0  0  0  0  0  0  0  0  0  0  0
    0.8723   -0.7653    2.2348 H   0  0  0  0  0  0  0  0  0  0  0  0
   -2.3794   -1.4376    1.6872 H   0  0  0  0  0  0  0  0  0  0  0  0
   -3.2746   -1.7539    0.2100 H   0  0  0  0  0  0  0  0  0  0  0  0
   -3.1263    0.9109    1.7145 H   0  0  0  0  0  0  0  0  0  0  0  0
   -5.1194    0.3735    2.2039 H   0  0  0  0  0  0  0  0  0  0  0  0
   -4.1635    1.8152    0.0077 H   0  0  0  0  0  0  0  0  0  0  0  0
   -3.5727    1.2761   -2.0757 H   0  0  0  0  0  0  0  0  0  0  0  0
   -1.8501    1.5204   -0.3559 H   0  0  0  0  0  0  0  0  0  0  0  0
   -1.2936    0.6193   -1.7914 H   0  0  0  0  0  0  0  0  0  0  0  0
   -3.0111   -1.0714   -2.4584 H   0  0  0  0  0  0  0  0  0  0  0  0
  1  2  1  0
  2  3  1  0
  3  4  1  0
  4  5  1  0
  4  6  1  0
  2  7  1  0
  6  8  1  0
  7  8  1  0
  8  9  1  0
  9 10  1  0
 10 11  1  0
 10 12  1  0
 12 13  1  0
 13 14  1  0
 14 15  1  0
 14 16  1  0
 16 17  1  0
 12 18  1  0
 17 18  1  0
 17 19  1  0
  1 20  1  0
  2 21  1  0
  3 22  1  0
  4 23  1  0
  5 24  1  0
  6 25  1  0
  6 26  1  0
  7 27  1  0
  7 28  1  0
  9 29  1  0
  9 30  1  0
 10 31  1  1
 11 32  1  0
 11 33  1  0
 11 34  1  0
 13 35  1  0
 13 36  1  0
 14 37  1  0
 15 38  1  0
 16 39  1  0
 17 40  1  0
 18 41  1  0
 18 42  1  0
 19 43  1  0
M  END
>  <PDBID>  (1) 
1QZR

>  <PDB ID>  (1) 
1QZR

>  <Generic Name>  (1) 
Dexrazoxane

>  <Brand Name>  (1) 
Dexrazoxane#Dexrazoxane Hydrochloride#Zinecard#Ao Nuo Xian#Cardioxane#Dexrazoxane#Savene#Totect

>  <DrugBank ID>  (1) 
DB00380

>  <ATC Codes>  (1) 
V03AF02

>  <Ligand ID>  (1) 
CDX

>  <Target Name>  (1) 
DNA topoisomerase 2-alpha

>  <UniProt ID>  (1) 
P11388

>  <PDB ID.1>  (1) 
1QZR

>  <Seq. Identity>  (1) 
51%

$$$$
