PDB_DB00396_01
     RDKit          3D

118124  0  0  0  0  0  0  0  0999 V2000
    2.9119   -1.7022   -0.3613 C   0  0  0  0  0  0  0  0  0  0  0  0
    4.3026   -1.4603   -0.8425 C   0  0  0  0  0  0  0  0  0  0  0  0
    5.0587   -0.4451   -0.0278 C   0  0  0  0  0  0  0  0  0  0  0  0
    5.4093   -0.9512    1.2190 O   0  0  0  0  0  0  0  0  0  0  0  0
    4.3400    0.8664    0.0416 C   0  0  0  0  0  0  0  0  0  0  0  0
    2.9357    0.7281   -0.4495 C   0  0  2  0  0  0  0  0  0  0  0  0
    2.2060    2.0182   -0.2778 C   0  0  0  0  0  0  0  0  0  0  0  0
    0.7525    1.9263   -0.6863 C   0  0  0  0  0  0  0  0  0  0  0  0
    0.0494    0.7895    0.0288 C   0  0  2  0  0  0  0  0  0  0  0  0
    0.8036   -0.4959   -0.3133 C   0  0  1  0  0  0  0  0  0  0  0  0
    2.2172   -0.4609    0.1370 C   0  0  1  0  0  0  0  0  0  0  0  0
    0.0863   -1.7216    0.1634 C   0  0  0  0  0  0  0  0  0  0  0  0
   -1.3655   -1.7515   -0.1112 C   0  0  0  0  0  0  0  0  0  0  0  0
   -2.0866   -0.4738    0.1560 C   0  0  1  0  0  0  0  0  0  0  0  0
   -1.3040    0.6365   -0.5484 C   0  0  1  0  0  0  0  0  0  0  0  0
   -2.2285    1.7829   -0.4098 C   0  0  0  0  0  0  0  0  0  0  0  0
   -3.5829    1.1478   -0.7308 C   0  0  0  0  0  0  0  0  0  0  0  0
   -3.4034   -0.3451   -0.5477 C   0  0  2  0  0  0  0  0  0  0  0  0
   -2.2938   -0.1853    1.6104 C   0  0  0  0  0  0  0  0  0  0  0  0
    2.2844   -0.3275    1.6451 C   0  0  0  0  0  0  0  0  0  0  0  0
   -4.5664   -0.8845    0.2554 C   0  0  0  0  0  0  0  0  0  0  0  0
   -4.4192   -2.2303    0.5488 O   0  0  0  0  0  0  0  0  0  0  0  0
   -5.7956   -0.7749   -0.6556 C   0  0  0  0  0  0  0  0  0  0  0  0
    2.9119   -1.7022   -0.3613 C   0  0  0  0  0  0  0  0  0  0  0  0
    4.3026   -1.4603   -0.8425 C   0  0  0  0  0  0  0  0  0  0  0  0
    5.0587   -0.4451   -0.0278 C   0  0  0  0  0  0  0  0  0  0  0  0
    5.4093   -0.9512    1.2190 O   0  0  0  0  0  0  0  0  0  0  0  0
    4.3400    0.8664    0.0416 C   0  0  0  0  0  0  0  0  0  0  0  0
    2.9357    0.7281   -0.4495 C   0  0  2  0  0  0  0  0  0  0  0  0
    2.2060    2.0182   -0.2778 C   0  0  0  0  0  0  0  0  0  0  0  0
    0.7525    1.9263   -0.6863 C   0  0  0  0  0  0  0  0  0  0  0  0
    0.0494    0.7895    0.0288 C   0  0  2  0  0  0  0  0  0  0  0  0
    0.8036   -0.4959   -0.3133 C   0  0  1  0  0  0  0  0  0  0  0  0
    2.2172   -0.4609    0.1370 C   0  0  1  0  0  0  0  0  0  0  0  0
    0.0863   -1.7216    0.1634 C   0  0  0  0  0  0  0  0  0  0  0  0
   -1.3655   -1.7515   -0.1112 C   0  0  0  0  0  0  0  0  0  0  0  0
   -2.0866   -0.4738    0.1560 C   0  0  1  0  0  0  0  0  0  0  0  0
   -1.3040    0.6365   -0.5484 C   0  0  1  0  0  0  0  0  0  0  0  0
   -2.2285    1.7829   -0.4098 C   0  0  0  0  0  0  0  0  0  0  0  0
   -3.5829    1.1478   -0.7308 C   0  0  0  0  0  0  0  0  0  0  0  0
   -3.4034   -0.3451   -0.5477 C   0  0  2  0  0  0  0  0  0  0  0  0
   -2.2938   -0.1853    1.6104 C   0  0  0  0  0  0  0  0  0  0  0  0
    2.2844   -0.3275    1.6451 C   0  0  0  0  0  0  0  0  0  0  0  0
   -4.5664   -0.8845    0.2554 C   0  0  0  0  0  0  0  0  0  0  0  0
   -4.4192   -2.2303    0.5488 O   0  0  0  0  0  0  0  0  0  0  0  0
   -5.7956   -0.7749   -0.6556 C   0  0  0  0  0  0  0  0  0  0  0  0
    2.3384   -2.1393   -1.2313 H   0  0  0  0  0  0  0  0  0  0  0  0
    2.8579   -2.4924    0.4340 H   0  0  0  0  0  0  0  0  0  0  0  0
    4.3153   -1.1473   -1.9158 H   0  0  0  0  0  0  0  0  0  0  0  0
    4.8616   -2.4180   -0.7957 H   0  0  0  0  0  0  0  0  0  0  0  0
    6.0360   -0.2797   -0.5698 H   0  0  0  0  0  0  0  0  0  0  0  0
    6.3463   -0.6990    1.4620 H   0  0  0  0  0  0  0  0  0  0  0  0
    4.8402    1.6310   -0.6203 H   0  0  0  0  0  0  0  0  0  0  0  0
    4.4336    1.2559    1.0631 H   0  0  0  0  0  0  0  0  0  0  0  0
    2.9984    0.5338   -1.5593 H   0  0  0  0  0  0  0  0  0  0  0  0
    2.2530    2.3019    0.7919 H   0  0  0  0  0  0  0  0  0  0  0  0
    2.6842    2.7693   -0.9452 H   0  0  0  0  0  0  0  0  0  0  0  0
    0.6268    1.8473   -1.7783 H   0  0  0  0  0  0  0  0  0  0  0  0
    0.2603    2.8627   -0.3516 H   0  0  0  0  0  0  0  0  0  0  0  0
    0.0971    1.0006    1.0968 H   0  0  0  0  0  0  0  0  0  0  0  0
    0.8042   -0.5379   -1.4356 H   0  0  0  0  0  0  0  0  0  0  0  0
    0.2380   -1.9072    1.2587 H   0  0  0  0  0  0  0  0  0  0  0  0
    0.5597   -2.5942   -0.3424 H   0  0  0  0  0  0  0  0  0  0  0  0
   -1.5370   -2.0858   -1.1544 H   0  0  0  0  0  0  0  0  0  0  0  0
   -1.8290   -2.5388    0.5336 H   0  0  0  0  0  0  0  0  0  0  0  0
   -1.2050    0.3040   -1.6020 H   0  0  0  0  0  0  0  0  0  0  0  0
   -2.0036    2.5994   -1.1408 H   0  0  0  0  0  0  0  0  0  0  0  0
   -2.2714    2.1474    0.6173 H   0  0  0  0  0  0  0  0  0  0  0  0
   -3.7743    1.3140   -1.8286 H   0  0  0  0  0  0  0  0  0  0  0  0
   -4.3898    1.5572   -0.1122 H   0  0  0  0  0  0  0  0  0  0  0  0
   -3.3296   -0.8784   -1.5062 H   0  0  0  0  0  0  0  0  0  0  0  0
   -2.6879   -1.1094    2.0797 H   0  0  0  0  0  0  0  0  0  0  0  0
   -3.0432    0.6241    1.7309 H   0  0  0  0  0  0  0  0  0  0  0  0
   -1.4010    0.1147    2.1577 H   0  0  0  0  0  0  0  0  0  0  0  0
    1.2512   -0.3491    2.1009 H   0  0  0  0  0  0  0  0  0  0  0  0
    2.8160   -1.1802    2.1047 H   0  0  0  0  0  0  0  0  0  0  0  0
    2.7039    0.6561    1.9628 H   0  0  0  0  0  0  0  0  0  0  0  0
   -4.7830   -0.2569    1.1368 H   0  0  0  0  0  0  0  0  0  0  0  0
   -5.0938   -2.4660    1.2329 H   0  0  0  0  0  0  0  0  0  0  0  0
   -5.9807   -1.7407   -1.1863 H   0  0  0  0  0  0  0  0  0  0  0  0
   -6.6809   -0.4330   -0.0831 H   0  0  0  0  0  0  0  0  0  0  0  0
   -5.6233   -0.0047   -1.4486 H   0  0  0  0  0  0  0  0  0  0  0  0
    2.3384   -2.1393   -1.2313 H   0  0  0  0  0  0  0  0  0  0  0  0
    2.8579   -2.4924    0.4340 H   0  0  0  0  0  0  0  0  0  0  0  0
    4.3153   -1.1473   -1.9158 H   0  0  0  0  0  0  0  0  0  0  0  0
    4.8616   -2.4180   -0.7957 H   0  0  0  0  0  0  0  0  0  0  0  0
    6.0360   -0.2797   -0.5698 H   0  0  0  0  0  0  0  0  0  0  0  0
    6.3463   -0.6990    1.4620 H   0  0  0  0  0  0  0  0  0  0  0  0
    4.8402    1.6310   -0.6203 H   0  0  0  0  0  0  0  0  0  0  0  0
    4.4336    1.2559    1.0631 H   0  0  0  0  0  0  0  0  0  0  0  0
    2.9984    0.5338   -1.5593 H   0  0  0  0  0  0  0  0  0  0  0  0
    2.2530    2.3019    0.7919 H   0  0  0  0  0  0  0  0  0  0  0  0
    2.6842    2.7693   -0.9452 H   0  0  0  0  0  0  0  0  0  0  0  0
    0.6268    1.8473   -1.7783 H   0  0  0  0  0  0  0  0  0  0  0  0
    0.2603    2.8627   -0.3516 H   0  0  0  0  0  0  0  0  0  0  0  0
    0.0971    1.0006    1.0968 H   0  0  0  0  0  0  0  0  0  0  0  0
    0.8042   -0.5379   -1.4356 H   0  0  0  0  0  0  0  0  0  0  0  0
    0.2380   -1.9072    1.2587 H   0  0  0  0  0  0  0  0  0  0  0  0
    0.5597   -2.5942   -0.3424 H   0  0  0  0  0  0  0  0  0  0  0  0
   -1.5370   -2.0858   -1.1544 H   0  0  0  0  0  0  0  0  0  0  0  0
   -1.8290   -2.5388    0.5336 H   0  0  0  0  0  0  0  0  0  0  0  0
   -1.2050    0.3040   -1.6020 H   0  0  0  0  0  0  0  0  0  0  0  0
   -2.0036    2.5994   -1.1408 H   0  0  0  0  0  0  0  0  0  0  0  0
   -2.2714    2.1474    0.6173 H   0  0  0  0  0  0  0  0  0  0  0  0
   -3.7743    1.3140   -1.8286 H   0  0  0  0  0  0  0  0  0  0  0  0
   -4.3898    1.5572   -0.1122 H   0  0  0  0  0  0  0  0  0  0  0  0
   -3.3296   -0.8784   -1.5062 H   0  0  0  0  0  0  0  0  0  0  0  0
   -2.6879   -1.1094    2.0797 H   0  0  0  0  0  0  0  0  0  0  0  0
   -3.0432    0.6241    1.7309 H   0  0  0  0  0  0  0  0  0  0  0  0
   -1.4010    0.1147    2.1577 H   0  0  0  0  0  0  0  0  0  0  0  0
    1.2512   -0.3491    2.1009 H   0  0  0  0  0  0  0  0  0  0  0  0
    2.8160   -1.1802    2.1047 H   0  0  0  0  0  0  0  0  0  0  0  0
    2.7039    0.6561    1.9628 H   0  0  0  0  0  0  0  0  0  0  0  0
   -4.7830   -0.2569    1.1368 H   0  0  0  0  0  0  0  0  0  0  0  0
   -5.0938   -2.4660    1.2329 H   0  0  0  0  0  0  0  0  0  0  0  0
   -5.9807   -1.7407   -1.1863 H   0  0  0  0  0  0  0  0  0  0  0  0
   -6.6809   -0.4330   -0.0831 H   0  0  0  0  0  0  0  0  0  0  0  0
   -5.6233   -0.0047   -1.4486 H   0  0  0  0  0  0  0  0  0  0  0  0
  1  2  1  0
  2  3  1  0
  3  4  1  0
  3  5  1  0
  5  6  1  0
  6  7  1  0
  7  8  1  0
  8  9  1  0
  9 10  1  0
  1 11  1  0
  6 11  1  0
 10 11  1  0
 10 12  1  0
 12 13  1  0
 13 14  1  0
  9 15  1  0
 14 15  1  0
 15 16  1  0
 16 17  1  0
 14 18  1  0
 17 18  1  0
 14 19  1  1
 11 20  1  1
 18 21  1  0
 21 22  1  0
 21 23  1  0
 24 25  1  0
 25 26  1  0
 26 27  1  0
 26 28  1  0
 28 29  1  0
 29 30  1  0
 30 31  1  0
 31 32  1  0
 32 33  1  0
 24 34  1  0
 29 34  1  0
 33 34  1  0
 33 35  1  0
 35 36  1  0
 36 37  1  0
 32 38  1  0
 37 38  1  0
 38 39  1  0
 39 40  1  0
 37 41  1  0
 40 41  1  0
 37 42  1  1
 34 43  1  1
 41 44  1  0
 44 45  1  0
 44 46  1  0
  1 47  1  0
  1 48  1  0
  2 49  1  0
  2 50  1  0
  3 51  1  0
  4 52  1  0
  5 53  1  0
  5 54  1  0
  6 55  1  6
  7 56  1  0
  7 57  1  0
  8 58  1  0
  8 59  1  0
  9 60  1  1
 10 61  1  6
 12 62  1  0
 12 63  1  0
 13 64  1  0
 13 65  1  0
 15 66  1  6
 16 67  1  0
 16 68  1  0
 17 69  1  0
 17 70  1  0
 18 71  1  6
 19 72  1  0
 19 73  1  0
 19 74  1  0
 20 75  1  0
 20 76  1  0
 20 77  1  0
 21 78  1  0
 22 79  1  0
 23 80  1  0
 23 81  1  0
 23 82  1  0
 24 83  1  0
 24 84  1  0
 25 85  1  0
 25 86  1  0
 26 87  1  0
 27 88  1  0
 28 89  1  0
 28 90  1  0
 29 91  1  6
 30 92  1  0
 30 93  1  0
 31 94  1  0
 31 95  1  0
 32 96  1  1
 33 97  1  6
 35 98  1  0
 35 99  1  0
 36100  1  0
 36101  1  0
 38102  1  6
 39103  1  0
 39104  1  0
 40105  1  0
 40106  1  0
 41107  1  6
 42108  1  0
 42109  1  0
 42110  1  0
 43111  1  0
 43112  1  0
 43113  1  0
 44114  1  0
 45115  1  0
 46116  1  0
 46117  1  0
 46118  1  0
M  END
>  <PDBID>  (1) 
4FN9

>  <PDB ID>  (1) 
4FN9

>  <Generic Name>  (1) 
Progesterone

>  <Brand Name>  (1) 
Act Progesterone Injection#Crinone#Endometrin#Estrogel Propak#Gesterol In Oil-liq Im 50mg/ml#PMS-progesterone Inj 50mg/ml USP#Prochieve#Progesterone#Progesterone Inj 50mg/ml USP#Progesterone Injection USP#Prometrium#Teva-progesterone#Agolutin#Cyclogest#Gesterol#Gestone#Progestasert#Progestogel#Qi Ning#Relantan#Susten#Utrogestan#Utrogestran#Utrovin#Vasclor

>  <DrugBank ID>  (1) 
DB00396

>  <ATC Codes>  (1) 
G03DA04#G03FA04

>  <Ligand ID>  (1) 
STR

>  <Target Name>  (1) 
Estrogen receptor

>  <UniProt ID>  (1) 
P03372

>  <PDB ID.1>  (1) 
4FN9

>  <Seq. Identity>  (1) 
32%

$$$$
