PDB_DB09034_05
     RDKit          3D

 75 79  0  0  0  0  0  0  0  0999 V2000
    3.7503   -0.2664   -0.0861 C   0  0  0  0  0  0  0  0  0  0  0  0
    2.3303   -0.0318   -0.2765 N   0  0  0  0  0  0  0  0  0  0  0  0
    3.9908   -1.4372    0.6260 O   0  0  0  0  0  0  0  0  0  0  0  0
    8.3642   -2.3836    0.1675 Cl  0  0  0  0  0  0  0  0  0  0  0  0
    4.4934   -0.3463   -1.3042 N   0  0  0  0  0  0  0  0  0  0  0  0
   -1.9575   -0.6983   -1.5286 O   0  0  0  0  0  0  0  0  0  0  0  0
    5.6261   -1.1621   -0.9058 C   0  0  0  0  0  0  0  0  0  0  0  0
   -0.3288    0.3884   -0.2251 N   0  0  0  0  0  0  0  0  0  0  0  0
    6.9358   -0.4945   -1.1550 C   0  0  0  0  0  0  0  0  0  0  0  0
   -4.6872   -1.1517    0.0168 N   0  0  0  0  0  0  0  0  0  0  0  0
    7.9139   -0.6942   -0.0259 C   0  0  0  0  0  0  0  0  0  0  0  0
   -4.3816   -1.5790   -1.2350 N   0  0  0  0  0  0  0  0  0  0  0  0
    7.2813   -0.1401    1.2204 C   0  0  0  0  0  0  0  0  0  0  0  0
   -5.6725   -1.9866    0.5550 N   0  0  0  0  0  0  0  0  0  0  0  0
    6.0420   -0.8821    1.5727 C   0  0  0  0  0  0  0  0  0  0  0  0
    5.3780   -1.6237    0.4761 C   0  0  0  0  0  0  0  0  0  0  0  0
    1.7566    0.0804    1.0481 C   0  0  0  0  0  0  0  0  0  0  0  0
    0.2888    0.2921    1.0703 C   0  0  0  0  0  0  0  0  0  0  0  0
   -0.2187    1.6649   -0.7587 C   0  0  1  0  0  0  0  0  0  0  0  0
    1.2212    2.1452   -0.4631 C   0  0  0  0  0  0  0  0  0  0  0  0
    2.1892    1.1557   -1.0664 C   0  0  0  0  0  0  0  0  0  0  0  0
   -1.5176   -0.3547   -0.2314 C   0  0  0  0  0  0  0  0  0  0  0  0
   -2.6072    0.0465    0.6951 C   0  0  0  0  0  0  0  0  0  0  0  0
   -3.6580   -0.9965    0.9699 C   0  0  0  0  0  0  0  0  0  0  0  0
   -4.3112   -0.5169    2.2874 C   0  0  0  0  0  0  0  0  0  0  0  0
   -5.0916    0.7382    1.9806 C   0  0  0  0  0  0  0  0  0  0  0  0
   -4.6925    1.4394    0.7325 C   0  0  0  0  0  0  0  0  0  0  0  0
   -3.2184    1.3990    0.4187 C   0  0  0  0  0  0  0  0  0  0  0  0
   -5.0763   -2.8206   -1.4895 C   0  0  0  0  0  0  0  0  0  0  0  0
   -6.2973   -2.6417   -0.5859 C   0  0  0  0  0  0  0  0  0  0  0  0
   -5.0512    2.9223    0.9217 C   0  0  0  0  0  0  0  0  0  0  0  0
   -0.3593    1.7995   -2.2517 C   0  0  0  0  0  0  0  0  0  0  0  0
    4.1291    0.6239    0.4826 H   0  0  0  0  0  0  0  0  0  0  0  0
    4.8990    0.5888   -1.5984 H   0  0  0  0  0  0  0  0  0  0  0  0
   -2.2937    0.1083   -1.9712 H   0  0  0  0  0  0  0  0  0  0  0  0
    5.5899   -2.0616   -1.5887 H   0  0  0  0  0  0  0  0  0  0  0  0
    6.7371    0.6103   -1.2114 H   0  0  0  0  0  0  0  0  0  0  0  0
    7.3827   -0.7748   -2.1305 H   0  0  0  0  0  0  0  0  0  0  0  0
    8.8354   -0.1263   -0.2772 H   0  0  0  0  0  0  0  0  0  0  0  0
   -4.6655   -0.9046   -1.9791 H   0  0  0  0  0  0  0  0  0  0  0  0
    7.0251    0.9336    1.0150 H   0  0  0  0  0  0  0  0  0  0  0  0
    8.0376   -0.1132    2.0253 H   0  0  0  0  0  0  0  0  0  0  0  0
   -5.1737   -2.7414    1.0829 H   0  0  0  0  0  0  0  0  0  0  0  0
    5.3431   -0.1844    2.1215 H   0  0  0  0  0  0  0  0  0  0  0  0
    6.3264   -1.6342    2.3680 H   0  0  0  0  0  0  0  0  0  0  0  0
    5.5348   -2.7220    0.5615 H   0  0  0  0  0  0  0  0  0  0  0  0
    1.9906   -0.8740    1.5651 H   0  0  0  0  0  0  0  0  0  0  0  0
    2.2892    0.8661    1.6553 H   0  0  0  0  0  0  0  0  0  0  0  0
    0.0714    1.2075    1.6899 H   0  0  0  0  0  0  0  0  0  0  0  0
   -0.2077   -0.5359    1.6526 H   0  0  0  0  0  0  0  0  0  0  0  0
   -0.8424    2.4744   -0.3207 H   0  0  0  0  0  0  0  0  0  0  0  0
    1.3987    3.1174   -1.0020 H   0  0  0  0  0  0  0  0  0  0  0  0
    1.3691    2.3430    0.5968 H   0  0  0  0  0  0  0  0  0  0  0  0
    1.7776    0.8676   -2.0628 H   0  0  0  0  0  0  0  0  0  0  0  0
    3.1613    1.6492   -1.2814 H   0  0  0  0  0  0  0  0  0  0  0  0
   -1.2016   -1.3933    0.1596 H   0  0  0  0  0  0  0  0  0  0  0  0
   -2.1005    0.1823    1.7070 H   0  0  0  0  0  0  0  0  0  0  0  0
   -3.1331   -1.9448    1.2167 H   0  0  0  0  0  0  0  0  0  0  0  0
   -3.4720   -0.2437    2.9454 H   0  0  0  0  0  0  0  0  0  0  0  0
   -4.8979   -1.3023    2.7563 H   0  0  0  0  0  0  0  0  0  0  0  0
   -6.1740    0.4375    1.8596 H   0  0  0  0  0  0  0  0  0  0  0  0
   -5.0652    1.3929    2.8789 H   0  0  0  0  0  0  0  0  0  0  0  0
   -5.2444    1.1333   -0.1827 H   0  0  0  0  0  0  0  0  0  0  0  0
   -3.0649    1.6502   -0.6358 H   0  0  0  0  0  0  0  0  0  0  0  0
   -2.7601    2.2125    1.0314 H   0  0  0  0  0  0  0  0  0  0  0  0
   -5.3376   -2.9958   -2.5311 H   0  0  0  0  0  0  0  0  0  0  0  0
   -4.4525   -3.6461   -1.1162 H   0  0  0  0  0  0  0  0  0  0  0  0
   -6.6646   -3.6387   -0.2853 H   0  0  0  0  0  0  0  0  0  0  0  0
   -7.0502   -2.0134   -1.0862 H   0  0  0  0  0  0  0  0  0  0  0  0
   -5.0720    3.1745    2.0045 H   0  0  0  0  0  0  0  0  0  0  0  0
   -4.2758    3.5727    0.4637 H   0  0  0  0  0  0  0  0  0  0  0  0
   -6.0084    3.1735    0.4264 H   0  0  0  0  0  0  0  0  0  0  0  0
   -0.1966    0.8871   -2.8163 H   0  0  0  0  0  0  0  0  0  0  0  0
   -1.3503    2.2279   -2.5415 H   0  0  0  0  0  0  0  0  0  0  0  0
    0.3714    2.5523   -2.6792 H   0  0  0  0  0  0  0  0  0  0  0  0
  1  2  1  0
  1  3  1  0
  1  5  1  0
  5  7  1  0
  7  9  1  0
  4 11  1  0
  9 11  1  0
 10 12  1  0
 11 13  1  0
 10 14  1  0
 13 15  1  0
  3 16  1  0
  7 16  1  0
 15 16  1  0
  2 17  1  0
  8 18  1  0
 17 18  1  0
  8 19  1  0
 19 20  1  0
  2 21  1  0
 20 21  1  0
  6 22  1  0
  8 22  1  0
 22 23  1  0
 10 24  1  0
 23 24  1  0
 24 25  1  0
 25 26  1  0
 26 27  1  0
 23 28  1  0
 27 28  1  0
 12 29  1  0
 14 30  1  0
 29 30  1  0
 27 31  1  0
 19 32  1  0
  1 33  1  0
  5 34  1  0
  6 35  1  0
  7 36  1  0
  9 37  1  0
  9 38  1  0
 11 39  1  0
 12 40  1  0
 13 41  1  0
 13 42  1  0
 14 43  1  0
 15 44  1  0
 15 45  1  0
 16 46  1  0
 17 47  1  0
 17 48  1  0
 18 49  1  0
 18 50  1  0
 19 51  1  1
 20 52  1  0
 20 53  1  0
 21 54  1  0
 21 55  1  0
 22 56  1  0
 23 57  1  0
 24 58  1  0
 25 59  1  0
 25 60  1  0
 26 61  1  0
 26 62  1  0
 27 63  1  0
 28 64  1  0
 28 65  1  0
 29 66  1  0
 29 67  1  0
 30 68  1  0
 30 69  1  0
 31 70  1  0
 31 71  1  0
 31 72  1  0
 32 73  1  0
 32 74  1  0
 32 75  1  0
M  END
>  <PDBID>  (1) 
4ZJ8

>  <PDB ID>  (1) 
4ZJ8

>  <Generic Name>  (1) 
Suvorexant

>  <Brand Name>  (1) 
Belsomra

>  <DrugBank ID>  (1) 
DB09034

>  <ATC Codes>  (1) 
nan

>  <Ligand ID>  (1) 
SUV

>  <Target Name>  (1) 
Orexin receptor type 1

>  <UniProt ID>  (1) 
O43613

>  <PDB ID.1>  (1) 
4ZJ8

>  <Seq. Identity>  (1) 
85%

$$$$
