PDB_DB01104_00
     RDKit          3D

 49 51  0  0  0  0  0  0  0  0999 V2000
    4.4771   -0.6440    2.5593 Cl  0  0  0  0  0  0  0  0  0  0  0  0
    4.4029   -0.5453    0.7809 C   0  0  0  0  0  0  0  0  0  0  0  0
    4.0358    0.8357    0.3199 C   0  0  0  0  0  0  0  0  0  0  0  0
    4.7516    1.9915    1.4845 Cl  0  0  0  0  0  0  0  0  0  0  0  0
    3.3543   -1.5337    0.2810 C   0  0  0  0  0  0  0  0  0  0  0  0
    2.8116   -0.9569   -0.9930 C   0  0  0  0  0  0  0  0  0  0  0  0
    1.8498    0.1780   -0.7563 C   0  0  0  0  0  0  0  0  0  0  0  0
    2.5513    1.0929    0.2597 C   0  0  0  0  0  0  0  0  0  0  0  0
    0.5344   -0.2718   -0.1855 C   0  0  1  0  0  0  0  0  0  0  0  0
   -0.4927    0.7879   -0.0206 C   0  0  0  0  0  0  0  0  0  0  0  0
   -0.4999    1.9040   -1.0005 C   0  0  0  0  0  0  0  0  0  0  0  0
   -1.4685    2.9610   -0.4416 C   0  0  0  0  0  0  0  0  0  0  0  0
   -2.8641    2.4607   -0.3271 C   0  0  0  0  0  0  0  0  0  0  0  0
   -2.8736    1.1626    0.4493 C   0  0  0  0  0  0  0  0  0  0  0  0
   -1.9084    0.1648   -0.1086 C   0  0  0  0  0  0  0  0  0  0  0  0
   -1.9173   -1.0560    0.7686 C   0  0  1  0  0  0  0  0  0  0  0  0
   -3.2480   -1.5621    0.9851 N   0  0  0  0  0  0  0  0  0  0  0  0
   -3.9345   -2.0161   -0.1633 C   0  0  0  0  0  0  0  0  0  0  0  0
   -0.9790   -2.1209    0.2393 C   0  0  0  0  0  0  0  0  0  0  0  0
   -0.0675   -1.4899   -0.8338 C   0  0  0  0  0  0  0  0  0  0  0  0
    5.4048   -0.8405    0.3981 H   0  0  0  0  0  0  0  0  0  0  0  0
    4.4807    1.0975   -0.6713 H   0  0  0  0  0  0  0  0  0  0  0  0
    2.5838   -1.6161    1.0467 H   0  0  0  0  0  0  0  0  0  0  0  0
    3.8356   -2.5092    0.0547 H   0  0  0  0  0  0  0  0  0  0  0  0
    2.4430   -1.7261   -1.7038 H   0  0  0  0  0  0  0  0  0  0  0  0
    3.7138   -0.5279   -1.5322 H   0  0  0  0  0  0  0  0  0  0  0  0
    1.7439    0.7366   -1.6880 H   0  0  0  0  0  0  0  0  0  0  0  0
    2.0936    0.8973    1.2589 H   0  0  0  0  0  0  0  0  0  0  0  0
    2.4233    2.1527    0.0556 H   0  0  0  0  0  0  0  0  0  0  0  0
    0.8191   -0.6417    0.8650 H   0  0  0  0  0  0  0  0  0  0  0  0
   -0.4610    1.2248    1.0119 H   0  0  0  0  0  0  0  0  0  0  0  0
   -0.9728    1.6128   -1.9800 H   0  0  0  0  0  0  0  0  0  0  0  0
    0.4484    2.4331   -1.1455 H   0  0  0  0  0  0  0  0  0  0  0  0
   -1.4176    3.8741   -1.0900 H   0  0  0  0  0  0  0  0  0  0  0  0
   -1.0856    3.2653    0.5550 H   0  0  0  0  0  0  0  0  0  0  0  0
   -3.3214    2.2965   -1.3169 H   0  0  0  0  0  0  0  0  0  0  0  0
   -3.4463    3.1869    0.2545 H   0  0  0  0  0  0  0  0  0  0  0  0
   -3.8955    0.7506    0.4481 H   0  0  0  0  0  0  0  0  0  0  0  0
   -2.5846    1.3859    1.4981 H   0  0  0  0  0  0  0  0  0  0  0  0
   -2.1715   -0.0401   -1.1615 H   0  0  0  0  0  0  0  0  0  0  0  0
   -1.5298   -0.7426    1.7619 H   0  0  0  0  0  0  0  0  0  0  0  0
   -3.3637   -2.0996    1.8461 H   0  0  0  0  0  0  0  0  0  0  0  0
   -3.4334   -2.8182   -0.7346 H   0  0  0  0  0  0  0  0  0  0  0  0
   -4.1970   -1.2162   -0.8677 H   0  0  0  0  0  0  0  0  0  0  0  0
   -4.9036   -2.4682    0.1956 H   0  0  0  0  0  0  0  0  0  0  0  0
   -0.2699   -2.4710    1.0285 H   0  0  0  0  0  0  0  0  0  0  0  0
   -1.4922   -3.0077   -0.1425 H   0  0  0  0  0  0  0  0  0  0  0  0
    0.6821   -2.2819   -1.0279 H   0  0  0  0  0  0  0  0  0  0  0  0
   -0.6417   -1.2494   -1.7497 H   0  0  0  0  0  0  0  0  0  0  0  0
  1  2  1  0
  2  3  1  0
  3  4  1  0
  2  5  1  0
  5  6  1  0
  6  7  1  0
  3  8  1  0
  7  8  1  0
  7  9  1  0
  9 10  1  0
 10 11  1  0
 11 12  1  0
 12 13  1  0
 13 14  1  0
 10 15  1  0
 14 15  1  0
 15 16  1  0
 16 17  1  0
 17 18  1  0
 16 19  1  0
  9 20  1  0
 19 20  1  0
  2 21  1  0
  3 22  1  0
  5 23  1  0
  5 24  1  0
  6 25  1  0
  6 26  1  0
  7 27  1  0
  8 28  1  0
  8 29  1  0
  9 30  1  1
 10 31  1  0
 11 32  1  0
 11 33  1  0
 12 34  1  0
 12 35  1  0
 13 36  1  0
 13 37  1  0
 14 38  1  0
 14 39  1  0
 15 40  1  0
 16 41  1  1
 17 42  1  0
 18 43  1  0
 18 44  1  0
 18 45  1  0
 19 46  1  0
 19 47  1  0
 20 48  1  0
 20 49  1  0
M  END
>  <PDBID>  (1) 
6AWO

>  <PDB ID>  (1) 
6AWO

>  <Generic Name>  (1) 
Sertraline

>  <Brand Name>  (1) 
Act Sertraline#Apo-sertraline#Auro-sertraline#Bio-sertraline#Dom-sertraline#Gd-sertraline#Ipg-sertraline#Jamp-sertraline#Mar-sertraline#Mint-sertraline#Mylan-sertraline#Nu-sertraline Capsules#PHL-sertraline#PMS-sertraline#Priva-sertraline#Q-sertraline#Ran-sertraline#Ratio-sertraline#Riva-sertraline#Sandoz Sertraline#Sertraline#Sertraline Hydrochloride#Sertraline Hydrochloride Tablets#Sertraline-100#Sertraline-25#Sertraline-50#Teva-sertraline#Van-sertraline#Zoloft#Zoloft Cap 100mg#Zoloft Cap 50mg#Lustral

>  <DrugBank ID>  (1) 
DB01104

>  <ATC Codes>  (1) 
N06AB06

>  <Ligand ID>  (1) 
SRE

>  <Target Name>  (1) 
Sodium-dependent serotonin transporter

>  <UniProt ID>  (1) 
P31645

>  <PDB ID.1>  (1) 
6AWO

>  <Seq. Identity>  (1) 
99%

$$$$
