PDB_DB01024_07
     RDKit          3D

110112  0  0  0  0  0  0  0  0999 V2000
   -2.5142   -1.5706    2.1357 C   0  0  0  0  0  0  0  0  0  0  0  0
    1.7155    1.0451   -0.6331 C   0  0  0  0  0  0  0  0  0  0  0  0
    2.2636   -0.2789   -0.3126 C   0  0  0  0  0  0  0  0  0  0  0  0
    3.7769   -0.0740   -0.0076 C   0  0  0  0  0  0  0  0  0  0  0  0
    4.4133   -1.3822    0.3302 C   0  0  0  0  0  0  0  0  0  0  0  0
    5.8697   -1.1741    0.6224 C   0  0  0  0  0  0  0  0  0  0  0  0
   -4.4664    0.8768   -1.0101 C   0  0  0  0  0  0  0  0  0  0  0  0
   -2.7906    3.5418   -0.5764 C   0  0  0  0  0  0  0  0  0  0  0  0
    2.2932   -1.1906   -1.5509 C   0  0  0  0  0  0  0  0  0  0  0  0
   -4.2599   -1.3238    0.7094 C   0  0  0  0  0  0  0  0  0  0  0  0
   -3.0297   -0.8915    0.0052 C   0  0  0  0  0  0  0  0  0  0  0  0
   -3.0624    0.2396   -0.9096 C   0  0  0  0  0  0  0  0  0  0  0  0
   -2.1321    1.3461   -0.5987 C   0  0  0  0  0  0  0  0  0  0  0  0
   -0.7787    0.9873   -0.0079 C   0  0  1  0  0  0  0  0  0  0  0  0
   -0.8112   -0.3331    0.6866 C   0  0  0  0  0  0  0  0  0  0  0  0
   -2.2193   -0.4432    1.2481 C   0  0  0  0  0  0  0  0  0  0  0  0
    0.3102    1.2585   -0.9749 C   0  0  0  0  0  0  0  0  0  0  0  0
   -1.5502   -2.5518    2.2101 O   0  0  0  0  0  0  0  0  0  0  0  0
   -3.7655   -2.0878    1.7687 O   0  0  0  0  0  0  0  0  0  0  0  0
   -2.7262    2.3621    0.1567 O   0  0  0  0  0  0  0  0  0  0  0  0
   -0.5725   -1.3450   -0.2239 O   0  0  0  0  0  0  0  0  0  0  0  0
    6.0176   -0.3012    1.7000 O   0  0  0  0  0  0  0  0  0  0  0  0
    6.4942   -0.6129   -0.4910 O   0  0  0  0  0  0  0  0  0  0  0  0
   -2.7038   -1.8498    1.1155 C   0  0  2  0  0  0  0  0  0  0  0  0
    1.2560    0.4860   -1.6651 C   0  0  0  0  0  0  0  0  0  0  0  0
    2.1173   -0.1178   -0.6133 C   0  0  0  0  0  0  0  0  0  0  0  0
    3.3277    0.7927   -0.3763 C   0  0  0  0  0  0  0  0  0  0  0  0
    4.1719    0.1357    0.7008 C   0  0  0  0  0  0  0  0  0  0  0  0
    5.3831    1.0191    0.9594 C   0  0  0  0  0  0  0  0  0  0  0  0
   -3.3245    2.0123    0.7293 C   0  0  0  0  0  0  0  0  0  0  0  0
   -0.2258    1.8235    1.4790 C   0  0  0  0  0  0  0  0  0  0  0  0
    2.6772   -1.4716   -0.9675 C   0  0  0  0  0  0  0  0  0  0  0  0
   -4.4528   -0.4861    1.1180 C   0  0  0  0  0  0  0  0  0  0  0  0
   -3.7566   -0.2679   -0.2123 C   0  0  0  0  0  0  0  0  0  0  0  0
   -2.9048    0.9346   -0.2552 C   0  0  2  0  0  0  0  0  0  0  0  0
   -1.4214    0.7360   -0.2045 C   0  0  2  0  0  0  0  0  0  0  0  0
   -0.8977   -0.5056   -0.7920 C   0  0  1  0  0  0  0  0  0  0  0  0
   -1.9349   -1.4956   -1.2515 C   0  0  2  0  0  0  0  0  0  0  0  0
   -3.0613   -1.5863   -0.2979 C   0  0  0  0  0  0  0  0  0  0  0  0
    0.0295   -0.3097   -1.9862 C   0  0  0  0  0  0  0  0  0  0  0  0
   -3.1538   -3.1414    1.4874 O   0  0  0  0  0  0  0  0  0  0  0  0
   -3.3808   -0.8953    1.9105 O   0  0  0  0  0  0  0  0  0  0  0  0
   -1.0546    0.7982    1.1377 O   0  0  0  0  0  0  0  0  0  0  0  0
   -1.3096   -2.7090   -1.4728 O   0  0  0  0  0  0  0  0  0  0  0  0
    4.8975    2.2559    1.3787 O   0  0  0  0  0  0  0  0  0  0  0  0
    6.1394    1.2036   -0.1834 O   0  0  0  0  0  0  0  0  0  0  0  0
   -2.6606   -1.1779    3.1827 H   0  0  0  0  0  0  0  0  0  0  0  0
    1.9751    1.7236    0.2627 H   0  0  0  0  0  0  0  0  0  0  0  0
    2.4102    1.4732   -1.4473 H   0  0  0  0  0  0  0  0  0  0  0  0
    1.8933   -0.7995    0.5549 H   0  0  0  0  0  0  0  0  0  0  0  0
    4.1965    0.3310   -0.9467 H   0  0  0  0  0  0  0  0  0  0  0  0
    3.8394    0.6667    0.8052 H   0  0  0  0  0  0  0  0  0  0  0  0
    3.9571   -1.9014    1.1751 H   0  0  0  0  0  0  0  0  0  0  0  0
    4.3670   -2.0473   -0.5788 H   0  0  0  0  0  0  0  0  0  0  0  0
    6.4108   -2.0940    0.8666 H   0  0  0  0  0  0  0  0  0  0  0  0
   -4.5578    1.3622   -2.0016 H   0  0  0  0  0  0  0  0  0  0  0  0
   -4.6170    1.6419   -0.2431 H   0  0  0  0  0  0  0  0  0  0  0  0
   -5.2545    0.0998   -0.8803 H   0  0  0  0  0  0  0  0  0  0  0  0
   -1.7684    3.8849   -0.8762 H   0  0  0  0  0  0  0  0  0  0  0  0
   -3.3126    3.3563   -1.5523 H   0  0  0  0  0  0  0  0  0  0  0  0
   -3.3671    4.3266   -0.0745 H   0  0  0  0  0  0  0  0  0  0  0  0
    2.2366   -2.2300   -1.1533 H   0  0  0  0  0  0  0  0  0  0  0  0
    1.3585   -1.0478   -2.1489 H   0  0  0  0  0  0  0  0  0  0  0  0
    3.1985   -1.0269   -2.1350 H   0  0  0  0  0  0  0  0  0  0  0  0
   -4.8406   -2.0135    0.0606 H   0  0  0  0  0  0  0  0  0  0  0  0
   -4.9246   -0.5259    1.0288 H   0  0  0  0  0  0  0  0  0  0  0  0
   -2.5224   -1.7579   -0.4705 H   0  0  0  0  0  0  0  0  0  0  0  0
   -2.9074   -0.1610   -1.9657 H   0  0  0  0  0  0  0  0  0  0  0  0
   -1.8919    1.8233   -1.5992 H   0  0  0  0  0  0  0  0  0  0  0  0
   -0.6280    1.7465    0.8282 H   0  0  0  0  0  0  0  0  0  0  0  0
   -0.1501   -0.4562    1.5462 H   0  0  0  0  0  0  0  0  0  0  0  0
   -2.5362    0.5329    1.5811 H   0  0  0  0  0  0  0  0  0  0  0  0
    0.0482    0.7402   -1.9505 H   0  0  0  0  0  0  0  0  0  0  0  0
    0.2203    2.3791   -1.2313 H   0  0  0  0  0  0  0  0  0  0  0  0
   -0.8970   -2.3295    2.9359 H   0  0  0  0  0  0  0  0  0  0  0  0
   -0.2050   -2.1672    0.1689 H   0  0  0  0  0  0  0  0  0  0  0  0
    6.2254   -0.8073    2.5476 H   0  0  0  0  0  0  0  0  0  0  0  0
    6.2290    0.3584   -0.5655 H   0  0  0  0  0  0  0  0  0  0  0  0
   -1.6208   -1.8715    1.3373 H   0  0  0  0  0  0  0  0  0  0  0  0
    1.8317    0.5778   -2.6287 H   0  0  0  0  0  0  0  0  0  0  0  0
    1.0190    1.5234   -1.3612 H   0  0  0  0  0  0  0  0  0  0  0  0
    1.5646   -0.2486    0.3358 H   0  0  0  0  0  0  0  0  0  0  0  0
    3.9081    0.7695   -1.3145 H   0  0  0  0  0  0  0  0  0  0  0  0
    3.0300    1.8143   -0.1025 H   0  0  0  0  0  0  0  0  0  0  0  0
    3.6313    0.0137    1.6508 H   0  0  0  0  0  0  0  0  0  0  0  0
    4.5716   -0.8339    0.3536 H   0  0  0  0  0  0  0  0  0  0  0  0
    5.9862    0.5437    1.7656 H   0  0  0  0  0  0  0  0  0  0  0  0
   -2.8889    2.9623    0.3530 H   0  0  0  0  0  0  0  0  0  0  0  0
   -2.9090    1.8463    1.7358 H   0  0  0  0  0  0  0  0  0  0  0  0
   -4.4196    2.1659    0.7328 H   0  0  0  0  0  0  0  0  0  0  0  0
   -0.0365    1.7179    2.5883 H   0  0  0  0  0  0  0  0  0  0  0  0
    0.7351    1.8937    0.9830 H   0  0  0  0  0  0  0  0  0  0  0  0
   -0.7421    2.8169    1.4007 H   0  0  0  0  0  0  0  0  0  0  0  0
    3.6272   -1.3043   -1.5168 H   0  0  0  0  0  0  0  0  0  0  0  0
    2.9759   -2.0384   -0.0363 H   0  0  0  0  0  0  0  0  0  0  0  0
    2.0450   -2.0763   -1.6241 H   0  0  0  0  0  0  0  0  0  0  0  0
   -5.0956   -1.4029    0.9697 H   0  0  0  0  0  0  0  0  0  0  0  0
   -4.9853    0.3630    1.4959 H   0  0  0  0  0  0  0  0  0  0  0  0
   -4.6052   -0.2272   -0.9654 H   0  0  0  0  0  0  0  0  0  0  0  0
   -3.1056    1.4172   -1.2634 H   0  0  0  0  0  0  0  0  0  0  0  0
   -0.8903    1.6078   -0.6923 H   0  0  0  0  0  0  0  0  0  0  0  0
   -0.2616   -1.0729   -0.0474 H   0  0  0  0  0  0  0  0  0  0  0  0
   -2.3319   -1.1306   -2.2255 H   0  0  0  0  0  0  0  0  0  0  0  0
   -3.8018   -2.3312   -0.6759 H   0  0  0  0  0  0  0  0  0  0  0  0
    0.3587   -1.2822   -2.4036 H   0  0  0  0  0  0  0  0  0  0  0  0
   -0.5473    0.1517   -2.8446 H   0  0  0  0  0  0  0  0  0  0  0  0
   -3.0452   -3.2452    2.4780 H   0  0  0  0  0  0  0  0  0  0  0  0
   -2.0104   -3.3278   -1.8379 H   0  0  0  0  0  0  0  0  0  0  0  0
    5.2500    2.4859    2.2774 H   0  0  0  0  0  0  0  0  0  0  0  0
    6.3456    0.3602   -0.6562 H   0  0  0  0  0  0  0  0  0  0  0  0
  2  3  1  0
  3  4  1  0
  4  5  1  0
  5  6  1  0
  3  9  1  0
 10 11  1  0
  7 12  1  0
 11 12  1  0
 12 13  1  0
 13 14  1  0
 14 15  1  0
  1 16  1  0
 11 16  1  0
 15 16  1  0
  2 17  1  0
 14 17  1  0
  1 18  1  0
  1 19  1  0
 10 19  1  0
  8 20  1  0
 13 20  1  0
 15 21  1  0
  6 22  1  0
  6 23  1  0
 25 26  1  0
 26 27  1  0
 27 28  1  0
 28 29  1  0
 26 32  1  0
 33 34  1  0
 30 35  1  0
 34 35  1  0
 35 36  1  0
 36 37  1  0
 37 38  1  0
 24 39  1  0
 34 39  1  0
 38 39  1  0
 25 40  1  0
 37 40  1  0
 24 41  1  0
 24 42  1  0
 33 42  1  0
 31 43  1  0
 36 43  1  0
 38 44  1  0
 29 45  1  0
 29 46  1  0
  1 47  1  0
  2 48  1  0
  2 49  1  0
  3 50  1  0
  4 51  1  0
  4 52  1  0
  5 53  1  0
  5 54  1  0
  6 55  1  0
  7 56  1  0
  7 57  1  0
  7 58  1  0
  8 59  1  0
  8 60  1  0
  8 61  1  0
  9 62  1  0
  9 63  1  0
  9 64  1  0
 10 65  1  0
 10 66  1  0
 11 67  1  0
 12 68  1  0
 13 69  1  0
 14 70  1  1
 15 71  1  0
 16 72  1  0
 17 73  1  0
 17 74  1  0
 18 75  1  0
 21 76  1  0
 22 77  1  0
 23 78  1  0
 24 79  1  6
 25 80  1  0
 25 81  1  0
 26 82  1  0
 27 83  1  0
 27 84  1  0
 28 85  1  0
 28 86  1  0
 29 87  1  0
 30 88  1  0
 30 89  1  0
 30 90  1  0
 31 91  1  0
 31 92  1  0
 31 93  1  0
 32 94  1  0
 32 95  1  0
 32 96  1  0
 33 97  1  0
 33 98  1  0
 34 99  1  0
 35100  1  6
 36101  1  6
 37102  1  1
 38103  1  6
 39104  1  0
 40105  1  0
 40106  1  0
 41107  1  0
 44108  1  0
 45109  1  0
 46110  1  0
M  END
>  <PDBID>  (1) 
1JR1

>  <PDB ID>  (1) 
1JR1

>  <Generic Name>  (1) 
Mycophenolic acid

>  <Brand Name>  (1) 
Apo-mycophenolic Acid#Mycophenolic Acid#Myfortic#Melbex

>  <DrugBank ID>  (1) 
DB01024

>  <ATC Codes>  (1) 
L04AA06

>  <Ligand ID>  (1) 
MOA

>  <Target Name>  (1) 
Inosine-5'-monophosphate dehydrogenase 2

>  <UniProt ID>  (1) 
P12268

>  <PDB ID.1>  (1) 
1JR1

>  <Seq. Identity>  (1) 
99%

$$$$
