PDB_DB08864_00
     RDKit          3D

 74 76  0  0  0  0  0  0  0  0999 V2000
   -2.7126   -0.2291   -1.5361 C   0  0  0  0  0  0  0  0  0  0  0  0
    2.9663   -2.1725   -0.1268 N   0  0  0  0  0  0  0  0  0  0  0  0
   -4.6263    0.3568   -0.0119 C   0  0  0  0  0  0  0  0  0  0  0  0
   -3.7082    0.2433    1.1559 C   0  0  0  0  0  0  0  0  0  0  0  0
   -2.7398   -0.8783    0.9038 C   0  0  0  0  0  0  0  0  0  0  0  0
   -1.9168   -0.5241   -0.2924 C   0  0  0  0  0  0  0  0  0  0  0  0
   -3.0087   -1.5419   -2.2266 C   0  0  0  0  0  0  0  0  0  0  0  0
   -3.9337    0.5914   -1.3152 C   0  0  0  0  0  0  0  0  0  0  0  0
   -3.4089   -2.2193    0.8145 C   0  0  0  0  0  0  0  0  0  0  0  0
   -0.9853   -1.5737   -0.6606 N   0  0  0  0  0  0  0  0  0  0  0  0
    2.1023   -3.1911    0.4707 C   0  0  0  0  0  0  0  0  0  0  0  0
    0.7477   -3.1244   -0.1725 C   0  0  0  0  0  0  0  0  0  0  0  0
    0.0163   -1.8612    0.3075 C   0  0  0  0  0  0  0  0  0  0  0  0
    1.0481   -0.8502    0.3951 N   0  0  0  0  0  0  0  0  0  0  0  0
    2.1152   -1.1005   -0.5549 C   0  0  1  0  0  0  0  0  0  0  0  0
    2.9128    0.0660   -0.8000 N   0  0  0  0  0  0  0  0  0  0  0  0
    6.6074    0.9892   -0.1603 C   0  0  0  0  0  0  0  0  0  0  0  0
    5.5183    1.7413   -0.8814 C   0  0  0  0  0  0  0  0  0  0  0  0
    4.2679    1.8763   -0.0618 C   0  0  0  0  0  0  0  0  0  0  0  0
    3.6480    0.5562    0.3193 C   0  0  0  0  0  0  0  0  0  0  0  0
    4.7791   -0.3584    0.7377 C   0  0  0  0  0  0  0  0  0  0  0  0
    6.0169    0.4417    1.1108 C   0  0  0  0  0  0  0  0  0  0  0  0
    8.7718    1.0935    0.8690 N   0  0  0  0  0  0  0  0  0  0  0  0
    7.7865    1.8967    0.1864 C   0  0  0  0  0  0  0  0  0  0  0  0
   -6.6142    1.6419   -0.8483 C   0  0  0  0  0  0  0  0  0  0  0  0
   -5.6322    1.4472    0.2825 C   0  0  0  0  0  0  0  0  0  0  0  0
   -8.3050    2.4629    0.7500 N   0  0  0  0  0  0  0  0  0  0  0  0
   -7.5666    2.7467   -0.4402 C   0  0  0  0  0  0  0  0  0  0  0  0
   -3.1100    1.1836    1.2181 H   0  0  0  0  0  0  0  0  0  0  0  0
   -2.6238   -1.5482   -3.2814 H   0  0  0  0  0  0  0  0  0  0  0  0
   -4.0857   -1.7458   -2.3038 H   0  0  0  0  0  0  0  0  0  0  0  0
   -2.5026   -2.3971   -1.7221 H   0  0  0  0  0  0  0  0  0  0  0  0
   -4.6538    0.3673   -2.1277 H   0  0  0  0  0  0  0  0  0  0  0  0
   -3.9613   -2.3599    1.7827 H   0  0  0  0  0  0  0  0  0  0  0  0
   -4.1473   -2.3221    0.0224 H   0  0  0  0  0  0  0  0  0  0  0  0
   -2.6082   -2.9847    0.7664 H   0  0  0  0  0  0  0  0  0  0  0  0
   -0.5239   -1.2837   -1.5394 H   0  0  0  0  0  0  0  0  0  0  0  0
    2.5395   -4.1851    0.3025 H   0  0  0  0  0  0  0  0  0  0  0  0
    0.7651   -3.1835   -1.2738 H   0  0  0  0  0  0  0  0  0  0  0  0
    2.4575    0.8116   -1.3391 H   0  0  0  0  0  0  0  0  0  0  0  0
    5.8869    2.7890   -1.0563 H   0  0  0  0  0  0  0  0  0  0  0  0
    3.5128    2.3959   -0.7079 H   0  0  0  0  0  0  0  0  0  0  0  0
    4.4719   -0.9601    1.6232 H   0  0  0  0  0  0  0  0  0  0  0  0
    6.7153   -0.2254    1.6523 H   0  0  0  0  0  0  0  0  0  0  0  0
   -6.0633    2.0465   -1.7487 H   0  0  0  0  0  0  0  0  0  0  0  0
   -5.1126    2.4186    0.4271 H   0  0  0  0  0  0  0  0  0  0  0  0
   -2.0301    0.3470   -2.2152 H   0  0  0  0  0  0  0  0  0  0  0  0
    3.4753   -2.6100   -0.9370 H   0  0  0  0  0  0  0  0  0  0  0  0
   -5.2173   -0.5909   -0.0922 H   0  0  0  0  0  0  0  0  0  0  0  0
   -4.3270    0.0956    2.0647 H   0  0  0  0  0  0  0  0  0  0  0  0
   -2.0614   -0.9088    1.7807 H   0  0  0  0  0  0  0  0  0  0  0  0
   -1.3172    0.3731   -0.0361 H   0  0  0  0  0  0  0  0  0  0  0  0
   -3.7212    1.6844   -1.3798 H   0  0  0  0  0  0  0  0  0  0  0  0
    1.9595   -2.9525    1.5517 H   0  0  0  0  0  0  0  0  0  0  0  0
    0.1689   -4.0058    0.1774 H   0  0  0  0  0  0  0  0  0  0  0  0
   -0.3513   -2.0964    1.3187 H   0  0  0  0  0  0  0  0  0  0  0  0
    0.6726    0.1185    0.3197 H   0  0  0  0  0  0  0  0  0  0  0  0
    1.6352   -1.3615   -1.5347 H   0  0  0  0  0  0  0  0  0  0  0  0
    6.9986    0.1810   -0.8275 H   0  0  0  0  0  0  0  0  0  0  0  0
    5.2979    1.2760   -1.8500 H   0  0  0  0  0  0  0  0  0  0  0  0
    4.4393    2.5236    0.8229 H   0  0  0  0  0  0  0  0  0  0  0  0
    2.9584    0.6939    1.1599 H   0  0  0  0  0  0  0  0  0  0  0  0
    5.0853   -1.0597   -0.0652 H   0  0  0  0  0  0  0  0  0  0  0  0
    5.7854    1.2980    1.7690 H   0  0  0  0  0  0  0  0  0  0  0  0
    9.4990    1.6263    1.3558 H   0  0  0  0  0  0  0  0  0  0  0  0
    9.1286    0.3181    0.3032 H   0  0  0  0  0  0  0  0  0  0  0  0
    8.2748    2.2453   -0.7613 H   0  0  0  0  0  0  0  0  0  0  0  0
    7.4697    2.7271    0.8310 H   0  0  0  0  0  0  0  0  0  0  0  0
   -7.1439    0.7101   -1.1172 H   0  0  0  0  0  0  0  0  0  0  0  0
   -6.2044    1.2388    1.2018 H   0  0  0  0  0  0  0  0  0  0  0  0
   -7.6843    2.5881    1.5792 H   0  0  0  0  0  0  0  0  0  0  0  0
   -8.7333    1.5179    0.7035 H   0  0  0  0  0  0  0  0  0  0  0  0
   -8.2389    3.0228   -1.2998 H   0  0  0  0  0  0  0  0  0  0  0  0
   -6.9208    3.6566   -0.2781 H   0  0  0  0  0  0  0  0  0  0  0  0
  3  4  1  0
  4  5  1  0
  1  6  1  0
  5  6  1  0
  1  7  1  0
  1  8  1  0
  3  8  1  0
  5  9  1  0
  6 10  1  0
  2 11  1  0
 11 12  1  0
 10 13  1  0
 12 13  1  0
 13 14  1  0
  2 15  1  0
 14 15  1  0
 15 16  1  0
 17 18  1  0
 18 19  1  0
 16 20  1  0
 19 20  1  0
 20 21  1  0
 17 22  1  0
 21 22  1  0
 17 24  1  0
 23 24  1  0
  3 26  1  0
 25 26  1  0
 25 28  1  0
 27 28  1  0
  4 29  1  0
  7 30  1  0
  7 31  1  0
  7 32  1  0
  8 33  1  0
  9 34  1  0
  9 35  1  0
  9 36  1  0
 10 37  1  0
 11 38  1  0
 12 39  1  0
 16 40  1  0
 18 41  1  0
 19 42  1  0
 21 43  1  0
 22 44  1  0
 25 45  1  0
 26 46  1  0
  1 47  1  0
  2 48  1  0
  3 49  1  0
  4 50  1  0
  5 51  1  0
  6 52  1  0
  8 53  1  0
 11 54  1  0
 12 55  1  0
 13 56  1  0
 14 57  1  0
 15 58  1  6
 17 59  1  0
 18 60  1  0
 19 61  1  0
 20 62  1  0
 21 63  1  0
 22 64  1  0
 23 65  1  0
 23 66  1  0
 24 67  1  0
 24 68  1  0
 25 69  1  0
 26 70  1  0
 27 71  1  0
 27 72  1  0
 28 73  1  0
 28 74  1  0
M  END
>  <PDBID>  (1) 
4G1Q

>  <PDB ID>  (1) 
4G1Q

>  <Generic Name>  (1) 
Rilpivirine

>  <Brand Name>  (1) 
Complera#Edurant#Odefsey

>  <DrugBank ID>  (1) 
DB08864

>  <ATC Codes>  (1) 
nan

>  <Ligand ID>  (1) 
T27

>  <Target Name>  (1) 
Reverse transcriptase/RNaseH

>  <UniProt ID>  (1) 
Q72547

>  <PDB ID.1>  (1) 
4G1Q

>  <Seq. Identity>  (1) 
95%

$$$$
