PDB_DB01044_00
     RDKit          3D

122128  0  0  0  0  0  0  0  0999 V2000
   -5.6356   -0.5915    0.8545 C   0  0  0  0  0  0  0  0  0  0  0  0
   -4.3653    0.2041    0.9478 C   0  0  1  0  0  0  0  0  0  0  0  0
   -3.1223   -0.6390    0.6186 C   0  0  0  0  0  0  0  0  0  0  0  0
   -2.5965   -0.2418   -0.5847 N   0  0  0  0  0  0  0  0  0  0  0  0
   -3.5107   -0.0006   -1.6361 C   0  0  0  0  0  0  0  0  0  0  0  0
   -4.4621    1.1043   -1.3010 C   0  0  0  0  0  0  0  0  0  0  0  0
   -4.4872    1.3582    0.1013 N   0  0  0  0  0  0  0  0  0  0  0  0
   -1.2850    0.1103   -0.8371 C   0  0  0  0  0  0  0  0  0  0  0  0
   -0.9400    1.3313   -0.0034 C   0  0  0  0  0  0  0  0  0  0  0  0
    0.2671    1.9759   -0.6248 C   0  0  0  0  0  0  0  0  0  0  0  0
    1.2734    1.0253   -1.1463 C   0  0  0  0  0  0  0  0  0  0  0  0
    1.1749   -0.3786   -0.6356 C   0  0  0  0  0  0  0  0  0  0  0  0
   -0.2237   -0.9191   -0.5135 C   0  0  0  0  0  0  0  0  0  0  0  0
   -0.4323   -2.0182   -1.3492 O   0  0  0  0  0  0  0  0  0  0  0  0
   -0.7684   -3.1797   -0.7055 C   0  0  0  0  0  0  0  0  0  0  0  0
    1.9254   -0.6917    0.5166 N   0  0  0  0  0  0  0  0  0  0  0  0
    2.4437    0.3555    1.3091 C   0  0  0  0  0  0  0  0  0  0  0  0
    2.9728    1.5551    0.6041 C   0  0  0  0  0  0  0  0  0  0  0  0
    2.6466    1.6025   -0.8633 C   0  0  0  0  0  0  0  0  0  0  0  0
    2.5987    2.9458   -1.2493 O   0  0  0  0  0  0  0  0  0  0  0  0
    4.4477    1.7895    0.8288 C   0  0  0  0  0  0  0  0  0  0  0  0
    4.6625    1.9657    2.2087 O   0  0  0  0  0  0  0  0  0  0  0  0
    5.2594    0.7679    0.4236 O   0  0  0  0  0  0  0  0  0  0  0  0
    2.7342   -1.8573    0.5101 C   0  0  0  0  0  0  0  0  0  0  0  0
    3.8733   -2.0459   -0.4207 C   0  0  0  0  0  0  0  0  0  0  0  0
    2.6902   -2.9317   -0.4745 C   0  0  0  0  0  0  0  0  0  0  0  0
   -0.8040    1.0871    1.3238 F   0  0  0  0  0  0  0  0  0  0  0  0
   -6.1397   -0.6765    1.8401 H   0  0  0  0  0  0  0  0  0  0  0  0
   -5.4741   -1.6033    0.4280 H   0  0  0  0  0  0  0  0  0  0  0  0
   -6.3719   -0.0964    0.1850 H   0  0  0  0  0  0  0  0  0  0  0  0
   -4.3086    0.6059    1.9969 H   0  0  0  0  0  0  0  0  0  0  0  0
   -3.5161   -1.6885    0.6360 H   0  0  0  0  0  0  0  0  0  0  0  0
   -2.4243   -0.4807    1.4861 H   0  0  0  0  0  0  0  0  0  0  0  0
   -4.0507   -0.9518   -1.9080 H   0  0  0  0  0  0  0  0  0  0  0  0
   -2.9146    0.2268   -2.5621 H   0  0  0  0  0  0  0  0  0  0  0  0
   -5.4750    0.8406   -1.6814 H   0  0  0  0  0  0  0  0  0  0  0  0
   -4.0784    2.0324   -1.8154 H   0  0  0  0  0  0  0  0  0  0  0  0
   -5.4141    1.7901    0.3386 H   0  0  0  0  0  0  0  0  0  0  0  0
   -0.1235    2.6444   -1.4485 H   0  0  0  0  0  0  0  0  0  0  0  0
   -0.9158   -4.0323   -1.4097 H   0  0  0  0  0  0  0  0  0  0  0  0
   -0.0884   -3.4455    0.1424 H   0  0  0  0  0  0  0  0  0  0  0  0
   -1.7710   -3.0411   -0.2370 H   0  0  0  0  0  0  0  0  0  0  0  0
    1.6996    0.6015    2.1175 H   0  0  0  0  0  0  0  0  0  0  0  0
    2.9624   -2.1968    1.5699 H   0  0  0  0  0  0  0  0  0  0  0  0
    4.8287   -2.4472   -0.0300 H   0  0  0  0  0  0  0  0  0  0  0  0
    4.0623   -1.2879   -1.2340 H   0  0  0  0  0  0  0  0  0  0  0  0
    2.1452   -2.9422   -1.4176 H   0  0  0  0  0  0  0  0  0  0  0  0
    2.8976   -3.9917   -0.1273 H   0  0  0  0  0  0  0  0  0  0  0  0
   -5.6356   -0.5915    0.8545 C   0  0  0  0  0  0  0  0  0  0  0  0
   -4.3653    0.2041    0.9478 C   0  0  1  0  0  0  0  0  0  0  0  0
   -3.1223   -0.6390    0.6186 C   0  0  0  0  0  0  0  0  0  0  0  0
   -2.5965   -0.2418   -0.5847 N   0  0  0  0  0  0  0  0  0  0  0  0
   -3.5107   -0.0006   -1.6361 C   0  0  0  0  0  0  0  0  0  0  0  0
   -4.4621    1.1043   -1.3010 C   0  0  0  0  0  0  0  0  0  0  0  0
   -4.4872    1.3582    0.1013 N   0  0  0  0  0  0  0  0  0  0  0  0
   -1.2850    0.1103   -0.8371 C   0  0  0  0  0  0  0  0  0  0  0  0
   -0.9400    1.3313   -0.0034 C   0  0  0  0  0  0  0  0  0  0  0  0
    0.2671    1.9759   -0.6248 C   0  0  0  0  0  0  0  0  0  0  0  0
    1.2734    1.0253   -1.1463 C   0  0  0  0  0  0  0  0  0  0  0  0
    1.1749   -0.3786   -0.6356 C   0  0  0  0  0  0  0  0  0  0  0  0
   -0.2237   -0.9191   -0.5135 C   0  0  0  0  0  0  0  0  0  0  0  0
   -0.4323   -2.0182   -1.3492 O   0  0  0  0  0  0  0  0  0  0  0  0
   -0.7684   -3.1797   -0.7055 C   0  0  0  0  0  0  0  0  0  0  0  0
    1.9254   -0.6917    0.5166 N   0  0  0  0  0  0  0  0  0  0  0  0
    2.4437    0.3555    1.3091 C   0  0  0  0  0  0  0  0  0  0  0  0
    2.9728    1.5551    0.6041 C   0  0  0  0  0  0  0  0  0  0  0  0
    2.6466    1.6025   -0.8633 C   0  0  0  0  0  0  0  0  0  0  0  0
    2.5987    2.9458   -1.2493 O   0  0  0  0  0  0  0  0  0  0  0  0
    4.4477    1.7895    0.8288 C   0  0  0  0  0  0  0  0  0  0  0  0
    4.6625    1.9657    2.2087 O   0  0  0  0  0  0  0  0  0  0  0  0
    5.2594    0.7679    0.4236 O   0  0  0  0  0  0  0  0  0  0  0  0
    2.7342   -1.8573    0.5101 C   0  0  0  0  0  0  0  0  0  0  0  0
    3.8733   -2.0459   -0.4207 C   0  0  0  0  0  0  0  0  0  0  0  0
    2.6902   -2.9317   -0.4745 C   0  0  0  0  0  0  0  0  0  0  0  0
   -0.8040    1.0871    1.3238 F   0  0  0  0  0  0  0  0  0  0  0  0
   -6.1397   -0.6765    1.8401 H   0  0  0  0  0  0  0  0  0  0  0  0
   -5.4741   -1.6033    0.4280 H   0  0  0  0  0  0  0  0  0  0  0  0
   -6.3719   -0.0964    0.1850 H   0  0  0  0  0  0  0  0  0  0  0  0
   -4.3086    0.6059    1.9969 H   0  0  0  0  0  0  0  0  0  0  0  0
   -3.5161   -1.6885    0.6360 H   0  0  0  0  0  0  0  0  0  0  0  0
   -2.4243   -0.4807    1.4861 H   0  0  0  0  0  0  0  0  0  0  0  0
   -4.0507   -0.9518   -1.9080 H   0  0  0  0  0  0  0  0  0  0  0  0
   -2.9146    0.2268   -2.5621 H   0  0  0  0  0  0  0  0  0  0  0  0
   -5.4750    0.8406   -1.6814 H   0  0  0  0  0  0  0  0  0  0  0  0
   -4.0784    2.0324   -1.8154 H   0  0  0  0  0  0  0  0  0  0  0  0
   -5.4141    1.7901    0.3386 H   0  0  0  0  0  0  0  0  0  0  0  0
   -0.1235    2.6444   -1.4485 H   0  0  0  0  0  0  0  0  0  0  0  0
   -0.9158   -4.0323   -1.4097 H   0  0  0  0  0  0  0  0  0  0  0  0
   -0.0884   -3.4455    0.1424 H   0  0  0  0  0  0  0  0  0  0  0  0
   -1.7710   -3.0411   -0.2370 H   0  0  0  0  0  0  0  0  0  0  0  0
    1.6996    0.6015    2.1175 H   0  0  0  0  0  0  0  0  0  0  0  0
    2.9624   -2.1968    1.5699 H   0  0  0  0  0  0  0  0  0  0  0  0
    4.8287   -2.4472   -0.0300 H   0  0  0  0  0  0  0  0  0  0  0  0
    4.0623   -1.2879   -1.2340 H   0  0  0  0  0  0  0  0  0  0  0  0
    2.1452   -2.9422   -1.4176 H   0  0  0  0  0  0  0  0  0  0  0  0
    2.8976   -3.9917   -0.1273 H   0  0  0  0  0  0  0  0  0  0  0  0
   -1.1218    0.4704   -1.9097 H   0  0  0  0  0  0  0  0  0  0  0  0
   -1.8078    2.0390   -0.1077 H   0  0  0  0  0  0  0  0  0  0  0  0
    0.6654    2.6929    0.1383 H   0  0  0  0  0  0  0  0  0  0  0  0
    1.1878    1.0259   -2.2752 H   0  0  0  0  0  0  0  0  0  0  0  0
    1.6488   -1.0000   -1.4616 H   0  0  0  0  0  0  0  0  0  0  0  0
   -0.4073   -1.2606    0.5231 H   0  0  0  0  0  0  0  0  0  0  0  0
    3.3059   -0.0787    1.8926 H   0  0  0  0  0  0  0  0  0  0  0  0
    2.4630    2.4518    1.0689 H   0  0  0  0  0  0  0  0  0  0  0  0
    3.4297    1.1319   -1.4915 H   0  0  0  0  0  0  0  0  0  0  0  0
    2.3510    2.9433   -2.2110 H   0  0  0  0  0  0  0  0  0  0  0  0
    4.7135    2.7429    0.3387 H   0  0  0  0  0  0  0  0  0  0  0  0
    5.6237    2.1169    2.3975 H   0  0  0  0  0  0  0  0  0  0  0  0
    6.0818    1.1810    0.0239 H   0  0  0  0  0  0  0  0  0  0  0  0
   -1.1218    0.4704   -1.9097 H   0  0  0  0  0  0  0  0  0  0  0  0
   -1.8078    2.0390   -0.1077 H   0  0  0  0  0  0  0  0  0  0  0  0
    0.6654    2.6929    0.1383 H   0  0  0  0  0  0  0  0  0  0  0  0
    1.1878    1.0259   -2.2752 H   0  0  0  0  0  0  0  0  0  0  0  0
    1.6488   -1.0000   -1.4616 H   0  0  0  0  0  0  0  0  0  0  0  0
   -0.4073   -1.2606    0.5231 H   0  0  0  0  0  0  0  0  0  0  0  0
    3.3059   -0.0787    1.8926 H   0  0  0  0  0  0  0  0  0  0  0  0
    2.4630    2.4518    1.0689 H   0  0  0  0  0  0  0  0  0  0  0  0
    3.4297    1.1319   -1.4915 H   0  0  0  0  0  0  0  0  0  0  0  0
    2.3510    2.9433   -2.2110 H   0  0  0  0  0  0  0  0  0  0  0  0
    4.7135    2.7429    0.3387 H   0  0  0  0  0  0  0  0  0  0  0  0
    5.6237    2.1169    2.3975 H   0  0  0  0  0  0  0  0  0  0  0  0
    6.0818    1.1810    0.0239 H   0  0  0  0  0  0  0  0  0  0  0  0
  1  2  1  0
  2  3  1  0
  3  4  1  0
  4  5  1  0
  5  6  1  0
  2  7  1  0
  6  7  1  0
  4  8  1  0
  8  9  1  0
  9 10  1  0
 10 11  1  0
 11 12  1  0
  8 13  1  0
 12 13  1  0
 13 14  1  0
 14 15  1  0
 12 16  1  0
 16 17  1  0
 17 18  1  0
 11 19  1  0
 18 19  1  0
 19 20  1  0
 18 21  1  0
 21 22  1  0
 21 23  1  0
 16 24  1  0
 24 25  1  0
 24 26  1  0
 25 26  1  0
  9 27  1  0
  1 28  1  0
  1 29  1  0
  1 30  1  0
  2 31  1  1
  3 32  1  0
  3 33  1  0
  5 34  1  0
  5 35  1  0
  6 36  1  0
  6 37  1  0
  7 38  1  0
 10 39  1  0
 15 40  1  0
 15 41  1  0
 15 42  1  0
 17 43  1  0
 24 44  1  0
 25 45  1  0
 25 46  1  0
 26 47  1  0
 26 48  1  0
 49 50  1  0
 50 51  1  0
 51 52  1  0
 52 53  1  0
 53 54  1  0
 50 55  1  0
 54 55  1  0
 52 56  1  0
 56 57  1  0
 57 58  1  0
 58 59  1  0
 59 60  1  0
 56 61  1  0
 60 61  1  0
 61 62  1  0
 62 63  1  0
 60 64  1  0
 64 65  1  0
 65 66  1  0
 59 67  1  0
 66 67  1  0
 67 68  1  0
 66 69  1  0
 69 70  1  0
 69 71  1  0
 64 72  1  0
 72 73  1  0
 72 74  1  0
 73 74  1  0
 57 75  1  0
 49 76  1  0
 49 77  1  0
 49 78  1  0
 50 79  1  1
 51 80  1  0
 51 81  1  0
 53 82  1  0
 53 83  1  0
 54 84  1  0
 54 85  1  0
 55 86  1  0
 58 87  1  0
 63 88  1  0
 63 89  1  0
 63 90  1  0
 65 91  1  0
 72 92  1  0
 73 93  1  0
 73 94  1  0
 74 95  1  0
 74 96  1  0
  8 97  1  0
  9 98  1  0
 10 99  1  0
 11100  1  0
 12101  1  0
 13102  1  0
 17103  1  0
 18104  1  0
 19105  1  0
 20106  1  0
 21107  1  0
 22108  1  0
 23109  1  0
 56110  1  0
 57111  1  0
 58112  1  0
 59113  1  0
 60114  1  0
 61115  1  0
 65116  1  0
 66117  1  0
 67118  1  0
 68119  1  0
 69120  1  0
 70121  1  0
 71122  1  0
M  END
>  <PDBID>  (1) 
5BTF

>  <PDB ID>  (1) 
5BTF

>  <Generic Name>  (1) 
Gatifloxacin

>  <Brand Name>  (1) 
Apo-gatifloxacin#Gatifloxacin#Tequin#Tequin IV#Zymar#Zymaxid

>  <DrugBank ID>  (1) 
DB01044

>  <ATC Codes>  (1) 
S01AE06#J01MA16

>  <Ligand ID>  (1) 
GFN

>  <Target Name>  (1) 
DNA gyrase subunit A

>  <UniProt ID>  (1) 
P72524

>  <PDB ID.1>  (1) 
5BTF

>  <Seq. Identity>  (1) 
53%

$$$$
