PDB_DB08916_01
     RDKit          3D

158164  0  0  0  0  0  0  0  0999 V2000
   -4.1746   -1.3917    0.1605 C   0  0  0  0  0  0  0  0  0  0  0  0
   -3.6337   -0.1695   -0.3722 N   0  0  0  0  0  0  0  0  0  0  0  0
   -3.2073   -1.9578    1.0966 N   0  0  0  0  0  0  0  0  0  0  0  0
   -2.6383    0.3508    0.5864 C   0  0  0  0  0  0  0  0  0  0  0  0
   -1.8659   -1.9284    0.4831 C   0  0  0  0  0  0  0  0  0  0  0  0
   -1.3935   -0.5153    0.2976 C   0  0  0  0  0  0  0  0  0  0  0  0
    0.8022   -1.0597    1.4336 C   0  0  0  0  0  0  0  0  0  0  0  0
   -0.3143   -0.1293    1.2887 C   0  0  0  0  0  0  0  0  0  0  0  0
    0.4378   -2.4848    0.9190 C   0  0  0  0  0  0  0  0  0  0  0  0
   -0.9830   -2.6785    1.4562 C   0  0  0  0  0  0  0  0  0  0  0  0
   -2.4089    1.7329    0.2788 N   0  0  0  0  0  0  0  0  0  0  0  0
   -5.9731    2.6277   -0.4916 C   0  0  0  0  0  0  0  0  0  0  0  0
   -5.7721    3.8868   -1.2651 C   0  0  0  0  0  0  0  0  0  0  0  0
   -4.8173    2.2268    0.3828 C   0  0  0  0  0  0  0  0  0  0  0  0
   -4.4160    4.1021   -1.8333 C   0  0  0  0  0  0  0  0  0  0  0  0
   -3.5599    2.2343   -0.4433 C   0  0  0  0  0  0  0  0  0  0  0  0
   -3.3000    3.6258   -0.9314 C   0  0  0  0  0  0  0  0  0  0  0  0
   -6.2375    4.9733   -0.5391 F   0  0  0  0  0  0  0  0  0  0  0  0
   -6.4901    1.2717   -1.5282 Cl  0  0  0  0  0  0  0  0  0  0  0  0
    1.2774   -3.4207    1.4717 O   0  0  0  0  0  0  0  0  0  0  0  0
    1.8798   -4.1577    0.4627 C   0  0  2  0  0  0  0  0  0  0  0  0
    1.7188   -5.6501    0.6804 C   0  0  0  0  0  0  0  0  0  0  0  0
    2.9507   -6.2391    0.5546 O   0  0  0  0  0  0  0  0  0  0  0  0
    3.7885   -5.3843   -0.1031 C   0  0  0  0  0  0  0  0  0  0  0  0
    3.3849   -4.0170    0.4503 C   0  0  0  0  0  0  0  0  0  0  0  0
    2.1007   -0.8215    1.0558 N   0  0  0  0  0  0  0  0  0  0  0  0
    2.5832   -0.5782   -0.2153 C   0  0  0  0  0  0  0  0  0  0  0  0
    2.1108    0.7440   -0.7740 C   0  0  0  0  0  0  0  0  0  0  0  0
    3.9830   -0.5302   -0.2062 O   0  0  0  0  0  0  0  0  0  0  0  0
    2.5383    1.9030    0.0893 C   0  0  0  0  0  0  0  0  0  0  0  0
    4.0109    2.0303    0.2881 C   0  0  0  0  0  0  0  0  0  0  0  0
    4.8098    2.1907   -0.8758 N   0  0  0  0  0  0  0  0  0  0  0  0
    4.6639    3.4559   -1.5495 C   0  0  0  0  0  0  0  0  0  0  0  0
    6.1986    1.9659   -0.5357 C   0  0  0  0  0  0  0  0  0  0  0  0
   -4.1746   -1.3917    0.1605 C   0  0  0  0  0  0  0  0  0  0  0  0
   -3.6337   -0.1695   -0.3722 N   0  0  0  0  0  0  0  0  0  0  0  0
   -3.2073   -1.9578    1.0966 N   0  0  0  0  0  0  0  0  0  0  0  0
   -2.6383    0.3508    0.5864 C   0  0  0  0  0  0  0  0  0  0  0  0
   -1.8659   -1.9284    0.4831 C   0  0  0  0  0  0  0  0  0  0  0  0
   -1.3935   -0.5153    0.2976 C   0  0  0  0  0  0  0  0  0  0  0  0
    0.8022   -1.0597    1.4336 C   0  0  0  0  0  0  0  0  0  0  0  0
   -0.3143   -0.1293    1.2887 C   0  0  0  0  0  0  0  0  0  0  0  0
    0.4378   -2.4848    0.9190 C   0  0  0  0  0  0  0  0  0  0  0  0
   -0.9830   -2.6785    1.4562 C   0  0  0  0  0  0  0  0  0  0  0  0
   -2.4089    1.7329    0.2788 N   0  0  0  0  0  0  0  0  0  0  0  0
   -5.9731    2.6277   -0.4916 C   0  0  0  0  0  0  0  0  0  0  0  0
   -5.7721    3.8868   -1.2651 C   0  0  0  0  0  0  0  0  0  0  0  0
   -4.8173    2.2268    0.3828 C   0  0  0  0  0  0  0  0  0  0  0  0
   -4.4160    4.1021   -1.8333 C   0  0  0  0  0  0  0  0  0  0  0  0
   -3.5599    2.2343   -0.4433 C   0  0  0  0  0  0  0  0  0  0  0  0
   -3.3000    3.6258   -0.9314 C   0  0  0  0  0  0  0  0  0  0  0  0
   -6.2375    4.9733   -0.5391 F   0  0  0  0  0  0  0  0  0  0  0  0
   -6.4901    1.2717   -1.5282 Cl  0  0  0  0  0  0  0  0  0  0  0  0
    1.2774   -3.4207    1.4717 O   0  0  0  0  0  0  0  0  0  0  0  0
    1.8798   -4.1577    0.4627 C   0  0  2  0  0  0  0  0  0  0  0  0
    1.7188   -5.6501    0.6804 C   0  0  0  0  0  0  0  0  0  0  0  0
    2.9507   -6.2391    0.5546 O   0  0  0  0  0  0  0  0  0  0  0  0
    3.7885   -5.3843   -0.1031 C   0  0  0  0  0  0  0  0  0  0  0  0
    3.3849   -4.0170    0.4503 C   0  0  0  0  0  0  0  0  0  0  0  0
    2.1007   -0.8215    1.0558 N   0  0  0  0  0  0  0  0  0  0  0  0
    2.5832   -0.5782   -0.2153 C   0  0  0  0  0  0  0  0  0  0  0  0
    2.1108    0.7440   -0.7740 C   0  0  0  0  0  0  0  0  0  0  0  0
    3.9830   -0.5302   -0.2062 O   0  0  0  0  0  0  0  0  0  0  0  0
    2.5383    1.9030    0.0893 C   0  0  0  0  0  0  0  0  0  0  0  0
    4.0109    2.0303    0.2881 C   0  0  0  0  0  0  0  0  0  0  0  0
    4.8098    2.1907   -0.8758 N   0  0  0  0  0  0  0  0  0  0  0  0
    4.6639    3.4559   -1.5495 C   0  0  0  0  0  0  0  0  0  0  0  0
    6.1986    1.9659   -0.5357 C   0  0  0  0  0  0  0  0  0  0  0  0
   -4.4272   -2.1333   -0.6398 H   0  0  0  0  0  0  0  0  0  0  0  0
   -5.1021   -1.1590    0.7038 H   0  0  0  0  0  0  0  0  0  0  0  0
   -3.1384   -0.3424   -1.2940 H   0  0  0  0  0  0  0  0  0  0  0  0
   -3.4440   -2.9273    1.3353 H   0  0  0  0  0  0  0  0  0  0  0  0
   -3.0145    0.1532    1.6018 H   0  0  0  0  0  0  0  0  0  0  0  0
   -1.8926   -2.5184   -0.4542 H   0  0  0  0  0  0  0  0  0  0  0  0
   -1.1511   -0.3578   -0.7443 H   0  0  0  0  0  0  0  0  0  0  0  0
    0.8554   -1.2938    2.5718 H   0  0  0  0  0  0  0  0  0  0  0  0
   -0.0677    0.9289    1.1092 H   0  0  0  0  0  0  0  0  0  0  0  0
   -0.9130   -0.0578    2.2688 H   0  0  0  0  0  0  0  0  0  0  0  0
    0.4270   -2.4919   -0.1775 H   0  0  0  0  0  0  0  0  0  0  0  0
   -1.0877   -2.1740    2.4526 H   0  0  0  0  0  0  0  0  0  0  0  0
   -1.2812   -3.7294    1.5272 H   0  0  0  0  0  0  0  0  0  0  0  0
   -2.3844    2.2622    1.1942 H   0  0  0  0  0  0  0  0  0  0  0  0
   -6.8323    2.8084    0.2087 H   0  0  0  0  0  0  0  0  0  0  0  0
   -6.4790    3.8288   -2.1489 H   0  0  0  0  0  0  0  0  0  0  0  0
   -4.6975    3.0066    1.1820 H   0  0  0  0  0  0  0  0  0  0  0  0
   -5.0564    1.2646    0.8314 H   0  0  0  0  0  0  0  0  0  0  0  0
   -4.2621    5.2157   -1.9450 H   0  0  0  0  0  0  0  0  0  0  0  0
   -4.2753    3.6883   -2.8540 H   0  0  0  0  0  0  0  0  0  0  0  0
   -3.7270    1.6036   -1.3696 H   0  0  0  0  0  0  0  0  0  0  0  0
   -2.3844    3.5972   -1.5722 H   0  0  0  0  0  0  0  0  0  0  0  0
   -3.0743    4.3198   -0.0990 H   0  0  0  0  0  0  0  0  0  0  0  0
    1.5273   -3.8141   -0.5114 H   0  0  0  0  0  0  0  0  0  0  0  0
    0.9738   -6.0753   -0.0034 H   0  0  0  0  0  0  0  0  0  0  0  0
    1.4248   -5.7556    1.7672 H   0  0  0  0  0  0  0  0  0  0  0  0
    3.5033   -5.3762   -1.1735 H   0  0  0  0  0  0  0  0  0  0  0  0
    4.8467   -5.6007    0.0688 H   0  0  0  0  0  0  0  0  0  0  0  0
    3.7955   -3.9051    1.4579 H   0  0  0  0  0  0  0  0  0  0  0  0
    3.7198   -3.2250   -0.2546 H   0  0  0  0  0  0  0  0  0  0  0  0
    2.8081   -1.2417    1.7220 H   0  0  0  0  0  0  0  0  0  0  0  0
    2.3452   -1.3975   -0.9634 H   0  0  0  0  0  0  0  0  0  0  0  0
    1.0294    0.7207   -0.8929 H   0  0  0  0  0  0  0  0  0  0  0  0
    2.5148    0.9045   -1.8121 H   0  0  0  0  0  0  0  0  0  0  0  0
    4.3144   -0.9759   -1.0064 H   0  0  0  0  0  0  0  0  0  0  0  0
    2.1291    2.8474   -0.3211 H   0  0  0  0  0  0  0  0  0  0  0  0
    2.1055    1.8125    1.1285 H   0  0  0  0  0  0  0  0  0  0  0  0
    4.1300    3.0195    0.8613 H   0  0  0  0  0  0  0  0  0  0  0  0
    4.4150    1.3020    1.0298 H   0  0  0  0  0  0  0  0  0  0  0  0
    4.5563    3.2625   -2.6473 H   0  0  0  0  0  0  0  0  0  0  0  0
    5.6224    4.0448   -1.4553 H   0  0  0  0  0  0  0  0  0  0  0  0
    3.8255    4.0721   -1.1583 H   0  0  0  0  0  0  0  0  0  0  0  0
    6.6863    2.8358   -0.0557 H   0  0  0  0  0  0  0  0  0  0  0  0
    6.7855    1.7198   -1.4476 H   0  0  0  0  0  0  0  0  0  0  0  0
    6.2969    1.1249    0.2068 H   0  0  0  0  0  0  0  0  0  0  0  0
   -4.4272   -2.1333   -0.6398 H   0  0  0  0  0  0  0  0  0  0  0  0
   -5.1021   -1.1590    0.7038 H   0  0  0  0  0  0  0  0  0  0  0  0
   -3.1384   -0.3424   -1.2940 H   0  0  0  0  0  0  0  0  0  0  0  0
   -3.4440   -2.9273    1.3353 H   0  0  0  0  0  0  0  0  0  0  0  0
   -3.0145    0.1532    1.6018 H   0  0  0  0  0  0  0  0  0  0  0  0
   -1.8926   -2.5184   -0.4542 H   0  0  0  0  0  0  0  0  0  0  0  0
   -1.1511   -0.3578   -0.7443 H   0  0  0  0  0  0  0  0  0  0  0  0
    0.8554   -1.2938    2.5718 H   0  0  0  0  0  0  0  0  0  0  0  0
   -0.0677    0.9289    1.1092 H   0  0  0  0  0  0  0  0  0  0  0  0
   -0.9130   -0.0578    2.2688 H   0  0  0  0  0  0  0  0  0  0  0  0
    0.4270   -2.4919   -0.1775 H   0  0  0  0  0  0  0  0  0  0  0  0
   -1.0877   -2.1740    2.4526 H   0  0  0  0  0  0  0  0  0  0  0  0
   -1.2812   -3.7294    1.5272 H   0  0  0  0  0  0  0  0  0  0  0  0
   -2.3844    2.2622    1.1942 H   0  0  0  0  0  0  0  0  0  0  0  0
   -6.8323    2.8084    0.2087 H   0  0  0  0  0  0  0  0  0  0  0  0
   -6.4790    3.8288   -2.1489 H   0  0  0  0  0  0  0  0  0  0  0  0
   -4.6975    3.0066    1.1820 H   0  0  0  0  0  0  0  0  0  0  0  0
   -5.0564    1.2646    0.8314 H   0  0  0  0  0  0  0  0  0  0  0  0
   -4.2621    5.2157   -1.9450 H   0  0  0  0  0  0  0  0  0  0  0  0
   -4.2753    3.6883   -2.8540 H   0  0  0  0  0  0  0  0  0  0  0  0
   -3.7270    1.6036   -1.3696 H   0  0  0  0  0  0  0  0  0  0  0  0
   -2.3844    3.5972   -1.5722 H   0  0  0  0  0  0  0  0  0  0  0  0
   -3.0743    4.3198   -0.0990 H   0  0  0  0  0  0  0  0  0  0  0  0
    1.5273   -3.8141   -0.5114 H   0  0  0  0  0  0  0  0  0  0  0  0
    0.9738   -6.0753   -0.0034 H   0  0  0  0  0  0  0  0  0  0  0  0
    1.4248   -5.7556    1.7672 H   0  0  0  0  0  0  0  0  0  0  0  0
    3.5033   -5.3762   -1.1735 H   0  0  0  0  0  0  0  0  0  0  0  0
    4.8467   -5.6007    0.0688 H   0  0  0  0  0  0  0  0  0  0  0  0
    3.7955   -3.9051    1.4579 H   0  0  0  0  0  0  0  0  0  0  0  0
    3.7198   -3.2250   -0.2546 H   0  0  0  0  0  0  0  0  0  0  0  0
    2.8081   -1.2417    1.7220 H   0  0  0  0  0  0  0  0  0  0  0  0
    2.3452   -1.3975   -0.9634 H   0  0  0  0  0  0  0  0  0  0  0  0
    1.0294    0.7207   -0.8929 H   0  0  0  0  0  0  0  0  0  0  0  0
    2.5148    0.9045   -1.8121 H   0  0  0  0  0  0  0  0  0  0  0  0
    4.3144   -0.9759   -1.0064 H   0  0  0  0  0  0  0  0  0  0  0  0
    2.1291    2.8474   -0.3211 H   0  0  0  0  0  0  0  0  0  0  0  0
    2.1055    1.8125    1.1285 H   0  0  0  0  0  0  0  0  0  0  0  0
    4.1300    3.0195    0.8613 H   0  0  0  0  0  0  0  0  0  0  0  0
    4.4150    1.3020    1.0298 H   0  0  0  0  0  0  0  0  0  0  0  0
    4.5563    3.2625   -2.6473 H   0  0  0  0  0  0  0  0  0  0  0  0
    5.6224    4.0448   -1.4553 H   0  0  0  0  0  0  0  0  0  0  0  0
    3.8255    4.0721   -1.1583 H   0  0  0  0  0  0  0  0  0  0  0  0
    6.6863    2.8358   -0.0557 H   0  0  0  0  0  0  0  0  0  0  0  0
    6.7855    1.7198   -1.4476 H   0  0  0  0  0  0  0  0  0  0  0  0
    6.2969    1.1249    0.2068 H   0  0  0  0  0  0  0  0  0  0  0  0
  1  2  1  0
  1  3  1  0
  2  4  1  0
  3  5  1  0
  4  6  1  0
  5  6  1  0
  6  8  1  0
  7  8  1  0
  7  9  1  0
  5 10  1  0
  9 10  1  0
  4 11  1  0
 12 13  1  0
 12 14  1  0
 13 15  1  0
 11 16  1  0
 14 16  1  0
 15 17  1  0
 16 17  1  0
 13 18  1  0
 12 19  1  0
  9 20  1  0
 20 21  1  0
 21 22  1  0
 22 23  1  0
 23 24  1  0
 21 25  1  0
 24 25  1  0
  7 26  1  0
 26 27  1  0
 27 28  1  0
 27 29  1  0
 28 30  1  0
 30 31  1  0
 31 32  1  0
 32 33  1  0
 32 34  1  0
 35 36  1  0
 35 37  1  0
 36 38  1  0
 37 39  1  0
 38 40  1  0
 39 40  1  0
 40 42  1  0
 41 42  1  0
 41 43  1  0
 39 44  1  0
 43 44  1  0
 38 45  1  0
 46 47  1  0
 46 48  1  0
 47 49  1  0
 45 50  1  0
 48 50  1  0
 49 51  1  0
 50 51  1  0
 47 52  1  0
 46 53  1  0
 43 54  1  0
 54 55  1  0
 55 56  1  0
 56 57  1  0
 57 58  1  0
 55 59  1  0
 58 59  1  0
 41 60  1  0
 60 61  1  0
 61 62  1  0
 61 63  1  0
 62 64  1  0
 64 65  1  0
 65 66  1  0
 66 67  1  0
 66 68  1  0
  1 69  1  0
  1 70  1  0
  2 71  1  0
  3 72  1  0
  4 73  1  0
  5 74  1  0
  6 75  1  0
  7 76  1  0
  8 77  1  0
  8 78  1  0
  9 79  1  0
 10 80  1  0
 10 81  1  0
 11 82  1  0
 12 83  1  0
 13 84  1  0
 14 85  1  0
 14 86  1  0
 15 87  1  0
 15 88  1  0
 16 89  1  0
 17 90  1  0
 17 91  1  0
 21 92  1  6
 22 93  1  0
 22 94  1  0
 24 95  1  0
 24 96  1  0
 25 97  1  0
 25 98  1  0
 26 99  1  0
 27100  1  0
 28101  1  0
 28102  1  0
 29103  1  0
 30104  1  0
 30105  1  0
 31106  1  0
 31107  1  0
 33108  1  0
 33109  1  0
 33110  1  0
 34111  1  0
 34112  1  0
 34113  1  0
 35114  1  0
 35115  1  0
 36116  1  0
 37117  1  0
 38118  1  0
 39119  1  0
 40120  1  0
 41121  1  0
 42122  1  0
 42123  1  0
 43124  1  0
 44125  1  0
 44126  1  0
 45127  1  0
 46128  1  0
 47129  1  0
 48130  1  0
 48131  1  0
 49132  1  0
 49133  1  0
 50134  1  0
 51135  1  0
 51136  1  0
 55137  1  6
 56138  1  0
 56139  1  0
 58140  1  0
 58141  1  0
 59142  1  0
 59143  1  0
 60144  1  0
 61145  1  0
 62146  1  0
 62147  1  0
 63148  1  0
 64149  1  0
 64150  1  0
 65151  1  0
 65152  1  0
 67153  1  0
 67154  1  0
 67155  1  0
 68156  1  0
 68157  1  0
 68158  1  0
M  END
>  <PDBID>  (1) 
4G5J

>  <PDB ID>  (1) 
4G5J

>  <Generic Name>  (1) 
Afatinib

>  <Brand Name>  (1) 
Gilotrif#Giotrif

>  <DrugBank ID>  (1) 
DB08916

>  <ATC Codes>  (1) 
L01XE13

>  <Ligand ID>  (1) 
0WM

>  <Target Name>  (1) 
Receptor tyrosine-protein kinase erbB-2

>  <UniProt ID>  (1) 
P04626

>  <PDB ID.1>  (1) 
4G5J

>  <Seq. Identity>  (1) 
78%

$$$$
