PDB_DB00302_05
     RDKit          3D

 56 56  0  0  0  0  0  0  0  0999 V2000
   -1.2912   -0.2959   -0.2699 C   0  0  0  0  0  0  0  0  0  0  0  0
   -0.4924   -0.4544    0.9851 C   0  0  0  0  0  0  0  0  0  0  0  0
    0.6774   -1.3363    0.6546 C   0  0  0  0  0  0  0  0  0  0  0  0
    1.5433   -0.8389   -0.4384 C   0  0  0  0  0  0  0  0  0  0  0  0
    0.8595   -0.1624   -1.5665 C   0  0  0  0  0  0  0  0  0  0  0  0
   -0.4786    0.3947   -1.3293 C   0  0  0  0  0  0  0  0  0  0  0  0
    2.6581    0.0182    0.1770 C   0  0  0  0  0  0  0  0  0  0  0  0
   -2.5602    0.4826   -0.0125 C   0  0  0  0  0  0  0  0  0  0  0  0
    2.1406    1.1401    0.8974 N   0  0  0  0  0  0  0  0  0  0  0  0
   -3.3382   -0.1920    0.9282 O   0  0  0  0  0  0  0  0  0  0  0  0
   -3.2549    0.7610   -1.1624 O   0  0  0  0  0  0  0  0  0  0  0  0
   -1.2912   -0.2959   -0.2699 C   0  0  0  0  0  0  0  0  0  0  0  0
   -0.4924   -0.4544    0.9851 C   0  0  0  0  0  0  0  0  0  0  0  0
    0.6774   -1.3363    0.6546 C   0  0  0  0  0  0  0  0  0  0  0  0
    1.5433   -0.8389   -0.4384 C   0  0  0  0  0  0  0  0  0  0  0  0
    0.8595   -0.1624   -1.5665 C   0  0  0  0  0  0  0  0  0  0  0  0
   -0.4786    0.3947   -1.3293 C   0  0  0  0  0  0  0  0  0  0  0  0
    2.6581    0.0182    0.1770 C   0  0  0  0  0  0  0  0  0  0  0  0
   -2.5602    0.4826   -0.0125 C   0  0  0  0  0  0  0  0  0  0  0  0
    2.1406    1.1401    0.8974 N   0  0  0  0  0  0  0  0  0  0  0  0
   -3.3382   -0.1920    0.9282 O   0  0  0  0  0  0  0  0  0  0  0  0
   -3.2549    0.7610   -1.1624 O   0  0  0  0  0  0  0  0  0  0  0  0
   -1.5422   -1.3062   -0.6450 H   0  0  0  0  0  0  0  0  0  0  0  0
   -1.1256   -1.0177    1.7147 H   0  0  0  0  0  0  0  0  0  0  0  0
   -0.1920    0.5067    1.4408 H   0  0  0  0  0  0  0  0  0  0  0  0
    1.2951   -1.4215    1.5883 H   0  0  0  0  0  0  0  0  0  0  0  0
    0.2624   -2.3463    0.3906 H   0  0  0  0  0  0  0  0  0  0  0  0
    2.1007   -1.7328   -0.8426 H   0  0  0  0  0  0  0  0  0  0  0  0
    0.8033   -0.8506   -2.4623 H   0  0  0  0  0  0  0  0  0  0  0  0
    1.5384    0.6661   -1.9136 H   0  0  0  0  0  0  0  0  0  0  0  0
   -1.1050    0.3980   -2.2495 H   0  0  0  0  0  0  0  0  0  0  0  0
   -0.4137    1.4771   -1.0259 H   0  0  0  0  0  0  0  0  0  0  0  0
    3.3226    0.4194   -0.6374 H   0  0  0  0  0  0  0  0  0  0  0  0
    3.3065   -0.6297    0.8029 H   0  0  0  0  0  0  0  0  0  0  0  0
   -2.2747    1.4572    0.4817 H   0  0  0  0  0  0  0  0  0  0  0  0
    2.8878    1.4176    1.6034 H   0  0  0  0  0  0  0  0  0  0  0  0
    2.0634    2.0023    0.2794 H   0  0  0  0  0  0  0  0  0  0  0  0
   -4.2709   -0.2562    0.6025 H   0  0  0  0  0  0  0  0  0  0  0  0
   -3.1194    1.6997   -1.4231 H   0  0  0  0  0  0  0  0  0  0  0  0
   -1.5422   -1.3062   -0.6450 H   0  0  0  0  0  0  0  0  0  0  0  0
   -1.1256   -1.0177    1.7147 H   0  0  0  0  0  0  0  0  0  0  0  0
   -0.1920    0.5067    1.4408 H   0  0  0  0  0  0  0  0  0  0  0  0
    1.2951   -1.4215    1.5883 H   0  0  0  0  0  0  0  0  0  0  0  0
    0.2624   -2.3463    0.3906 H   0  0  0  0  0  0  0  0  0  0  0  0
    2.1007   -1.7328   -0.8426 H   0  0  0  0  0  0  0  0  0  0  0  0
    0.8033   -0.8506   -2.4623 H   0  0  0  0  0  0  0  0  0  0  0  0
    1.5384    0.6661   -1.9136 H   0  0  0  0  0  0  0  0  0  0  0  0
   -1.1050    0.3980   -2.2495 H   0  0  0  0  0  0  0  0  0  0  0  0
   -0.4137    1.4771   -1.0259 H   0  0  0  0  0  0  0  0  0  0  0  0
    3.3226    0.4194   -0.6374 H   0  0  0  0  0  0  0  0  0  0  0  0
    3.3065   -0.6297    0.8029 H   0  0  0  0  0  0  0  0  0  0  0  0
   -2.2747    1.4572    0.4817 H   0  0  0  0  0  0  0  0  0  0  0  0
    2.8878    1.4176    1.6034 H   0  0  0  0  0  0  0  0  0  0  0  0
    2.0634    2.0023    0.2794 H   0  0  0  0  0  0  0  0  0  0  0  0
   -4.2709   -0.2562    0.6025 H   0  0  0  0  0  0  0  0  0  0  0  0
   -3.1194    1.6997   -1.4231 H   0  0  0  0  0  0  0  0  0  0  0  0
  1  2  1  0
  2  3  1  0
  3  4  1  0
  4  5  1  0
  1  6  1  0
  5  6  1  0
  4  7  1  0
  1  8  1  0
  7  9  1  0
  8 10  1  0
  8 11  1  0
 12 13  1  0
 13 14  1  0
 14 15  1  0
 15 16  1  0
 12 17  1  0
 16 17  1  0
 15 18  1  0
 12 19  1  0
 18 20  1  0
 19 21  1  0
 19 22  1  0
  1 23  1  0
  2 24  1  0
  2 25  1  0
  3 26  1  0
  3 27  1  0
  4 28  1  0
  5 29  1  0
  5 30  1  0
  6 31  1  0
  6 32  1  0
  7 33  1  0
  7 34  1  0
  8 35  1  0
  9 36  1  0
  9 37  1  0
 10 38  1  0
 11 39  1  0
 12 40  1  0
 13 41  1  0
 13 42  1  0
 14 43  1  0
 14 44  1  0
 15 45  1  0
 16 46  1  0
 16 47  1  0
 17 48  1  0
 17 49  1  0
 18 50  1  0
 18 51  1  0
 19 52  1  0
 20 53  1  0
 20 54  1  0
 21 55  1  0
 22 56  1  0
M  END
>  <PDBID>  (1) 
1CEB

>  <PDB ID>  (1) 
1CEB

>  <Generic Name>  (1) 
Tranexamic Acid

>  <Brand Name>  (1) 
Cyklokapron#Cyklokapron 100 mg/ml#Cyklokapron 500 mg#Erfa-tranexamic#Gd-tranexamic Acid#Lysteda#Pure Whitenol Serum#Tranexamic Acid#Tranexamic Acid Injection#Tranexamic Acid Injection BP#Tranexamic Acid Tablets#Tranexamic Acid Tranexamic Acid#Cyclo-F#Espercil#Femstrual#Rikavarin#Transamin#Transcam#Traxyl

>  <DrugBank ID>  (1) 
DB00302

>  <ATC Codes>  (1) 
B02AA02

>  <Ligand ID>  (1) 
AMH

>  <Target Name>  (1) 
Plasminogen

>  <UniProt ID>  (1) 
P00747

>  <PDB ID.1>  (1) 
1CEB

>  <Seq. Identity>  (1) 
100%

$$$$
