PDB_DB04854_09
     RDKit          3D

108110  0  0  0  0  0  0  0  0999 V2000
    3.1816    1.2676   -1.0827 S   0  0  0  0  0  0  0  0  0  0  0  0
    2.1074   -0.2008   -0.8393 C   0  0  0  0  0  0  0  0  0  0  0  0
    3.0082   -1.2288   -0.4885 N   0  0  0  0  0  0  0  0  0  0  0  0
    4.2117   -0.7481    0.0695 C   0  0  0  0  0  0  0  0  0  0  0  0
    4.7633    0.3717   -0.7904 C   0  0  0  0  0  0  0  0  0  0  0  0
    0.9855    0.0689    0.0969 C   0  0  0  0  0  0  0  0  0  0  0  0
    0.1763   -1.2034    0.2176 C   0  0  0  0  0  0  0  0  0  0  0  0
   -1.2124   -1.0006    0.7280 C   0  0  0  0  0  0  0  0  0  0  0  0
   -1.9426    0.1473    0.0893 C   0  0  0  0  0  0  0  0  0  0  0  0
   -1.1180    0.6429   -1.0860 C   0  0  0  0  0  0  0  0  0  0  0  0
    0.1560    1.2071   -0.5127 C   0  0  0  0  0  0  0  0  0  0  0  0
   -1.2411   -0.9184    2.2423 C   0  0  0  0  0  0  0  0  0  0  0  0
   -0.4360    0.1831    2.7243 N   0  0  0  0  0  0  0  0  0  0  0  0
   -3.1771   -0.2355   -0.4223 O   0  0  0  0  0  0  0  0  0  0  0  0
   -4.1498    0.5847    0.1135 C   0  0  0  0  0  0  0  0  0  0  0  0
   -5.5308    0.2518   -0.3791 C   0  0  0  0  0  0  0  0  0  0  0  0
   -5.6321    0.3857   -1.8801 C   0  0  0  0  0  0  0  0  0  0  0  0
   -5.9240   -1.1437    0.0574 C   0  0  0  0  0  0  0  0  0  0  0  0
    4.0876   -0.2999    1.5060 C   0  0  0  0  0  0  0  0  0  0  0  0
    5.7276    1.2274   -0.0116 C   0  0  0  0  0  0  0  0  0  0  0  0
    6.8870    0.4727    0.1603 O   0  0  0  0  0  0  0  0  0  0  0  0
    6.0720    2.3675   -0.7232 O   0  0  0  0  0  0  0  0  0  0  0  0
    3.1816    1.2676   -1.0827 S   0  0  0  0  0  0  0  0  0  0  0  0
    2.1074   -0.2008   -0.8393 C   0  0  0  0  0  0  0  0  0  0  0  0
    3.0082   -1.2288   -0.4885 N   0  0  0  0  0  0  0  0  0  0  0  0
    4.2117   -0.7481    0.0695 C   0  0  0  0  0  0  0  0  0  0  0  0
    4.7633    0.3717   -0.7904 C   0  0  0  0  0  0  0  0  0  0  0  0
    0.9855    0.0689    0.0969 C   0  0  0  0  0  0  0  0  0  0  0  0
    0.1763   -1.2034    0.2176 C   0  0  0  0  0  0  0  0  0  0  0  0
   -1.2124   -1.0006    0.7280 C   0  0  0  0  0  0  0  0  0  0  0  0
   -1.9426    0.1473    0.0893 C   0  0  0  0  0  0  0  0  0  0  0  0
   -1.1180    0.6429   -1.0860 C   0  0  0  0  0  0  0  0  0  0  0  0
    0.1560    1.2071   -0.5127 C   0  0  0  0  0  0  0  0  0  0  0  0
   -1.2411   -0.9184    2.2423 C   0  0  0  0  0  0  0  0  0  0  0  0
   -0.4360    0.1831    2.7243 N   0  0  0  0  0  0  0  0  0  0  0  0
   -3.1771   -0.2355   -0.4223 O   0  0  0  0  0  0  0  0  0  0  0  0
   -4.1498    0.5847    0.1135 C   0  0  0  0  0  0  0  0  0  0  0  0
   -5.5308    0.2518   -0.3791 C   0  0  0  0  0  0  0  0  0  0  0  0
   -5.6321    0.3857   -1.8801 C   0  0  0  0  0  0  0  0  0  0  0  0
   -5.9240   -1.1437    0.0574 C   0  0  0  0  0  0  0  0  0  0  0  0
    4.0876   -0.2999    1.5060 C   0  0  0  0  0  0  0  0  0  0  0  0
    5.7276    1.2274   -0.0116 C   0  0  0  0  0  0  0  0  0  0  0  0
    6.8870    0.4727    0.1603 O   0  0  0  0  0  0  0  0  0  0  0  0
    6.0720    2.3675   -0.7232 O   0  0  0  0  0  0  0  0  0  0  0  0
    1.6668   -0.4021   -1.8504 H   0  0  0  0  0  0  0  0  0  0  0  0
    3.0942   -2.0098   -1.1653 H   0  0  0  0  0  0  0  0  0  0  0  0
    4.9575   -1.5693    0.0461 H   0  0  0  0  0  0  0  0  0  0  0  0
    5.1909    0.0382   -1.7327 H   0  0  0  0  0  0  0  0  0  0  0  0
    1.2824    0.3916    1.0966 H   0  0  0  0  0  0  0  0  0  0  0  0
    0.7133   -1.8459    0.9547 H   0  0  0  0  0  0  0  0  0  0  0  0
    0.1056   -1.6917   -0.7756 H   0  0  0  0  0  0  0  0  0  0  0  0
   -1.7908   -1.9313    0.4679 H   0  0  0  0  0  0  0  0  0  0  0  0
   -2.0864    0.9978    0.7790 H   0  0  0  0  0  0  0  0  0  0  0  0
   -0.9527   -0.1580   -1.8193 H   0  0  0  0  0  0  0  0  0  0  0  0
   -1.6870    1.4679   -1.5488 H   0  0  0  0  0  0  0  0  0  0  0  0
    0.7566    1.7634   -1.2588 H   0  0  0  0  0  0  0  0  0  0  0  0
   -0.1342    1.9377    0.2667 H   0  0  0  0  0  0  0  0  0  0  0  0
   -0.8181   -1.8618    2.6588 H   0  0  0  0  0  0  0  0  0  0  0  0
   -2.2752   -0.8584    2.6290 H   0  0  0  0  0  0  0  0  0  0  0  0
    0.0510   -0.0326    3.6278 H   0  0  0  0  0  0  0  0  0  0  0  0
   -1.0702    1.0076    2.9028 H   0  0  0  0  0  0  0  0  0  0  0  0
   -4.1754    0.5060    1.2310 H   0  0  0  0  0  0  0  0  0  0  0  0
   -3.9197    1.6355   -0.2055 H   0  0  0  0  0  0  0  0  0  0  0  0
   -6.2454    0.9498    0.0747 H   0  0  0  0  0  0  0  0  0  0  0  0
   -4.8600    1.0843   -2.2932 H   0  0  0  0  0  0  0  0  0  0  0  0
   -6.6507    0.6932   -2.1840 H   0  0  0  0  0  0  0  0  0  0  0  0
   -5.4115   -0.6063   -2.3234 H   0  0  0  0  0  0  0  0  0  0  0  0
   -6.9884   -1.1736    0.3343 H   0  0  0  0  0  0  0  0  0  0  0  0
   -5.2955   -1.4336    0.9024 H   0  0  0  0  0  0  0  0  0  0  0  0
   -5.7098   -1.8556   -0.7708 H   0  0  0  0  0  0  0  0  0  0  0  0
    3.4660   -1.0597    2.0532 H   0  0  0  0  0  0  0  0  0  0  0  0
    3.6038    0.6852    1.6116 H   0  0  0  0  0  0  0  0  0  0  0  0
    5.0795   -0.3063    2.0193 H   0  0  0  0  0  0  0  0  0  0  0  0
    5.3647    1.4920    0.9839 H   0  0  0  0  0  0  0  0  0  0  0  0
    6.6973   -0.4977    0.1849 H   0  0  0  0  0  0  0  0  0  0  0  0
    7.0414    2.4441   -0.8953 H   0  0  0  0  0  0  0  0  0  0  0  0
    1.6668   -0.4021   -1.8504 H   0  0  0  0  0  0  0  0  0  0  0  0
    3.0942   -2.0098   -1.1653 H   0  0  0  0  0  0  0  0  0  0  0  0
    4.9575   -1.5693    0.0461 H   0  0  0  0  0  0  0  0  0  0  0  0
    5.1909    0.0382   -1.7327 H   0  0  0  0  0  0  0  0  0  0  0  0
    1.2824    0.3916    1.0966 H   0  0  0  0  0  0  0  0  0  0  0  0
    0.7133   -1.8459    0.9547 H   0  0  0  0  0  0  0  0  0  0  0  0
    0.1056   -1.6917   -0.7756 H   0  0  0  0  0  0  0  0  0  0  0  0
   -1.7908   -1.9313    0.4679 H   0  0  0  0  0  0  0  0  0  0  0  0
   -2.0864    0.9978    0.7790 H   0  0  0  0  0  0  0  0  0  0  0  0
   -0.9527   -0.1580   -1.8193 H   0  0  0  0  0  0  0  0  0  0  0  0
   -1.6870    1.4679   -1.5488 H   0  0  0  0  0  0  0  0  0  0  0  0
    0.7566    1.7634   -1.2588 H   0  0  0  0  0  0  0  0  0  0  0  0
   -0.1342    1.9377    0.2667 H   0  0  0  0  0  0  0  0  0  0  0  0
   -0.8181   -1.8618    2.6588 H   0  0  0  0  0  0  0  0  0  0  0  0
   -2.2752   -0.8584    2.6290 H   0  0  0  0  0  0  0  0  0  0  0  0
    0.0510   -0.0326    3.6278 H   0  0  0  0  0  0  0  0  0  0  0  0
   -1.0702    1.0076    2.9028 H   0  0  0  0  0  0  0  0  0  0  0  0
   -4.1754    0.5060    1.2310 H   0  0  0  0  0  0  0  0  0  0  0  0
   -3.9197    1.6355   -0.2055 H   0  0  0  0  0  0  0  0  0  0  0  0
   -6.2454    0.9498    0.0747 H   0  0  0  0  0  0  0  0  0  0  0  0
   -4.8600    1.0843   -2.2932 H   0  0  0  0  0  0  0  0  0  0  0  0
   -6.6507    0.6932   -2.1840 H   0  0  0  0  0  0  0  0  0  0  0  0
   -5.4115   -0.6063   -2.3234 H   0  0  0  0  0  0  0  0  0  0  0  0
   -6.9884   -1.1736    0.3343 H   0  0  0  0  0  0  0  0  0  0  0  0
   -5.2955   -1.4336    0.9024 H   0  0  0  0  0  0  0  0  0  0  0  0
   -5.7098   -1.8556   -0.7708 H   0  0  0  0  0  0  0  0  0  0  0  0
    3.4660   -1.0597    2.0532 H   0  0  0  0  0  0  0  0  0  0  0  0
    3.6038    0.6852    1.6116 H   0  0  0  0  0  0  0  0  0  0  0  0
    5.0795   -0.3063    2.0193 H   0  0  0  0  0  0  0  0  0  0  0  0
    5.3647    1.4920    0.9839 H   0  0  0  0  0  0  0  0  0  0  0  0
    6.6973   -0.4977    0.1849 H   0  0  0  0  0  0  0  0  0  0  0  0
    7.0414    2.4441   -0.8953 H   0  0  0  0  0  0  0  0  0  0  0  0
  1  2  1  0
  2  3  1  0
  3  4  1  0
  1  5  1  0
  4  5  1  0
  2  6  1  0
  6  7  1  0
  7  8  1  0
  8  9  1  0
  9 10  1  0
  6 11  1  0
 10 11  1  0
  8 12  1  0
 12 13  1  0
  9 14  1  0
 14 15  1  0
 15 16  1  0
 16 17  1  0
 16 18  1  0
  4 19  1  0
  5 20  1  0
 20 21  1  0
 20 22  1  0
 23 24  1  0
 24 25  1  0
 25 26  1  0
 23 27  1  0
 26 27  1  0
 24 28  1  0
 28 29  1  0
 29 30  1  0
 30 31  1  0
 31 32  1  0
 28 33  1  0
 32 33  1  0
 30 34  1  0
 34 35  1  0
 31 36  1  0
 36 37  1  0
 37 38  1  0
 38 39  1  0
 38 40  1  0
 26 41  1  0
 27 42  1  0
 42 43  1  0
 42 44  1  0
  2 45  1  0
  3 46  1  0
  4 47  1  0
  5 48  1  0
  6 49  1  0
  7 50  1  0
  7 51  1  0
  8 52  1  0
  9 53  1  0
 10 54  1  0
 10 55  1  0
 11 56  1  0
 11 57  1  0
 12 58  1  0
 12 59  1  0
 13 60  1  0
 13 61  1  0
 15 62  1  0
 15 63  1  0
 16 64  1  0
 17 65  1  0
 17 66  1  0
 17 67  1  0
 18 68  1  0
 18 69  1  0
 18 70  1  0
 19 71  1  0
 19 72  1  0
 19 73  1  0
 20 74  1  0
 21 75  1  0
 22 76  1  0
 24 77  1  0
 25 78  1  0
 26 79  1  0
 27 80  1  0
 28 81  1  0
 29 82  1  0
 29 83  1  0
 30 84  1  0
 31 85  1  0
 32 86  1  0
 32 87  1  0
 33 88  1  0
 33 89  1  0
 34 90  1  0
 34 91  1  0
 35 92  1  0
 35 93  1  0
 37 94  1  0
 37 95  1  0
 38 96  1  0
 39 97  1  0
 39 98  1  0
 39 99  1  0
 40100  1  0
 40101  1  0
 40102  1  0
 41103  1  0
 41104  1  0
 41105  1  0
 42106  1  0
 43107  1  0
 44108  1  0
M  END
>  <PDBID>  (1) 
1N5X

>  <PDB ID>  (1) 
1N5X

>  <Generic Name>  (1) 
Febuxostat

>  <Brand Name>  (1) 
Febuxostat#Uloric#Adenuric#Atenurix#Barif#Feburic

>  <DrugBank ID>  (1) 
DB04854

>  <ATC Codes>  (1) 
M04AA03

>  <Ligand ID>  (1) 
TEI

>  <Target Name>  (1) 
Xanthine dehydrogenase/oxidase

>  <UniProt ID>  (1) 
P47989

>  <PDB ID.1>  (1) 
1N5X

>  <Seq. Identity>  (1) 
85%

$$$$
