PDB_DB00773_02
     RDKit          3D

176188  0  0  0  0  0  0  0  0999 V2000
   -1.3811    3.6984    4.0689 C   0  0  0  0  0  0  0  0  0  0  0  0
   -0.1663    3.7240    3.3442 O   0  0  0  0  0  0  0  0  0  0  0  0
   -1.1006    1.7086    3.0799 C   0  0  0  0  0  0  0  0  0  0  0  0
   -1.8559    2.4041    3.9960 O   0  0  0  0  0  0  0  0  0  0  0  0
   -1.9354    0.9718    2.0429 C   0  0  0  0  0  0  0  0  0  0  0  0
   -0.2341   -0.1218   -3.4673 O   0  0  0  0  0  0  0  0  0  0  0  0
   -1.2514    0.9657    0.6916 C   0  0  0  0  0  0  0  0  0  0  0  0
   -1.8967   -1.5521   -3.0542 O   0  0  0  0  0  0  0  0  0  0  0  0
   -1.6045   -0.2589   -0.0664 C   0  0  2  0  0  0  0  0  0  0  0  0
   -6.0171    1.4081   -1.1231 O   0  0  0  0  0  0  0  0  0  0  0  0
   -0.7340   -0.4362   -1.2453 C   0  0  1  0  0  0  0  0  0  0  0  0
   -6.8185   -1.0102   -1.0879 O   0  0  0  0  0  0  0  0  0  0  0  0
   -1.3313   -0.3628   -2.6022 C   0  0  1  0  0  0  0  0  0  0  0  0
   -4.6125   -2.4944   -0.8589 O   0  0  0  0  0  0  0  0  0  0  0  0
    0.8098    0.3760   -2.7155 C   0  0  0  0  0  0  0  0  0  0  0  0
    1.7167   -0.5371   -0.1332 O   0  0  0  0  0  0  0  0  0  0  0  0
    0.2272    0.7569   -1.3924 C   0  0  2  0  0  0  0  0  0  0  0  0
    3.6995   -1.2423   -1.1317 O   0  0  0  0  0  0  0  0  0  0  0  0
    1.1067    0.7183   -0.2156 C   0  0  1  0  0  0  0  0  0  0  0  0
    7.0306   -0.7063   -2.3599 O   0  0  0  0  0  0  0  0  0  0  0  0
    0.2494    0.9360    1.0136 C   0  0  0  0  0  0  0  0  0  0  0  0
    7.0824   -0.7693   -0.0471 O   0  0  0  0  0  0  0  0  0  0  0  0
    0.6772    2.3053    1.5644 C   0  0  0  0  0  0  0  0  0  0  0  0
    5.5207   -1.4867    2.4156 O   0  0  0  0  0  0  0  0  0  0  0  0
   -0.4706    2.8799    2.3063 C   0  0  0  0  0  0  0  0  0  0  0  0
    3.0793   -0.1710    2.1797 O   0  0  0  0  0  0  0  0  0  0  0  0
   -3.0247   -0.5700   -0.2990 C   0  0  0  0  0  0  0  0  0  0  0  0
   -3.8867    0.4148   -0.9914 C   0  0  0  0  0  0  0  0  0  0  0  0
   -5.2289    0.6216   -0.2836 C   0  0  0  0  0  0  0  0  0  0  0  0
   -5.9545   -0.6776   -0.0635 C   0  0  0  0  0  0  0  0  0  0  0  0
   -5.0036   -1.8305    0.2787 C   0  0  0  0  0  0  0  0  0  0  0  0
   -3.7715   -1.1314    0.8919 C   0  0  0  0  0  0  0  0  0  0  0  0
   -6.3225    2.6430   -0.5379 C   0  0  0  0  0  0  0  0  0  0  0  0
   -4.8810   -3.8590   -0.7627 C   0  0  0  0  0  0  0  0  0  0  0  0
    3.0848   -0.4746   -0.1662 C   0  0  2  0  0  0  0  0  0  0  0  0
    5.0326   -0.8735   -1.1774 C   0  0  2  0  0  0  0  0  0  0  0  0
    5.7662   -1.3358   -2.3945 C   0  0  0  0  0  0  0  0  0  0  0  0
    7.6953   -1.1699   -1.2167 C   0  0  2  0  0  0  0  0  0  0  0  0
    5.8110   -1.3545    0.0323 C   0  0  2  0  0  0  0  0  0  0  0  0
    5.1159   -0.8120    1.2594 C   0  0  1  0  0  0  0  0  0  0  0  0
    3.6124   -0.9627    1.1782 C   0  0  1  0  0  0  0  0  0  0  0  0
    9.1147   -0.6267   -1.1978 C   0  0  0  0  0  0  0  0  0  0  0  0
   -1.3811    3.6984    4.0689 C   0  0  0  0  0  0  0  0  0  0  0  0
   -0.1663    3.7240    3.3442 O   0  0  0  0  0  0  0  0  0  0  0  0
   -1.1006    1.7086    3.0799 C   0  0  0  0  0  0  0  0  0  0  0  0
   -1.8559    2.4041    3.9960 O   0  0  0  0  0  0  0  0  0  0  0  0
   -1.9354    0.9718    2.0429 C   0  0  0  0  0  0  0  0  0  0  0  0
   -0.2341   -0.1218   -3.4673 O   0  0  0  0  0  0  0  0  0  0  0  0
   -1.2514    0.9657    0.6916 C   0  0  0  0  0  0  0  0  0  0  0  0
   -1.8967   -1.5521   -3.0542 O   0  0  0  0  0  0  0  0  0  0  0  0
   -1.6045   -0.2589   -0.0664 C   0  0  2  0  0  0  0  0  0  0  0  0
   -6.0171    1.4081   -1.1231 O   0  0  0  0  0  0  0  0  0  0  0  0
   -0.7340   -0.4362   -1.2453 C   0  0  1  0  0  0  0  0  0  0  0  0
   -6.8185   -1.0102   -1.0879 O   0  0  0  0  0  0  0  0  0  0  0  0
   -1.3313   -0.3628   -2.6022 C   0  0  1  0  0  0  0  0  0  0  0  0
   -4.6125   -2.4944   -0.8589 O   0  0  0  0  0  0  0  0  0  0  0  0
    0.8098    0.3760   -2.7155 C   0  0  0  0  0  0  0  0  0  0  0  0
    1.7167   -0.5371   -0.1332 O   0  0  0  0  0  0  0  0  0  0  0  0
    0.2272    0.7569   -1.3924 C   0  0  2  0  0  0  0  0  0  0  0  0
    3.6995   -1.2423   -1.1317 O   0  0  0  0  0  0  0  0  0  0  0  0
    1.1067    0.7183   -0.2156 C   0  0  1  0  0  0  0  0  0  0  0  0
    7.0306   -0.7063   -2.3599 O   0  0  0  0  0  0  0  0  0  0  0  0
    0.2494    0.9360    1.0136 C   0  0  0  0  0  0  0  0  0  0  0  0
    7.0824   -0.7693   -0.0471 O   0  0  0  0  0  0  0  0  0  0  0  0
    0.6772    2.3053    1.5644 C   0  0  0  0  0  0  0  0  0  0  0  0
    5.5207   -1.4867    2.4156 O   0  0  0  0  0  0  0  0  0  0  0  0
   -0.4706    2.8799    2.3063 C   0  0  0  0  0  0  0  0  0  0  0  0
    3.0793   -0.1710    2.1797 O   0  0  0  0  0  0  0  0  0  0  0  0
   -3.0247   -0.5700   -0.2990 C   0  0  0  0  0  0  0  0  0  0  0  0
   -3.8867    0.4148   -0.9914 C   0  0  0  0  0  0  0  0  0  0  0  0
   -5.2289    0.6216   -0.2836 C   0  0  0  0  0  0  0  0  0  0  0  0
   -5.9545   -0.6776   -0.0635 C   0  0  0  0  0  0  0  0  0  0  0  0
   -5.0036   -1.8305    0.2787 C   0  0  0  0  0  0  0  0  0  0  0  0
   -3.7715   -1.1314    0.8919 C   0  0  0  0  0  0  0  0  0  0  0  0
   -6.3225    2.6430   -0.5379 C   0  0  0  0  0  0  0  0  0  0  0  0
   -4.8810   -3.8590   -0.7627 C   0  0  0  0  0  0  0  0  0  0  0  0
    3.0848   -0.4746   -0.1662 C   0  0  2  0  0  0  0  0  0  0  0  0
    5.0326   -0.8735   -1.1774 C   0  0  2  0  0  0  0  0  0  0  0  0
    5.7662   -1.3358   -2.3945 C   0  0  0  0  0  0  0  0  0  0  0  0
    7.6953   -1.1699   -1.2167 C   0  0  2  0  0  0  0  0  0  0  0  0
    5.8110   -1.3545    0.0323 C   0  0  2  0  0  0  0  0  0  0  0  0
    5.1159   -0.8120    1.2594 C   0  0  1  0  0  0  0  0  0  0  0  0
    3.6124   -0.9627    1.1782 C   0  0  1  0  0  0  0  0  0  0  0  0
    9.1147   -0.6267   -1.1978 C   0  0  0  0  0  0  0  0  0  0  0  0
   -2.0780    4.3484    3.4688 H   0  0  0  0  0  0  0  0  0  0  0  0
   -1.2691    4.0948    5.0835 H   0  0  0  0  0  0  0  0  0  0  0  0
   -0.3032    1.0929    3.5030 H   0  0  0  0  0  0  0  0  0  0  0  0
   -2.0016   -0.0683    2.4149 H   0  0  0  0  0  0  0  0  0  0  0  0
   -2.8934    1.5225    2.0220 H   0  0  0  0  0  0  0  0  0  0  0  0
   -1.4113    1.9177    0.1578 H   0  0  0  0  0  0  0  0  0  0  0  0
   -2.6967   -1.2955   -3.5939 H   0  0  0  0  0  0  0  0  0  0  0  0
   -1.2632   -1.0980    0.6441 H   0  0  0  0  0  0  0  0  0  0  0  0
   -0.0613   -1.3257   -1.2293 H   0  0  0  0  0  0  0  0  0  0  0  0
   -7.7414   -0.6739   -0.9651 H   0  0  0  0  0  0  0  0  0  0  0  0
   -1.9844    0.5234   -2.7636 H   0  0  0  0  0  0  0  0  0  0  0  0
    1.5611   -0.4273   -2.6379 H   0  0  0  0  0  0  0  0  0  0  0  0
    1.2480    1.3083   -3.1645 H   0  0  0  0  0  0  0  0  0  0  0  0
   -0.3285    1.6986   -1.5456 H   0  0  0  0  0  0  0  0  0  0  0  0
    1.9391    1.4467   -0.2919 H   0  0  0  0  0  0  0  0  0  0  0  0
    0.3898    0.1380    1.7639 H   0  0  0  0  0  0  0  0  0  0  0  0
    1.4994    2.0946    2.2913 H   0  0  0  0  0  0  0  0  0  0  0  0
    1.0712    2.9583    0.7522 H   0  0  0  0  0  0  0  0  0  0  0  0
    5.8850   -2.4011    2.1936 H   0  0  0  0  0  0  0  0  0  0  0  0
   -1.2224    3.3851    1.6671 H   0  0  0  0  0  0  0  0  0  0  0  0
    3.2379   -0.5429    3.0809 H   0  0  0  0  0  0  0  0  0  0  0  0
   -2.9944   -1.4769   -1.0038 H   0  0  0  0  0  0  0  0  0  0  0  0
   -3.4659    1.4263   -1.1148 H   0  0  0  0  0  0  0  0  0  0  0  0
   -4.1981    0.0937   -2.0218 H   0  0  0  0  0  0  0  0  0  0  0  0
   -5.0595    1.2050    0.6361 H   0  0  0  0  0  0  0  0  0  0  0  0
   -6.5782   -0.5386    0.8602 H   0  0  0  0  0  0  0  0  0  0  0  0
   -5.4530   -2.4832    1.0537 H   0  0  0  0  0  0  0  0  0  0  0  0
   -3.1298   -1.9049    1.3892 H   0  0  0  0  0  0  0  0  0  0  0  0
   -4.1926   -0.3878    1.5668 H   0  0  0  0  0  0  0  0  0  0  0  0
   -6.8751    2.5477    0.4084 H   0  0  0  0  0  0  0  0  0  0  0  0
   -5.3379    3.1701   -0.3911 H   0  0  0  0  0  0  0  0  0  0  0  0
   -6.9748    3.1807   -1.2572 H   0  0  0  0  0  0  0  0  0  0  0  0
   -4.5573   -4.3726   -1.6914 H   0  0  0  0  0  0  0  0  0  0  0  0
   -5.9678   -4.0478   -0.5592 H   0  0  0  0  0  0  0  0  0  0  0  0
   -4.3126   -4.3130    0.0803 H   0  0  0  0  0  0  0  0  0  0  0  0
    3.4471    0.5801   -0.2551 H   0  0  0  0  0  0  0  0  0  0  0  0
    5.0867    0.2370   -1.1551 H   0  0  0  0  0  0  0  0  0  0  0  0
    5.9209   -2.4189   -2.4459 H   0  0  0  0  0  0  0  0  0  0  0  0
    5.2655   -0.9181   -3.3086 H   0  0  0  0  0  0  0  0  0  0  0  0
    7.7633   -2.2658   -1.2965 H   0  0  0  0  0  0  0  0  0  0  0  0
    5.9430   -2.4434    0.0586 H   0  0  0  0  0  0  0  0  0  0  0  0
    5.3705    0.2602    1.3409 H   0  0  0  0  0  0  0  0  0  0  0  0
    3.3532   -2.0083    1.3559 H   0  0  0  0  0  0  0  0  0  0  0  0
    9.7947   -1.4180   -0.8217 H   0  0  0  0  0  0  0  0  0  0  0  0
    9.4236   -0.3898   -2.2390 H   0  0  0  0  0  0  0  0  0  0  0  0
    9.2023    0.2846   -0.5648 H   0  0  0  0  0  0  0  0  0  0  0  0
   -2.0780    4.3484    3.4688 H   0  0  0  0  0  0  0  0  0  0  0  0
   -1.2691    4.0948    5.0835 H   0  0  0  0  0  0  0  0  0  0  0  0
   -0.3032    1.0929    3.5030 H   0  0  0  0  0  0  0  0  0  0  0  0
   -2.0016   -0.0683    2.4149 H   0  0  0  0  0  0  0  0  0  0  0  0
   -2.8934    1.5225    2.0220 H   0  0  0  0  0  0  0  0  0  0  0  0
   -1.4113    1.9177    0.1578 H   0  0  0  0  0  0  0  0  0  0  0  0
   -2.6967   -1.2955   -3.5939 H   0  0  0  0  0  0  0  0  0  0  0  0
   -1.2632   -1.0980    0.6441 H   0  0  0  0  0  0  0  0  0  0  0  0
   -0.0613   -1.3257   -1.2293 H   0  0  0  0  0  0  0  0  0  0  0  0
   -7.7414   -0.6739   -0.9651 H   0  0  0  0  0  0  0  0  0  0  0  0
   -1.9844    0.5234   -2.7636 H   0  0  0  0  0  0  0  0  0  0  0  0
    1.5611   -0.4273   -2.6379 H   0  0  0  0  0  0  0  0  0  0  0  0
    1.2480    1.3083   -3.1645 H   0  0  0  0  0  0  0  0  0  0  0  0
   -0.3285    1.6986   -1.5456 H   0  0  0  0  0  0  0  0  0  0  0  0
    1.9391    1.4467   -0.2919 H   0  0  0  0  0  0  0  0  0  0  0  0
    0.3898    0.1380    1.7639 H   0  0  0  0  0  0  0  0  0  0  0  0
    1.4994    2.0946    2.2913 H   0  0  0  0  0  0  0  0  0  0  0  0
    1.0712    2.9583    0.7522 H   0  0  0  0  0  0  0  0  0  0  0  0
    5.8850   -2.4011    2.1936 H   0  0  0  0  0  0  0  0  0  0  0  0
   -1.2224    3.3851    1.6671 H   0  0  0  0  0  0  0  0  0  0  0  0
    3.2379   -0.5429    3.0809 H   0  0  0  0  0  0  0  0  0  0  0  0
   -2.9944   -1.4769   -1.0038 H   0  0  0  0  0  0  0  0  0  0  0  0
   -3.4659    1.4263   -1.1148 H   0  0  0  0  0  0  0  0  0  0  0  0
   -4.1981    0.0937   -2.0218 H   0  0  0  0  0  0  0  0  0  0  0  0
   -5.0595    1.2050    0.6361 H   0  0  0  0  0  0  0  0  0  0  0  0
   -6.5782   -0.5386    0.8602 H   0  0  0  0  0  0  0  0  0  0  0  0
   -5.4530   -2.4832    1.0537 H   0  0  0  0  0  0  0  0  0  0  0  0
   -3.1298   -1.9049    1.3892 H   0  0  0  0  0  0  0  0  0  0  0  0
   -4.1926   -0.3878    1.5668 H   0  0  0  0  0  0  0  0  0  0  0  0
   -6.8751    2.5477    0.4084 H   0  0  0  0  0  0  0  0  0  0  0  0
   -5.3379    3.1701   -0.3911 H   0  0  0  0  0  0  0  0  0  0  0  0
   -6.9748    3.1807   -1.2572 H   0  0  0  0  0  0  0  0  0  0  0  0
   -4.5573   -4.3726   -1.6914 H   0  0  0  0  0  0  0  0  0  0  0  0
   -5.9678   -4.0478   -0.5592 H   0  0  0  0  0  0  0  0  0  0  0  0
   -4.3126   -4.3130    0.0803 H   0  0  0  0  0  0  0  0  0  0  0  0
    3.4471    0.5801   -0.2551 H   0  0  0  0  0  0  0  0  0  0  0  0
    5.0867    0.2370   -1.1551 H   0  0  0  0  0  0  0  0  0  0  0  0
    5.9209   -2.4189   -2.4459 H   0  0  0  0  0  0  0  0  0  0  0  0
    5.2655   -0.9181   -3.3086 H   0  0  0  0  0  0  0  0  0  0  0  0
    7.7633   -2.2658   -1.2965 H   0  0  0  0  0  0  0  0  0  0  0  0
    5.9430   -2.4434    0.0586 H   0  0  0  0  0  0  0  0  0  0  0  0
    5.3705    0.2602    1.3409 H   0  0  0  0  0  0  0  0  0  0  0  0
    3.3532   -2.0083    1.3559 H   0  0  0  0  0  0  0  0  0  0  0  0
    9.7947   -1.4180   -0.8217 H   0  0  0  0  0  0  0  0  0  0  0  0
    9.4236   -0.3898   -2.2390 H   0  0  0  0  0  0  0  0  0  0  0  0
    9.2023    0.2846   -0.5648 H   0  0  0  0  0  0  0  0  0  0  0  0
  1  2  1  0
  1  4  1  0
  3  4  1  0
  3  5  1  0
  5  7  1  0
  7  9  1  0
  9 11  1  0
  6 13  1  0
  8 13  1  0
 11 13  1  0
  6 15  1  0
 11 17  1  0
 15 17  1  0
 16 19  1  0
 17 19  1  0
  7 21  1  0
 19 21  1  0
 21 23  1  0
  2 25  1  0
  3 25  1  0
 23 25  1  0
  9 27  1  0
 27 28  1  0
 10 29  1  0
 28 29  1  0
 12 30  1  0
 29 30  1  0
 14 31  1  0
 30 31  1  0
 27 32  1  0
 31 32  1  0
 10 33  1  0
 14 34  1  0
 16 35  1  0
 18 35  1  0
 18 36  1  0
 20 37  1  0
 36 37  1  0
 20 38  1  0
 22 38  1  0
 22 39  1  0
 36 39  1  0
 24 40  1  0
 39 40  1  0
 26 41  1  0
 35 41  1  0
 40 41  1  0
 38 42  1  0
 43 44  1  0
 43 46  1  0
 45 46  1  0
 45 47  1  0
 47 49  1  0
 49 51  1  0
 51 53  1  0
 48 55  1  0
 50 55  1  0
 53 55  1  0
 48 57  1  0
 53 59  1  0
 57 59  1  0
 58 61  1  0
 59 61  1  0
 49 63  1  0
 61 63  1  0
 63 65  1  0
 44 67  1  0
 45 67  1  0
 65 67  1  0
 51 69  1  0
 69 70  1  0
 52 71  1  0
 70 71  1  0
 54 72  1  0
 71 72  1  0
 56 73  1  0
 72 73  1  0
 69 74  1  0
 73 74  1  0
 52 75  1  0
 56 76  1  0
 58 77  1  0
 60 77  1  0
 60 78  1  0
 62 79  1  0
 78 79  1  0
 62 80  1  0
 64 80  1  0
 64 81  1  0
 78 81  1  0
 66 82  1  0
 81 82  1  0
 68 83  1  0
 77 83  1  0
 82 83  1  0
 80 84  1  0
  1 85  1  0
  1 86  1  0
  3 87  1  0
  5 88  1  0
  5 89  1  0
  7 90  1  0
  8 91  1  0
  9 92  1  1
 11 93  1  1
 12 94  1  0
 13 95  1  1
 15 96  1  0
 15 97  1  0
 17 98  1  6
 19 99  1  6
 21100  1  0
 23101  1  0
 23102  1  0
 24103  1  0
 25104  1  0
 26105  1  0
 27106  1  0
 28107  1  0
 28108  1  0
 29109  1  0
 30110  1  0
 31111  1  0
 32112  1  0
 32113  1  0
 33114  1  0
 33115  1  0
 33116  1  0
 34117  1  0
 34118  1  0
 34119  1  0
 35120  1  6
 36121  1  6
 37122  1  0
 37123  1  0
 38124  1  6
 39125  1  1
 40126  1  1
 41127  1  1
 42128  1  0
 42129  1  0
 42130  1  0
 43131  1  0
 43132  1  0
 45133  1  0
 47134  1  0
 47135  1  0
 49136  1  0
 50137  1  0
 51138  1  1
 53139  1  1
 54140  1  0
 55141  1  1
 57142  1  0
 57143  1  0
 59144  1  6
 61145  1  6
 63146  1  0
 65147  1  0
 65148  1  0
 66149  1  0
 67150  1  0
 68151  1  0
 69152  1  0
 70153  1  0
 70154  1  0
 71155  1  0
 72156  1  0
 73157  1  0
 74158  1  0
 74159  1  0
 75160  1  0
 75161  1  0
 75162  1  0
 76163  1  0
 76164  1  0
 76165  1  0
 77166  1  6
 78167  1  6
 79168  1  0
 79169  1  0
 80170  1  6
 81171  1  1
 82172  1  1
 83173  1  1
 84174  1  0
 84175  1  0
 84176  1  0
M  END
>  <PDBID>  (1) 
5GWK

>  <PDB ID>  (1) 
5GWK

>  <Generic Name>  (1) 
Etoposide

>  <Brand Name>  (1) 
Dom-etoposide#Eposin#Etopophos#Etoposide#Etoposide - Liq IV 20mg/ml#Etoposide Injection#Etoposide Injection USP#Etoposide Injection, USP#PMS-etoposide#Toposar#Vepesid#Vepesid Inj 20mg/ml#Etopofos#Lastet#Nexvep#Vepesid K#Vépéside

>  <DrugBank ID>  (1) 
DB00773

>  <ATC Codes>  (1) 
L01CB01

>  <Ligand ID>  (1) 
EVP

>  <Target Name>  (1) 
DNA topoisomerase 2-alpha

>  <UniProt ID>  (1) 
P11388

>  <PDB ID.1>  (1) 
5GWK

>  <Seq. Identity>  (1) 
96%

$$$$
