PDB_DB00834_03
     RDKit          3D

 83 87  0  0  0  0  0  0  0  0999 V2000
   -0.7265    6.3296    0.7472 O   0  0  0  0  0  0  0  0  0  0  0  0
   -0.7711    4.9219    0.7765 C   0  0  0  0  0  0  0  0  0  0  0  0
    0.5227    4.4798    1.3922 C   0  0  0  0  0  0  0  0  0  0  0  0
   -0.9742    4.4770   -0.6326 C   0  0  0  0  0  0  0  0  0  0  0  0
   -0.8676    2.9973   -0.8589 C   0  0  0  0  0  0  0  0  0  0  0  0
   -2.2717    2.4302   -0.9297 C   0  0  0  0  0  0  0  0  0  0  0  0
   -0.2676    2.4072    0.3881 C   0  0  2  0  0  0  0  0  0  0  0  0
    0.9548    3.1077    0.8019 C   0  0  0  0  0  0  0  0  0  0  0  0
   -0.3928    0.9321    0.5170 C   0  0  0  0  0  0  0  0  0  0  0  0
    0.1692    0.0299   -0.5158 C   0  0  1  0  0  0  0  0  0  0  0  0
    1.6648   -0.1637   -0.4652 C   0  0  0  0  0  0  0  0  0  0  0  0
    2.1990   -1.3994   -1.1605 C   0  0  0  0  0  0  0  0  0  0  0  0
    3.6871   -1.4646   -0.7749 C   0  0  0  0  0  0  0  0  0  0  0  0
    4.4618   -0.2314   -0.9383 C   0  0  0  0  0  0  0  0  0  0  0  0
    5.5963   -0.2685   -0.0800 N   0  0  0  0  0  0  0  0  0  0  0  0
    5.3636   -0.3252    1.3118 C   0  0  0  0  0  0  0  0  0  0  0  0
    6.7359   -0.9537   -0.5591 C   0  0  0  0  0  0  0  0  0  0  0  0
    3.7129    1.0673   -0.7398 C   0  0  0  0  0  0  0  0  0  0  0  0
    2.3657    0.9133   -1.3528 C   0  0  0  0  0  0  0  0  0  0  0  0
   -0.5704   -1.2326   -0.7774 C   0  0  0  0  0  0  0  0  0  0  0  0
   -1.4511   -1.6537    0.3561 C   0  0  2  0  0  0  0  0  0  0  0  0
   -0.7723   -1.8676    1.6553 C   0  0  0  0  0  0  0  0  0  0  0  0
   -2.3113   -2.8680    0.0946 C   0  0  1  0  0  0  0  0  0  0  0  0
   -3.0297   -2.8846   -1.1618 C   0  0  0  0  0  0  0  0  0  0  0  0
   -3.8056   -4.1128   -1.4590 C   0  0  0  0  0  0  0  0  0  0  0  0
   -4.9272   -4.5293   -0.6039 C   0  0  0  0  0  0  0  0  0  0  0  0
   -1.4988   -3.9916    0.2622 O   0  0  0  0  0  0  0  0  0  0  0  0
   -3.2365   -2.7014    1.2768 C   0  0  0  0  0  0  0  0  0  0  0  0
   -3.4569   -1.1755    1.3905 C   0  0  0  0  0  0  0  0  0  0  0  0
   -2.4637   -0.5665    0.4528 C   0  0  1  0  0  0  0  0  0  0  0  0
   -1.8402    0.6979    0.8696 C   0  0  2  0  0  0  0  0  0  0  0  0
   -2.7375    1.8295    0.3498 C   0  0  0  0  0  0  0  0  0  0  0  0
   -1.0464    6.7246    1.5891 H   0  0  0  0  0  0  0  0  0  0  0  0
   -1.6583    4.6966    1.4299 H   0  0  0  0  0  0  0  0  0  0  0  0
    1.3430    5.2075    1.3020 H   0  0  0  0  0  0  0  0  0  0  0  0
    0.3438    4.3512    2.4879 H   0  0  0  0  0  0  0  0  0  0  0  0
   -0.2267    5.0205   -1.2743 H   0  0  0  0  0  0  0  0  0  0  0  0
   -1.9652    4.8527   -0.9611 H   0  0  0  0  0  0  0  0  0  0  0  0
   -0.3375    2.8162   -1.7839 H   0  0  0  0  0  0  0  0  0  0  0  0
   -3.0008    3.1871   -1.2318 H   0  0  0  0  0  0  0  0  0  0  0  0
   -2.2854    1.6435   -1.7177 H   0  0  0  0  0  0  0  0  0  0  0  0
   -1.0274    2.7824    1.2033 H   0  0  0  0  0  0  0  0  0  0  0  0
    1.5275    2.6425    1.6150 H   0  0  0  0  0  0  0  0  0  0  0  0
    1.5810    3.4262   -0.0522 H   0  0  0  0  0  0  0  0  0  0  0  0
    0.2291    0.7144    1.4500 H   0  0  0  0  0  0  0  0  0  0  0  0
    0.0465    0.6729   -1.4710 H   0  0  0  0  0  0  0  0  0  0  0  0
    2.0947   -0.1809    0.5467 H   0  0  0  0  0  0  0  0  0  0  0  0
    2.1770   -1.3291   -2.2544 H   0  0  0  0  0  0  0  0  0  0  0  0
    1.8413   -2.3558   -0.7339 H   0  0  0  0  0  0  0  0  0  0  0  0
    4.1473   -2.2751   -1.4095 H   0  0  0  0  0  0  0  0  0  0  0  0
    3.7360   -1.7719    0.3003 H   0  0  0  0  0  0  0  0  0  0  0  0
    4.8458   -0.1935   -1.9950 H   0  0  0  0  0  0  0  0  0  0  0  0
    4.2864   -0.1683    1.5156 H   0  0  0  0  0  0  0  0  0  0  0  0
    5.9466    0.4020    1.9120 H   0  0  0  0  0  0  0  0  0  0  0  0
    5.5795   -1.3717    1.6702 H   0  0  0  0  0  0  0  0  0  0  0  0
    6.5598   -2.0601   -0.4436 H   0  0  0  0  0  0  0  0  0  0  0  0
    7.0158   -0.7543   -1.5904 H   0  0  0  0  0  0  0  0  0  0  0  0
    7.5775   -0.7437    0.1645 H   0  0  0  0  0  0  0  0  0  0  0  0
    4.2588    1.8662   -1.2882 H   0  0  0  0  0  0  0  0  0  0  0  0
    3.6424    1.3730    0.3090 H   0  0  0  0  0  0  0  0  0  0  0  0
    2.5645    0.4642   -2.3874 H   0  0  0  0  0  0  0  0  0  0  0  0
    1.7665    1.7678   -1.5514 H   0  0  0  0  0  0  0  0  0  0  0  0
   -1.3123   -1.0296   -1.6199 H   0  0  0  0  0  0  0  0  0  0  0  0
   -0.0159   -2.0848   -1.1505 H   0  0  0  0  0  0  0  0  0  0  0  0
   -1.2764   -1.4214    2.5343 H   0  0  0  0  0  0  0  0  0  0  0  0
   -0.7236   -2.9795    1.8942 H   0  0  0  0  0  0  0  0  0  0  0  0
    0.3279   -1.6176    1.6250 H   0  0  0  0  0  0  0  0  0  0  0  0
   -2.4213   -2.6751   -2.0784 H   0  0  0  0  0  0  0  0  0  0  0  0
   -3.8094   -2.0420   -1.2166 H   0  0  0  0  0  0  0  0  0  0  0  0
   -3.0867   -5.0097   -1.4948 H   0  0  0  0  0  0  0  0  0  0  0  0
   -4.1885   -4.1027   -2.5337 H   0  0  0  0  0  0  0  0  0  0  0  0
   -5.6723   -3.7664   -0.3333 H   0  0  0  0  0  0  0  0  0  0  0  0
   -4.6167   -5.1963    0.2335 H   0  0  0  0  0  0  0  0  0  0  0  0
   -5.5701   -5.2656   -1.2288 H   0  0  0  0  0  0  0  0  0  0  0  0
   -1.9673   -4.6840    0.8287 H   0  0  0  0  0  0  0  0  0  0  0  0
   -2.6824   -3.0023    2.2311 H   0  0  0  0  0  0  0  0  0  0  0  0
   -4.1664   -3.2265    1.2726 H   0  0  0  0  0  0  0  0  0  0  0  0
   -4.4766   -1.0034    0.9749 H   0  0  0  0  0  0  0  0  0  0  0  0
   -3.3686   -0.8418    2.4258 H   0  0  0  0  0  0  0  0  0  0  0  0
   -2.9099   -0.3970   -0.5719 H   0  0  0  0  0  0  0  0  0  0  0  0
   -1.9326    0.7782    1.9813 H   0  0  0  0  0  0  0  0  0  0  0  0
   -3.0083    2.5569    1.1422 H   0  0  0  0  0  0  0  0  0  0  0  0
   -3.7467    1.3734    0.1022 H   0  0  0  0  0  0  0  0  0  0  0  0
  1  2  1  0
  2  3  1  0
  2  4  1  0
  4  5  1  0
  5  6  1  0
  5  7  1  0
  3  8  1  0
  7  8  1  0
  7  9  1  0
  9 10  1  0
 10 11  1  0
 11 12  1  0
 12 13  1  0
 13 14  1  0
 14 15  1  0
 15 16  1  0
 15 17  1  0
 14 18  1  0
 11 19  1  0
 18 19  1  0
 10 20  1  0
 20 21  1  0
 21 22  1  1
 21 23  1  0
 23 24  1  0
 24 25  1  0
 25 26  1  0
 23 27  1  1
 23 28  1  0
 28 29  1  0
 21 30  1  0
 29 30  1  0
  9 31  1  0
 30 31  1  0
  6 32  1  0
 31 32  1  0
  1 33  1  0
  2 34  1  0
  3 35  1  0
  3 36  1  0
  4 37  1  0
  4 38  1  0
  5 39  1  0
  6 40  1  0
  6 41  1  0
  7 42  1  1
  8 43  1  0
  8 44  1  0
  9 45  1  0
 10 46  1  6
 11 47  1  0
 12 48  1  0
 12 49  1  0
 13 50  1  0
 13 51  1  0
 14 52  1  0
 16 53  1  0
 16 54  1  0
 16 55  1  0
 17 56  1  0
 17 57  1  0
 17 58  1  0
 18 59  1  0
 18 60  1  0
 19 61  1  0
 19 62  1  0
 20 63  1  0
 20 64  1  0
 22 65  1  0
 22 66  1  0
 22 67  1  0
 24 68  1  0
 24 69  1  0
 25 70  1  0
 25 71  1  0
 26 72  1  0
 26 73  1  0
 26 74  1  0
 27 75  1  0
 28 76  1  0
 28 77  1  0
 29 78  1  0
 29 79  1  0
 30 80  1  6
 31 81  1  1
 32 82  1  0
 32 83  1  0
M  END
>  <PDBID>  (1) 
2W8Y

>  <PDB ID>  (1) 
2W8Y

>  <Generic Name>  (1) 
Mifepristone

>  <Brand Name>  (1) 
Korlym#Mifegymiso#Corlux#Mefipil#Mifegyne#Mifeprex

>  <DrugBank ID>  (1) 
DB00834

>  <ATC Codes>  (1) 
G03XB01#G03XB51

>  <Ligand ID>  (1) 
486

>  <Target Name>  (1) 
Progesterone receptor

>  <UniProt ID>  (1) 
P06401

>  <PDB ID.1>  (1) 
2W8Y

>  <Seq. Identity>  (1) 
96%

$$$$
