PDB_DB00712_07
     RDKit          3D

 90 92  0  0  0  0  0  0  0  0999 V2000
    4.4370    0.5389   -0.4989 C   0  0  0  0  0  0  0  0  0  0  0  0
    3.0311    0.5950   -1.0608 C   0  0  0  0  0  0  0  0  0  0  0  0
    2.1557   -0.2609   -0.1906 C   0  0  0  0  0  0  0  0  0  0  0  0
    2.6374   -0.0925    1.2509 C   0  0  0  0  0  0  0  0  0  0  0  0
    3.8339   -0.9811    1.4104 C   0  0  0  0  0  0  0  0  0  0  0  0
    4.7192   -0.7726    0.1967 C   0  0  0  0  0  0  0  0  0  0  0  0
    0.7112    0.1136   -0.2207 C   0  0  0  0  0  0  0  0  0  0  0  0
    0.0993    0.0475   -1.5975 C   0  0  0  0  0  0  0  0  0  0  0  0
   -1.2753    0.6897   -1.4795 C   0  0  0  0  0  0  0  0  0  0  0  0
   -2.0016    0.2269   -0.2185 C   0  0  0  0  0  0  0  0  0  0  0  0
   -1.4255   -1.1234    0.1238 C   0  0  0  0  0  0  0  0  0  0  0  0
   -0.0284   -0.8386    0.7064 C   0  0  0  0  0  0  0  0  0  0  0  0
   -3.4795    0.2656   -0.4039 C   0  0  2  0  0  0  0  0  0  0  0  0
   -3.8094    1.7402   -0.7360 C   0  0  0  0  0  0  0  0  0  0  0  0
   -4.2781   -0.0498    0.8137 C   0  0  0  0  0  0  0  0  0  0  0  0
   -4.1021   -1.2816    1.3717 O   0  0  0  0  0  0  0  0  0  0  0  0
   -5.6455    0.1061    0.4758 O   0  0  0  0  0  0  0  0  0  0  0  0
    0.6527   -2.0220    0.9002 F   0  0  0  0  0  0  0  0  0  0  0  0
    4.4370    0.5389   -0.4989 C   0  0  0  0  0  0  0  0  0  0  0  0
    3.0311    0.5950   -1.0608 C   0  0  0  0  0  0  0  0  0  0  0  0
    2.1557   -0.2609   -0.1906 C   0  0  0  0  0  0  0  0  0  0  0  0
    2.6374   -0.0925    1.2509 C   0  0  0  0  0  0  0  0  0  0  0  0
    3.8339   -0.9811    1.4104 C   0  0  0  0  0  0  0  0  0  0  0  0
    4.7192   -0.7726    0.1967 C   0  0  0  0  0  0  0  0  0  0  0  0
    0.7112    0.1136   -0.2207 C   0  0  0  0  0  0  0  0  0  0  0  0
    0.0993    0.0475   -1.5975 C   0  0  0  0  0  0  0  0  0  0  0  0
   -1.2753    0.6897   -1.4795 C   0  0  0  0  0  0  0  0  0  0  0  0
   -2.0016    0.2269   -0.2185 C   0  0  0  0  0  0  0  0  0  0  0  0
   -1.4255   -1.1234    0.1238 C   0  0  0  0  0  0  0  0  0  0  0  0
   -0.0284   -0.8386    0.7064 C   0  0  0  0  0  0  0  0  0  0  0  0
   -3.4795    0.2656   -0.4039 C   0  0  2  0  0  0  0  0  0  0  0  0
   -3.8094    1.7402   -0.7360 C   0  0  0  0  0  0  0  0  0  0  0  0
   -4.2781   -0.0498    0.8137 C   0  0  0  0  0  0  0  0  0  0  0  0
   -4.1021   -1.2816    1.3717 O   0  0  0  0  0  0  0  0  0  0  0  0
   -5.6455    0.1061    0.4758 O   0  0  0  0  0  0  0  0  0  0  0  0
    0.6527   -2.0220    0.9002 F   0  0  0  0  0  0  0  0  0  0  0  0
    4.6637    1.3618    0.1888 H   0  0  0  0  0  0  0  0  0  0  0  0
    5.1488    0.6073   -1.3455 H   0  0  0  0  0  0  0  0  0  0  0  0
    3.0667    0.1522   -2.0773 H   0  0  0  0  0  0  0  0  0  0  0  0
    2.7381    1.6394   -1.1224 H   0  0  0  0  0  0  0  0  0  0  0  0
    2.2960   -1.3226   -0.4690 H   0  0  0  0  0  0  0  0  0  0  0  0
    1.7921   -0.3209    1.9044 H   0  0  0  0  0  0  0  0  0  0  0  0
    2.8882    0.9854    1.3803 H   0  0  0  0  0  0  0  0  0  0  0  0
    4.3428   -0.7094    2.3550 H   0  0  0  0  0  0  0  0  0  0  0  0
    3.4683   -2.0292    1.4908 H   0  0  0  0  0  0  0  0  0  0  0  0
    5.7600   -0.7110    0.5769 H   0  0  0  0  0  0  0  0  0  0  0  0
    4.6303   -1.6371   -0.4855 H   0  0  0  0  0  0  0  0  0  0  0  0
    0.5967    1.1568    0.1411 H   0  0  0  0  0  0  0  0  0  0  0  0
    0.0705   -0.9501   -2.0304 H   0  0  0  0  0  0  0  0  0  0  0  0
    0.6849    0.7160   -2.2738 H   0  0  0  0  0  0  0  0  0  0  0  0
   -1.8967    0.5089   -2.3636 H   0  0  0  0  0  0  0  0  0  0  0  0
   -1.1072    1.7844   -1.4128 H   0  0  0  0  0  0  0  0  0  0  0  0
   -1.7362    0.9193    0.6067 H   0  0  0  0  0  0  0  0  0  0  0  0
   -1.9528   -1.6874    0.8832 H   0  0  0  0  0  0  0  0  0  0  0  0
   -1.3382   -1.7812   -0.7665 H   0  0  0  0  0  0  0  0  0  0  0  0
   -0.2261   -0.3668    1.6884 H   0  0  0  0  0  0  0  0  0  0  0  0
   -3.8115   -0.3351   -1.2849 H   0  0  0  0  0  0  0  0  0  0  0  0
   -3.4716    2.3147    0.1529 H   0  0  0  0  0  0  0  0  0  0  0  0
   -3.1335    2.0075   -1.5698 H   0  0  0  0  0  0  0  0  0  0  0  0
   -4.8685    1.8602   -0.9595 H   0  0  0  0  0  0  0  0  0  0  0  0
   -4.0516    0.7569    1.5690 H   0  0  0  0  0  0  0  0  0  0  0  0
   -4.6139   -1.9696    0.8635 H   0  0  0  0  0  0  0  0  0  0  0  0
   -6.1714    0.1484    1.3282 H   0  0  0  0  0  0  0  0  0  0  0  0
    4.6637    1.3618    0.1888 H   0  0  0  0  0  0  0  0  0  0  0  0
    5.1488    0.6073   -1.3455 H   0  0  0  0  0  0  0  0  0  0  0  0
    3.0667    0.1522   -2.0773 H   0  0  0  0  0  0  0  0  0  0  0  0
    2.7381    1.6394   -1.1224 H   0  0  0  0  0  0  0  0  0  0  0  0
    2.2960   -1.3226   -0.4690 H   0  0  0  0  0  0  0  0  0  0  0  0
    1.7921   -0.3209    1.9044 H   0  0  0  0  0  0  0  0  0  0  0  0
    2.8882    0.9854    1.3803 H   0  0  0  0  0  0  0  0  0  0  0  0
    4.3428   -0.7094    2.3550 H   0  0  0  0  0  0  0  0  0  0  0  0
    3.4683   -2.0292    1.4908 H   0  0  0  0  0  0  0  0  0  0  0  0
    5.7600   -0.7110    0.5769 H   0  0  0  0  0  0  0  0  0  0  0  0
    4.6303   -1.6371   -0.4855 H   0  0  0  0  0  0  0  0  0  0  0  0
    0.5967    1.1568    0.1411 H   0  0  0  0  0  0  0  0  0  0  0  0
    0.0705   -0.9501   -2.0304 H   0  0  0  0  0  0  0  0  0  0  0  0
    0.6849    0.7160   -2.2738 H   0  0  0  0  0  0  0  0  0  0  0  0
   -1.8967    0.5089   -2.3636 H   0  0  0  0  0  0  0  0  0  0  0  0
   -1.1072    1.7844   -1.4128 H   0  0  0  0  0  0  0  0  0  0  0  0
   -1.7362    0.9193    0.6067 H   0  0  0  0  0  0  0  0  0  0  0  0
   -1.9528   -1.6874    0.8832 H   0  0  0  0  0  0  0  0  0  0  0  0
   -1.3382   -1.7812   -0.7665 H   0  0  0  0  0  0  0  0  0  0  0  0
   -0.2261   -0.3668    1.6884 H   0  0  0  0  0  0  0  0  0  0  0  0
   -3.8115   -0.3351   -1.2849 H   0  0  0  0  0  0  0  0  0  0  0  0
   -3.4716    2.3147    0.1529 H   0  0  0  0  0  0  0  0  0  0  0  0
   -3.1335    2.0075   -1.5698 H   0  0  0  0  0  0  0  0  0  0  0  0
   -4.8685    1.8602   -0.9595 H   0  0  0  0  0  0  0  0  0  0  0  0
   -4.0516    0.7569    1.5690 H   0  0  0  0  0  0  0  0  0  0  0  0
   -4.6139   -1.9696    0.8635 H   0  0  0  0  0  0  0  0  0  0  0  0
   -6.1714    0.1484    1.3282 H   0  0  0  0  0  0  0  0  0  0  0  0
  1  2  1  0
  2  3  1  0
  3  4  1  0
  4  5  1  0
  1  6  1  0
  5  6  1  0
  3  7  1  0
  7  8  1  0
  8  9  1  0
  9 10  1  0
 10 11  1  0
  7 12  1  0
 11 12  1  0
 10 13  1  0
 13 14  1  0
 13 15  1  0
 15 16  1  0
 15 17  1  0
 12 18  1  0
 19 20  1  0
 20 21  1  0
 21 22  1  0
 22 23  1  0
 19 24  1  0
 23 24  1  0
 21 25  1  0
 25 26  1  0
 26 27  1  0
 27 28  1  0
 28 29  1  0
 25 30  1  0
 29 30  1  0
 28 31  1  0
 31 32  1  0
 31 33  1  0
 33 34  1  0
 33 35  1  0
 30 36  1  0
  1 37  1  0
  1 38  1  0
  2 39  1  0
  2 40  1  0
  3 41  1  0
  4 42  1  0
  4 43  1  0
  5 44  1  0
  5 45  1  0
  6 46  1  0
  6 47  1  0
  7 48  1  0
  8 49  1  0
  8 50  1  0
  9 51  1  0
  9 52  1  0
 10 53  1  0
 11 54  1  0
 11 55  1  0
 12 56  1  0
 13 57  1  6
 14 58  1  0
 14 59  1  0
 14 60  1  0
 15 61  1  0
 16 62  1  0
 17 63  1  0
 19 64  1  0
 19 65  1  0
 20 66  1  0
 20 67  1  0
 21 68  1  0
 22 69  1  0
 22 70  1  0
 23 71  1  0
 23 72  1  0
 24 73  1  0
 24 74  1  0
 25 75  1  0
 26 76  1  0
 26 77  1  0
 27 78  1  0
 27 79  1  0
 28 80  1  0
 29 81  1  0
 29 82  1  0
 30 83  1  0
 31 84  1  6
 32 85  1  0
 32 86  1  0
 32 87  1  0
 33 88  1  0
 34 89  1  0
 35 90  1  0
M  END
>  <PDBID>  (1) 
5JVZ

>  <PDB ID>  (1) 
5JVZ

>  <Generic Name>  (1) 
Flurbiprofen

>  <Brand Name>  (1) 
Ansaid Tablets 100 mg#Ansaid Tablets 50 mg#Antiphlamine Pain Relieving#Apo-flurbiprofen Fc Tablets 100mg#Apo-flurbiprofen Fc Tablets 50mg#Flurbiprofen#Flurbiprofen Sodium#Flurbiprofen-100 Tab 100mg#Flurbiprofen-50 Tab 50mg#Froben#Froben SR#Froben Tab 100mg#Froben Tab 50mg#Froben-SR Cap 200mg#Novo-flurprofen SR#Nu-flurbiprofen Tab 100mg#Nu-flurbiprofen Tab 50mg#Ocufen#Ocufen Oph Soln 0.03%#Ratio-flurbiprofen Tablets 100mg#Ratio-flurbiprofen Tablets 50mg#Teva-flurbiprofen#Acustop Cataplasma#Adofeed#Ansaid#Antadys#Cebutid#Flurofen#Ocuflur#Stayban#Strefen#Strepfen#Strepsils#Strepsils Intensive#TransAct#Urbifen#Zepolas

>  <DrugBank ID>  (1) 
DB00712

>  <ATC Codes>  (1) 
M02AA19#R02AX01#M01AE09#S01BC04

>  <Ligand ID>  (1) 
FLP,FLR

>  <Target Name>  (1) 
Prostaglandin G/H synthase 2

>  <UniProt ID>  (1) 
P35354

>  <PDB ID.1>  (1) 
5JVZ

>  <Seq. Identity>  (1) 
85%

$$$$
