PDB_DB01254_06
     RDKit          3D

154160  0  0  0  0  0  0  0  0999 V2000
   -2.8951    0.4606    0.6860 C   0  0  0  0  0  0  0  0  0  0  0  0
   -3.1175   -1.0576    0.6781 C   0  0  0  0  0  0  0  0  0  0  0  0
   -4.1996   -1.4208   -0.2760 C   0  0  0  0  0  0  0  0  0  0  0  0
    7.4023    0.7595    0.0141 N   0  0  0  0  0  0  0  0  0  0  0  0
   -7.6019    2.1968    0.0063 C   0  0  0  0  0  0  0  0  0  0  0  0
   -7.6870    0.9713    0.8918 C   0  0  0  0  0  0  0  0  0  0  0  0
   -7.6801   -0.2348    0.0131 C   0  0  0  0  0  0  0  0  0  0  0  0
   -7.8055   -1.4531    0.9012 C   0  0  0  0  0  0  0  0  0  0  0  0
    1.5581   -0.1632    0.0842 C   0  0  0  0  0  0  0  0  0  0  0  0
    2.4625    0.0510   -1.0655 C   0  0  0  0  0  0  0  0  0  0  0  0
    3.6630   -0.8187   -1.0521 C   0  0  0  0  0  0  0  0  0  0  0  0
    2.5445   -2.1332    0.6854 C   0  0  0  0  0  0  0  0  0  0  0  0
    2.2937   -3.5713    1.0541 C   0  0  0  0  0  0  0  0  0  0  0  0
    5.0246    0.6825    0.2959 C   0  0  0  0  0  0  0  0  0  0  0  0
    5.9241   -0.1904   -1.7486 C   0  0  0  0  0  0  0  0  0  0  0  0
    7.3496    2.1667   -0.2976 C   0  0  0  0  0  0  0  0  0  0  0  0
    8.5896    2.6156   -1.0555 C   0  0  0  0  0  0  0  0  0  0  0  0
    0.2941    0.5339   -0.0211 N   0  0  0  0  0  0  0  0  0  0  0  0
   -0.5957   -0.0740    0.9469 C   0  0  1  0  0  0  0  0  0  0  0  0
   -1.6834    0.7399    1.3310 N   0  0  0  0  0  0  0  0  0  0  0  0
   -1.4453   -1.5295    0.1665 S   0  0  0  0  0  0  0  0  0  0  0  0
   -5.3849   -0.7701    0.1604 N   0  0  0  0  0  0  0  0  0  0  0  0
   -6.3645   -0.3955   -0.7615 C   0  0  2  0  0  0  0  0  0  0  0  0
   -6.1587    0.8528   -1.5535 C   0  0  0  0  0  0  0  0  0  0  0  0
   -6.2892    2.1100   -0.7220 C   0  0  0  0  0  0  0  0  0  0  0  0
   -7.5070    0.9195   -2.7452 Cl  0  0  0  0  0  0  0  0  0  0  0  0
   -4.3895   -2.8016   -0.1939 O   0  0  0  0  0  0  0  0  0  0  0  0
    3.6762   -1.8592   -0.0801 N   0  0  0  0  0  0  0  0  0  0  0  0
    1.2968   -1.5866    0.1724 N   0  0  0  0  0  0  0  0  0  0  0  0
    4.8293   -0.0341   -0.8980 N   0  0  0  0  0  0  0  0  0  0  0  0
    6.3682    0.3609    0.9339 C   0  0  0  0  0  0  0  0  0  0  0  0
    7.2832   -0.0946   -1.1370 C   0  0  0  0  0  0  0  0  0  0  0  0
    8.4484    3.9980   -1.3125 O   0  0  0  0  0  0  0  0  0  0  0  0
   -2.6849   -1.5984    1.4598 C   0  0  0  0  0  0  0  0  0  0  0  0
   -3.2128   -2.3455    0.2644 C   0  0  0  0  0  0  0  0  0  0  0  0
   -4.4963   -1.7263   -0.2498 C   0  0  0  0  0  0  0  0  0  0  0  0
    6.3949    1.3130   -0.4701 N   0  0  0  0  0  0  0  0  0  0  0  0
   -6.0929    3.1098    0.1743 C   0  0  0  0  0  0  0  0  0  0  0  0
   -6.0769    1.9755    1.1500 C   0  0  0  0  0  0  0  0  0  0  0  0
   -6.1515    0.6163    0.5102 C   0  0  0  0  0  0  0  0  0  0  0  0
   -7.6046    0.2559    0.3636 C   0  0  0  0  0  0  0  0  0  0  0  0
    1.0097   -2.1327    0.0045 C   0  0  0  0  0  0  0  0  0  0  0  0
    1.8484   -0.9907   -0.4399 C   0  0  0  0  0  0  0  0  0  0  0  0
    3.3339   -1.3248   -0.5355 C   0  0  2  0  0  0  0  0  0  0  0  0
    2.8007   -2.4954    1.4846 C   0  0  0  0  0  0  0  0  0  0  0  0
    3.3345   -3.5278    2.4410 C   0  0  0  0  0  0  0  0  0  0  0  0
    3.9871    0.9629   -0.0520 C   0  0  0  0  0  0  0  0  0  0  0  0
    5.1818   -0.3229   -1.7045 C   0  0  0  0  0  0  0  0  0  0  0  0
    6.3350    2.2809   -1.5153 C   0  0  0  0  0  0  0  0  0  0  0  0
    6.5945    3.6554   -0.9421 C   0  0  0  0  0  0  0  0  0  0  0  0
   -0.0786   -1.7172    0.9039 N   0  0  0  0  0  0  0  0  0  0  0  0
   -0.9256   -0.8441    0.1608 C   0  0  2  0  0  0  0  0  0  0  0  0
   -2.0665   -0.3816    0.9768 N   0  0  0  0  0  0  0  0  0  0  0  0
   -1.9103   -1.9229   -0.9679 S   0  0  0  0  0  0  0  0  0  0  0  0
   -4.2124   -0.3616   -0.6282 N   0  0  0  0  0  0  0  0  0  0  0  0
   -5.4050    0.4599   -0.7624 C   0  0  0  0  0  0  0  0  0  0  0  0
   -5.0825    1.6961   -1.5178 C   0  0  0  0  0  0  0  0  0  0  0  0
   -4.8478    2.9252   -0.7042 C   0  0  0  0  0  0  0  0  0  0  0  0
   -6.3617    2.1007   -2.7129 Cl  0  0  0  0  0  0  0  0  0  0  0  0
   -4.8576   -2.3763   -1.4571 O   0  0  0  0  0  0  0  0  0  0  0  0
    3.8325   -1.8127    0.7338 N   0  0  0  0  0  0  0  0  0  0  0  0
    1.8200   -3.1182    0.6393 N   0  0  0  0  0  0  0  0  0  0  0  0
    4.0210   -0.1456   -0.9192 N   0  0  0  0  0  0  0  0  0  0  0  0
    5.3420    1.3627    0.4957 C   0  0  0  0  0  0  0  0  0  0  0  0
    6.4778   -0.0417   -0.9854 C   0  0  0  0  0  0  0  0  0  0  0  0
    6.5250    4.5413   -2.0317 O   0  0  0  0  0  0  0  0  0  0  0  0
   -3.7238    0.9033    1.2648 H   0  0  0  0  0  0  0  0  0  0  0  0
   -2.9498    0.7618   -0.3809 H   0  0  0  0  0  0  0  0  0  0  0  0
   -3.3607   -1.4398    1.6915 H   0  0  0  0  0  0  0  0  0  0  0  0
   -3.9242   -1.2142   -1.3275 H   0  0  0  0  0  0  0  0  0  0  0  0
   -8.4592    2.1413   -0.7054 H   0  0  0  0  0  0  0  0  0  0  0  0
   -7.5995    3.1415    0.5776 H   0  0  0  0  0  0  0  0  0  0  0  0
   -8.6150    0.9460    1.4889 H   0  0  0  0  0  0  0  0  0  0  0  0
   -6.8454    1.0344    1.5977 H   0  0  0  0  0  0  0  0  0  0  0  0
   -8.5478   -0.1527   -0.6759 H   0  0  0  0  0  0  0  0  0  0  0  0
   -8.1573   -1.1614    1.9329 H   0  0  0  0  0  0  0  0  0  0  0  0
   -6.8379   -1.9684    1.0716 H   0  0  0  0  0  0  0  0  0  0  0  0
   -8.5031   -2.2094    0.4806 H   0  0  0  0  0  0  0  0  0  0  0  0
    2.0403    0.1092    1.0673 H   0  0  0  0  0  0  0  0  0  0  0  0
    1.8575   -0.1006   -2.0040 H   0  0  0  0  0  0  0  0  0  0  0  0
    2.7339    1.1461   -1.1109 H   0  0  0  0  0  0  0  0  0  0  0  0
    3.7301   -1.3334   -2.0578 H   0  0  0  0  0  0  0  0  0  0  0  0
    2.6745   -1.6039    1.6817 H   0  0  0  0  0  0  0  0  0  0  0  0
    2.1101   -4.2179    0.1991 H   0  0  0  0  0  0  0  0  0  0  0  0
    3.1224   -3.9211    1.7083 H   0  0  0  0  0  0  0  0  0  0  0  0
    1.3723   -3.5837    1.7096 H   0  0  0  0  0  0  0  0  0  0  0  0
    4.2755    0.4244    1.0624 H   0  0  0  0  0  0  0  0  0  0  0  0
    4.9320    1.7624    0.1257 H   0  0  0  0  0  0  0  0  0  0  0  0
    5.8600    0.6209   -2.5391 H   0  0  0  0  0  0  0  0  0  0  0  0
    5.8655   -1.1579   -2.2998 H   0  0  0  0  0  0  0  0  0  0  0  0
    7.2767    2.7628    0.6188 H   0  0  0  0  0  0  0  0  0  0  0  0
    6.4563    2.3847   -0.9590 H   0  0  0  0  0  0  0  0  0  0  0  0
    9.4251    2.5802   -0.2891 H   0  0  0  0  0  0  0  0  0  0  0  0
    8.8030    2.0450   -1.9595 H   0  0  0  0  0  0  0  0  0  0  0  0
    0.4183    1.5622    0.2153 H   0  0  0  0  0  0  0  0  0  0  0  0
   -0.0776   -0.4662    1.8380 H   0  0  0  0  0  0  0  0  0  0  0  0
   -1.8307    0.6885    2.3849 H   0  0  0  0  0  0  0  0  0  0  0  0
   -5.4213   -0.4294    1.1198 H   0  0  0  0  0  0  0  0  0  0  0  0
   -6.5596   -1.2423   -1.4737 H   0  0  0  0  0  0  0  0  0  0  0  0
   -5.2372    0.9112   -2.1225 H   0  0  0  0  0  0  0  0  0  0  0  0
   -5.4568    2.2831   -0.0433 H   0  0  0  0  0  0  0  0  0  0  0  0
   -6.2786    2.9725   -1.4457 H   0  0  0  0  0  0  0  0  0  0  0  0
   -4.4712   -3.1197    0.7264 H   0  0  0  0  0  0  0  0  0  0  0  0
    4.1103   -2.7302   -0.4482 H   0  0  0  0  0  0  0  0  0  0  0  0
    1.0159   -2.0136   -0.7303 H   0  0  0  0  0  0  0  0  0  0  0  0
    6.4276    0.8910    1.8904 H   0  0  0  0  0  0  0  0  0  0  0  0
    6.4362   -0.7451    1.0407 H   0  0  0  0  0  0  0  0  0  0  0  0
    7.6620   -1.1113   -0.8383 H   0  0  0  0  0  0  0  0  0  0  0  0
    7.9835    0.2245   -1.9662 H   0  0  0  0  0  0  0  0  0  0  0  0
    8.0641    4.3945   -0.4830 H   0  0  0  0  0  0  0  0  0  0  0  0
   -1.9087   -2.1595    2.0071 H   0  0  0  0  0  0  0  0  0  0  0  0
   -3.4740   -1.3275    2.1622 H   0  0  0  0  0  0  0  0  0  0  0  0
   -3.2751   -3.4275    0.4171 H   0  0  0  0  0  0  0  0  0  0  0  0
   -5.3497   -1.8657    0.4105 H   0  0  0  0  0  0  0  0  0  0  0  0
   -6.9767    2.9944   -0.5103 H   0  0  0  0  0  0  0  0  0  0  0  0
   -6.0768    4.0510    0.7140 H   0  0  0  0  0  0  0  0  0  0  0  0
   -6.8889    2.0362    1.9052 H   0  0  0  0  0  0  0  0  0  0  0  0
   -5.1296    2.0388    1.7258 H   0  0  0  0  0  0  0  0  0  0  0  0
   -5.7365   -0.0921    1.2914 H   0  0  0  0  0  0  0  0  0  0  0  0
   -7.8150   -0.0856   -0.6735 H   0  0  0  0  0  0  0  0  0  0  0  0
   -8.2829    1.1235    0.5326 H   0  0  0  0  0  0  0  0  0  0  0  0
   -7.9118   -0.5906    1.0276 H   0  0  0  0  0  0  0  0  0  0  0  0
    0.5221   -2.6031   -0.8987 H   0  0  0  0  0  0  0  0  0  0  0  0
    1.5174   -0.6909   -1.4746 H   0  0  0  0  0  0  0  0  0  0  0  0
    1.6618   -0.1332    0.2149 H   0  0  0  0  0  0  0  0  0  0  0  0
    3.5157   -2.1100   -1.2937 H   0  0  0  0  0  0  0  0  0  0  0  0
    2.2832   -1.7249    2.0976 H   0  0  0  0  0  0  0  0  0  0  0  0
    2.6387   -4.4144    2.4980 H   0  0  0  0  0  0  0  0  0  0  0  0
    4.3102   -3.9327    2.1469 H   0  0  0  0  0  0  0  0  0  0  0  0
    3.3611   -3.1463    3.4961 H   0  0  0  0  0  0  0  0  0  0  0  0
    3.3378    0.8157    0.8457 H   0  0  0  0  0  0  0  0  0  0  0  0
    3.5224    1.8346   -0.5979 H   0  0  0  0  0  0  0  0  0  0  0  0
    5.0837    0.2925   -2.6290 H   0  0  0  0  0  0  0  0  0  0  0  0
    5.2417   -1.3843   -2.0769 H   0  0  0  0  0  0  0  0  0  0  0  0
    5.3503    2.3075   -2.0317 H   0  0  0  0  0  0  0  0  0  0  0  0
    7.1105    2.1110   -2.2846 H   0  0  0  0  0  0  0  0  0  0  0  0
    5.8217    3.8726   -0.2016 H   0  0  0  0  0  0  0  0  0  0  0  0
    7.6262    3.6359   -0.5042 H   0  0  0  0  0  0  0  0  0  0  0  0
    0.3111   -1.2854    1.7693 H   0  0  0  0  0  0  0  0  0  0  0  0
   -0.4516   -0.0367   -0.3862 H   0  0  0  0  0  0  0  0  0  0  0  0
   -1.6982    0.2068    1.7324 H   0  0  0  0  0  0  0  0  0  0  0  0
   -3.7203   -0.3206   -1.5502 H   0  0  0  0  0  0  0  0  0  0  0  0
   -6.0703   -0.1485   -1.4506 H   0  0  0  0  0  0  0  0  0  0  0  0
   -4.1310    1.5150   -2.0965 H   0  0  0  0  0  0  0  0  0  0  0  0
   -3.9704    2.8660   -0.0269 H   0  0  0  0  0  0  0  0  0  0  0  0
   -4.7279    3.7716   -1.4117 H   0  0  0  0  0  0  0  0  0  0  0  0
   -4.3938   -3.2397   -1.5508 H   0  0  0  0  0  0  0  0  0  0  0  0
    4.5713   -2.5193    0.5282 H   0  0  0  0  0  0  0  0  0  0  0  0
    2.1941   -3.7732   -0.0556 H   0  0  0  0  0  0  0  0  0  0  0  0
    5.2664    2.3432    0.9785 H   0  0  0  0  0  0  0  0  0  0  0  0
    5.5840    0.5578    1.2543 H   0  0  0  0  0  0  0  0  0  0  0  0
    6.5711   -0.7216   -0.1308 H   0  0  0  0  0  0  0  0  0  0  0  0
    7.2907   -0.1642   -1.7301 H   0  0  0  0  0  0  0  0  0  0  0  0
    6.5251    5.4540   -1.6211 H   0  0  0  0  0  0  0  0  0  0  0  0
  1  2  1  0
  2  3  1  0
  5  6  1  0
  6  7  1  0
  7  8  1  0
  9 10  1  0
 10 11  1  0
 12 13  1  0
  4 16  1  0
 16 17  1  0
  9 18  1  0
 18 19  1  0
  1 20  1  0
 19 20  1  0
  2 21  1  0
 19 21  1  0
  3 22  1  0
  7 23  1  0
 22 23  1  0
 23 24  1  0
  5 25  1  0
 24 25  1  0
 24 26  1  0
  3 27  1  0
 11 28  1  0
 12 28  1  0
  9 29  1  0
 12 29  1  0
 11 30  1  0
 14 30  1  0
 15 30  1  0
  4 31  1  0
 14 31  1  0
  4 32  1  0
 15 32  1  0
 17 33  1  0
 34 35  1  0
 35 36  1  0
 38 39  1  0
 39 40  1  0
 40 41  1  0
 42 43  1  0
 43 44  1  0
 45 46  1  0
 37 49  1  0
 49 50  1  0
 42 51  1  0
 51 52  1  0
 34 53  1  0
 52 53  1  0
 35 54  1  0
 52 54  1  0
 36 55  1  0
 40 56  1  0
 55 56  1  0
 56 57  1  0
 38 58  1  0
 57 58  1  0
 57 59  1  0
 36 60  1  0
 44 61  1  0
 45 61  1  0
 42 62  1  0
 45 62  1  0
 44 63  1  0
 47 63  1  0
 48 63  1  0
 37 64  1  0
 47 64  1  0
 37 65  1  0
 48 65  1  0
 50 66  1  0
  1 67  1  0
  1 68  1  0
  2 69  1  0
  3 70  1  0
  5 71  1  0
  5 72  1  0
  6 73  1  0
  6 74  1  0
  7 75  1  0
  8 76  1  0
  8 77  1  0
  8 78  1  0
  9 79  1  0
 10 80  1  0
 10 81  1  0
 11 82  1  0
 12 83  1  0
 13 84  1  0
 13 85  1  0
 13 86  1  0
 14 87  1  0
 14 88  1  0
 15 89  1  0
 15 90  1  0
 16 91  1  0
 16 92  1  0
 17 93  1  0
 17 94  1  0
 18 95  1  0
 19 96  1  1
 20 97  1  0
 22 98  1  0
 23 99  1  6
 24100  1  0
 25101  1  0
 25102  1  0
 27103  1  0
 28104  1  0
 29105  1  0
 31106  1  0
 31107  1  0
 32108  1  0
 32109  1  0
 33110  1  0
 34111  1  0
 34112  1  0
 35113  1  0
 36114  1  0
 38115  1  0
 38116  1  0
 39117  1  0
 39118  1  0
 40119  1  0
 41120  1  0
 41121  1  0
 41122  1  0
 42123  1  0
 43124  1  0
 43125  1  0
 44126  1  6
 45127  1  0
 46128  1  0
 46129  1  0
 46130  1  0
 47131  1  0
 47132  1  0
 48133  1  0
 48134  1  0
 49135  1  0
 49136  1  0
 50137  1  0
 50138  1  0
 51139  1  0
 52140  1  6
 53141  1  0
 55142  1  0
 56143  1  0
 57144  1  0
 58145  1  0
 58146  1  0
 60147  1  0
 61148  1  0
 62149  1  0
 64150  1  0
 64151  1  0
 65152  1  0
 65153  1  0
 66154  1  0
M  END
>  <PDBID>  (1) 
2GQG

>  <PDB ID>  (1) 
2GQG

>  <Generic Name>  (1) 
Dasatinib

>  <Brand Name>  (1) 
Sprycel

>  <DrugBank ID>  (1) 
DB01254

>  <ATC Codes>  (1) 
L01XE06

>  <Ligand ID>  (1) 
1N1

>  <Target Name>  (1) 
Tyrosine-protein kinase ABL1

>  <UniProt ID>  (1) 
P00519

>  <PDB ID.1>  (1) 
2GQG

>  <Seq. Identity>  (1) 
96%

$$$$
