PDB_DB00820_01
     RDKit          3D

132142  0  0  0  0  0  0  0  0999 V2000
   -4.3206   -2.7539   -0.3211 C   0  0  0  0  0  0  0  0  0  0  0  0
   -4.7031   -2.1201    0.9927 C   0  0  0  0  0  0  0  0  0  0  0  0
   -3.7916   -0.9891    1.3884 C   0  0  0  0  0  0  0  0  0  0  0  0
   -2.7181   -0.8751    0.3655 C   0  0  0  0  0  0  0  0  0  0  0  0
   -1.5251   -0.0986    0.7560 C   0  0  0  0  0  0  0  0  0  0  0  0
   -0.6245   -0.5152   -0.4270 C   0  0  0  0  0  0  0  0  0  0  0  0
   -0.8366   -1.9139   -0.4706 N   0  0  0  0  0  0  0  0  0  0  0  0
   -2.0223   -2.2489    0.2937 C   0  0  0  0  0  0  0  0  0  0  0  0
   -2.8964   -3.2596   -0.3281 C   0  0  0  0  0  0  0  0  0  0  0  0
    0.7209   -0.0038   -0.0988 C   0  0  2  0  0  0  0  0  0  0  0  0
    0.7368    1.4144   -0.0725 N   0  0  0  0  0  0  0  0  0  0  0  0
    0.7185    2.1375   -1.2617 C   0  0  0  0  0  0  0  0  0  0  0  0
    0.3796    1.3683   -2.4026 O   0  0  0  0  0  0  0  0  0  0  0  0
   -0.0510    3.4068   -1.3230 C   0  0  0  0  0  0  0  0  0  0  0  0
   -0.9866    3.6373   -0.2633 N   0  0  0  0  0  0  0  0  0  0  0  0
   -0.2649    3.3690    0.9931 C   0  0  0  0  0  0  0  0  0  0  0  0
   -1.1209    3.7008    2.0316 O   0  0  0  0  0  0  0  0  0  0  0  0
   -0.1582    1.8467    0.9819 C   0  0  1  0  0  0  0  0  0  0  0  0
   -1.5997    1.3661    0.7223 C   0  0  0  0  0  0  0  0  0  0  0  0
   -1.3063    5.0577   -0.2307 C   0  0  0  0  0  0  0  0  0  0  0  0
    1.8601   -0.6647   -0.8622 C   0  0  0  0  0  0  0  0  0  0  0  0
    1.8254   -2.1115   -0.5076 C   0  0  0  0  0  0  0  0  0  0  0  0
    3.1666   -2.7724   -0.3373 C   0  0  0  0  0  0  0  0  0  0  0  0
    4.0254   -1.8610    0.4615 C   0  0  0  0  0  0  0  0  0  0  0  0
    5.2886   -2.3011    0.7527 O   0  0  0  0  0  0  0  0  0  0  0  0
    6.0300   -1.1264    0.8828 C   0  0  0  0  0  0  0  0  0  0  0  0
    5.3954   -0.1395    0.1153 O   0  0  0  0  0  0  0  0  0  0  0  0
    4.3698   -0.7493   -0.5448 C   0  0  0  0  0  0  0  0  0  0  0  0
    3.1405    0.0441   -0.7653 C   0  0  0  0  0  0  0  0  0  0  0  0
   -4.3206   -2.7539   -0.3211 C   0  0  0  0  0  0  0  0  0  0  0  0
   -4.7031   -2.1201    0.9927 C   0  0  0  0  0  0  0  0  0  0  0  0
   -3.7916   -0.9891    1.3884 C   0  0  0  0  0  0  0  0  0  0  0  0
   -2.7181   -0.8751    0.3655 C   0  0  0  0  0  0  0  0  0  0  0  0
   -1.5251   -0.0986    0.7560 C   0  0  0  0  0  0  0  0  0  0  0  0
   -0.6245   -0.5152   -0.4270 C   0  0  0  0  0  0  0  0  0  0  0  0
   -0.8366   -1.9139   -0.4706 N   0  0  0  0  0  0  0  0  0  0  0  0
   -2.0223   -2.2489    0.2937 C   0  0  0  0  0  0  0  0  0  0  0  0
   -2.8964   -3.2596   -0.3281 C   0  0  0  0  0  0  0  0  0  0  0  0
    0.7209   -0.0038   -0.0988 C   0  0  2  0  0  0  0  0  0  0  0  0
    0.7368    1.4144   -0.0725 N   0  0  0  0  0  0  0  0  0  0  0  0
    0.7185    2.1375   -1.2617 C   0  0  0  0  0  0  0  0  0  0  0  0
    0.3796    1.3683   -2.4026 O   0  0  0  0  0  0  0  0  0  0  0  0
   -0.0510    3.4068   -1.3230 C   0  0  0  0  0  0  0  0  0  0  0  0
   -0.9866    3.6373   -0.2633 N   0  0  0  0  0  0  0  0  0  0  0  0
   -0.2649    3.3690    0.9931 C   0  0  0  0  0  0  0  0  0  0  0  0
   -1.1209    3.7008    2.0316 O   0  0  0  0  0  0  0  0  0  0  0  0
   -0.1582    1.8467    0.9819 C   0  0  1  0  0  0  0  0  0  0  0  0
   -1.5997    1.3661    0.7223 C   0  0  0  0  0  0  0  0  0  0  0  0
   -1.3063    5.0577   -0.2307 C   0  0  0  0  0  0  0  0  0  0  0  0
    1.8601   -0.6647   -0.8622 C   0  0  0  0  0  0  0  0  0  0  0  0
    1.8254   -2.1115   -0.5076 C   0  0  0  0  0  0  0  0  0  0  0  0
    3.1666   -2.7724   -0.3373 C   0  0  0  0  0  0  0  0  0  0  0  0
    4.0254   -1.8610    0.4615 C   0  0  0  0  0  0  0  0  0  0  0  0
    5.2886   -2.3011    0.7527 O   0  0  0  0  0  0  0  0  0  0  0  0
    6.0300   -1.1264    0.8828 C   0  0  0  0  0  0  0  0  0  0  0  0
    5.3954   -0.1395    0.1153 O   0  0  0  0  0  0  0  0  0  0  0  0
    4.3698   -0.7493   -0.5448 C   0  0  0  0  0  0  0  0  0  0  0  0
    3.1405    0.0441   -0.7653 C   0  0  0  0  0  0  0  0  0  0  0  0
   -4.4781   -2.0952   -1.1805 H   0  0  0  0  0  0  0  0  0  0  0  0
   -4.9729   -3.6431   -0.4498 H   0  0  0  0  0  0  0  0  0  0  0  0
   -4.7943   -2.8953    1.7715 H   0  0  0  0  0  0  0  0  0  0  0  0
   -5.7176   -1.6902    0.8576 H   0  0  0  0  0  0  0  0  0  0  0  0
   -3.3183   -1.2487    2.3588 H   0  0  0  0  0  0  0  0  0  0  0  0
   -4.3159   -0.0124    1.4651 H   0  0  0  0  0  0  0  0  0  0  0  0
   -3.0708   -0.6621   -0.6488 H   0  0  0  0  0  0  0  0  0  0  0  0
   -1.1179   -0.4983    1.7026 H   0  0  0  0  0  0  0  0  0  0  0  0
   -1.1074   -0.0566   -1.3078 H   0  0  0  0  0  0  0  0  0  0  0  0
   -1.0644   -2.2174   -1.4653 H   0  0  0  0  0  0  0  0  0  0  0  0
   -1.7170   -2.4639    1.3427 H   0  0  0  0  0  0  0  0  0  0  0  0
   -2.8971   -4.1739    0.3351 H   0  0  0  0  0  0  0  0  0  0  0  0
   -2.6385   -3.5862   -1.3331 H   0  0  0  0  0  0  0  0  0  0  0  0
    0.9154   -0.3228    0.9768 H   0  0  0  0  0  0  0  0  0  0  0  0
    1.7891    2.4438   -1.4873 H   0  0  0  0  0  0  0  0  0  0  0  0
   -0.3137    1.8196   -2.9440 H   0  0  0  0  0  0  0  0  0  0  0  0
   -0.6461    3.4832   -2.2823 H   0  0  0  0  0  0  0  0  0  0  0  0
    0.5952    4.3360   -1.3637 H   0  0  0  0  0  0  0  0  0  0  0  0
    0.7020    3.8657    1.0319 H   0  0  0  0  0  0  0  0  0  0  0  0
   -1.0774    3.0551    2.7854 H   0  0  0  0  0  0  0  0  0  0  0  0
    0.1573    1.4355    1.9408 H   0  0  0  0  0  0  0  0  0  0  0  0
   -2.2395    1.8386    1.4752 H   0  0  0  0  0  0  0  0  0  0  0  0
   -1.8441    1.6915   -0.3244 H   0  0  0  0  0  0  0  0  0  0  0  0
   -1.6169    5.4377   -1.2178 H   0  0  0  0  0  0  0  0  0  0  0  0
   -0.3422    5.5723    0.0514 H   0  0  0  0  0  0  0  0  0  0  0  0
   -2.0261    5.3014    0.5706 H   0  0  0  0  0  0  0  0  0  0  0  0
    1.5206   -0.6158   -1.9442 H   0  0  0  0  0  0  0  0  0  0  0  0
    1.3002   -2.2805    0.4821 H   0  0  0  0  0  0  0  0  0  0  0  0
    1.2603   -2.7384   -1.2300 H   0  0  0  0  0  0  0  0  0  0  0  0
    3.0372   -3.7255    0.1693 H   0  0  0  0  0  0  0  0  0  0  0  0
    3.6236   -2.9281   -1.3288 H   0  0  0  0  0  0  0  0  0  0  0  0
    3.5163   -1.3970    1.3271 H   0  0  0  0  0  0  0  0  0  0  0  0
    7.0748   -1.2625    0.5191 H   0  0  0  0  0  0  0  0  0  0  0  0
    5.9899   -0.8020    1.9284 H   0  0  0  0  0  0  0  0  0  0  0  0
    4.6803   -1.2457   -1.4945 H   0  0  0  0  0  0  0  0  0  0  0  0
    3.0649    0.7835    0.0873 H   0  0  0  0  0  0  0  0  0  0  0  0
    3.3578    0.6531   -1.6973 H   0  0  0  0  0  0  0  0  0  0  0  0
   -4.4781   -2.0952   -1.1805 H   0  0  0  0  0  0  0  0  0  0  0  0
   -4.9729   -3.6431   -0.4498 H   0  0  0  0  0  0  0  0  0  0  0  0
   -4.7943   -2.8953    1.7715 H   0  0  0  0  0  0  0  0  0  0  0  0
   -5.7176   -1.6902    0.8576 H   0  0  0  0  0  0  0  0  0  0  0  0
   -3.3183   -1.2487    2.3588 H   0  0  0  0  0  0  0  0  0  0  0  0
   -4.3159   -0.0124    1.4651 H   0  0  0  0  0  0  0  0  0  0  0  0
   -3.0708   -0.6621   -0.6488 H   0  0  0  0  0  0  0  0  0  0  0  0
   -1.1179   -0.4983    1.7026 H   0  0  0  0  0  0  0  0  0  0  0  0
   -1.1074   -0.0566   -1.3078 H   0  0  0  0  0  0  0  0  0  0  0  0
   -1.0644   -2.2174   -1.4653 H   0  0  0  0  0  0  0  0  0  0  0  0
   -1.7170   -2.4639    1.3427 H   0  0  0  0  0  0  0  0  0  0  0  0
   -2.8971   -4.1739    0.3351 H   0  0  0  0  0  0  0  0  0  0  0  0
   -2.6385   -3.5862   -1.3331 H   0  0  0  0  0  0  0  0  0  0  0  0
    0.9154   -0.3228    0.9768 H   0  0  0  0  0  0  0  0  0  0  0  0
    1.7891    2.4438   -1.4873 H   0  0  0  0  0  0  0  0  0  0  0  0
   -0.3137    1.8196   -2.9440 H   0  0  0  0  0  0  0  0  0  0  0  0
   -0.6461    3.4832   -2.2823 H   0  0  0  0  0  0  0  0  0  0  0  0
    0.5952    4.3360   -1.3637 H   0  0  0  0  0  0  0  0  0  0  0  0
    0.7020    3.8657    1.0319 H   0  0  0  0  0  0  0  0  0  0  0  0
   -1.0774    3.0551    2.7854 H   0  0  0  0  0  0  0  0  0  0  0  0
    0.1573    1.4355    1.9408 H   0  0  0  0  0  0  0  0  0  0  0  0
   -2.2395    1.8386    1.4752 H   0  0  0  0  0  0  0  0  0  0  0  0
   -1.8441    1.6915   -0.3244 H   0  0  0  0  0  0  0  0  0  0  0  0
   -1.6169    5.4377   -1.2178 H   0  0  0  0  0  0  0  0  0  0  0  0
   -0.3422    5.5723    0.0514 H   0  0  0  0  0  0  0  0  0  0  0  0
   -2.0261    5.3014    0.5706 H   0  0  0  0  0  0  0  0  0  0  0  0
    1.5206   -0.6158   -1.9442 H   0  0  0  0  0  0  0  0  0  0  0  0
    1.3002   -2.2805    0.4821 H   0  0  0  0  0  0  0  0  0  0  0  0
    1.2603   -2.7384   -1.2300 H   0  0  0  0  0  0  0  0  0  0  0  0
    3.0372   -3.7255    0.1693 H   0  0  0  0  0  0  0  0  0  0  0  0
    3.6236   -2.9281   -1.3288 H   0  0  0  0  0  0  0  0  0  0  0  0
    3.5163   -1.3970    1.3271 H   0  0  0  0  0  0  0  0  0  0  0  0
    7.0748   -1.2625    0.5191 H   0  0  0  0  0  0  0  0  0  0  0  0
    5.9899   -0.8020    1.9284 H   0  0  0  0  0  0  0  0  0  0  0  0
    4.6803   -1.2457   -1.4945 H   0  0  0  0  0  0  0  0  0  0  0  0
    3.0649    0.7835    0.0873 H   0  0  0  0  0  0  0  0  0  0  0  0
    3.3578    0.6531   -1.6973 H   0  0  0  0  0  0  0  0  0  0  0  0
  1  2  1  0
  2  3  1  0
  3  4  1  0
  4  5  1  0
  5  6  1  0
  6  7  1  0
  4  8  1  0
  7  8  1  0
  1  9  1  0
  8  9  1  0
  6 10  1  0
 10 11  1  0
 11 12  1  0
 12 13  1  0
 12 14  1  0
 14 15  1  0
 15 16  1  0
 16 17  1  0
 11 18  1  0
 16 18  1  0
  5 19  1  0
 18 19  1  0
 15 20  1  0
 10 21  1  0
 21 22  1  0
 22 23  1  0
 23 24  1  0
 24 25  1  0
 25 26  1  0
 26 27  1  0
 24 28  1  0
 27 28  1  0
 21 29  1  0
 28 29  1  0
 30 31  1  0
 31 32  1  0
 32 33  1  0
 33 34  1  0
 34 35  1  0
 35 36  1  0
 33 37  1  0
 36 37  1  0
 30 38  1  0
 37 38  1  0
 35 39  1  0
 39 40  1  0
 40 41  1  0
 41 42  1  0
 41 43  1  0
 43 44  1  0
 44 45  1  0
 45 46  1  0
 40 47  1  0
 45 47  1  0
 34 48  1  0
 47 48  1  0
 44 49  1  0
 39 50  1  0
 50 51  1  0
 51 52  1  0
 52 53  1  0
 53 54  1  0
 54 55  1  0
 55 56  1  0
 53 57  1  0
 56 57  1  0
 50 58  1  0
 57 58  1  0
  1 59  1  0
  1 60  1  0
  2 61  1  0
  2 62  1  0
  3 63  1  0
  3 64  1  0
  4 65  1  0
  5 66  1  0
  6 67  1  0
  7 68  1  0
  8 69  1  0
  9 70  1  0
  9 71  1  0
 10 72  1  1
 12 73  1  0
 13 74  1  0
 14 75  1  0
 14 76  1  0
 16 77  1  0
 17 78  1  0
 18 79  1  1
 19 80  1  0
 19 81  1  0
 20 82  1  0
 20 83  1  0
 20 84  1  0
 21 85  1  0
 22 86  1  0
 22 87  1  0
 23 88  1  0
 23 89  1  0
 24 90  1  0
 26 91  1  0
 26 92  1  0
 28 93  1  0
 29 94  1  0
 29 95  1  0
 30 96  1  0
 30 97  1  0
 31 98  1  0
 31 99  1  0
 32100  1  0
 32101  1  0
 33102  1  0
 34103  1  0
 35104  1  0
 36105  1  0
 37106  1  0
 38107  1  0
 38108  1  0
 39109  1  1
 41110  1  0
 42111  1  0
 43112  1  0
 43113  1  0
 45114  1  0
 46115  1  0
 47116  1  1
 48117  1  0
 48118  1  0
 49119  1  0
 49120  1  0
 49121  1  0
 50122  1  0
 51123  1  0
 51124  1  0
 52125  1  0
 52126  1  0
 53127  1  0
 55128  1  0
 55129  1  0
 57130  1  0
 58131  1  0
 58132  1  0
M  END
>  <PDBID>  (1) 
1UDU

>  <PDB ID>  (1) 
1UDU

>  <Generic Name>  (1) 
Tadalafil

>  <Brand Name>  (1) 
Act Tadalafil#Adcirca#Apo-tadalafil#Apo-tadalafil Pah#Auro-tadalafil#Cialis#Dom-tadalafil#Ipg-tadalafil#Jamp-tadalafil#Mar-tadalafil#Mint-tadalafil#Mylan-tadalafil#PMS-tadalafil#Priva-tadalafil#Ran-tadalafil#Riva-tadalafil#Tadalafil#Teva-tadalafil

>  <DrugBank ID>  (1) 
DB00820

>  <ATC Codes>  (1) 
G04BE08

>  <Ligand ID>  (1) 
CIA

>  <Target Name>  (1) 
cGMP-specific 3',5'-cyclic phosphodiesterase

>  <UniProt ID>  (1) 
O76074

>  <PDB ID.1>  (1) 
1UDU

>  <Seq. Identity>  (1) 
94%

$$$$
