PDB_DB09324_00
     RDKit          3D

 32 33  0  0  0  0  0  0  0  0999 V2000
   -1.3305   -0.0493   -1.7079 C   0  0  0  0  0  0  0  0  0  0  0  0
   -1.0586   -0.4294   -0.2902 C   0  0  0  0  0  0  0  0  0  0  0  0
   -2.1691   -1.0719    0.4229 C   0  0  0  0  0  0  0  0  0  0  0  0
    0.3326   -1.7399   -0.4103 S   0  0  0  0  0  0  0  0  0  0  0  0
    0.1264   -2.7727   -1.7626 O   0  0  0  0  0  0  0  0  0  0  0  0
    0.3679   -2.6863    1.1103 O   0  0  0  0  0  0  0  0  0  0  0  0
    1.5924   -0.5184   -0.5027 C   0  0  2  0  0  0  0  0  0  0  0  0
    2.5992   -0.5258    0.5875 C   0  0  0  0  0  0  0  0  0  0  0  0
    2.1377    0.8992    0.8165 C   0  0  0  0  0  0  0  0  0  0  0  0
    3.0707    1.7894    0.2644 O   0  0  0  0  0  0  0  0  0  0  0  0
    1.0198    0.7191   -0.1153 N   0  0  0  0  0  0  0  0  0  0  0  0
   -0.2435    0.5469    0.4741 C   0  0  1  0  0  0  0  0  0  0  0  0
   -0.9423    1.8867    0.5773 C   0  0  0  0  0  0  0  0  0  0  0  0
   -2.2097    1.7483    1.1629 O   0  0  0  0  0  0  0  0  0  0  0  0
   -1.0538    2.5231   -0.6576 O   0  0  0  0  0  0  0  0  0  0  0  0
   -1.2024   -0.9326   -2.3915 H   0  0  0  0  0  0  0  0  0  0  0  0
   -2.3893    0.2541   -1.8252 H   0  0  0  0  0  0  0  0  0  0  0  0
   -0.6482    0.7225   -2.0892 H   0  0  0  0  0  0  0  0  0  0  0  0
   -2.0778   -2.1894    0.3585 H   0  0  0  0  0  0  0  0  0  0  0  0
   -3.1394   -0.8389   -0.1014 H   0  0  0  0  0  0  0  0  0  0  0  0
   -2.2363   -0.8121    1.4964 H   0  0  0  0  0  0  0  0  0  0  0  0
    0.4860   -2.3108   -2.5781 H   0  0  0  0  0  0  0  0  0  0  0  0
    0.4833   -1.9875    1.8206 H   0  0  0  0  0  0  0  0  0  0  0  0
    2.0462   -0.4387   -1.5212 H   0  0  0  0  0  0  0  0  0  0  0  0
    2.3337   -1.2265    1.4024 H   0  0  0  0  0  0  0  0  0  0  0  0
    3.6434   -0.6184    0.2227 H   0  0  0  0  0  0  0  0  0  0  0  0
    1.8309    1.1362    1.8361 H   0  0  0  0  0  0  0  0  0  0  0  0
    3.0648    1.6176   -0.7297 H   0  0  0  0  0  0  0  0  0  0  0  0
   -0.1370    0.1703    1.5133 H   0  0  0  0  0  0  0  0  0  0  0  0
   -0.3685    2.5898    1.2301 H   0  0  0  0  0  0  0  0  0  0  0  0
   -2.0368    1.4966    2.1249 H   0  0  0  0  0  0  0  0  0  0  0  0
   -1.8919    3.0487   -0.7378 H   0  0  0  0  0  0  0  0  0  0  0  0
  2  1  1  0
  2  3  1  0
  2  4  1  0
  4  5  1  0
  4  6  1  0
  4  7  1  0
  7  8  1  0
  8  9  1  0
  9 10  1  0
  7 11  1  0
  9 11  1  0
  2 12  1  0
 11 12  1  0
 12 13  1  0
 13 14  1  0
 13 15  1  0
  1 16  1  0
  1 17  1  0
  1 18  1  0
  3 19  1  0
  3 20  1  0
  3 21  1  0
  5 22  1  0
  6 23  1  0
  7 24  1  6
  8 25  1  0
  8 26  1  0
  9 27  1  0
 10 28  1  0
 12 29  1  1
 13 30  1  0
 14 31  1  0
 15 32  1  0
M  END
>  <PDBID>  (1) 
4FH2

>  <PDB ID>  (1) 
4FH2

>  <Generic Name>  (1) 
Sulbactam

>  <Brand Name>  (1) 
Ampicillin Sodium and Sulbactam Sodium#Ampicillin and Sulbactam#Unasyn

>  <DrugBank ID>  (1) 
DB09324

>  <ATC Codes>  (1) 
J01CG01

>  <Ligand ID>  (1) 
0RN

>  <Target Name>  (1) 
Beta-lactamase

>  <UniProt ID>  (1) 
P00807

>  <PDB ID.1>  (1) 
4FH2

>  <Seq. Identity>  (1) 
31%

$$$$
