PDB_DB01197_00
     RDKit          3D

 33 33  0  0  0  0  0  0  0  0999 V2000
   -0.5645   -1.4310    1.4684 O   0  0  0  0  0  0  0  0  0  0  0  0
   -0.8343   -0.2628    0.7946 C   0  0  0  0  0  0  0  0  0  0  0  0
   -2.2008   -0.1927    0.2148 C   0  0  1  0  0  0  0  0  0  0  0  0
   -2.4254    1.1126   -0.5080 C   0  0  0  0  0  0  0  0  0  0  0  0
   -2.2403    2.5366    0.5833 S   0  0  0  0  0  0  0  0  0  0  0  0
   -2.6150   -1.3032   -0.6766 C   0  0  0  0  0  0  0  0  0  0  0  0
    0.2401    0.0130   -0.1409 N   0  0  0  0  0  0  0  0  0  0  0  0
    1.4753    0.1380    0.6064 C   0  0  2  0  0  0  0  0  0  0  0  0
    2.1573    1.4685    0.3442 C   0  0  0  0  0  0  0  0  0  0  0  0
    1.3935    2.5517    0.6868 O   0  0  0  0  0  0  0  0  0  0  0  0
    3.3349    1.4669    1.1001 O   0  0  0  0  0  0  0  0  0  0  0  0
    0.3873   -1.1715   -0.9727 C   0  0  0  0  0  0  0  0  0  0  0  0
    1.8792   -1.0884   -1.3324 C   0  0  0  0  0  0  0  0  0  0  0  0
    2.4263   -0.9250    0.0941 C   0  0  0  0  0  0  0  0  0  0  0  0
   -1.1699   -2.1715    1.2617 H   0  0  0  0  0  0  0  0  0  0  0  0
   -0.7711    0.5598    1.5666 H   0  0  0  0  0  0  0  0  0  0  0  0
   -2.9175   -0.1683    1.0893 H   0  0  0  0  0  0  0  0  0  0  0  0
   -3.4963    1.0976   -0.8521 H   0  0  0  0  0  0  0  0  0  0  0  0
   -1.7852    1.1975   -1.4027 H   0  0  0  0  0  0  0  0  0  0  0  0
   -2.8686    3.6480    0.0014 H   0  0  0  0  0  0  0  0  0  0  0  0
   -3.6896   -1.5937   -0.4740 H   0  0  0  0  0  0  0  0  0  0  0  0
   -2.6373   -1.0042   -1.7668 H   0  0  0  0  0  0  0  0  0  0  0  0
   -2.0443   -2.2248   -0.6245 H   0  0  0  0  0  0  0  0  0  0  0  0
    1.3280    0.0664    1.6956 H   0  0  0  0  0  0  0  0  0  0  0  0
    2.4725    1.5584   -0.7189 H   0  0  0  0  0  0  0  0  0  0  0  0
    1.8710    3.2038    1.2705 H   0  0  0  0  0  0  0  0  0  0  0  0
    3.2974    0.8320    1.8575 H   0  0  0  0  0  0  0  0  0  0  0  0
   -0.2516   -1.1885   -1.8479 H   0  0  0  0  0  0  0  0  0  0  0  0
    0.3211   -2.0733   -0.3160 H   0  0  0  0  0  0  0  0  0  0  0  0
    2.0045   -0.1772   -1.9269 H   0  0  0  0  0  0  0  0  0  0  0  0
    2.2346   -2.0061   -1.8014 H   0  0  0  0  0  0  0  0  0  0  0  0
    3.4641   -0.5978    0.1006 H   0  0  0  0  0  0  0  0  0  0  0  0
    2.2243   -1.8709    0.6259 H   0  0  0  0  0  0  0  0  0  0  0  0
  1  2  1  0
  2  3  1  0
  3  4  1  0
  4  5  1  0
  3  6  1  0
  2  7  1  0
  7  8  1  0
  8  9  1  0
  9 10  1  0
  9 11  1  0
  7 12  1  0
 12 13  1  0
  8 14  1  0
 13 14  1  0
  1 15  1  0
  2 16  1  0
  3 17  1  1
  4 18  1  0
  4 19  1  0
  5 20  1  0
  6 21  1  0
  6 22  1  0
  6 23  1  0
  8 24  1  1
  9 25  1  0
 10 26  1  0
 11 27  1  0
 12 28  1  0
 12 29  1  0
 13 30  1  0
 13 31  1  0
 14 32  1  0
 14 33  1  0
M  END
>  <PDBID>  (1) 
4C2P

>  <PDB ID>  (1) 
4C2P

>  <Generic Name>  (1) 
Captopril

>  <Brand Name>  (1) 
Apo-capto Tab 100mg#Apo-capto Tab 12.5mg#Apo-capto Tab 25mg#Apo-capto Tab 50mg#Apo-capto Tab 6.25mg#Bci Captopril Tablets#Capoten Tab 100mg#Capoten Tab 12.5mg#Capoten Tab 25mg#Capoten Tab 50mg#Captopril#Captopril Tablets#Captopril and Hydrochlorothiazide#Captopril-100 Tab 100mg#Captopril-12.5 Tab 12.5mg#Captopril-25 Tab 25mg#Captopril-50 Tab 50mg#Captril#Dom-captopril#Ftp-captopril#Med Captopril - Tab  12.5mg#Med Captopril - Tab 100mg#Med Captopril - Tab 25mg#Med Captopril - Tab 50mg#Mylan-captopril#Novo-captoril#Nu-capto Tab 100mg#Nu-capto Tab 12.5mg#Nu-capto Tab 25mg#Nu-capto Tab 50mg#Orb-captopril#PMS-captopril - Tab  12.5mg#PMS-captopril - Tab  25mg#PMS-captopril - Tab  50mg#PMS-captopril - Tab 100mg#Penta-captopril Tablets#Ratio-captopril Tab 100mg#Ratio-captopril Tab 12.5mg#Ratio-captopril Tab 25mg#Ratio-captopril Tab 50mg#Teva-captopril#Tria-captopril 100mg Tablet#Tria-captopril 12.5mg Tablet#Tria-captopril 25mg Tablet#Tria-captopril 50mg Tablet#Acepress#Acepril#Alopresin#Apopril#Capoten#Captolane#Captoril#Cesplon#Dilabar#Garranil#Hipertil#Hypertil#Lopirin#Lopril#Tenosbon#Tensoprel

>  <DrugBank ID>  (1) 
DB01197

>  <ATC Codes>  (1) 
C09AA01#C09BA01

>  <Ligand ID>  (1) 
X8Z

>  <Target Name>  (1) 
Angiotensin-converting enzyme

>  <UniProt ID>  (1) 
P12821

>  <PDB ID.1>  (1) 
4C2P

>  <Seq. Identity>  (1) 
100%

$$$$
