PDB_DB00705_07
     RDKit          3D

 78 81  0  0  0  0  0  0  0  0999 V2000
   -3.5828   -0.5774    1.3449 C   0  0  0  0  0  0  0  0  0  0  0  0
   -5.0286   -0.3915    1.0776 C   0  0  0  0  0  0  0  0  0  0  0  0
   -5.7127   -1.6492    0.5811 C   0  0  0  0  0  0  0  0  0  0  0  0
   -5.5119   -2.6917    1.6914 C   0  0  0  0  0  0  0  0  0  0  0  0
   -4.0232   -2.9461    1.7127 C   0  0  0  0  0  0  0  0  0  0  0  0
   -2.6404    0.9957   -0.2767 C   0  0  0  0  0  0  0  0  0  0  0  0
   -1.2598    1.3289   -0.8225 C   0  0  0  0  0  0  0  0  0  0  0  0
   -1.3063   -0.9239   -1.6095 C   0  0  0  0  0  0  0  0  0  0  0  0
   -2.1488   -1.3593   -0.4460 C   0  0  0  0  0  0  0  0  0  0  0  0
    0.5318   -0.1418   -0.2671 C   0  0  0  0  0  0  0  0  0  0  0  0
    1.5833    0.9339   -0.2206 C   0  0  0  0  0  0  0  0  0  0  0  0
    2.7893    0.4553    0.6101 C   0  0  0  0  0  0  0  0  0  0  0  0
    5.0420   -0.3477   -0.1478 C   0  0  0  0  0  0  0  0  0  0  0  0
    6.0641   -0.0577   -1.2257 C   0  0  0  0  0  0  0  0  0  0  0  0
    5.6258    0.9922   -2.1996 C   0  0  0  0  0  0  0  0  0  0  0  0
    4.2356    0.7715   -2.7330 C   0  0  0  0  0  0  0  0  0  0  0  0
    3.2837    0.3277   -1.6652 C   0  0  0  0  0  0  0  0  0  0  0  0
    3.9205    0.6505   -0.3282 C   0  0  0  0  0  0  0  0  0  0  0  0
   -6.6325    0.9143   -0.1905 C   0  0  0  0  0  0  0  0  0  0  0  0
   -7.4814    1.2139    1.0060 C   0  0  0  0  0  0  0  0  0  0  0  0
   -6.6569    2.1200   -1.1021 C   0  0  0  0  0  0  0  0  0  0  0  0
    7.9299    0.6344    2.0876 C   0  0  0  0  0  0  0  0  0  0  0  0
   -5.2531    0.7316    0.2304 N   0  0  0  0  0  0  0  0  0  0  0  0
   -3.2423   -1.8134    2.0069 N   0  0  0  0  0  0  0  0  0  0  0  0
   -2.7586   -0.2873    0.2518 N   0  0  0  0  0  0  0  0  0  0  0  0
   -0.4997    0.1945   -1.1595 N   0  0  0  0  0  0  0  0  0  0  0  0
    2.1013    1.1535   -1.5755 N   0  0  0  0  0  0  0  0  0  0  0  0
    7.2482    0.4325   -0.5410 N   0  0  0  0  0  0  0  0  0  0  0  0
    0.0647   -0.2849    1.0636 O   0  0  0  0  0  0  0  0  0  0  0  0
    9.7282   -0.1996    0.2600 O   0  0  0  0  0  0  0  0  0  0  0  0
    7.6468   -1.7720    0.9127 O   0  0  0  0  0  0  0  0  0  0  0  0
    8.0458   -0.2821    0.4541 S   0  0  0  0  0  0  0  0  0  0  0  0
   -3.3397    0.2149    2.1403 H   0  0  0  0  0  0  0  0  0  0  0  0
   -5.5576   -0.1558    2.0527 H   0  0  0  0  0  0  0  0  0  0  0  0
   -5.2888   -2.0565   -0.3386 H   0  0  0  0  0  0  0  0  0  0  0  0
   -6.7938   -1.4674    0.5384 H   0  0  0  0  0  0  0  0  0  0  0  0
   -6.0063   -3.6053    1.3557 H   0  0  0  0  0  0  0  0  0  0  0  0
   -5.8851   -2.2657    2.6229 H   0  0  0  0  0  0  0  0  0  0  0  0
   -3.7873   -3.4788    0.7672 H   0  0  0  0  0  0  0  0  0  0  0  0
   -3.8587   -3.7041    2.5168 H   0  0  0  0  0  0  0  0  0  0  0  0
   -3.3888    1.1716   -1.0723 H   0  0  0  0  0  0  0  0  0  0  0  0
   -2.8108    1.7583    0.5104 H   0  0  0  0  0  0  0  0  0  0  0  0
   -1.4279    1.9150   -1.7715 H   0  0  0  0  0  0  0  0  0  0  0  0
   -0.7157    2.0231   -0.1657 H   0  0  0  0  0  0  0  0  0  0  0  0
   -1.9015   -0.5489   -2.4680 H   0  0  0  0  0  0  0  0  0  0  0  0
   -0.6301   -1.7441   -1.8771 H   0  0  0  0  0  0  0  0  0  0  0  0
   -1.5183   -1.9432    0.2362 H   0  0  0  0  0  0  0  0  0  0  0  0
   -2.9680   -1.9892   -0.9026 H   0  0  0  0  0  0  0  0  0  0  0  0
    1.0153   -1.1060   -0.5691 H   0  0  0  0  0  0  0  0  0  0  0  0
    1.1734    1.8287    0.2365 H   0  0  0  0  0  0  0  0  0  0  0  0
    2.6406   -0.6345    0.8146 H   0  0  0  0  0  0  0  0  0  0  0  0
    2.8713    1.0398    1.5570 H   0  0  0  0  0  0  0  0  0  0  0  0
    4.5926   -1.3468   -0.3394 H   0  0  0  0  0  0  0  0  0  0  0  0
    5.4552   -0.3580    0.8659 H   0  0  0  0  0  0  0  0  0  0  0  0
    6.3067   -1.0111   -1.7446 H   0  0  0  0  0  0  0  0  0  0  0  0
    5.7103    1.9965   -1.7775 H   0  0  0  0  0  0  0  0  0  0  0  0
    6.3159    0.9334   -3.0738 H   0  0  0  0  0  0  0  0  0  0  0  0
    3.8691    1.7364   -3.1368 H   0  0  0  0  0  0  0  0  0  0  0  0
    4.2108    0.0477   -3.5868 H   0  0  0  0  0  0  0  0  0  0  0  0
    3.0123   -0.7252   -1.7084 H   0  0  0  0  0  0  0  0  0  0  0  0
    4.2764    1.7007   -0.3339 H   0  0  0  0  0  0  0  0  0  0  0  0
   -7.0031    0.0601   -0.7871 H   0  0  0  0  0  0  0  0  0  0  0  0
   -7.0148    2.1242    1.4900 H   0  0  0  0  0  0  0  0  0  0  0  0
   -8.4949    1.5638    0.7136 H   0  0  0  0  0  0  0  0  0  0  0  0
   -7.4969    0.4359    1.7636 H   0  0  0  0  0  0  0  0  0  0  0  0
   -6.3810    1.7628   -2.1362 H   0  0  0  0  0  0  0  0  0  0  0  0
   -7.6100    2.6552   -1.0875 H   0  0  0  0  0  0  0  0  0  0  0  0
   -5.7999    2.7989   -0.8299 H   0  0  0  0  0  0  0  0  0  0  0  0
    7.7503    1.6876    1.7933 H   0  0  0  0  0  0  0  0  0  0  0  0
    7.0521    0.1780    2.5907 H   0  0  0  0  0  0  0  0  0  0  0  0
    8.8709    0.4563    2.6031 H   0  0  0  0  0  0  0  0  0  0  0  0
   -5.0899    1.5909    0.8599 H   0  0  0  0  0  0  0  0  0  0  0  0
   -2.8471   -1.7330    2.9416 H   0  0  0  0  0  0  0  0  0  0  0  0
    1.3672    0.8848   -2.2689 H   0  0  0  0  0  0  0  0  0  0  0  0
    7.2019    1.4838   -0.5874 H   0  0  0  0  0  0  0  0  0  0  0  0
    0.6501    0.1626    1.7068 H   0  0  0  0  0  0  0  0  0  0  0  0
    9.9274   -0.0585   -0.6981 H   0  0  0  0  0  0  0  0  0  0  0  0
    7.2444   -1.8042    1.8033 H   0  0  0  0  0  0  0  0  0  0  0  0
  1  2  1  0
  2  3  1  0
  3  4  1  0
  4  5  1  0
  6  7  1  0
  8  9  1  0
 10 11  1  0
 11 12  1  0
 13 14  1  0
 14 15  1  0
 15 16  1  0
 16 17  1  0
 12 18  1  0
 13 18  1  0
 17 18  1  0
 19 20  1  0
 19 21  1  0
  2 23  1  0
 19 23  1  0
  1 24  1  0
  5 24  1  0
  1 25  1  0
  6 25  1  0
  9 25  1  0
  7 26  1  0
  8 26  1  0
 10 26  1  0
 11 27  1  0
 17 27  1  0
 14 28  1  0
 10 29  1  0
 22 32  1  0
 28 32  1  0
 32 30  1  0
 31 32  1  0
  1 33  1  0
  2 34  1  0
  3 35  1  0
  3 36  1  0
  4 37  1  0
  4 38  1  0
  5 39  1  0
  5 40  1  0
  6 41  1  0
  6 42  1  0
  7 43  1  0
  7 44  1  0
  8 45  1  0
  8 46  1  0
  9 47  1  0
  9 48  1  0
 10 49  1  0
 11 50  1  0
 12 51  1  0
 12 52  1  0
 13 53  1  0
 13 54  1  0
 14 55  1  0
 15 56  1  0
 15 57  1  0
 16 58  1  0
 16 59  1  0
 17 60  1  0
 18 61  1  0
 19 62  1  0
 20 63  1  0
 20 64  1  0
 20 65  1  0
 21 66  1  0
 21 67  1  0
 21 68  1  0
 22 69  1  0
 22 70  1  0
 22 71  1  0
 23 72  1  0
 24 73  1  0
 27 74  1  0
 28 75  1  0
 29 76  1  0
 30 77  1  0
 31 78  1  0
M  END
>  <PDBID>  (1) 
1KLM

>  <PDB ID>  (1) 
1KLM

>  <Generic Name>  (1) 
Delavirdine

>  <Brand Name>  (1) 
Rescriptor

>  <DrugBank ID>  (1) 
DB00705

>  <ATC Codes>  (1) 
J05AG02

>  <Ligand ID>  (1) 
SPP

>  <Target Name>  (1) 
Reverse transcriptase/RNaseH

>  <UniProt ID>  (1) 
Q72547

>  <PDB ID.1>  (1) 
1KLM

>  <Seq. Identity>  (1) 
95%

$$$$
