PDB_DB01113_00
     RDKit          3D

 62 64  0  0  0  0  0  0  0  0999 V2000
    4.5135   -2.6789    1.4278 C   0  0  0  0  0  0  0  0  0  0  0  0
    4.4846   -1.3206    1.7026 O   0  0  0  0  0  0  0  0  0  0  0  0
    3.6775   -0.6132    0.8359 C   0  0  0  0  0  0  0  0  0  0  0  0
    4.5261    0.4124    0.1127 C   0  0  0  0  0  0  0  0  0  0  0  0
    5.5218   -0.2862   -0.5437 O   0  0  0  0  0  0  0  0  0  0  0  0
    6.7822   -0.1009   -0.0164 C   0  0  0  0  0  0  0  0  0  0  0  0
    3.7343    1.3297   -0.7271 C   0  0  0  0  0  0  0  0  0  0  0  0
    2.2686    1.3178   -0.6264 C   0  0  0  0  0  0  0  0  0  0  0  0
    2.6504    0.2342    1.6042 C   0  0  0  0  0  0  0  0  0  0  0  0
    1.6450    0.6071    0.5040 C   0  0  0  0  0  0  0  0  0  0  0  0
    0.4837    1.2416    1.1627 C   0  0  0  0  0  0  0  0  0  0  0  0
   -0.7130    1.4882    0.2671 C   0  0  0  0  0  0  0  0  0  0  0  0
   -0.4488    2.3315   -0.8294 N   0  0  0  0  0  0  0  0  0  0  0  0
   -1.0191    2.0854   -2.0823 C   0  0  0  0  0  0  0  0  0  0  0  0
   -1.2684    0.6752   -2.4535 C   0  0  0  0  0  0  0  0  0  0  0  0
   -1.9926   -0.0010   -1.3422 C   0  0  0  0  0  0  0  0  0  0  0  0
   -1.4369    0.2130    0.0092 C   0  0  0  0  0  0  0  0  0  0  0  0
   -2.5827   -0.0053    1.0095 C   0  0  0  0  0  0  0  0  0  0  0  0
   -3.4613   -1.1163    0.4854 C   0  0  0  0  0  0  0  0  0  0  0  0
   -4.2573   -1.6605    1.4942 O   0  0  0  0  0  0  0  0  0  0  0  0
   -4.0250   -3.0310    1.5963 C   0  0  0  0  0  0  0  0  0  0  0  0
   -4.3339   -0.5045   -0.6133 C   0  0  0  0  0  0  0  0  0  0  0  0
   -3.4625    0.4055   -1.4258 C   0  0  0  0  0  0  0  0  0  0  0  0
   -5.3114    0.3066    0.0006 O   0  0  0  0  0  0  0  0  0  0  0  0
   -6.5908   -0.0982   -0.3644 C   0  0  0  0  0  0  0  0  0  0  0  0
    3.4600   -3.0460    1.5211 H   0  0  0  0  0  0  0  0  0  0  0  0
    4.9490   -2.9082    0.4293 H   0  0  0  0  0  0  0  0  0  0  0  0
    5.1410   -3.1587    2.2064 H   0  0  0  0  0  0  0  0  0  0  0  0
    3.1851   -1.2219    0.0680 H   0  0  0  0  0  0  0  0  0  0  0  0
    5.0578    0.9696    0.9429 H   0  0  0  0  0  0  0  0  0  0  0  0
    6.8709   -0.4131    1.0426 H   0  0  0  0  0  0  0  0  0  0  0  0
    7.4720   -0.7645   -0.5861 H   0  0  0  0  0  0  0  0  0  0  0  0
    7.1476    0.9325   -0.1876 H   0  0  0  0  0  0  0  0  0  0  0  0
    4.1286    2.3763   -0.5403 H   0  0  0  0  0  0  0  0  0  0  0  0
    4.0196    1.1680   -1.8115 H   0  0  0  0  0  0  0  0  0  0  0  0
    1.8169    0.9489   -1.5962 H   0  0  0  0  0  0  0  0  0  0  0  0
    1.9019    2.3883   -0.5850 H   0  0  0  0  0  0  0  0  0  0  0  0
    2.1692   -0.4032    2.3500 H   0  0  0  0  0  0  0  0  0  0  0  0
    3.1441    1.1246    2.0104 H   0  0  0  0  0  0  0  0  0  0  0  0
    1.2986   -0.4061    0.1338 H   0  0  0  0  0  0  0  0  0  0  0  0
    0.8359    2.1947    1.6471 H   0  0  0  0  0  0  0  0  0  0  0  0
    0.1635    0.5949    2.0055 H   0  0  0  0  0  0  0  0  0  0  0  0
   -1.4093    2.0921    0.9376 H   0  0  0  0  0  0  0  0  0  0  0  0
   -0.4540    3.3454   -0.5805 H   0  0  0  0  0  0  0  0  0  0  0  0
   -2.0066    2.6319   -2.1424 H   0  0  0  0  0  0  0  0  0  0  0  0
   -0.3944    2.5705   -2.8841 H   0  0  0  0  0  0  0  0  0  0  0  0
   -1.9418    0.6475   -3.3543 H   0  0  0  0  0  0  0  0  0  0  0  0
   -0.3025    0.1776   -2.7069 H   0  0  0  0  0  0  0  0  0  0  0  0
   -1.9454   -1.1073   -1.5728 H   0  0  0  0  0  0  0  0  0  0  0  0
   -0.7238   -0.6307    0.2523 H   0  0  0  0  0  0  0  0  0  0  0  0
   -3.1649    0.9511    0.9907 H   0  0  0  0  0  0  0  0  0  0  0  0
   -2.2186   -0.1667    2.0264 H   0  0  0  0  0  0  0  0  0  0  0  0
   -2.8593   -1.9299    0.0402 H   0  0  0  0  0  0  0  0  0  0  0  0
   -2.9505   -3.1486    1.8376 H   0  0  0  0  0  0  0  0  0  0  0  0
   -4.1538   -3.4913    0.5835 H   0  0  0  0  0  0  0  0  0  0  0  0
   -4.6798   -3.5024    2.3286 H   0  0  0  0  0  0  0  0  0  0  0  0
   -4.7898   -1.2843   -1.2501 H   0  0  0  0  0  0  0  0  0  0  0  0
   -3.7536    0.3620   -2.4923 H   0  0  0  0  0  0  0  0  0  0  0  0
   -3.5026    1.4686   -1.0966 H   0  0  0  0  0  0  0  0  0  0  0  0
   -7.2969    0.5825    0.1541 H   0  0  0  0  0  0  0  0  0  0  0  0
   -6.7850   -0.0577   -1.4378 H   0  0  0  0  0  0  0  0  0  0  0  0
   -6.8127   -1.1185    0.0171 H   0  0  0  0  0  0  0  0  0  0  0  0
  1  2  1  0
  2  3  1  0
  3  4  1  0
  4  5  1  0
  5  6  1  0
  4  7  1  0
  7  8  1  0
  3  9  1  0
  8 10  1  0
  9 10  1  0
 10 11  1  0
 11 12  1  0
 12 13  1  0
 13 14  1  0
 14 15  1  0
 15 16  1  0
 12 17  1  0
 16 17  1  0
 17 18  1  0
 18 19  1  0
 19 20  1  0
 20 21  1  0
 19 22  1  0
 16 23  1  0
 22 23  1  0
 22 24  1  0
 24 25  1  0
  1 26  1  0
  1 27  1  0
  1 28  1  0
  3 29  1  0
  4 30  1  0
  6 31  1  0
  6 32  1  0
  6 33  1  0
  7 34  1  0
  7 35  1  0
  8 36  1  0
  8 37  1  0
  9 38  1  0
  9 39  1  0
 10 40  1  0
 11 41  1  0
 11 42  1  0
 12 43  1  0
 13 44  1  0
 14 45  1  0
 14 46  1  0
 15 47  1  0
 15 48  1  0
 16 49  1  0
 17 50  1  0
 18 51  1  0
 18 52  1  0
 19 53  1  0
 21 54  1  0
 21 55  1  0
 21 56  1  0
 22 57  1  0
 23 58  1  0
 23 59  1  0
 25 60  1  0
 25 61  1  0
 25 62  1  0
M  END
>  <PDBID>  (1) 
3IAK

>  <PDB ID>  (1) 
3IAK

>  <Generic Name>  (1) 
Papaverine

>  <Brand Name>  (1) 
Papaverine Hydrochloride#Papaverine Hydrochloride Injection USP#Alapav#Albatran#Artegodan#Cardioverina#Cerebid#Cerespan#Delapav#Dilaves#Dispamil#Drapavel#Durapav#Dynovas#Mesotina#Myobid#Optenyl#Pameion#Pamelon#Panergon#Papacon#Papalease#Papaversan#Papital T.R.#Paptial T.R.#Pavabid#Pavacap#Pavacen#Pavadel#Pavagen#Pavakey#Pavased#Pavatest#Paverolan#Paveron#Pavnell#Qua Bid#Ro-Papav#Therapav#Vasal#Vaso-Pav

>  <DrugBank ID>  (1) 
DB01113

>  <ATC Codes>  (1) 
G04BE52#G04BE02#A03AD01

>  <Ligand ID>  (1) 
EV1

>  <Target Name>  (1) 
cAMP-specific 3',5'-cyclic phosphodiesterase 4B

>  <UniProt ID>  (1) 
Q07343

>  <PDB ID.1>  (1) 
3IAK

>  <Seq. Identity>  (1) 
85%

$$$$
