PDB_DB00302_09
     RDKit          3D

 56 56  0  0  0  0  0  0  0  0999 V2000
   -1.3713   -0.1794   -0.4839 C   0  0  0  0  0  0  0  0  0  0  0  0
   -0.8382    1.0994    0.1294 C   0  0  0  0  0  0  0  0  0  0  0  0
    0.6284    1.1522   -0.3201 C   0  0  0  0  0  0  0  0  0  0  0  0
    1.3568    0.1175    0.4761 C   0  0  0  0  0  0  0  0  0  0  0  0
    0.6399   -1.1533    0.6821 C   0  0  0  0  0  0  0  0  0  0  0  0
   -0.5851   -1.3805   -0.1287 C   0  0  0  0  0  0  0  0  0  0  0  0
    2.7196   -0.1627   -0.1755 C   0  0  0  0  0  0  0  0  0  0  0  0
   -2.8457   -0.3349   -0.1372 C   0  0  0  0  0  0  0  0  0  0  0  0
    3.5494    0.9633   -0.2544 N   0  0  0  0  0  0  0  0  0  0  0  0
   -3.0527   -0.3932    1.2375 O   0  0  0  0  0  0  0  0  0  0  0  0
   -3.5799    0.7183   -0.6875 O   0  0  0  0  0  0  0  0  0  0  0  0
   -1.3713   -0.1794   -0.4839 C   0  0  0  0  0  0  0  0  0  0  0  0
   -0.8382    1.0994    0.1294 C   0  0  0  0  0  0  0  0  0  0  0  0
    0.6284    1.1522   -0.3201 C   0  0  0  0  0  0  0  0  0  0  0  0
    1.3568    0.1175    0.4761 C   0  0  0  0  0  0  0  0  0  0  0  0
    0.6399   -1.1533    0.6821 C   0  0  0  0  0  0  0  0  0  0  0  0
   -0.5851   -1.3805   -0.1287 C   0  0  0  0  0  0  0  0  0  0  0  0
    2.7196   -0.1627   -0.1755 C   0  0  0  0  0  0  0  0  0  0  0  0
   -2.8457   -0.3349   -0.1372 C   0  0  0  0  0  0  0  0  0  0  0  0
    3.5494    0.9633   -0.2544 N   0  0  0  0  0  0  0  0  0  0  0  0
   -3.0527   -0.3932    1.2375 O   0  0  0  0  0  0  0  0  0  0  0  0
   -3.5799    0.7183   -0.6875 O   0  0  0  0  0  0  0  0  0  0  0  0
   -1.3551   -0.0025   -1.6002 H   0  0  0  0  0  0  0  0  0  0  0  0
   -1.3992    1.9573   -0.2733 H   0  0  0  0  0  0  0  0  0  0  0  0
   -0.8499    1.0447    1.2335 H   0  0  0  0  0  0  0  0  0  0  0  0
    1.0093    2.1614   -0.0733 H   0  0  0  0  0  0  0  0  0  0  0  0
    0.7099    0.9804   -1.4121 H   0  0  0  0  0  0  0  0  0  0  0  0
    1.6262    0.6127    1.4564 H   0  0  0  0  0  0  0  0  0  0  0  0
    0.3816   -1.2404    1.7760 H   0  0  0  0  0  0  0  0  0  0  0  0
    1.3219   -2.0222    0.4933 H   0  0  0  0  0  0  0  0  0  0  0  0
   -0.3542   -1.9505   -1.0654 H   0  0  0  0  0  0  0  0  0  0  0  0
   -1.2547   -2.0702    0.4561 H   0  0  0  0  0  0  0  0  0  0  0  0
    2.6153   -0.6355   -1.1572 H   0  0  0  0  0  0  0  0  0  0  0  0
    3.1925   -0.9370    0.4913 H   0  0  0  0  0  0  0  0  0  0  0  0
   -3.2660   -1.2639   -0.5703 H   0  0  0  0  0  0  0  0  0  0  0  0
    3.7714    1.4802    0.5787 H   0  0  0  0  0  0  0  0  0  0  0  0
    3.9210    1.2490   -1.1451 H   0  0  0  0  0  0  0  0  0  0  0  0
   -3.1210   -1.3391    1.5210 H   0  0  0  0  0  0  0  0  0  0  0  0
   -3.5703    1.5291   -0.1004 H   0  0  0  0  0  0  0  0  0  0  0  0
   -1.3551   -0.0025   -1.6002 H   0  0  0  0  0  0  0  0  0  0  0  0
   -1.3992    1.9573   -0.2733 H   0  0  0  0  0  0  0  0  0  0  0  0
   -0.8499    1.0447    1.2335 H   0  0  0  0  0  0  0  0  0  0  0  0
    1.0093    2.1614   -0.0733 H   0  0  0  0  0  0  0  0  0  0  0  0
    0.7099    0.9804   -1.4121 H   0  0  0  0  0  0  0  0  0  0  0  0
    1.6262    0.6127    1.4564 H   0  0  0  0  0  0  0  0  0  0  0  0
    0.3816   -1.2404    1.7760 H   0  0  0  0  0  0  0  0  0  0  0  0
    1.3219   -2.0222    0.4933 H   0  0  0  0  0  0  0  0  0  0  0  0
   -0.3542   -1.9505   -1.0654 H   0  0  0  0  0  0  0  0  0  0  0  0
   -1.2547   -2.0702    0.4561 H   0  0  0  0  0  0  0  0  0  0  0  0
    2.6153   -0.6355   -1.1572 H   0  0  0  0  0  0  0  0  0  0  0  0
    3.1925   -0.9370    0.4913 H   0  0  0  0  0  0  0  0  0  0  0  0
   -3.2660   -1.2639   -0.5703 H   0  0  0  0  0  0  0  0  0  0  0  0
    3.7714    1.4802    0.5787 H   0  0  0  0  0  0  0  0  0  0  0  0
    3.9210    1.2490   -1.1451 H   0  0  0  0  0  0  0  0  0  0  0  0
   -3.1210   -1.3391    1.5210 H   0  0  0  0  0  0  0  0  0  0  0  0
   -3.5703    1.5291   -0.1004 H   0  0  0  0  0  0  0  0  0  0  0  0
  1  2  1  0
  2  3  1  0
  3  4  1  0
  4  5  1  0
  1  6  1  0
  5  6  1  0
  4  7  1  0
  1  8  1  0
  7  9  1  0
  8 10  1  0
  8 11  1  0
 12 13  1  0
 13 14  1  0
 14 15  1  0
 15 16  1  0
 12 17  1  0
 16 17  1  0
 15 18  1  0
 12 19  1  0
 18 20  1  0
 19 21  1  0
 19 22  1  0
  1 23  1  0
  2 24  1  0
  2 25  1  0
  3 26  1  0
  3 27  1  0
  4 28  1  0
  5 29  1  0
  5 30  1  0
  6 31  1  0
  6 32  1  0
  7 33  1  0
  7 34  1  0
  8 35  1  0
  9 36  1  0
  9 37  1  0
 10 38  1  0
 11 39  1  0
 12 40  1  0
 13 41  1  0
 13 42  1  0
 14 43  1  0
 14 44  1  0
 15 45  1  0
 16 46  1  0
 16 47  1  0
 17 48  1  0
 17 49  1  0
 18 50  1  0
 18 51  1  0
 19 52  1  0
 20 53  1  0
 20 54  1  0
 21 55  1  0
 22 56  1  0
M  END
>  <PDBID>  (1) 
1CEB

>  <PDB ID>  (1) 
1CEB

>  <Generic Name>  (1) 
Tranexamic Acid

>  <Brand Name>  (1) 
Cyklokapron#Cyklokapron 100 mg/ml#Cyklokapron 500 mg#Erfa-tranexamic#Gd-tranexamic Acid#Lysteda#Pure Whitenol Serum#Tranexamic Acid#Tranexamic Acid Injection#Tranexamic Acid Injection BP#Tranexamic Acid Tablets#Tranexamic Acid Tranexamic Acid#Cyclo-F#Espercil#Femstrual#Rikavarin#Transamin#Transcam#Traxyl

>  <DrugBank ID>  (1) 
DB00302

>  <ATC Codes>  (1) 
B02AA02

>  <Ligand ID>  (1) 
AMH

>  <Target Name>  (1) 
Plasminogen

>  <UniProt ID>  (1) 
P00747

>  <PDB ID.1>  (1) 
1CEB

>  <Seq. Identity>  (1) 
100%

$$$$
