PDB_DB00148_03
     RDKit          3D

 22 21  0  0  0  0  0  0  0  0999 V2000
   -2.5709   -1.0786   -0.1377 O   0  0  0  0  0  0  0  0  0  0  0  0
   -2.1996    0.2439   -0.2686 C   0  0  0  0  0  0  0  0  0  0  0  0
   -2.5177    1.0100    0.8370 O   0  0  0  0  0  0  0  0  0  0  0  0
   -0.7505    0.4553   -0.5803 C   0  0  0  0  0  0  0  0  0  0  0  0
    0.1223   -0.0940    0.4266 N   0  0  0  0  0  0  0  0  0  0  0  0
    0.1561   -1.5109    0.5029 C   0  0  0  0  0  0  0  0  0  0  0  0
    1.4005    0.5132    0.2718 C   0  0  0  0  0  0  0  0  0  0  0  0
    2.4304   -0.0239    1.1275 N   0  0  0  0  0  0  0  0  0  0  0  0
    1.8185    0.3606   -1.1020 N   0  0  0  0  0  0  0  0  0  0  0  0
   -3.4470   -1.2283   -0.5707 H   0  0  0  0  0  0  0  0  0  0  0  0
   -2.7666    0.7011   -1.1436 H   0  0  0  0  0  0  0  0  0  0  0  0
   -2.9556    1.8844    0.6020 H   0  0  0  0  0  0  0  0  0  0  0  0
   -0.4786    0.0317   -1.5958 H   0  0  0  0  0  0  0  0  0  0  0  0
   -0.5973    1.5460   -0.6828 H   0  0  0  0  0  0  0  0  0  0  0  0
    0.1033   -1.9708   -0.5267 H   0  0  0  0  0  0  0  0  0  0  0  0
    1.1030   -1.8564    0.9922 H   0  0  0  0  0  0  0  0  0  0  0  0
   -0.6608   -1.9853    1.0879 H   0  0  0  0  0  0  0  0  0  0  0  0
    1.3054    1.6026    0.5209 H   0  0  0  0  0  0  0  0  0  0  0  0
    3.3479    0.2823    0.7394 H   0  0  0  0  0  0  0  0  0  0  0  0
    2.3816    0.3274    2.0974 H   0  0  0  0  0  0  0  0  0  0  0  0
    2.3268    1.2511   -1.3499 H   0  0  0  0  0  0  0  0  0  0  0  0
    2.4486   -0.4616   -1.2476 H   0  0  0  0  0  0  0  0  0  0  0  0
  1  2  1  0
  2  3  1  0
  2  4  1  0
  4  5  1  0
  5  6  1  0
  5  7  1  0
  7  8  1  0
  7  9  1  0
  1 10  1  0
  2 11  1  0
  3 12  1  0
  4 13  1  0
  4 14  1  0
  6 15  1  0
  6 16  1  0
  6 17  1  0
  7 18  1  0
  8 19  1  0
  8 20  1  0
  9 21  1  0
  9 22  1  0
M  END
>  <PDBID>  (1) 
3B6R

>  <PDB ID>  (1) 
3B6R

>  <Generic Name>  (1) 
Creatine

>  <Brand Name>  (1) 
nan

>  <DrugBank ID>  (1) 
DB00148

>  <ATC Codes>  (1) 
nan

>  <Ligand ID>  (1) 
CRN

>  <Target Name>  (1) 
Creatine kinase B-type

>  <UniProt ID>  (1) 
P12277

>  <PDB ID.1>  (1) 
3B6R

>  <Seq. Identity>  (1) 
96%

$$$$
