PDB_DB08864_09
     RDKit          3D

 74 76  0  0  0  0  0  0  0  0999 V2000
   -3.0701    0.0053    0.8122 C   0  0  0  0  0  0  0  0  0  0  0  0
    2.2905    0.7852    0.9480 N   0  0  0  0  0  0  0  0  0  0  0  0
   -5.0345    0.0327   -0.7955 C   0  0  0  0  0  0  0  0  0  0  0  0
   -4.4645   -1.1789   -1.4357 C   0  0  0  0  0  0  0  0  0  0  0  0
   -3.0576   -1.5503   -1.1477 C   0  0  0  0  0  0  0  0  0  0  0  0
   -2.3808   -0.3953   -0.4350 C   0  0  0  0  0  0  0  0  0  0  0  0
   -3.2576   -1.0332    1.8714 C   0  0  0  0  0  0  0  0  0  0  0  0
   -4.4490    0.5368    0.4455 C   0  0  0  0  0  0  0  0  0  0  0  0
   -2.9907   -2.8639   -0.4845 C   0  0  0  0  0  0  0  0  0  0  0  0
   -1.0247   -0.2707   -0.6222 N   0  0  0  0  0  0  0  0  0  0  0  0
    0.9832    0.9223    1.5340 C   0  0  0  0  0  0  0  0  0  0  0  0
    0.2790   -0.4140    1.4356 C   0  0  0  0  0  0  0  0  0  0  0  0
    0.0482   -0.8177    0.0055 C   0  0  0  0  0  0  0  0  0  0  0  0
    1.2607   -0.5214   -0.7558 N   0  0  0  0  0  0  0  0  0  0  0  0
    2.4262   -0.3375    0.0706 C   0  0  1  0  0  0  0  0  0  0  0  0
    3.4942   -0.1065   -0.8352 N   0  0  0  0  0  0  0  0  0  0  0  0
    7.4500    0.1134    0.0080 C   0  0  0  0  0  0  0  0  0  0  0  0
    6.6950    1.2035    0.6829 C   0  0  0  0  0  0  0  0  0  0  0  0
    5.1915    1.1575    0.4813 C   0  0  0  0  0  0  0  0  0  0  0  0
    4.8044    0.0388   -0.3995 C   0  0  0  0  0  0  0  0  0  0  0  0
    5.6671    0.1586   -1.6681 C   0  0  0  0  0  0  0  0  0  0  0  0
    7.1000   -0.1353   -1.4195 C   0  0  0  0  0  0  0  0  0  0  0  0
    9.0164    1.8248   -0.7537 N   0  0  0  0  0  0  0  0  0  0  0  0
    8.9215    0.5626   -0.0116 C   0  0  0  0  0  0  0  0  0  0  0  0
   -7.2861    0.8962   -0.0081 C   0  0  0  0  0  0  0  0  0  0  0  0
   -6.5198   -0.2152   -0.6264 C   0  0  0  0  0  0  0  0  0  0  0  0
   -9.4628    1.6854    0.7461 N   0  0  0  0  0  0  0  0  0  0  0  0
   -8.7612    0.5724    0.1356 C   0  0  0  0  0  0  0  0  0  0  0  0
   -5.1174   -2.0850   -1.2499 H   0  0  0  0  0  0  0  0  0  0  0  0
   -3.2531   -0.5342    2.8901 H   0  0  0  0  0  0  0  0  0  0  0  0
   -4.2798   -1.4543    1.7938 H   0  0  0  0  0  0  0  0  0  0  0  0
   -2.5180   -1.8117    1.9318 H   0  0  0  0  0  0  0  0  0  0  0  0
   -4.3568    1.6575    0.4359 H   0  0  0  0  0  0  0  0  0  0  0  0
   -3.0548   -3.6332   -1.3205 H   0  0  0  0  0  0  0  0  0  0  0  0
   -3.8589   -3.1300    0.1498 H   0  0  0  0  0  0  0  0  0  0  0  0
   -2.0072   -3.1112   -0.0098 H   0  0  0  0  0  0  0  0  0  0  0  0
   -0.7058    0.3903   -1.3893 H   0  0  0  0  0  0  0  0  0  0  0  0
    0.4141    1.7314    1.0319 H   0  0  0  0  0  0  0  0  0  0  0  0
    0.9768   -1.1654    1.9113 H   0  0  0  0  0  0  0  0  0  0  0  0
    3.4483   -0.7193   -1.6793 H   0  0  0  0  0  0  0  0  0  0  0  0
    7.1395    2.1733    0.3403 H   0  0  0  0  0  0  0  0  0  0  0  0
    4.9166    2.1638    0.1026 H   0  0  0  0  0  0  0  0  0  0  0  0
    5.4569    1.1745   -2.0558 H   0  0  0  0  0  0  0  0  0  0  0  0
    7.7035    0.5203   -2.1126 H   0  0  0  0  0  0  0  0  0  0  0  0
   -6.8871    1.1191    0.9966 H   0  0  0  0  0  0  0  0  0  0  0  0
   -6.9968   -0.4641   -1.6050 H   0  0  0  0  0  0  0  0  0  0  0  0
   -2.4560    0.8111    1.2606 H   0  0  0  0  0  0  0  0  0  0  0  0
    2.6306    1.6799    0.5198 H   0  0  0  0  0  0  0  0  0  0  0  0
   -4.9822    0.8561   -1.5689 H   0  0  0  0  0  0  0  0  0  0  0  0
   -4.5510   -1.0891   -2.5660 H   0  0  0  0  0  0  0  0  0  0  0  0
   -2.4415   -1.6391   -2.0992 H   0  0  0  0  0  0  0  0  0  0  0  0
   -2.7605    0.4591   -1.1355 H   0  0  0  0  0  0  0  0  0  0  0  0
   -5.0964    0.3375    1.3263 H   0  0  0  0  0  0  0  0  0  0  0  0
    1.0464    1.1834    2.6056 H   0  0  0  0  0  0  0  0  0  0  0  0
   -0.5788   -0.3739    2.0793 H   0  0  0  0  0  0  0  0  0  0  0  0
    0.0931   -1.9544    0.0393 H   0  0  0  0  0  0  0  0  0  0  0  0
    1.4189   -1.1527   -1.5445 H   0  0  0  0  0  0  0  0  0  0  0  0
    2.5397   -1.2712    0.6635 H   0  0  0  0  0  0  0  0  0  0  0  0
    7.4491   -0.8581    0.5541 H   0  0  0  0  0  0  0  0  0  0  0  0
    6.9551    1.1340    1.7775 H   0  0  0  0  0  0  0  0  0  0  0  0
    4.7307    1.0632    1.4909 H   0  0  0  0  0  0  0  0  0  0  0  0
    5.1473   -0.9100    0.1005 H   0  0  0  0  0  0  0  0  0  0  0  0
    5.2416   -0.6128   -2.3734 H   0  0  0  0  0  0  0  0  0  0  0  0
    7.3238   -1.1856   -1.7300 H   0  0  0  0  0  0  0  0  0  0  0  0
    9.2809    2.6112   -0.1289 H   0  0  0  0  0  0  0  0  0  0  0  0
    9.7668    1.7751   -1.4992 H   0  0  0  0  0  0  0  0  0  0  0  0
    9.3413    0.6941    0.9841 H   0  0  0  0  0  0  0  0  0  0  0  0
    9.4532   -0.1886   -0.6376 H   0  0  0  0  0  0  0  0  0  0  0  0
   -7.2053    1.8550   -0.5817 H   0  0  0  0  0  0  0  0  0  0  0  0
   -6.6883   -1.1274    0.0155 H   0  0  0  0  0  0  0  0  0  0  0  0
   -8.8416    2.0654    1.4911 H   0  0  0  0  0  0  0  0  0  0  0  0
   -9.6954    2.3892    0.0320 H   0  0  0  0  0  0  0  0  0  0  0  0
   -8.8167   -0.3374    0.7982 H   0  0  0  0  0  0  0  0  0  0  0  0
   -9.1932    0.3088   -0.8507 H   0  0  0  0  0  0  0  0  0  0  0  0
  3  4  1  0
  4  5  1  0
  1  6  1  0
  5  6  1  0
  1  7  1  0
  1  8  1  0
  3  8  1  0
  5  9  1  0
  6 10  1  0
  2 11  1  0
 11 12  1  0
 10 13  1  0
 12 13  1  0
 13 14  1  0
  2 15  1  0
 14 15  1  0
 15 16  1  0
 17 18  1  0
 18 19  1  0
 16 20  1  0
 19 20  1  0
 20 21  1  0
 17 22  1  0
 21 22  1  0
 17 24  1  0
 23 24  1  0
  3 26  1  0
 25 26  1  0
 25 28  1  0
 27 28  1  0
  4 29  1  0
  7 30  1  0
  7 31  1  0
  7 32  1  0
  8 33  1  0
  9 34  1  0
  9 35  1  0
  9 36  1  0
 10 37  1  0
 11 38  1  0
 12 39  1  0
 16 40  1  0
 18 41  1  0
 19 42  1  0
 21 43  1  0
 22 44  1  0
 25 45  1  0
 26 46  1  0
  1 47  1  0
  2 48  1  0
  3 49  1  0
  4 50  1  0
  5 51  1  0
  6 52  1  0
  8 53  1  0
 11 54  1  0
 12 55  1  0
 13 56  1  0
 14 57  1  0
 15 58  1  1
 17 59  1  0
 18 60  1  0
 19 61  1  0
 20 62  1  0
 21 63  1  0
 22 64  1  0
 23 65  1  0
 23 66  1  0
 24 67  1  0
 24 68  1  0
 25 69  1  0
 26 70  1  0
 27 71  1  0
 27 72  1  0
 28 73  1  0
 28 74  1  0
M  END
>  <PDBID>  (1) 
4G1Q

>  <PDB ID>  (1) 
4G1Q

>  <Generic Name>  (1) 
Rilpivirine

>  <Brand Name>  (1) 
Complera#Edurant#Odefsey

>  <DrugBank ID>  (1) 
DB08864

>  <ATC Codes>  (1) 
nan

>  <Ligand ID>  (1) 
T27

>  <Target Name>  (1) 
Reverse transcriptase/RNaseH

>  <UniProt ID>  (1) 
Q72547

>  <PDB ID.1>  (1) 
4G1Q

>  <Seq. Identity>  (1) 
95%

$$$$
