PDB_DB01024_06
     RDKit          3D

110112  0  0  0  0  0  0  0  0999 V2000
   -3.4072   -0.4804   -2.6586 C   0  0  0  0  0  0  0  0  0  0  0  0
    1.5157   -0.4736   -0.3190 C   0  0  0  0  0  0  0  0  0  0  0  0
    2.8500    0.0363    0.2937 C   0  0  0  0  0  0  0  0  0  0  0  0
    3.9928   -0.3999   -0.5892 C   0  0  0  0  0  0  0  0  0  0  0  0
    5.2887    0.0468   -0.0177 C   0  0  0  0  0  0  0  0  0  0  0  0
    6.4772   -0.3911   -0.8649 C   0  0  0  0  0  0  0  0  0  0  0  0
   -4.2508   -0.4297    2.0266 C   0  0  0  0  0  0  0  0  0  0  0  0
   -2.1960    2.1853    2.1280 C   0  0  0  0  0  0  0  0  0  0  0  0
    2.7536    1.5380    0.4151 C   0  0  0  0  0  0  0  0  0  0  0  0
   -4.9394   -0.7312   -1.0055 C   0  0  0  0  0  0  0  0  0  0  0  0
   -3.7186   -0.1663   -0.4108 C   0  0  0  0  0  0  0  0  0  0  0  0
   -3.2610   -0.7091    0.9117 C   0  0  0  0  0  0  0  0  0  0  0  0
   -1.9803    0.0722    1.1887 C   0  0  0  0  0  0  0  0  0  0  0  0
   -0.9567   -0.4256    0.2068 C   0  0  1  0  0  0  0  0  0  0  0  0
   -1.3643   -0.0914   -1.2106 C   0  0  0  0  0  0  0  0  0  0  0  0
   -2.6882   -0.7259   -1.4089 C   0  0  0  0  0  0  0  0  0  0  0  0
    0.4321   -0.0327    0.5853 C   0  0  0  0  0  0  0  0  0  0  0  0
   -3.3286    0.8271   -3.0663 O   0  0  0  0  0  0  0  0  0  0  0  0
   -4.7325   -0.8199   -2.3946 O   0  0  0  0  0  0  0  0  0  0  0  0
   -2.3165    1.3943    1.0113 O   0  0  0  0  0  0  0  0  0  0  0  0
   -0.5019   -0.7160   -2.1320 O   0  0  0  0  0  0  0  0  0  0  0  0
    6.5474   -1.7760   -0.9822 O   0  0  0  0  0  0  0  0  0  0  0  0
    7.6239    0.0142   -0.1612 O   0  0  0  0  0  0  0  0  0  0  0  0
   -4.5679    1.6967    0.5877 C   0  0  2  0  0  0  0  0  0  0  0  0
    1.3908   -0.0280   -0.4348 C   0  0  0  0  0  0  0  0  0  0  0  0
    2.6759    0.5785    0.1507 C   0  0  0  0  0  0  0  0  0  0  0  0
    3.8357   -0.2129   -0.3915 C   0  0  0  0  0  0  0  0  0  0  0  0
    5.1497    0.2811    0.1209 C   0  0  0  0  0  0  0  0  0  0  0  0
    6.2676   -0.5858   -0.4714 C   0  0  0  0  0  0  0  0  0  0  0  0
   -3.2140   -1.2338   -1.8543 C   0  0  0  0  0  0  0  0  0  0  0  0
   -0.3902   -2.8967    0.8507 C   0  0  0  0  0  0  0  0  0  0  0  0
    2.7539    2.0039   -0.3040 C   0  0  0  0  0  0  0  0  0  0  0  0
   -5.2457   -0.4498    0.3364 C   0  0  0  0  0  0  0  0  0  0  0  0
   -3.7779   -0.4215    0.4151 C   0  0  0  0  0  0  0  0  0  0  0  0
   -2.9961   -1.3625   -0.3949 C   0  0  2  0  0  0  0  0  0  0  0  0
   -1.5165   -1.0524    0.0167 C   0  0  2  0  0  0  0  0  0  0  0  0
   -1.1360    0.2984   -0.3765 C   0  0  1  0  0  0  0  0  0  0  0  0
   -2.1129    1.3739    0.0833 C   0  0  2  0  0  0  0  0  0  0  0  0
   -3.5259    0.9755   -0.1705 C   0  0  0  0  0  0  0  0  0  0  0  0
    0.2198    0.7173    0.0703 C   0  0  0  0  0  0  0  0  0  0  0  0
   -4.3530    1.8013    1.9386 O   0  0  0  0  0  0  0  0  0  0  0  0
   -5.6935    0.8721    0.4109 O   0  0  0  0  0  0  0  0  0  0  0  0
   -0.7238   -2.1022   -0.2339 O   0  0  0  0  0  0  0  0  0  0  0  0
   -1.8536    2.4952   -0.7074 O   0  0  0  0  0  0  0  0  0  0  0  0
    6.0638   -1.9034   -0.0793 O   0  0  0  0  0  0  0  0  0  0  0  0
    7.4688   -0.0966    0.0730 O   0  0  0  0  0  0  0  0  0  0  0  0
   -3.0315   -1.1332   -3.4835 H   0  0  0  0  0  0  0  0  0  0  0  0
    1.5062    0.0582   -1.3135 H   0  0  0  0  0  0  0  0  0  0  0  0
    1.6503   -1.5571   -0.4165 H   0  0  0  0  0  0  0  0  0  0  0  0
    2.9969   -0.4598    1.2829 H   0  0  0  0  0  0  0  0  0  0  0  0
    3.8641    0.1101   -1.5702 H   0  0  0  0  0  0  0  0  0  0  0  0
    3.9783   -1.5029   -0.7535 H   0  0  0  0  0  0  0  0  0  0  0  0
    5.3833   -0.3614    1.0025 H   0  0  0  0  0  0  0  0  0  0  0  0
    5.3483    1.1465    0.0075 H   0  0  0  0  0  0  0  0  0  0  0  0
    6.4677    0.1280   -1.8448 H   0  0  0  0  0  0  0  0  0  0  0  0
   -5.1046   -1.1253    1.9902 H   0  0  0  0  0  0  0  0  0  0  0  0
   -3.7193   -0.5109    3.0002 H   0  0  0  0  0  0  0  0  0  0  0  0
   -4.5638    0.6315    1.9036 H   0  0  0  0  0  0  0  0  0  0  0  0
   -2.8074    1.8889    2.9782 H   0  0  0  0  0  0  0  0  0  0  0  0
   -2.5016    3.2138    1.8401 H   0  0  0  0  0  0  0  0  0  0  0  0
   -1.1028    2.2645    2.3719 H   0  0  0  0  0  0  0  0  0  0  0  0
    1.9745    1.8709   -0.3349 H   0  0  0  0  0  0  0  0  0  0  0  0
    2.3326    1.7318    1.4288 H   0  0  0  0  0  0  0  0  0  0  0  0
    3.6881    2.0771    0.2427 H   0  0  0  0  0  0  0  0  0  0  0  0
   -5.7883   -0.0072   -0.8373 H   0  0  0  0  0  0  0  0  0  0  0  0
   -5.1880   -1.7040   -0.5703 H   0  0  0  0  0  0  0  0  0  0  0  0
   -3.6674    0.9454   -0.3818 H   0  0  0  0  0  0  0  0  0  0  0  0
   -3.0741   -1.7912    0.8089 H   0  0  0  0  0  0  0  0  0  0  0  0
   -1.6588   -0.1587    2.2191 H   0  0  0  0  0  0  0  0  0  0  0  0
   -0.9981   -1.5548    0.2648 H   0  0  0  0  0  0  0  0  0  0  0  0
   -1.3277    0.9862   -1.4042 H   0  0  0  0  0  0  0  0  0  0  0  0
   -2.6043   -1.8014   -1.1547 H   0  0  0  0  0  0  0  0  0  0  0  0
    0.5466    1.0388    0.8088 H   0  0  0  0  0  0  0  0  0  0  0  0
    0.6258   -0.5425    1.5786 H   0  0  0  0  0  0  0  0  0  0  0  0
   -3.5038    1.4829   -2.3711 H   0  0  0  0  0  0  0  0  0  0  0  0
   -0.9942   -1.0562   -2.9213 H   0  0  0  0  0  0  0  0  0  0  0  0
    6.0001   -2.1648   -0.2549 H   0  0  0  0  0  0  0  0  0  0  0  0
    7.4331    0.1111    0.8130 H   0  0  0  0  0  0  0  0  0  0  0  0
   -4.8246    2.6604    0.1024 H   0  0  0  0  0  0  0  0  0  0  0  0
    1.5054    0.1592   -1.5480 H   0  0  0  0  0  0  0  0  0  0  0  0
    1.3335   -1.0866   -0.2606 H   0  0  0  0  0  0  0  0  0  0  0  0
    2.6130    0.4757    1.2513 H   0  0  0  0  0  0  0  0  0  0  0  0
    3.7863   -0.1779   -1.5168 H   0  0  0  0  0  0  0  0  0  0  0  0
    3.7063   -1.2676   -0.0483 H   0  0  0  0  0  0  0  0  0  0  0  0
    5.1660    0.1356    1.2145 H   0  0  0  0  0  0  0  0  0  0  0  0
    5.3860    1.3131   -0.1756 H   0  0  0  0  0  0  0  0  0  0  0  0
    6.2505   -0.5114   -1.5747 H   0  0  0  0  0  0  0  0  0  0  0  0
   -2.9072   -2.1424   -2.4366 H   0  0  0  0  0  0  0  0  0  0  0  0
   -2.7828   -0.3738   -2.3603 H   0  0  0  0  0  0  0  0  0  0  0  0
   -4.3249   -1.1566   -2.0478 H   0  0  0  0  0  0  0  0  0  0  0  0
    0.2516   -3.7365    0.6132 H   0  0  0  0  0  0  0  0  0  0  0  0
    0.1802   -2.2385    1.5598 H   0  0  0  0  0  0  0  0  0  0  0  0
   -1.3300   -3.1570    1.3802 H   0  0  0  0  0  0  0  0  0  0  0  0
    2.2515    2.1575   -1.2982 H   0  0  0  0  0  0  0  0  0  0  0  0
    2.1657    2.6367    0.4189 H   0  0  0  0  0  0  0  0  0  0  0  0
    3.7578    2.4346   -0.3356 H   0  0  0  0  0  0  0  0  0  0  0  0
   -5.6408   -0.9810    1.2517 H   0  0  0  0  0  0  0  0  0  0  0  0
   -5.6754   -0.9859   -0.5197 H   0  0  0  0  0  0  0  0  0  0  0  0
   -3.4061   -0.3774    1.4610 H   0  0  0  0  0  0  0  0  0  0  0  0
   -3.1252   -2.4259   -0.1086 H   0  0  0  0  0  0  0  0  0  0  0  0
   -1.6348   -1.0592    1.1547 H   0  0  0  0  0  0  0  0  0  0  0  0
   -1.1096    0.3639   -1.5091 H   0  0  0  0  0  0  0  0  0  0  0  0
   -1.8852    1.6710    1.1243 H   0  0  0  0  0  0  0  0  0  0  0  0
   -3.7555    1.0249   -1.2442 H   0  0  0  0  0  0  0  0  0  0  0  0
    0.4124    1.8147   -0.1899 H   0  0  0  0  0  0  0  0  0  0  0  0
    0.2839    0.7588    1.2090 H   0  0  0  0  0  0  0  0  0  0  0  0
   -3.6172    2.4005    2.1939 H   0  0  0  0  0  0  0  0  0  0  0  0
   -1.8221    2.1967   -1.6535 H   0  0  0  0  0  0  0  0  0  0  0  0
    6.6713   -2.1697    0.6802 H   0  0  0  0  0  0  0  0  0  0  0  0
    7.4011    0.8960    0.0515 H   0  0  0  0  0  0  0  0  0  0  0  0
  2  3  1  0
  3  4  1  0
  4  5  1  0
  5  6  1  0
  3  9  1  0
 10 11  1  0
  7 12  1  0
 11 12  1  0
 12 13  1  0
 13 14  1  0
 14 15  1  0
  1 16  1  0
 11 16  1  0
 15 16  1  0
  2 17  1  0
 14 17  1  0
  1 18  1  0
  1 19  1  0
 10 19  1  0
  8 20  1  0
 13 20  1  0
 15 21  1  0
  6 22  1  0
  6 23  1  0
 25 26  1  0
 26 27  1  0
 27 28  1  0
 28 29  1  0
 26 32  1  0
 33 34  1  0
 30 35  1  0
 34 35  1  0
 35 36  1  0
 36 37  1  0
 37 38  1  0
 24 39  1  0
 34 39  1  0
 38 39  1  0
 25 40  1  0
 37 40  1  0
 24 41  1  0
 24 42  1  0
 33 42  1  0
 31 43  1  0
 36 43  1  0
 38 44  1  0
 29 45  1  0
 29 46  1  0
  1 47  1  0
  2 48  1  0
  2 49  1  0
  3 50  1  0
  4 51  1  0
  4 52  1  0
  5 53  1  0
  5 54  1  0
  6 55  1  0
  7 56  1  0
  7 57  1  0
  7 58  1  0
  8 59  1  0
  8 60  1  0
  8 61  1  0
  9 62  1  0
  9 63  1  0
  9 64  1  0
 10 65  1  0
 10 66  1  0
 11 67  1  0
 12 68  1  0
 13 69  1  0
 14 70  1  6
 15 71  1  0
 16 72  1  0
 17 73  1  0
 17 74  1  0
 18 75  1  0
 21 76  1  0
 22 77  1  0
 23 78  1  0
 24 79  1  6
 25 80  1  0
 25 81  1  0
 26 82  1  0
 27 83  1  0
 27 84  1  0
 28 85  1  0
 28 86  1  0
 29 87  1  0
 30 88  1  0
 30 89  1  0
 30 90  1  0
 31 91  1  0
 31 92  1  0
 31 93  1  0
 32 94  1  0
 32 95  1  0
 32 96  1  0
 33 97  1  0
 33 98  1  0
 34 99  1  0
 35100  1  1
 36101  1  1
 37102  1  6
 38103  1  1
 39104  1  0
 40105  1  0
 40106  1  0
 41107  1  0
 44108  1  0
 45109  1  0
 46110  1  0
M  END
>  <PDBID>  (1) 
1JR1

>  <PDB ID>  (1) 
1JR1

>  <Generic Name>  (1) 
Mycophenolic acid

>  <Brand Name>  (1) 
Apo-mycophenolic Acid#Mycophenolic Acid#Myfortic#Melbex

>  <DrugBank ID>  (1) 
DB01024

>  <ATC Codes>  (1) 
L04AA06

>  <Ligand ID>  (1) 
MOA

>  <Target Name>  (1) 
Inosine-5'-monophosphate dehydrogenase 2

>  <UniProt ID>  (1) 
P12268

>  <PDB ID.1>  (1) 
1JR1

>  <Seq. Identity>  (1) 
99%

$$$$
