PDB_DB01157_07
     RDKit          3D

264272  0  0  0  0  0  0  0  0999 V2000
   -5.5714    1.3540    0.2667 N   0  0  0  0  0  0  0  0  0  0  0  0
   -6.3195    0.2795   -0.3118 C   0  0  1  0  0  0  0  0  0  0  0  0
   -5.6883   -0.9956   -0.1972 N   0  0  0  0  0  0  0  0  0  0  0  0
   -4.3999   -1.0753   -0.8548 C   0  0  2  0  0  0  0  0  0  0  0  0
   -4.1554    1.2049    0.1640 C   0  0  0  0  0  0  0  0  0  0  0  0
   -3.7197    0.2474   -0.9217 C   0  0  0  0  0  0  0  0  0  0  0  0
   -2.2211    0.2037   -0.9076 C   0  0  0  0  0  0  0  0  0  0  0  0
   -1.7086   -0.2563    0.4123 C   0  0  0  0  0  0  0  0  0  0  0  0
   -2.1433    0.6570    1.5403 C   0  0  0  0  0  0  0  0  0  0  0  0
   -3.6324    0.7920    1.5207 C   0  0  0  0  0  0  0  0  0  0  0  0
   -0.2059   -0.4371    0.4573 C   0  0  0  0  0  0  0  0  0  0  0  0
    0.4656    0.7824    0.1776 N   0  0  0  0  0  0  0  0  0  0  0  0
    1.8797    0.7725    0.1776 C   0  0  0  0  0  0  0  0  0  0  0  0
    2.5027    0.4331    1.4799 C   0  0  0  0  0  0  0  0  0  0  0  0
    3.9643    0.2276    1.5057 C   0  0  0  0  0  0  0  0  0  0  0  0
    4.6821   -0.0178    0.2446 C   0  0  0  0  0  0  0  0  0  0  0  0
    3.8989   -0.0623   -1.0200 C   0  0  0  0  0  0  0  0  0  0  0  0
    2.4186   -0.2194   -0.8355 C   0  0  0  0  0  0  0  0  0  0  0  0
   -1.6314   -0.5862   -2.0332 C   0  0  0  0  0  0  0  0  0  0  0  0
    4.6423    1.2539    2.2058 O   0  0  0  0  0  0  0  0  0  0  0  0
    5.3570   -1.2624    0.2967 O   0  0  0  0  0  0  0  0  0  0  0  0
    4.3297   -1.0348   -1.9168 O   0  0  0  0  0  0  0  0  0  0  0  0
    5.2410    0.8511    3.3623 C   0  0  0  0  0  0  0  0  0  0  0  0
    6.7210   -1.1530    0.2244 C   0  0  0  0  0  0  0  0  0  0  0  0
    4.7846   -0.4687   -3.1155 C   0  0  0  0  0  0  0  0  0  0  0  0
   -7.5951    0.1899    0.4098 N   0  0  0  0  0  0  0  0  0  0  0  0
   -4.6830   -1.6171   -2.1938 N   0  0  0  0  0  0  0  0  0  0  0  0
   -5.2807    1.2725   -1.4321 N   0  0  0  0  0  0  0  0  0  0  0  0
   -6.2093    0.1461   -1.4036 C   0  0  1  0  0  0  0  0  0  0  0  0
   -6.2940   -0.2880   -0.0245 N   0  0  0  0  0  0  0  0  0  0  0  0
   -5.0296   -0.1164    0.6813 C   0  0  0  0  0  0  0  0  0  0  0  0
   -3.9107    0.7496   -1.3024 C   0  0  0  0  0  0  0  0  0  0  0  0
   -3.9068   -0.3824   -0.3364 C   0  0  0  0  0  0  0  0  0  0  0  0
   -2.6245   -0.7087    0.3178 C   0  0  1  0  0  0  0  0  0  0  0  0
   -1.5759    0.3292    0.3949 C   0  0  0  0  0  0  0  0  0  0  0  0
   -1.6520    1.4855   -0.5209 C   0  0  0  0  0  0  0  0  0  0  0  0
   -3.0438    1.8954   -0.9190 C   0  0  0  0  0  0  0  0  0  0  0  0
   -0.1670   -0.2893    0.3332 C   0  0  0  0  0  0  0  0  0  0  0  0
    0.7625    0.7612    0.4138 N   0  0  0  0  0  0  0  0  0  0  0  0
    2.1450    0.4185    0.3977 C   0  0  0  0  0  0  0  0  0  0  0  0
    2.6132   -0.4186    1.5382 C   0  0  0  0  0  0  0  0  0  0  0  0
    4.0744   -0.7129    1.3960 C   0  0  0  0  0  0  0  0  0  0  0  0
    4.7638    0.0239    0.3038 C   0  0  0  0  0  0  0  0  0  0  0  0
    4.0512   -0.0653   -1.0372 C   0  0  0  0  0  0  0  0  0  0  0  0
    2.5686   -0.3000   -0.8832 C   0  0  0  0  0  0  0  0  0  0  0  0
   -2.8224   -1.3088    1.7214 C   0  0  0  0  0  0  0  0  0  0  0  0
    4.6898   -0.4055    2.6005 O   0  0  0  0  0  0  0  0  0  0  0  0
    6.0126   -0.5697    0.0851 O   0  0  0  0  0  0  0  0  0  0  0  0
    4.5584   -1.0581   -1.8365 O   0  0  0  0  0  0  0  0  0  0  0  0
    5.3215   -1.4849    3.1862 C   0  0  0  0  0  0  0  0  0  0  0  0
    7.0599    0.3263    0.2347 C   0  0  0  0  0  0  0  0  0  0  0  0
    5.0554   -0.5134   -3.0061 C   0  0  0  0  0  0  0  0  0  0  0  0
   -7.4877    0.6499   -1.8768 N   0  0  0  0  0  0  0  0  0  0  0  0
   -4.9975    1.2179    1.1896 N   0  0  0  0  0  0  0  0  0  0  0  0
   -5.3488    0.8900    0.2815 N   0  0  0  0  0  0  0  0  0  0  0  0
   -6.0987   -0.0360   -0.5492 C   0  0  0  0  0  0  0  0  0  0  0  0
   -5.4351   -1.2836   -0.5254 N   0  0  0  0  0  0  0  0  0  0  0  0
   -4.0831   -1.3113   -0.9298 C   0  0  2  0  0  0  0  0  0  0  0  0
   -4.1180    1.1509   -0.4567 C   0  0  0  0  0  0  0  0  0  0  0  0
   -3.2912   -0.0595   -0.6952 C   0  0  0  0  0  0  0  0  0  0  0  0
   -2.2452   -0.3437    0.3348 C   0  0  1  0  0  0  0  0  0  0  0  0
   -1.6803    0.8523    1.0105 C   0  0  0  0  0  0  0  0  0  0  0  0
   -1.9371    2.0776    0.1208 C   0  0  0  0  0  0  0  0  0  0  0  0
   -3.4333    2.2906    0.2023 C   0  0  0  0  0  0  0  0  0  0  0  0
   -0.2081    0.7558    1.3316 C   0  0  0  0  0  0  0  0  0  0  0  0
    0.5201    0.5775    0.1155 N   0  0  0  0  0  0  0  0  0  0  0  0
    1.9349    0.4764    0.2524 C   0  0  0  0  0  0  0  0  0  0  0  0
    2.3714   -0.7068    1.0466 C   0  0  0  0  0  0  0  0  0  0  0  0
    3.8550   -0.8141    1.1838 C   0  0  0  0  0  0  0  0  0  0  0  0
    4.6416   -0.5506   -0.0482 C   0  0  0  0  0  0  0  0  0  0  0  0
    4.0332    0.4379   -1.0051 C   0  0  0  0  0  0  0  0  0  0  0  0
    2.5374    0.3259   -1.1363 C   0  0  0  0  0  0  0  0  0  0  0  0
   -2.7231   -1.3265    1.4013 C   0  0  0  0  0  0  0  0  0  0  0  0
    4.2543    0.1142    2.1565 O   0  0  0  0  0  0  0  0  0  0  0  0
    4.8477   -1.7256   -0.7611 O   0  0  0  0  0  0  0  0  0  0  0  0
    4.5765    0.2603   -2.2838 O   0  0  0  0  0  0  0  0  0  0  0  0
    4.8833   -0.4916    3.2341 C   0  0  0  0  0  0  0  0  0  0  0  0
    6.1898   -2.0156   -0.9588 C   0  0  0  0  0  0  0  0  0  0  0  0
    5.2287    1.4107   -2.7229 C   0  0  0  0  0  0  0  0  0  0  0  0
   -7.4639   -0.1882   -0.1129 N   0  0  0  0  0  0  0  0  0  0  0  0
   -4.0656   -1.7129   -2.3493 N   0  0  0  0  0  0  0  0  0  0  0  0
   -5.3488    0.8900    0.2815 N   0  0  0  0  0  0  0  0  0  0  0  0
   -6.0987   -0.0360   -0.5492 C   0  0  0  0  0  0  0  0  0  0  0  0
   -5.4351   -1.2836   -0.5254 N   0  0  0  0  0  0  0  0  0  0  0  0
   -4.0831   -1.3113   -0.9298 C   0  0  2  0  0  0  0  0  0  0  0  0
   -4.1180    1.1509   -0.4567 C   0  0  0  0  0  0  0  0  0  0  0  0
   -3.2912   -0.0595   -0.6952 C   0  0  0  0  0  0  0  0  0  0  0  0
   -2.2452   -0.3437    0.3348 C   0  0  1  0  0  0  0  0  0  0  0  0
   -1.6803    0.8523    1.0105 C   0  0  0  0  0  0  0  0  0  0  0  0
   -1.9371    2.0776    0.1208 C   0  0  0  0  0  0  0  0  0  0  0  0
   -3.4333    2.2906    0.2023 C   0  0  0  0  0  0  0  0  0  0  0  0
   -0.2081    0.7558    1.3316 C   0  0  0  0  0  0  0  0  0  0  0  0
    0.5201    0.5775    0.1155 N   0  0  0  0  0  0  0  0  0  0  0  0
    1.9349    0.4764    0.2524 C   0  0  0  0  0  0  0  0  0  0  0  0
    2.3714   -0.7068    1.0466 C   0  0  0  0  0  0  0  0  0  0  0  0
    3.8550   -0.8141    1.1838 C   0  0  0  0  0  0  0  0  0  0  0  0
    4.6416   -0.5506   -0.0482 C   0  0  0  0  0  0  0  0  0  0  0  0
    4.0332    0.4379   -1.0051 C   0  0  0  0  0  0  0  0  0  0  0  0
    2.5374    0.3259   -1.1363 C   0  0  0  0  0  0  0  0  0  0  0  0
   -2.7231   -1.3265    1.4013 C   0  0  0  0  0  0  0  0  0  0  0  0
    4.2543    0.1142    2.1565 O   0  0  0  0  0  0  0  0  0  0  0  0
    4.8477   -1.7256   -0.7611 O   0  0  0  0  0  0  0  0  0  0  0  0
    4.5765    0.2603   -2.2838 O   0  0  0  0  0  0  0  0  0  0  0  0
    4.8833   -0.4916    3.2341 C   0  0  0  0  0  0  0  0  0  0  0  0
    6.1898   -2.0156   -0.9588 C   0  0  0  0  0  0  0  0  0  0  0  0
    5.2287    1.4107   -2.7229 C   0  0  0  0  0  0  0  0  0  0  0  0
   -7.4639   -0.1882   -0.1129 N   0  0  0  0  0  0  0  0  0  0  0  0
   -4.0656   -1.7129   -2.3493 N   0  0  0  0  0  0  0  0  0  0  0  0
   -5.8851    1.5749    1.2412 H   0  0  0  0  0  0  0  0  0  0  0  0
   -6.5656    0.4902   -1.3719 H   0  0  0  0  0  0  0  0  0  0  0  0
   -5.7440   -1.4646    0.7090 H   0  0  0  0  0  0  0  0  0  0  0  0
   -3.8268   -1.8673   -0.3294 H   0  0  0  0  0  0  0  0  0  0  0  0
   -3.7071    2.1897   -0.0795 H   0  0  0  0  0  0  0  0  0  0  0  0
   -4.0236    0.7274   -1.8926 H   0  0  0  0  0  0  0  0  0  0  0  0
   -1.8920    1.2731   -1.0454 H   0  0  0  0  0  0  0  0  0  0  0  0
   -2.1456   -1.2627    0.6518 H   0  0  0  0  0  0  0  0  0  0  0  0
   -1.8603    0.1211    2.4888 H   0  0  0  0  0  0  0  0  0  0  0  0
   -1.6086    1.6150    1.4909 H   0  0  0  0  0  0  0  0  0  0  0  0
   -4.0952   -0.1458    1.8423 H   0  0  0  0  0  0  0  0  0  0  0  0
   -3.8996    1.6241    2.2177 H   0  0  0  0  0  0  0  0  0  0  0  0
    0.0015   -0.7391    1.5083 H   0  0  0  0  0  0  0  0  0  0  0  0
    0.0282   -1.2682   -0.2422 H   0  0  0  0  0  0  0  0  0  0  0  0
    0.0657    1.3850   -0.5521 H   0  0  0  0  0  0  0  0  0  0  0  0
    2.2062    1.7739   -0.2204 H   0  0  0  0  0  0  0  0  0  0  0  0
    2.2595    1.2565    2.1877 H   0  0  0  0  0  0  0  0  0  0  0  0
    1.9536   -0.4536    1.8959 H   0  0  0  0  0  0  0  0  0  0  0  0
    4.1471   -0.6699    2.1788 H   0  0  0  0  0  0  0  0  0  0  0  0
    5.5315    0.7258    0.1465 H   0  0  0  0  0  0  0  0  0  0  0  0
    4.0504    0.9300   -1.5399 H   0  0  0  0  0  0  0  0  0  0  0  0
    1.9150    0.0066   -1.7993 H   0  0  0  0  0  0  0  0  0  0  0  0
    2.1324   -1.2303   -0.5233 H   0  0  0  0  0  0  0  0  0  0  0  0
   -1.5747   -1.6665   -1.7966 H   0  0  0  0  0  0  0  0  0  0  0  0
   -2.2058   -0.3848   -2.9670 H   0  0  0  0  0  0  0  0  0  0  0  0
   -0.5976   -0.2437   -2.2064 H   0  0  0  0  0  0  0  0  0  0  0  0
    5.7293    1.7430    3.8069 H   0  0  0  0  0  0  0  0  0  0  0  0
    6.0910    0.1297    3.1733 H   0  0  0  0  0  0  0  0  0  0  0  0
    4.5615    0.4496    4.1364 H   0  0  0  0  0  0  0  0  0  0  0  0
    7.1578   -0.5446    1.0558 H   0  0  0  0  0  0  0  0  0  0  0  0
    7.0903   -0.8782   -0.7657 H   0  0  0  0  0  0  0  0  0  0  0  0
    7.1138   -2.1945    0.4217 H   0  0  0  0  0  0  0  0  0  0  0  0
    3.9619    0.1090   -3.6016 H   0  0  0  0  0  0  0  0  0  0  0  0
    5.6363    0.2275   -2.9204 H   0  0  0  0  0  0  0  0  0  0  0  0
    5.1181   -1.2710   -3.7790 H   0  0  0  0  0  0  0  0  0  0  0  0
   -8.1196    1.0683    0.1707 H   0  0  0  0  0  0  0  0  0  0  0  0
   -7.3809    0.2814    1.4454 H   0  0  0  0  0  0  0  0  0  0  0  0
   -4.5416   -0.9292   -2.9372 H   0  0  0  0  0  0  0  0  0  0  0  0
   -4.2900   -2.5507   -2.3368 H   0  0  0  0  0  0  0  0  0  0  0  0
   -5.3807    1.7967   -2.3242 H   0  0  0  0  0  0  0  0  0  0  0  0
   -5.8730   -0.6253   -2.0972 H   0  0  0  0  0  0  0  0  0  0  0  0
   -6.6777   -1.2461    0.0844 H   0  0  0  0  0  0  0  0  0  0  0  0
   -5.0083   -0.8851    1.4928 H   0  0  0  0  0  0  0  0  0  0  0  0
   -3.6309    0.4476   -2.3463 H   0  0  0  0  0  0  0  0  0  0  0  0
   -4.3022   -1.2785   -0.9101 H   0  0  0  0  0  0  0  0  0  0  0  0
   -2.1703   -1.5730   -0.2612 H   0  0  0  0  0  0  0  0  0  0  0  0
   -1.6114    0.7585    1.4450 H   0  0  0  0  0  0  0  0  0  0  0  0
   -1.1212    2.3799   -0.1020 H   0  0  0  0  0  0  0  0  0  0  0  0
   -1.1207    1.2405   -1.4644 H   0  0  0  0  0  0  0  0  0  0  0  0
   -3.4520    2.5129   -0.0748 H   0  0  0  0  0  0  0  0  0  0  0  0
   -3.0000    2.5948   -1.7879 H   0  0  0  0  0  0  0  0  0  0  0  0
   -0.1242   -1.0634    1.0846 H   0  0  0  0  0  0  0  0  0  0  0  0
   -0.1173   -0.8046   -0.6716 H   0  0  0  0  0  0  0  0  0  0  0  0
    0.6164    1.3955   -0.4298 H   0  0  0  0  0  0  0  0  0  0  0  0
    2.7185    1.3691    0.4176 H   0  0  0  0  0  0  0  0  0  0  0  0
    2.3908    0.1425    2.4866 H   0  0  0  0  0  0  0  0  0  0  0  0
    2.0888   -1.3878    1.6299 H   0  0  0  0  0  0  0  0  0  0  0  0
    4.2743   -1.8131    1.2274 H   0  0  0  0  0  0  0  0  0  0  0  0
    4.9813    1.1034    0.5513 H   0  0  0  0  0  0  0  0  0  0  0  0
    4.1748    0.9161   -1.5414 H   0  0  0  0  0  0  0  0  0  0  0  0
    2.0238    0.1975   -1.7097 H   0  0  0  0  0  0  0  0  0  0  0  0
    2.3599   -1.3847   -0.8222 H   0  0  0  0  0  0  0  0  0  0  0  0
   -3.2072   -0.5786    2.4281 H   0  0  0  0  0  0  0  0  0  0  0  0
   -3.4213   -2.2408    1.6448 H   0  0  0  0  0  0  0  0  0  0  0  0
   -1.8121   -1.6135    2.0606 H   0  0  0  0  0  0  0  0  0  0  0  0
    5.7736   -1.1254    4.1333 H   0  0  0  0  0  0  0  0  0  0  0  0
    6.1582   -1.8056    2.5340 H   0  0  0  0  0  0  0  0  0  0  0  0
    4.6378   -2.3109    3.4607 H   0  0  0  0  0  0  0  0  0  0  0  0
    7.1139    0.7788    1.2464 H   0  0  0  0  0  0  0  0  0  0  0  0
    7.1273    1.0578   -0.5805 H   0  0  0  0  0  0  0  0  0  0  0  0
    7.9984   -0.2972    0.1553 H   0  0  0  0  0  0  0  0  0  0  0  0
    4.2759    0.0256   -3.5892 H   0  0  0  0  0  0  0  0  0  0  0  0
    5.8315    0.2443   -2.6979 H   0  0  0  0  0  0  0  0  0  0  0  0
    5.5510   -1.2755   -3.6190 H   0  0  0  0  0  0  0  0  0  0  0  0
   -7.5611    0.6011   -2.9166 H   0  0  0  0  0  0  0  0  0  0  0  0
   -8.2877    0.1286   -1.4945 H   0  0  0  0  0  0  0  0  0  0  0  0
   -5.8081    1.8124    0.8952 H   0  0  0  0  0  0  0  0  0  0  0  0
   -5.0831    1.1513    2.2474 H   0  0  0  0  0  0  0  0  0  0  0  0
   -5.2011    0.5740    1.2391 H   0  0  0  0  0  0  0  0  0  0  0  0
   -6.1131    0.4024   -1.5664 H   0  0  0  0  0  0  0  0  0  0  0  0
   -5.7387   -1.9385    0.1960 H   0  0  0  0  0  0  0  0  0  0  0  0
   -3.6043   -2.1961   -0.4092 H   0  0  0  0  0  0  0  0  0  0  0  0
   -4.4821    1.5283   -1.4604 H   0  0  0  0  0  0  0  0  0  0  0  0
   -2.7273    0.1340   -1.6600 H   0  0  0  0  0  0  0  0  0  0  0  0
   -1.3851   -0.8723   -0.1699 H   0  0  0  0  0  0  0  0  0  0  0  0
   -2.2764    1.0444    1.9374 H   0  0  0  0  0  0  0  0  0  0  0  0
   -1.3910    2.9566    0.4884 H   0  0  0  0  0  0  0  0  0  0  0  0
   -1.7100    1.8465   -0.9435 H   0  0  0  0  0  0  0  0  0  0  0  0
   -3.7706    2.3930    1.2693 H   0  0  0  0  0  0  0  0  0  0  0  0
   -3.6836    3.2790   -0.2657 H   0  0  0  0  0  0  0  0  0  0  0  0
    0.0669    1.7364    1.8065 H   0  0  0  0  0  0  0  0  0  0  0  0
   -0.0855   -0.0515    2.0685 H   0  0  0  0  0  0  0  0  0  0  0  0
    0.2343    1.3348   -0.5427 H   0  0  0  0  0  0  0  0  0  0  0  0
    2.3283    1.4377    0.6485 H   0  0  0  0  0  0  0  0  0  0  0  0
    1.8521   -0.6695    2.0226 H   0  0  0  0  0  0  0  0  0  0  0  0
    2.0438   -1.6186    0.4663 H   0  0  0  0  0  0  0  0  0  0  0  0
    4.1702   -1.8172    1.5682 H   0  0  0  0  0  0  0  0  0  0  0  0
    5.6718   -0.1517    0.1749 H   0  0  0  0  0  0  0  0  0  0  0  0
    4.2844    1.4843   -0.6900 H   0  0  0  0  0  0  0  0  0  0  0  0
    2.1962    1.1909   -1.7297 H   0  0  0  0  0  0  0  0  0  0  0  0
    2.2271   -0.5863   -1.6466 H   0  0  0  0  0  0  0  0  0  0  0  0
   -3.8077   -1.3608    1.4964 H   0  0  0  0  0  0  0  0  0  0  0  0
   -2.3683   -2.3597    1.2045 H   0  0  0  0  0  0  0  0  0  0  0  0
   -2.2561   -1.0491    2.3890 H   0  0  0  0  0  0  0  0  0  0  0  0
    5.1561    0.3228    3.9364 H   0  0  0  0  0  0  0  0  0  0  0  0
    5.7991   -1.0325    2.9767 H   0  0  0  0  0  0  0  0  0  0  0  0
    4.2073   -1.1691    3.7961 H   0  0  0  0  0  0  0  0  0  0  0  0
    6.7424   -2.1368    0.0180 H   0  0  0  0  0  0  0  0  0  0  0  0
    6.6982   -1.3232   -1.6488 H   0  0  0  0  0  0  0  0  0  0  0  0
    6.2267   -3.0234   -1.4333 H   0  0  0  0  0  0  0  0  0  0  0  0
    4.4790    2.2284   -2.7477 H   0  0  0  0  0  0  0  0  0  0  0  0
    6.1086    1.6577   -2.1037 H   0  0  0  0  0  0  0  0  0  0  0  0
    5.5648    1.2296   -3.7532 H   0  0  0  0  0  0  0  0  0  0  0  0
   -8.0333    0.6506   -0.4368 H   0  0  0  0  0  0  0  0  0  0  0  0
   -7.5829   -0.2732    0.9050 H   0  0  0  0  0  0  0  0  0  0  0  0
   -4.5133   -0.9952   -2.9440 H   0  0  0  0  0  0  0  0  0  0  0  0
   -3.0691   -1.8608   -2.5934 H   0  0  0  0  0  0  0  0  0  0  0  0
   -5.2011    0.5740    1.2391 H   0  0  0  0  0  0  0  0  0  0  0  0
   -6.1131    0.4024   -1.5664 H   0  0  0  0  0  0  0  0  0  0  0  0
   -5.7387   -1.9385    0.1960 H   0  0  0  0  0  0  0  0  0  0  0  0
   -3.6043   -2.1961   -0.4092 H   0  0  0  0  0  0  0  0  0  0  0  0
   -4.4821    1.5283   -1.4604 H   0  0  0  0  0  0  0  0  0  0  0  0
   -2.7273    0.1340   -1.6600 H   0  0  0  0  0  0  0  0  0  0  0  0
   -1.3851   -0.8723   -0.1699 H   0  0  0  0  0  0  0  0  0  0  0  0
   -2.2764    1.0444    1.9374 H   0  0  0  0  0  0  0  0  0  0  0  0
   -1.3910    2.9566    0.4884 H   0  0  0  0  0  0  0  0  0  0  0  0
   -1.7100    1.8465   -0.9435 H   0  0  0  0  0  0  0  0  0  0  0  0
   -3.7706    2.3930    1.2693 H   0  0  0  0  0  0  0  0  0  0  0  0
   -3.6836    3.2790   -0.2657 H   0  0  0  0  0  0  0  0  0  0  0  0
    0.0669    1.7364    1.8065 H   0  0  0  0  0  0  0  0  0  0  0  0
   -0.0855   -0.0515    2.0685 H   0  0  0  0  0  0  0  0  0  0  0  0
    0.2343    1.3348   -0.5427 H   0  0  0  0  0  0  0  0  0  0  0  0
    2.3283    1.4377    0.6485 H   0  0  0  0  0  0  0  0  0  0  0  0
    1.8521   -0.6695    2.0226 H   0  0  0  0  0  0  0  0  0  0  0  0
    2.0438   -1.6186    0.4663 H   0  0  0  0  0  0  0  0  0  0  0  0
    4.1702   -1.8172    1.5682 H   0  0  0  0  0  0  0  0  0  0  0  0
    5.6718   -0.1517    0.1749 H   0  0  0  0  0  0  0  0  0  0  0  0
    4.2844    1.4843   -0.6900 H   0  0  0  0  0  0  0  0  0  0  0  0
    2.1962    1.1909   -1.7297 H   0  0  0  0  0  0  0  0  0  0  0  0
    2.2271   -0.5863   -1.6466 H   0  0  0  0  0  0  0  0  0  0  0  0
   -3.8077   -1.3608    1.4964 H   0  0  0  0  0  0  0  0  0  0  0  0
   -2.3683   -2.3597    1.2045 H   0  0  0  0  0  0  0  0  0  0  0  0
   -2.2561   -1.0491    2.3890 H   0  0  0  0  0  0  0  0  0  0  0  0
    5.1561    0.3228    3.9364 H   0  0  0  0  0  0  0  0  0  0  0  0
    5.7991   -1.0325    2.9767 H   0  0  0  0  0  0  0  0  0  0  0  0
    4.2073   -1.1691    3.7961 H   0  0  0  0  0  0  0  0  0  0  0  0
    6.7424   -2.1368    0.0180 H   0  0  0  0  0  0  0  0  0  0  0  0
    6.6982   -1.3232   -1.6488 H   0  0  0  0  0  0  0  0  0  0  0  0
    6.2267   -3.0234   -1.4333 H   0  0  0  0  0  0  0  0  0  0  0  0
    4.4790    2.2284   -2.7477 H   0  0  0  0  0  0  0  0  0  0  0  0
    6.1086    1.6577   -2.1037 H   0  0  0  0  0  0  0  0  0  0  0  0
    5.5648    1.2296   -3.7532 H   0  0  0  0  0  0  0  0  0  0  0  0
   -8.0333    0.6506   -0.4368 H   0  0  0  0  0  0  0  0  0  0  0  0
   -7.5829   -0.2732    0.9050 H   0  0  0  0  0  0  0  0  0  0  0  0
   -4.5133   -0.9952   -2.9440 H   0  0  0  0  0  0  0  0  0  0  0  0
   -3.0691   -1.8608   -2.5934 H   0  0  0  0  0  0  0  0  0  0  0  0
  1  2  1  0
  2  3  1  0
  3  4  1  0
  1  5  1  0
  4  6  1  0
  5  6  1  0
  6  7  1  0
  7  8  1  0
  8  9  1  0
  5 10  1  0
  9 10  1  0
  8 11  1  0
 11 12  1  0
 12 13  1  0
 13 14  1  0
 14 15  1  0
 15 16  1  0
 16 17  1  0
 13 18  1  0
 17 18  1  0
  7 19  1  0
 15 20  1  0
 16 21  1  0
 17 22  1  0
 20 23  1  0
 21 24  1  0
 22 25  1  0
  2 26  1  0
  4 27  1  0
 28 29  1  0
 29 30  1  0
 30 31  1  0
 28 32  1  0
 31 33  1  0
 32 33  1  0
 33 34  1  0
 34 35  1  0
 35 36  1  0
 32 37  1  0
 36 37  1  0
 35 38  1  0
 38 39  1  0
 39 40  1  0
 40 41  1  0
 41 42  1  0
 42 43  1  0
 43 44  1  0
 40 45  1  0
 44 45  1  0
 34 46  1  0
 42 47  1  0
 43 48  1  0
 44 49  1  0
 47 50  1  0
 48 51  1  0
 49 52  1  0
 29 53  1  0
 31 54  1  0
 55 56  1  0
 56 57  1  0
 57 58  1  0
 55 59  1  0
 58 60  1  0
 59 60  1  0
 60 61  1  0
 61 62  1  0
 62 63  1  0
 59 64  1  0
 63 64  1  0
 62 65  1  0
 65 66  1  0
 66 67  1  0
 67 68  1  0
 68 69  1  0
 69 70  1  0
 70 71  1  0
 67 72  1  0
 71 72  1  0
 61 73  1  0
 69 74  1  0
 70 75  1  0
 71 76  1  0
 74 77  1  0
 75 78  1  0
 76 79  1  0
 56 80  1  0
 58 81  1  0
 82 83  1  0
 83 84  1  0
 84 85  1  0
 82 86  1  0
 85 87  1  0
 86 87  1  0
 87 88  1  0
 88 89  1  0
 89 90  1  0
 86 91  1  0
 90 91  1  0
 89 92  1  0
 92 93  1  0
 93 94  1  0
 94 95  1  0
 95 96  1  0
 96 97  1  0
 97 98  1  0
 94 99  1  0
 98 99  1  0
 88100  1  0
 96101  1  0
 97102  1  0
 98103  1  0
101104  1  0
102105  1  0
103106  1  0
 83107  1  0
 85108  1  0
  1109  1  0
  2110  1  6
  3111  1  0
  4112  1  1
  5113  1  0
  6114  1  0
  7115  1  0
  8116  1  0
  9117  1  0
  9118  1  0
 10119  1  0
 10120  1  0
 11121  1  0
 11122  1  0
 12123  1  0
 13124  1  0
 14125  1  0
 14126  1  0
 15127  1  0
 16128  1  0
 17129  1  0
 18130  1  0
 18131  1  0
 19132  1  0
 19133  1  0
 19134  1  0
 23135  1  0
 23136  1  0
 23137  1  0
 24138  1  0
 24139  1  0
 24140  1  0
 25141  1  0
 25142  1  0
 25143  1  0
 26144  1  0
 26145  1  0
 27146  1  0
 27147  1  0
 28148  1  0
 29149  1  6
 30150  1  0
 31151  1  0
 32152  1  0
 33153  1  0
 34154  1  6
 35155  1  0
 36156  1  0
 36157  1  0
 37158  1  0
 37159  1  0
 38160  1  0
 38161  1  0
 39162  1  0
 40163  1  0
 41164  1  0
 41165  1  0
 42166  1  0
 43167  1  0
 44168  1  0
 45169  1  0
 45170  1  0
 46171  1  0
 46172  1  0
 46173  1  0
 50174  1  0
 50175  1  0
 50176  1  0
 51177  1  0
 51178  1  0
 51179  1  0
 52180  1  0
 52181  1  0
 52182  1  0
 53183  1  0
 53184  1  0
 54185  1  0
 54186  1  0
 55187  1  0
 56188  1  0
 57189  1  0
 58190  1  1
 59191  1  0
 60192  1  0
 61193  1  6
 62194  1  0
 63195  1  0
 63196  1  0
 64197  1  0
 64198  1  0
 65199  1  0
 65200  1  0
 66201  1  0
 67202  1  0
 68203  1  0
 68204  1  0
 69205  1  0
 70206  1  0
 71207  1  0
 72208  1  0
 72209  1  0
 73210  1  0
 73211  1  0
 73212  1  0
 77213  1  0
 77214  1  0
 77215  1  0
 78216  1  0
 78217  1  0
 78218  1  0
 79219  1  0
 79220  1  0
 79221  1  0
 80222  1  0
 80223  1  0
 81224  1  0
 81225  1  0
 82226  1  0
 83227  1  0
 84228  1  0
 85229  1  1
 86230  1  0
 87231  1  0
 88232  1  6
 89233  1  0
 90234  1  0
 90235  1  0
 91236  1  0
 91237  1  0
 92238  1  0
 92239  1  0
 93240  1  0
 94241  1  0
 95242  1  0
 95243  1  0
 96244  1  0
 97245  1  0
 98246  1  0
 99247  1  0
 99248  1  0
100249  1  0
100250  1  0
100251  1  0
104252  1  0
104253  1  0
104254  1  0
105255  1  0
105256  1  0
105257  1  0
106258  1  0
106259  1  0
106260  1  0
107261  1  0
107262  1  0
108263  1  0
108264  1  0
M  END
>  <PDBID>  (1) 
4M2X

>  <PDB ID>  (1) 
4M2X

>  <Generic Name>  (1) 
Trimetrexate

>  <Brand Name>  (1) 
Neutrexin Pws IV 25mg/vial#Neutrexin

>  <DrugBank ID>  (1) 
DB01157

>  <ATC Codes>  (1) 
P01AX07

>  <Ligand ID>  (1) 
TMQ

>  <Target Name>  (1) 
Dihydrofolate reductase

>  <UniProt ID>  (1) 
P00374

>  <PDB ID.1>  (1) 
4M2X

>  <Seq. Identity>  (1) 
31%

$$$$
