PDB_DB00224_08
     RDKit          3D

114118  0  0  0  0  0  0  0  0999 V2000
    4.1604   -1.4048    0.0096 N   0  0  0  0  0  0  0  0  0  0  0  0
    3.4801   -1.0368    1.2540 C   0  0  0  0  0  0  0  0  0  0  0  0
    2.7226    0.2901    1.1079 C   0  0  1  0  0  0  0  0  0  0  0  0
    3.7385    1.3838    1.0972 C   0  0  0  0  0  0  0  0  0  0  0  0
    4.6826    1.1567    0.0244 O   0  0  0  0  0  0  0  0  0  0  0  0
    3.3514    2.7043    1.1076 N   0  0  0  0  0  0  0  0  0  0  0  0
    2.6821    3.3966    2.1154 C   0  0  0  0  0  0  0  0  0  0  0  0
    1.2993    2.8672    2.3882 C   0  0  0  0  0  0  0  0  0  0  0  0
    2.5587    4.8976    1.7500 C   0  0  0  0  0  0  0  0  0  0  0  0
    3.4240    3.4069    3.4492 C   0  0  0  0  0  0  0  0  0  0  0  0
    1.8501    0.2251   -0.0355 N   0  0  0  0  0  0  0  0  0  0  0  0
    2.5378   -0.1246   -1.2166 C   0  0  0  0  0  0  0  0  0  0  0  0
    3.2922   -1.4364   -1.1002 C   0  0  0  0  0  0  0  0  0  0  0  0
    0.7980   -0.7121    0.3094 C   0  0  0  0  0  0  0  0  0  0  0  0
   -0.2529   -0.8399   -0.8093 C   0  0  1  0  0  0  0  0  0  0  0  0
   -1.1282   -1.7848   -0.3552 O   0  0  0  0  0  0  0  0  0  0  0  0
   -0.8190    0.4833   -1.1452 C   0  0  0  0  0  0  0  0  0  0  0  0
   -1.5727    1.1950    0.0113 C   0  0  1  0  0  0  0  0  0  0  0  0
   -1.7995    2.5769   -0.5671 C   0  0  0  0  0  0  0  0  0  0  0  0
   -2.3530    3.7075    0.1347 C   0  0  0  0  0  0  0  0  0  0  0  0
   -3.6750    3.7419    0.7559 C   0  0  0  0  0  0  0  0  0  0  0  0
   -4.0307    5.1710    1.2309 C   0  0  0  0  0  0  0  0  0  0  0  0
   -4.0787    6.0906    0.0690 C   0  0  0  0  0  0  0  0  0  0  0  0
   -2.6073    6.1752   -0.4105 C   0  0  0  0  0  0  0  0  0  0  0  0
   -2.3090    4.8408   -0.9637 C   0  0  0  0  0  0  0  0  0  0  0  0
   -2.9827    0.5848    0.0461 C   0  0  2  0  0  0  0  0  0  0  0  0
   -3.6898    1.0101    1.1173 O   0  0  0  0  0  0  0  0  0  0  0  0
   -3.1486   -0.7270   -0.3932 N   0  0  0  0  0  0  0  0  0  0  0  0
   -4.3211   -1.3826    0.0626 C   0  0  2  0  0  0  0  0  0  0  0  0
   -4.4371   -1.5792    1.5550 C   0  0  2  0  0  0  0  0  0  0  0  0
   -3.1673   -1.8132    2.0657 O   0  0  0  0  0  0  0  0  0  0  0  0
   -5.2375   -2.8798    1.7584 C   0  0  0  0  0  0  0  0  0  0  0  0
   -5.6675   -3.2208    0.3503 C   0  0  0  0  0  0  0  0  0  0  0  0
   -5.9118   -4.6536    0.0741 C   0  0  0  0  0  0  0  0  0  0  0  0
   -6.3909   -4.7527   -1.3824 C   0  0  0  0  0  0  0  0  0  0  0  0
   -6.0014   -3.5275   -2.1711 C   0  0  0  0  0  0  0  0  0  0  0  0
   -4.6176   -3.0362   -1.8365 C   0  0  0  0  0  0  0  0  0  0  0  0
   -4.3876   -2.8335   -0.3908 C   0  0  0  0  0  0  0  0  0  0  0  0
    4.7676   -2.6726    0.2746 C   0  0  0  0  0  0  0  0  0  0  0  0
    5.6121   -3.3354   -0.7213 C   0  0  0  0  0  0  0  0  0  0  0  0
    5.0885   -3.7532   -2.0286 C   0  0  0  0  0  0  0  0  0  0  0  0
    5.8217   -3.1605   -3.1589 N   0  0  0  0  0  0  0  0  0  0  0  0
    7.1829   -3.7227   -3.0998 C   0  0  0  0  0  0  0  0  0  0  0  0
    7.8167   -3.4817   -1.7656 C   0  0  0  0  0  0  0  0  0  0  0  0
    6.9323   -2.5811   -0.9581 C   0  0  0  0  0  0  0  0  0  0  0  0
    2.8651   -1.8594    1.6135 H   0  0  0  0  0  0  0  0  0  0  0  0
    4.2799   -0.8440    1.9958 H   0  0  0  0  0  0  0  0  0  0  0  0
    2.1034    0.3475    2.0157 H   0  0  0  0  0  0  0  0  0  0  0  0
    4.3988    1.1902    1.9976 H   0  0  0  0  0  0  0  0  0  0  0  0
    5.0683    2.0475   -0.2465 H   0  0  0  0  0  0  0  0  0  0  0  0
    3.8168    3.3544    0.4416 H   0  0  0  0  0  0  0  0  0  0  0  0
    0.6189    3.7249    2.6516 H   0  0  0  0  0  0  0  0  0  0  0  0
    0.9344    2.3204    1.5170 H   0  0  0  0  0  0  0  0  0  0  0  0
    1.3697    2.1773    3.2616 H   0  0  0  0  0  0  0  0  0  0  0  0
    3.4064    5.4349    2.1621 H   0  0  0  0  0  0  0  0  0  0  0  0
    2.5248    4.8938    0.6371 H   0  0  0  0  0  0  0  0  0  0  0  0
    1.5918    5.2480    2.1463 H   0  0  0  0  0  0  0  0  0  0  0  0
    3.0515    4.2753    4.0284 H   0  0  0  0  0  0  0  0  0  0  0  0
    3.2455    2.4959    4.0225 H   0  0  0  0  0  0  0  0  0  0  0  0
    4.5189    3.6138    3.2846 H   0  0  0  0  0  0  0  0  0  0  0  0
    3.2536    0.6557   -1.5046 H   0  0  0  0  0  0  0  0  0  0  0  0
    1.8477   -0.1675   -2.1206 H   0  0  0  0  0  0  0  0  0  0  0  0
    2.6252   -2.2942   -1.0132 H   0  0  0  0  0  0  0  0  0  0  0  0
    3.9102   -1.5381   -2.0195 H   0  0  0  0  0  0  0  0  0  0  0  0
    1.1773   -1.7109    0.5666 H   0  0  0  0  0  0  0  0  0  0  0  0
    0.2634   -0.3089    1.1832 H   0  0  0  0  0  0  0  0  0  0  0  0
    0.2059   -1.2543   -1.7347 H   0  0  0  0  0  0  0  0  0  0  0  0
   -0.7038   -2.6872   -0.3439 H   0  0  0  0  0  0  0  0  0  0  0  0
   -1.4780    0.4784   -2.0465 H   0  0  0  0  0  0  0  0  0  0  0  0
    0.0281    1.1747   -1.4086 H   0  0  0  0  0  0  0  0  0  0  0  0
   -1.1036    1.1761    0.9153 H   0  0  0  0  0  0  0  0  0  0  0  0
   -0.7695    2.9028   -0.9661 H   0  0  0  0  0  0  0  0  0  0  0  0
   -2.3555    2.4570   -1.5721 H   0  0  0  0  0  0  0  0  0  0  0  0
   -1.6220    4.1259    0.9056 H   0  0  0  0  0  0  0  0  0  0  0  0
   -3.6342    3.2437    1.7939 H   0  0  0  0  0  0  0  0  0  0  0  0
   -4.4698    3.3753    0.1249 H   0  0  0  0  0  0  0  0  0  0  0  0
   -3.1500    5.4571    1.8810 H   0  0  0  0  0  0  0  0  0  0  0  0
   -4.9784    5.1054    1.8256 H   0  0  0  0  0  0  0  0  0  0  0  0
   -4.4661    7.0988    0.3305 H   0  0  0  0  0  0  0  0  0  0  0  0
   -4.6320    5.6098   -0.7615 H   0  0  0  0  0  0  0  0  0  0  0  0
   -1.9675    6.4490    0.4552 H   0  0  0  0  0  0  0  0  0  0  0  0
   -2.5914    6.9133   -1.2080 H   0  0  0  0  0  0  0  0  0  0  0  0
   -3.0831    4.5722   -1.7148 H   0  0  0  0  0  0  0  0  0  0  0  0
   -1.2803    4.8422   -1.4055 H   0  0  0  0  0  0  0  0  0  0  0  0
   -3.5004    1.2099   -0.8337 H   0  0  0  0  0  0  0  0  0  0  0  0
   -3.1120    0.9219    1.9411 H   0  0  0  0  0  0  0  0  0  0  0  0
   -3.2249   -0.7471   -1.4766 H   0  0  0  0  0  0  0  0  0  0  0  0
   -5.2837   -0.9299   -0.2573 H   0  0  0  0  0  0  0  0  0  0  0  0
   -4.9582   -0.7313    2.0467 H   0  0  0  0  0  0  0  0  0  0  0  0
   -3.0833   -2.7189    2.4771 H   0  0  0  0  0  0  0  0  0  0  0  0
   -6.1505   -2.6062    2.3173 H   0  0  0  0  0  0  0  0  0  0  0  0
   -4.6376   -3.6779    2.1909 H   0  0  0  0  0  0  0  0  0  0  0  0
   -6.4991   -2.5762    0.0069 H   0  0  0  0  0  0  0  0  0  0  0  0
   -6.6305   -5.0816    0.7741 H   0  0  0  0  0  0  0  0  0  0  0  0
   -4.9397   -5.2214    0.1550 H   0  0  0  0  0  0  0  0  0  0  0  0
   -7.4997   -4.7381   -1.3294 H   0  0  0  0  0  0  0  0  0  0  0  0
   -6.0970   -5.6910   -1.8478 H   0  0  0  0  0  0  0  0  0  0  0  0
   -6.0034   -3.7989   -3.2601 H   0  0  0  0  0  0  0  0  0  0  0  0
   -6.7250   -2.6970   -2.0629 H   0  0  0  0  0  0  0  0  0  0  0  0
   -3.9279   -3.8872   -2.1464 H   0  0  0  0  0  0  0  0  0  0  0  0
   -4.3624   -2.2165   -2.5080 H   0  0  0  0  0  0  0  0  0  0  0  0
   -3.5471   -3.4032    0.0279 H   0  0  0  0  0  0  0  0  0  0  0  0
    3.9722   -3.4379    0.5783 H   0  0  0  0  0  0  0  0  0  0  0  0
    5.3785   -2.6221    1.2441 H   0  0  0  0  0  0  0  0  0  0  0  0
    5.9958   -4.2960   -0.2054 H   0  0  0  0  0  0  0  0  0  0  0  0
    4.0060   -3.7757   -2.1842 H   0  0  0  0  0  0  0  0  0  0  0  0
    5.3495   -4.8833   -2.1872 H   0  0  0  0  0  0  0  0  0  0  0  0
    5.8512   -2.1472   -3.1647 H   0  0  0  0  0  0  0  0  0  0  0  0
    7.0246   -4.8202   -3.2782 H   0  0  0  0  0  0  0  0  0  0  0  0
    7.8119   -3.3502   -3.9159 H   0  0  0  0  0  0  0  0  0  0  0  0
    8.8489   -3.0835   -1.8354 H   0  0  0  0  0  0  0  0  0  0  0  0
    7.8451   -4.4714   -1.2278 H   0  0  0  0  0  0  0  0  0  0  0  0
    7.3763   -2.4521    0.0669 H   0  0  0  0  0  0  0  0  0  0  0  0
    6.6896   -1.6191   -1.4060 H   0  0  0  0  0  0  0  0  0  0  0  0
  1  2  1  0
  2  3  1  0
  3  4  1  0
  4  5  1  0
  4  6  1  0
  7  6  1  0
  7  8  1  0
  7  9  1  0
  7 10  1  0
  3 11  1  0
 11 12  1  0
  1 13  1  0
 12 13  1  0
 11 14  1  0
 14 15  1  0
 15 16  1  0
 15 17  1  0
 17 18  1  0
 18 19  1  0
 19 20  1  0
 20 21  1  0
 21 22  1  0
 22 23  1  0
 23 24  1  0
 20 25  1  0
 24 25  1  0
 18 26  1  0
 26 27  1  0
 26 28  1  0
 28 29  1  0
 29 30  1  0
 30 31  1  0
 30 32  1  0
 32 33  1  0
 33 34  1  0
 34 35  1  0
 35 36  1  0
 36 37  1  0
 29 38  1  0
 33 38  1  0
 37 38  1  0
  1 39  1  0
 39 40  1  0
 40 41  1  0
 41 42  1  0
 42 43  1  0
 43 44  1  0
 40 45  1  0
 44 45  1  0
  2 46  1  0
  2 47  1  0
  3 48  1  1
  4 49  1  0
  5 50  1  0
  6 51  1  0
  8 52  1  0
  8 53  1  0
  8 54  1  0
  9 55  1  0
  9 56  1  0
  9 57  1  0
 10 58  1  0
 10 59  1  0
 10 60  1  0
 12 61  1  0
 12 62  1  0
 13 63  1  0
 13 64  1  0
 14 65  1  0
 14 66  1  0
 15 67  1  6
 16 68  1  0
 17 69  1  0
 17 70  1  0
 18 71  1  1
 19 72  1  0
 19 73  1  0
 20 74  1  0
 21 75  1  0
 21 76  1  0
 22 77  1  0
 22 78  1  0
 23 79  1  0
 23 80  1  0
 24 81  1  0
 24 82  1  0
 25 83  1  0
 25 84  1  0
 26 85  1  6
 27 86  1  0
 28 87  1  0
 29 88  1  6
 30 89  1  1
 31 90  1  0
 32 91  1  0
 32 92  1  0
 33 93  1  0
 34 94  1  0
 34 95  1  0
 35 96  1  0
 35 97  1  0
 36 98  1  0
 36 99  1  0
 37100  1  0
 37101  1  0
 38102  1  0
 39103  1  0
 39104  1  0
 40105  1  0
 41106  1  0
 41107  1  0
 42108  1  0
 43109  1  0
 43110  1  0
 44111  1  0
 44112  1  0
 45113  1  0
 45114  1  0
M  END
>  <PDBID>  (1) 
1HSG

>  <PDB ID>  (1) 
1HSG

>  <Generic Name>  (1) 
Indinavir

>  <Brand Name>  (1) 
Crixivan

>  <DrugBank ID>  (1) 
DB00224

>  <ATC Codes>  (1) 
J05AE02

>  <Ligand ID>  (1) 
MK1

>  <Target Name>  (1) 
Pol polyprotein

>  <UniProt ID>  (1) 
Q72874

>  <PDB ID.1>  (1) 
1HSG

>  <Seq. Identity>  (1) 
99%

$$$$
