PDB_DB00806_04
     RDKit          3D

 96 98  0  0  0  0  0  0  0  0999 V2000
    5.2438   -1.0341   -0.2837 C   0  0  0  0  0  0  0  0  0  0  0  0
    5.1865    0.3931    0.1440 C   0  0  0  0  0  0  0  0  0  0  0  0
    5.3691    1.2176   -0.9980 O   0  0  0  0  0  0  0  0  0  0  0  0
    3.9744    0.8228    0.8558 C   0  0  0  0  0  0  0  0  0  0  0  0
    2.6376    0.7923    0.2118 C   0  0  0  0  0  0  0  0  0  0  0  0
    2.1443   -0.5027   -0.2657 C   0  0  0  0  0  0  0  0  0  0  0  0
    0.7812   -0.5679   -0.8518 C   0  0  0  0  0  0  0  0  0  0  0  0
   -0.3228   -0.2336   -0.0436 N   0  0  0  0  0  0  0  0  0  0  0  0
   -1.5602   -0.8460   -0.6354 C   0  0  0  0  0  0  0  0  0  0  0  0
   -1.2307   -2.1291   -1.0214 O   0  0  0  0  0  0  0  0  0  0  0  0
   -2.5257   -0.7926    0.5332 C   0  0  0  0  0  0  0  0  0  0  0  0
   -3.7209   -1.5204    0.3828 N   0  0  0  0  0  0  0  0  0  0  0  0
   -3.6256   -2.9173    0.1361 C   0  0  0  0  0  0  0  0  0  0  0  0
   -4.4843   -0.7615   -0.5487 C   0  0  0  0  0  0  0  0  0  0  0  0
   -4.1292    0.6209   -0.3534 N   0  0  0  0  0  0  0  0  0  0  0  0
   -2.9843    0.6702    0.5339 C   0  0  0  0  0  0  0  0  0  0  0  0
   -1.9819    1.5424    0.0944 N   0  0  0  0  0  0  0  0  0  0  0  0
   -2.3087    2.8408   -0.3266 C   0  0  0  0  0  0  0  0  0  0  0  0
   -0.6128    1.1655    0.1630 C   0  0  0  0  0  0  0  0  0  0  0  0
    0.0571    1.8995   -0.8014 O   0  0  0  0  0  0  0  0  0  0  0  0
    5.2438   -1.0341   -0.2837 C   0  0  0  0  0  0  0  0  0  0  0  0
    5.1865    0.3931    0.1440 C   0  0  0  0  0  0  0  0  0  0  0  0
    5.3691    1.2176   -0.9980 O   0  0  0  0  0  0  0  0  0  0  0  0
    3.9744    0.8228    0.8558 C   0  0  0  0  0  0  0  0  0  0  0  0
    2.6376    0.7923    0.2118 C   0  0  0  0  0  0  0  0  0  0  0  0
    2.1443   -0.5027   -0.2657 C   0  0  0  0  0  0  0  0  0  0  0  0
    0.7812   -0.5679   -0.8518 C   0  0  0  0  0  0  0  0  0  0  0  0
   -0.3228   -0.2336   -0.0436 N   0  0  0  0  0  0  0  0  0  0  0  0
   -1.5602   -0.8460   -0.6354 C   0  0  0  0  0  0  0  0  0  0  0  0
   -1.2307   -2.1291   -1.0214 O   0  0  0  0  0  0  0  0  0  0  0  0
   -2.5257   -0.7926    0.5332 C   0  0  0  0  0  0  0  0  0  0  0  0
   -3.7209   -1.5204    0.3828 N   0  0  0  0  0  0  0  0  0  0  0  0
   -3.6256   -2.9173    0.1361 C   0  0  0  0  0  0  0  0  0  0  0  0
   -4.4843   -0.7615   -0.5487 C   0  0  0  0  0  0  0  0  0  0  0  0
   -4.1292    0.6209   -0.3534 N   0  0  0  0  0  0  0  0  0  0  0  0
   -2.9843    0.6702    0.5339 C   0  0  0  0  0  0  0  0  0  0  0  0
   -1.9819    1.5424    0.0944 N   0  0  0  0  0  0  0  0  0  0  0  0
   -2.3087    2.8408   -0.3266 C   0  0  0  0  0  0  0  0  0  0  0  0
   -0.6128    1.1655    0.1630 C   0  0  0  0  0  0  0  0  0  0  0  0
    0.0571    1.8995   -0.8014 O   0  0  0  0  0  0  0  0  0  0  0  0
    5.1116   -1.1071   -1.3694 H   0  0  0  0  0  0  0  0  0  0  0  0
    6.2929   -1.4127   -0.0208 H   0  0  0  0  0  0  0  0  0  0  0  0
    4.5121   -1.6595    0.2630 H   0  0  0  0  0  0  0  0  0  0  0  0
    6.1119    0.5991    0.7542 H   0  0  0  0  0  0  0  0  0  0  0  0
    4.6979    1.9197   -1.0006 H   0  0  0  0  0  0  0  0  0  0  0  0
    3.9439    0.3261    1.8814 H   0  0  0  0  0  0  0  0  0  0  0  0
    4.1415    1.9207    1.1423 H   0  0  0  0  0  0  0  0  0  0  0  0
    2.6942    1.5687   -0.6146 H   0  0  0  0  0  0  0  0  0  0  0  0
    1.9410    1.2487    0.9897 H   0  0  0  0  0  0  0  0  0  0  0  0
    2.1694   -1.2348    0.5810 H   0  0  0  0  0  0  0  0  0  0  0  0
    2.8882   -0.8445   -1.0642 H   0  0  0  0  0  0  0  0  0  0  0  0
    0.5854   -1.5776   -1.3123 H   0  0  0  0  0  0  0  0  0  0  0  0
    0.7959    0.1113   -1.7552 H   0  0  0  0  0  0  0  0  0  0  0  0
   -1.8790   -0.2432   -1.4792 H   0  0  0  0  0  0  0  0  0  0  0  0
   -0.8011   -2.6503   -0.2985 H   0  0  0  0  0  0  0  0  0  0  0  0
   -1.9694   -1.0131    1.4744 H   0  0  0  0  0  0  0  0  0  0  0  0
   -2.8220   -3.4028    0.7193 H   0  0  0  0  0  0  0  0  0  0  0  0
   -4.5736   -3.3751    0.5502 H   0  0  0  0  0  0  0  0  0  0  0  0
   -3.6150   -3.2129   -0.9235 H   0  0  0  0  0  0  0  0  0  0  0  0
   -4.3931   -1.0772   -1.6032 H   0  0  0  0  0  0  0  0  0  0  0  0
   -5.5642   -0.8459   -0.2242 H   0  0  0  0  0  0  0  0  0  0  0  0
   -4.9173    1.2110    0.0023 H   0  0  0  0  0  0  0  0  0  0  0  0
   -3.2773    0.8815    1.5699 H   0  0  0  0  0  0  0  0  0  0  0  0
   -3.1678    3.2094    0.3074 H   0  0  0  0  0  0  0  0  0  0  0  0
   -1.4696    3.5398   -0.1095 H   0  0  0  0  0  0  0  0  0  0  0  0
   -2.5367    2.9521   -1.4105 H   0  0  0  0  0  0  0  0  0  0  0  0
   -0.2531    1.4528    1.1620 H   0  0  0  0  0  0  0  0  0  0  0  0
   -0.5537    2.0559   -1.5496 H   0  0  0  0  0  0  0  0  0  0  0  0
    5.1116   -1.1071   -1.3694 H   0  0  0  0  0  0  0  0  0  0  0  0
    6.2929   -1.4127   -0.0208 H   0  0  0  0  0  0  0  0  0  0  0  0
    4.5121   -1.6595    0.2630 H   0  0  0  0  0  0  0  0  0  0  0  0
    6.1119    0.5991    0.7542 H   0  0  0  0  0  0  0  0  0  0  0  0
    4.6979    1.9197   -1.0006 H   0  0  0  0  0  0  0  0  0  0  0  0
    3.9439    0.3261    1.8814 H   0  0  0  0  0  0  0  0  0  0  0  0
    4.1415    1.9207    1.1423 H   0  0  0  0  0  0  0  0  0  0  0  0
    2.6942    1.5687   -0.6146 H   0  0  0  0  0  0  0  0  0  0  0  0
    1.9410    1.2487    0.9897 H   0  0  0  0  0  0  0  0  0  0  0  0
    2.1694   -1.2348    0.5810 H   0  0  0  0  0  0  0  0  0  0  0  0
    2.8882   -0.8445   -1.0642 H   0  0  0  0  0  0  0  0  0  0  0  0
    0.5854   -1.5776   -1.3123 H   0  0  0  0  0  0  0  0  0  0  0  0
    0.7959    0.1113   -1.7552 H   0  0  0  0  0  0  0  0  0  0  0  0
   -1.8790   -0.2432   -1.4792 H   0  0  0  0  0  0  0  0  0  0  0  0
   -0.8011   -2.6503   -0.2985 H   0  0  0  0  0  0  0  0  0  0  0  0
   -1.9694   -1.0131    1.4744 H   0  0  0  0  0  0  0  0  0  0  0  0
   -2.8220   -3.4028    0.7193 H   0  0  0  0  0  0  0  0  0  0  0  0
   -4.5736   -3.3751    0.5502 H   0  0  0  0  0  0  0  0  0  0  0  0
   -3.6150   -3.2129   -0.9235 H   0  0  0  0  0  0  0  0  0  0  0  0
   -4.3931   -1.0772   -1.6032 H   0  0  0  0  0  0  0  0  0  0  0  0
   -5.5642   -0.8459   -0.2242 H   0  0  0  0  0  0  0  0  0  0  0  0
   -4.9173    1.2110    0.0023 H   0  0  0  0  0  0  0  0  0  0  0  0
   -3.2773    0.8815    1.5699 H   0  0  0  0  0  0  0  0  0  0  0  0
   -3.1678    3.2094    0.3074 H   0  0  0  0  0  0  0  0  0  0  0  0
   -1.4696    3.5398   -0.1095 H   0  0  0  0  0  0  0  0  0  0  0  0
   -2.5367    2.9521   -1.4105 H   0  0  0  0  0  0  0  0  0  0  0  0
   -0.2531    1.4528    1.1620 H   0  0  0  0  0  0  0  0  0  0  0  0
   -0.5537    2.0559   -1.5496 H   0  0  0  0  0  0  0  0  0  0  0  0
  1  2  1  0
  2  3  1  0
  2  4  1  0
  4  5  1  0
  5  6  1  0
  6  7  1  0
  7  8  1  0
  8  9  1  0
  9 10  1  0
  9 11  1  0
 11 12  1  0
 12 13  1  0
 12 14  1  0
 14 15  1  0
 11 16  1  0
 15 16  1  0
 16 17  1  0
 17 18  1  0
  8 19  1  0
 17 19  1  0
 19 20  1  0
 21 22  1  0
 22 23  1  0
 22 24  1  0
 24 25  1  0
 25 26  1  0
 26 27  1  0
 27 28  1  0
 28 29  1  0
 29 30  1  0
 29 31  1  0
 31 32  1  0
 32 33  1  0
 32 34  1  0
 34 35  1  0
 31 36  1  0
 35 36  1  0
 36 37  1  0
 37 38  1  0
 28 39  1  0
 37 39  1  0
 39 40  1  0
  1 41  1  0
  1 42  1  0
  1 43  1  0
  2 44  1  0
  3 45  1  0
  4 46  1  0
  4 47  1  0
  5 48  1  0
  5 49  1  0
  6 50  1  0
  6 51  1  0
  7 52  1  0
  7 53  1  0
  9 54  1  0
 10 55  1  0
 11 56  1  0
 13 57  1  0
 13 58  1  0
 13 59  1  0
 14 60  1  0
 14 61  1  0
 15 62  1  0
 16 63  1  0
 18 64  1  0
 18 65  1  0
 18 66  1  0
 19 67  1  0
 20 68  1  0
 21 69  1  0
 21 70  1  0
 21 71  1  0
 22 72  1  0
 23 73  1  0
 24 74  1  0
 24 75  1  0
 25 76  1  0
 25 77  1  0
 26 78  1  0
 26 79  1  0
 27 80  1  0
 27 81  1  0
 29 82  1  0
 30 83  1  0
 31 84  1  0
 33 85  1  0
 33 86  1  0
 33 87  1  0
 34 88  1  0
 34 89  1  0
 35 90  1  0
 36 91  1  0
 38 92  1  0
 38 93  1  0
 38 94  1  0
 39 95  1  0
 40 96  1  0
M  END
>  <PDBID>  (1) 
3TVX

>  <PDB ID>  (1) 
3TVX

>  <Generic Name>  (1) 
Pentoxifylline

>  <Brand Name>  (1) 
Gapeam Budibac#Nu-pentoxifylline-SR 400 mg#Pentoxifylline#Pentoxifylline SR#Ratio-pentoxifylline#Trental#Trental Srt 400mg#Trental Tab 400mg#Agapurin#Agapurin SR#An Ruo Ning#Angiopent#Ao Le Ni#Ao Nuo Hong#Aotong#Azupentat#Behrifil#Bo Shu Te#Claudicat#Durapental#Elorgan#Endopentoksas#Pentilin#Pentilin Retard#Pentoflux#Pentofyllin#Pentoksifilin#Pentolab#Pentomer#Pentoxil#Rentylin#Torental#Trentilin Retard

>  <DrugBank ID>  (1) 
DB00806

>  <ATC Codes>  (1) 
C04AD03

>  <Ligand ID>  (1) 
PNX

>  <Target Name>  (1) 
cAMP-specific 3',5'-cyclic phosphodiesterase 4B

>  <UniProt ID>  (1) 
Q07343

>  <PDB ID.1>  (1) 
3TVX

>  <Seq. Identity>  (1) 
84%

$$$$
