PDB_DB00503_04
     RDKit          3D

124127  0  0  0  0  0  0  0  0999 V2000
   -9.1443    0.3041    1.5182 C   0  0  0  0  0  0  0  0  0  0  0  0
   -7.7870   -0.2528    1.0274 C   0  0  0  0  0  0  0  0  0  0  0  0
   -6.7276    0.4777    2.2922 S   0  0  0  0  0  0  0  0  0  0  0  0
   -7.9401    1.6725    2.9899 C   0  0  0  0  0  0  0  0  0  0  0  0
   -8.9156    1.6613    1.9189 N   0  0  0  0  0  0  0  0  0  0  0  0
   -7.5377    0.1839   -0.3658 C   0  0  0  0  0  0  0  0  0  0  0  0
   -6.4008   -0.2428   -0.9247 O   0  0  0  0  0  0  0  0  0  0  0  0
   -5.1726    0.1722   -0.4288 C   0  0  0  0  0  0  0  0  0  0  0  0
   -4.6706   -1.0015    0.2069 O   0  0  0  0  0  0  0  0  0  0  0  0
   -4.3114    0.6337   -1.4531 N   0  0  0  0  0  0  0  0  0  0  0  0
   -3.0703    1.1869   -1.2181 C   0  0  2  0  0  0  0  0  0  0  0  0
   -1.9897    0.3017   -0.5734 C   0  0  2  0  0  0  0  0  0  0  0  0
   -1.7814   -0.8194   -1.5130 C   0  0  0  0  0  0  0  0  0  0  0  0
   -0.7899   -1.8714   -1.2137 C   0  0  2  0  0  0  0  0  0  0  0  0
   -3.0670    2.5585   -0.5952 C   0  0  0  0  0  0  0  0  0  0  0  0
   -3.7148    3.6367   -1.3657 C   0  0  0  0  0  0  0  0  0  0  0  0
   -5.1382    3.5313   -1.7148 C   0  0  0  0  0  0  0  0  0  0  0  0
   -6.0899    4.1547   -0.7257 C   0  0  0  0  0  0  0  0  0  0  0  0
   -5.5179    4.3278    0.6535 C   0  0  0  0  0  0  0  0  0  0  0  0
   -4.2019    5.0510    0.6539 C   0  0  0  0  0  0  0  0  0  0  0  0
   -3.5104    4.9982   -0.6905 C   0  0  0  0  0  0  0  0  0  0  0  0
   -2.3823   -0.1123    0.6995 O   0  0  0  0  0  0  0  0  0  0  0  0
   -1.0114   -2.5728    0.1068 C   0  0  0  0  0  0  0  0  0  0  0  0
    0.0563   -3.6327    0.2389 C   0  0  0  0  0  0  0  0  0  0  0  0
   -0.0625   -4.3931    1.5385 C   0  0  0  0  0  0  0  0  0  0  0  0
   -1.0011   -5.5484    1.4884 C   0  0  0  0  0  0  0  0  0  0  0  0
   -0.7440   -6.4822    0.3432 C   0  0  0  0  0  0  0  0  0  0  0  0
    0.4377   -5.9422   -0.4478 C   0  0  0  0  0  0  0  0  0  0  0  0
    0.0267   -4.5649   -0.9537 C   0  0  0  0  0  0  0  0  0  0  0  0
    0.5175   -1.7787   -1.6959 N   0  0  0  0  0  0  0  0  0  0  0  0
    3.4794    0.3332   -1.8901 N   0  0  0  0  0  0  0  0  0  0  0  0
    2.7393   -0.8240   -2.0144 C   0  0  2  0  0  0  0  0  0  0  0  0
    1.3665   -0.6817   -1.3400 C   0  0  1  0  0  0  0  0  0  0  0  0
    0.8249    0.4554   -2.0121 O   0  0  0  0  0  0  0  0  0  0  0  0
    3.3612   -2.1056   -1.5598 C   0  0  0  0  0  0  0  0  0  0  0  0
    4.6379   -2.4231   -2.3276 C   0  0  0  0  0  0  0  0  0  0  0  0
    3.6787   -2.1944   -0.1040 C   0  0  0  0  0  0  0  0  0  0  0  0
    3.9353    0.8732   -0.6831 C   0  0  1  0  0  0  0  0  0  0  0  0
    4.6446    2.1150   -0.8969 N   0  0  0  0  0  0  0  0  0  0  0  0
    5.1814    2.7570    0.2271 C   0  0  0  0  0  0  0  0  0  0  0  0
    2.8059    1.1774    0.1305 O   0  0  0  0  0  0  0  0  0  0  0  0
    6.3527    2.1806    0.9215 C   0  0  0  0  0  0  0  0  0  0  0  0
    6.6579    3.1478    2.0927 C   0  0  0  0  0  0  0  0  0  0  0  0
    7.7448    2.0321    3.0715 S   0  0  0  0  0  0  0  0  0  0  0  0
    7.2884    0.4754    2.1966 C   0  0  0  0  0  0  0  0  0  0  0  0
    6.0858    0.9244    1.5089 N   0  0  0  0  0  0  0  0  0  0  0  0
    8.3894    0.0322    1.2997 C   0  0  0  0  0  0  0  0  0  0  0  0
    7.9926   -1.2380    0.5971 C   0  0  0  0  0  0  0  0  0  0  0  0
    9.5949   -0.2709    2.1948 C   0  0  0  0  0  0  0  0  0  0  0  0
    5.4263    2.1434   -2.0819 C   0  0  0  0  0  0  0  0  0  0  0  0
   -9.5147   -0.3467    2.3215 H   0  0  0  0  0  0  0  0  0  0  0  0
   -9.8441    0.3333    0.6621 H   0  0  0  0  0  0  0  0  0  0  0  0
   -7.7710   -1.3533    1.1440 H   0  0  0  0  0  0  0  0  0  0  0  0
   -7.4980    2.6615    3.0959 H   0  0  0  0  0  0  0  0  0  0  0  0
   -8.3460    1.2573    3.9321 H   0  0  0  0  0  0  0  0  0  0  0  0
   -8.5838    2.2066    1.1252 H   0  0  0  0  0  0  0  0  0  0  0  0
   -8.4002   -0.2446   -0.9723 H   0  0  0  0  0  0  0  0  0  0  0  0
   -7.7009    1.2940   -0.4334 H   0  0  0  0  0  0  0  0  0  0  0  0
   -5.3432    0.8723    0.3846 H   0  0  0  0  0  0  0  0  0  0  0  0
   -5.3925   -1.5919    0.5039 H   0  0  0  0  0  0  0  0  0  0  0  0
   -4.5616    0.3034   -2.3919 H   0  0  0  0  0  0  0  0  0  0  0  0
   -2.5969    1.3763   -2.2528 H   0  0  0  0  0  0  0  0  0  0  0  0
   -1.1425    0.9823   -0.4121 H   0  0  0  0  0  0  0  0  0  0  0  0
   -1.4693   -0.3520   -2.5006 H   0  0  0  0  0  0  0  0  0  0  0  0
   -2.8077   -1.2239   -1.7655 H   0  0  0  0  0  0  0  0  0  0  0  0
   -1.2085   -2.7525   -1.9313 H   0  0  0  0  0  0  0  0  0  0  0  0
   -3.4475    2.5459    0.4554 H   0  0  0  0  0  0  0  0  0  0  0  0
   -1.9769    2.8313   -0.4644 H   0  0  0  0  0  0  0  0  0  0  0  0
   -3.1299    3.7472   -2.3317 H   0  0  0  0  0  0  0  0  0  0  0  0
   -5.5452    2.5533   -1.9688 H   0  0  0  0  0  0  0  0  0  0  0  0
   -5.2927    4.1400   -2.6655 H   0  0  0  0  0  0  0  0  0  0  0  0
   -7.0361    3.5815   -0.6242 H   0  0  0  0  0  0  0  0  0  0  0  0
   -6.4322    5.1793   -1.0482 H   0  0  0  0  0  0  0  0  0  0  0  0
   -5.5316    3.3961    1.2527 H   0  0  0  0  0  0  0  0  0  0  0  0
   -6.2516    5.0013    1.1924 H   0  0  0  0  0  0  0  0  0  0  0  0
   -3.5505    4.6339    1.4267 H   0  0  0  0  0  0  0  0  0  0  0  0
   -4.3325    6.1389    0.9132 H   0  0  0  0  0  0  0  0  0  0  0  0
   -2.4406    5.1581   -0.5152 H   0  0  0  0  0  0  0  0  0  0  0  0
   -3.8524    5.7764   -1.3909 H   0  0  0  0  0  0  0  0  0  0  0  0
   -1.9888    0.4102    1.4238 H   0  0  0  0  0  0  0  0  0  0  0  0
   -0.9010   -1.8796    0.9688 H   0  0  0  0  0  0  0  0  0  0  0  0
   -1.9887   -3.1065    0.1313 H   0  0  0  0  0  0  0  0  0  0  0  0
    1.0211   -3.1100    0.2346 H   0  0  0  0  0  0  0  0  0  0  0  0
    0.9571   -4.7152    1.8210 H   0  0  0  0  0  0  0  0  0  0  0  0
   -0.4042   -3.6765    2.3076 H   0  0  0  0  0  0  0  0  0  0  0  0
   -0.8190   -6.1490    2.4269 H   0  0  0  0  0  0  0  0  0  0  0  0
   -2.0585   -5.2191    1.5604 H   0  0  0  0  0  0  0  0  0  0  0  0
   -1.6235   -6.4072   -0.3527 H   0  0  0  0  0  0  0  0  0  0  0  0
   -0.5536   -7.5298    0.6459 H   0  0  0  0  0  0  0  0  0  0  0  0
    0.6776   -6.5587   -1.3304 H   0  0  0  0  0  0  0  0  0  0  0  0
    1.3361   -5.8384    0.1676 H   0  0  0  0  0  0  0  0  0  0  0  0
   -1.0226   -4.6869   -1.3209 H   0  0  0  0  0  0  0  0  0  0  0  0
    0.7008   -4.2669   -1.7687 H   0  0  0  0  0  0  0  0  0  0  0  0
    0.6544   -2.0760   -2.6981 H   0  0  0  0  0  0  0  0  0  0  0  0
    3.7380    0.8418   -2.7600 H   0  0  0  0  0  0  0  0  0  0  0  0
    2.5249   -0.9768   -3.1225 H   0  0  0  0  0  0  0  0  0  0  0  0
    1.4634   -0.5793   -0.2860 H   0  0  0  0  0  0  0  0  0  0  0  0
    1.0767    0.4574   -2.9497 H   0  0  0  0  0  0  0  0  0  0  0  0
    2.6602   -2.9265   -1.8126 H   0  0  0  0  0  0  0  0  0  0  0  0
    5.5239   -1.8864   -1.8875 H   0  0  0  0  0  0  0  0  0  0  0  0
    4.5279   -2.2570   -3.4096 H   0  0  0  0  0  0  0  0  0  0  0  0
    4.8558   -3.5032   -2.1886 H   0  0  0  0  0  0  0  0  0  0  0  0
    3.0721   -1.5171    0.5226 H   0  0  0  0  0  0  0  0  0  0  0  0
    4.7647   -2.1406    0.1136 H   0  0  0  0  0  0  0  0  0  0  0  0
    3.3944   -3.2274    0.2738 H   0  0  0  0  0  0  0  0  0  0  0  0
    4.5722    0.2260   -0.0719 H   0  0  0  0  0  0  0  0  0  0  0  0
    5.4595    3.8135   -0.0917 H   0  0  0  0  0  0  0  0  0  0  0  0
    4.3993    2.9526    1.0262 H   0  0  0  0  0  0  0  0  0  0  0  0
    3.0217    1.0259    1.0691 H   0  0  0  0  0  0  0  0  0  0  0  0
    7.2863    2.2158    0.3132 H   0  0  0  0  0  0  0  0  0  0  0  0
    7.2045    4.0180    1.7301 H   0  0  0  0  0  0  0  0  0  0  0  0
    5.7349    3.3526    2.6624 H   0  0  0  0  0  0  0  0  0  0  0  0
    7.0225   -0.2962    2.9132 H   0  0  0  0  0  0  0  0  0  0  0  0
    5.3499    1.0352    2.2336 H   0  0  0  0  0  0  0  0  0  0  0  0
    8.6761    0.7626    0.5240 H   0  0  0  0  0  0  0  0  0  0  0  0
    8.2932   -2.0940    1.2251 H   0  0  0  0  0  0  0  0  0  0  0  0
    8.5333   -1.3476   -0.3736 H   0  0  0  0  0  0  0  0  0  0  0  0
    6.9076   -1.1962    0.4416 H   0  0  0  0  0  0  0  0  0  0  0  0
    9.5489   -1.3449    2.4395 H   0  0  0  0  0  0  0  0  0  0  0  0
   10.4973   -0.0946    1.5711 H   0  0  0  0  0  0  0  0  0  0  0  0
    9.5691    0.3045    3.1244 H   0  0  0  0  0  0  0  0  0  0  0  0
    4.7794    2.5653   -2.9093 H   0  0  0  0  0  0  0  0  0  0  0  0
    5.7200    1.1328   -2.4093 H   0  0  0  0  0  0  0  0  0  0  0  0
    6.2903    2.8417   -2.0283 H   0  0  0  0  0  0  0  0  0  0  0  0
  1  2  1  0
  2  3  1  0
  3  4  1  0
  1  5  1  0
  4  5  1  0
  2  6  1  0
  6  7  1  0
  7  8  1  0
  8  9  1  0
  8 10  1  0
 10 11  1  0
 11 12  1  0
 12 13  1  0
 13 14  1  0
 11 15  1  0
 15 16  1  0
 16 17  1  0
 17 18  1  0
 18 19  1  0
 19 20  1  0
 16 21  1  0
 20 21  1  0
 12 22  1  0
 14 23  1  0
 23 24  1  0
 24 25  1  0
 25 26  1  0
 26 27  1  0
 27 28  1  0
 24 29  1  0
 28 29  1  0
 14 30  1  0
 31 32  1  0
 30 33  1  0
 32 33  1  0
 33 34  1  0
 32 35  1  0
 35 36  1  0
 35 37  1  0
 31 38  1  0
 38 39  1  0
 39 40  1  0
 38 41  1  0
 40 42  1  0
 42 43  1  0
 43 44  1  0
 44 45  1  0
 42 46  1  0
 45 46  1  0
 45 47  1  0
 47 48  1  0
 47 49  1  0
 39 50  1  0
  1 51  1  0
  1 52  1  0
  2 53  1  0
  4 54  1  0
  4 55  1  0
  5 56  1  0
  6 57  1  0
  6 58  1  0
  8 59  1  0
  9 60  1  0
 10 61  1  0
 11 62  1  6
 12 63  1  1
 13 64  1  0
 13 65  1  0
 14 66  1  6
 15 67  1  0
 15 68  1  0
 16 69  1  0
 17 70  1  0
 17 71  1  0
 18 72  1  0
 18 73  1  0
 19 74  1  0
 19 75  1  0
 20 76  1  0
 20 77  1  0
 21 78  1  0
 21 79  1  0
 22 80  1  0
 23 81  1  0
 23 82  1  0
 24 83  1  0
 25 84  1  0
 25 85  1  0
 26 86  1  0
 26 87  1  0
 27 88  1  0
 27 89  1  0
 28 90  1  0
 28 91  1  0
 29 92  1  0
 29 93  1  0
 30 94  1  0
 31 95  1  0
 32 96  1  6
 33 97  1  1
 34 98  1  0
 35 99  1  0
 36100  1  0
 36101  1  0
 36102  1  0
 37103  1  0
 37104  1  0
 37105  1  0
 38106  1  1
 40107  1  0
 40108  1  0
 41109  1  0
 42110  1  0
 43111  1  0
 43112  1  0
 45113  1  0
 46114  1  0
 47115  1  0
 48116  1  0
 48117  1  0
 48118  1  0
 49119  1  0
 49120  1  0
 49121  1  0
 50122  1  0
 50123  1  0
 50124  1  0
M  END
>  <PDBID>  (1) 
1HXW

>  <PDB ID>  (1) 
1HXW

>  <Generic Name>  (1) 
Ritonavir

>  <Brand Name>  (1) 
Holkira Pak#Kaletra#Lopinavir-ritonavir#Norvir#Norvir Sec#Technivie#Viekira Pak#Viekira XR#Busvir#Empetus#Normune

>  <DrugBank ID>  (1) 
DB00503

>  <ATC Codes>  (1) 
J05AX67#J05AR10#J05AE03#J05AX66

>  <Ligand ID>  (1) 
RIT

>  <Target Name>  (1) 
Pol polyprotein

>  <UniProt ID>  (1) 
Q72874

>  <PDB ID.1>  (1) 
1HXW

>  <Seq. Identity>  (1) 
98%

$$$$
