PDB_DB00755_09
     RDKit          3D

124124  0  0  0  0  0  0  0  0999 V2000
   -3.2830   -1.1461   -0.4577 C   0  0  0  0  0  0  0  0  0  0  0  0
   -4.5570   -0.6647   -1.1127 C   0  0  0  0  0  0  0  0  0  0  0  0
   -5.5999   -0.2207   -0.1529 C   0  0  0  0  0  0  0  0  0  0  0  0
   -5.0829    0.5553    1.0203 C   0  0  0  0  0  0  0  0  0  0  0  0
   -3.6327    0.9586    0.8664 C   0  0  0  0  0  0  0  0  0  0  0  0
   -2.7347   -0.1724    0.5491 C   0  0  0  0  0  0  0  0  0  0  0  0
   -1.3542    0.3158    0.1775 C   0  0  0  0  0  0  0  0  0  0  0  0
   -0.8154    1.2776    1.1767 C   0  0  0  0  0  0  0  0  0  0  0  0
    0.5462    1.8188    0.8910 C   0  0  1  0  0  0  0  0  0  0  0  0
    1.5957    0.6740    0.8184 C   0  0  0  0  0  0  0  0  0  0  0  0
    2.9363    1.2261    0.5410 C   0  0  0  0  0  0  0  0  0  0  0  0
    4.0498    0.2626    0.5125 C   0  0  0  0  0  0  0  0  0  0  0  0
    4.0462   -0.8502   -0.4634 C   0  0  0  0  0  0  0  0  0  0  0  0
    5.2892   -1.7029   -0.3359 C   0  0  0  0  0  0  0  0  0  0  0  0
    6.5940   -1.0545   -0.5544 C   0  0  0  0  0  0  0  0  0  0  0  0
   -2.2995   -1.4103   -1.5966 C   0  0  0  0  0  0  0  0  0  0  0  0
   -3.5865   -2.4966    0.1579 C   0  0  0  0  0  0  0  0  0  0  0  0
   -3.5457    2.1464   -0.0522 C   0  0  0  0  0  0  0  0  0  0  0  0
    0.6157    2.6906   -0.3174 C   0  0  0  0  0  0  0  0  0  0  0  0
    2.8907   -1.8329   -0.3018 C   0  0  0  0  0  0  0  0  0  0  0  0
    6.9044   -0.0394    0.3156 O   0  0  0  0  0  0  0  0  0  0  0  0
    6.7739   -0.6470   -1.8953 O   0  0  0  0  0  0  0  0  0  0  0  0
   -4.5568   -0.5686   -0.2886 C   0  0  0  0  0  0  0  0  0  0  0  0
   -5.4509    0.6600   -0.3497 C   0  0  0  0  0  0  0  0  0  0  0  0
   -5.6941    1.1805    1.0219 C   0  0  0  0  0  0  0  0  0  0  0  0
   -4.4574    1.3486    1.8555 C   0  0  0  0  0  0  0  0  0  0  0  0
   -3.1891    1.0189    1.0913 C   0  0  0  0  0  0  0  0  0  0  0  0
   -3.2526   -0.2992    0.4019 C   0  0  0  0  0  0  0  0  0  0  0  0
   -2.0564   -0.5299   -0.4626 C   0  0  0  0  0  0  0  0  0  0  0  0
   -0.7662   -0.2456    0.2709 C   0  0  0  0  0  0  0  0  0  0  0  0
    0.4625   -0.4612   -0.5572 C   0  0  0  0  0  0  0  0  0  0  0  0
    1.6713   -0.1263    0.3279 C   0  0  0  0  0  0  0  0  0  0  0  0
    2.9148   -0.3349   -0.4867 C   0  0  0  0  0  0  0  0  0  0  0  0
    4.1617   -0.0186    0.3282 C   0  0  0  0  0  0  0  0  0  0  0  0
    5.3515   -0.2480   -0.5439 C   0  0  0  0  0  0  0  0  0  0  0  0
    6.6783    0.0014    0.0800 C   0  0  0  0  0  0  0  0  0  0  0  0
    6.9170    1.3806    0.5746 C   0  0  0  0  0  0  0  0  0  0  0  0
   -4.3664   -1.0124   -1.7340 C   0  0  0  0  0  0  0  0  0  0  0  0
   -5.3705   -1.6567    0.3832 C   0  0  0  0  0  0  0  0  0  0  0  0
   -2.7580    2.1762    0.2474 C   0  0  0  0  0  0  0  0  0  0  0  0
    0.6555   -1.8274   -1.0979 C   0  0  0  0  0  0  0  0  0  0  0  0
    5.2899   -1.7103   -0.9963 C   0  0  0  0  0  0  0  0  0  0  0  0
    6.0330    1.7827    1.5454 O   0  0  0  0  0  0  0  0  0  0  0  0
    6.8706    2.3367   -0.4474 O   0  0  0  0  0  0  0  0  0  0  0  0
   -4.9711   -1.5649   -1.6587 H   0  0  0  0  0  0  0  0  0  0  0  0
   -4.3508    0.0709   -1.9349 H   0  0  0  0  0  0  0  0  0  0  0  0
   -6.1320   -1.1251    0.2622 H   0  0  0  0  0  0  0  0  0  0  0  0
   -6.3729    0.3427   -0.7151 H   0  0  0  0  0  0  0  0  0  0  0  0
   -5.6704    1.5007    1.0870 H   0  0  0  0  0  0  0  0  0  0  0  0
   -5.2060    0.0433    1.9902 H   0  0  0  0  0  0  0  0  0  0  0  0
   -3.3538    1.3460    1.8929 H   0  0  0  0  0  0  0  0  0  0  0  0
   -2.5827   -0.7633    1.5024 H   0  0  0  0  0  0  0  0  0  0  0  0
   -1.3438    0.6751   -0.8582 H   0  0  0  0  0  0  0  0  0  0  0  0
   -0.6952   -0.6077    0.2136 H   0  0  0  0  0  0  0  0  0  0  0  0
   -1.5524    2.0847    1.3715 H   0  0  0  0  0  0  0  0  0  0  0  0
   -0.7412    0.7421    2.1718 H   0  0  0  0  0  0  0  0  0  0  0  0
    0.8625    2.4133    1.7728 H   0  0  0  0  0  0  0  0  0  0  0  0
    1.2089   -0.0023    0.0247 H   0  0  0  0  0  0  0  0  0  0  0  0
    1.5704    0.1895    1.8015 H   0  0  0  0  0  0  0  0  0  0  0  0
    2.9737    1.8290   -0.4080 H   0  0  0  0  0  0  0  0  0  0  0  0
    3.1325    2.0163    1.3404 H   0  0  0  0  0  0  0  0  0  0  0  0
    4.9835    0.8860    0.2538 H   0  0  0  0  0  0  0  0  0  0  0  0
    4.3240   -0.1355    1.5247 H   0  0  0  0  0  0  0  0  0  0  0  0
    3.9969   -0.4916   -1.5264 H   0  0  0  0  0  0  0  0  0  0  0  0
    5.2141   -2.6038   -1.0141 H   0  0  0  0  0  0  0  0  0  0  0  0
    5.3159   -2.1837    0.6907 H   0  0  0  0  0  0  0  0  0  0  0  0
    7.4042   -1.8417   -0.4145 H   0  0  0  0  0  0  0  0  0  0  0  0
   -2.8020   -2.2051   -2.2233 H   0  0  0  0  0  0  0  0  0  0  0  0
   -1.3643   -1.8644   -1.2465 H   0  0  0  0  0  0  0  0  0  0  0  0
   -2.1814   -0.5467   -2.2597 H   0  0  0  0  0  0  0  0  0  0  0  0
   -3.3709   -2.4283    1.2483 H   0  0  0  0  0  0  0  0  0  0  0  0
   -3.0033   -3.3119   -0.2710 H   0  0  0  0  0  0  0  0  0  0  0  0
   -4.6566   -2.7718    0.0741 H   0  0  0  0  0  0  0  0  0  0  0  0
   -2.7014    2.1645   -0.7328 H   0  0  0  0  0  0  0  0  0  0  0  0
   -3.6226    3.1117    0.4941 H   0  0  0  0  0  0  0  0  0  0  0  0
   -4.4670    2.1287   -0.7069 H   0  0  0  0  0  0  0  0  0  0  0  0
    1.0650    2.0938   -1.1474 H   0  0  0  0  0  0  0  0  0  0  0  0
    1.3085    3.5414   -0.1347 H   0  0  0  0  0  0  0  0  0  0  0  0
   -0.3750    3.0306   -0.6838 H   0  0  0  0  0  0  0  0  0  0  0  0
    2.4418   -1.8016    0.6999 H   0  0  0  0  0  0  0  0  0  0  0  0
    3.2910   -2.8896   -0.3859 H   0  0  0  0  0  0  0  0  0  0  0  0
    2.1358   -1.7483   -1.0846 H   0  0  0  0  0  0  0  0  0  0  0  0
    7.4043    0.7105   -0.1174 H   0  0  0  0  0  0  0  0  0  0  0  0
    7.1327    0.2782   -1.9325 H   0  0  0  0  0  0  0  0  0  0  0  0
   -6.4417    0.2776   -0.7378 H   0  0  0  0  0  0  0  0  0  0  0  0
   -5.1116    1.3945   -1.0836 H   0  0  0  0  0  0  0  0  0  0  0  0
   -6.3736    0.4688    1.5439 H   0  0  0  0  0  0  0  0  0  0  0  0
   -6.2709    2.1379    0.9226 H   0  0  0  0  0  0  0  0  0  0  0  0
   -4.5248    0.7809    2.7963 H   0  0  0  0  0  0  0  0  0  0  0  0
   -4.3900    2.4300    2.1308 H   0  0  0  0  0  0  0  0  0  0  0  0
   -2.4014    0.9235    1.9005 H   0  0  0  0  0  0  0  0  0  0  0  0
   -3.1803   -1.0794    1.2220 H   0  0  0  0  0  0  0  0  0  0  0  0
   -1.9960   -1.5897   -0.7955 H   0  0  0  0  0  0  0  0  0  0  0  0
   -2.0343    0.0635   -1.3965 H   0  0  0  0  0  0  0  0  0  0  0  0
   -0.7862    0.7671    0.6804 H   0  0  0  0  0  0  0  0  0  0  0  0
   -0.7376   -0.9372    1.1577 H   0  0  0  0  0  0  0  0  0  0  0  0
    0.4472    0.2928   -1.3875 H   0  0  0  0  0  0  0  0  0  0  0  0
    1.6465   -0.7809    1.2326 H   0  0  0  0  0  0  0  0  0  0  0  0
    1.5577    0.9014    0.6693 H   0  0  0  0  0  0  0  0  0  0  0  0
    2.8549    0.3368   -1.3613 H   0  0  0  0  0  0  0  0  0  0  0  0
    2.9524   -1.3642   -0.8762 H   0  0  0  0  0  0  0  0  0  0  0  0
    4.0936    1.0785    0.5526 H   0  0  0  0  0  0  0  0  0  0  0  0
    4.1679   -0.5686    1.2742 H   0  0  0  0  0  0  0  0  0  0  0  0
    5.2122    0.4021   -1.4571 H   0  0  0  0  0  0  0  0  0  0  0  0
    7.4791   -0.2275   -0.6623 H   0  0  0  0  0  0  0  0  0  0  0  0
    6.8184   -0.6882    0.9530 H   0  0  0  0  0  0  0  0  0  0  0  0
    7.9520    1.4285    0.9800 H   0  0  0  0  0  0  0  0  0  0  0  0
   -3.7509   -1.9154   -1.8147 H   0  0  0  0  0  0  0  0  0  0  0  0
   -5.3922   -1.3071   -2.0890 H   0  0  0  0  0  0  0  0  0  0  0  0
   -4.0540   -0.1822   -2.3892 H   0  0  0  0  0  0  0  0  0  0  0  0
   -5.2045   -1.5470    1.4919 H   0  0  0  0  0  0  0  0  0  0  0  0
   -5.0158   -2.6737    0.1305 H   0  0  0  0  0  0  0  0  0  0  0  0
   -6.4399   -1.5737    0.1906 H   0  0  0  0  0  0  0  0  0  0  0  0
   -3.6480    2.8598    0.1278 H   0  0  0  0  0  0  0  0  0  0  0  0
   -2.0028    2.8323    0.7729 H   0  0  0  0  0  0  0  0  0  0  0  0
   -2.3383    1.9481   -0.7246 H   0  0  0  0  0  0  0  0  0  0  0  0
    1.3042   -1.7498   -2.0041 H   0  0  0  0  0  0  0  0  0  0  0  0
    1.2849   -2.4107   -0.3605 H   0  0  0  0  0  0  0  0  0  0  0  0
   -0.2282   -2.4387   -1.2587 H   0  0  0  0  0  0  0  0  0  0  0  0
    4.8667   -2.2817   -0.1592 H   0  0  0  0  0  0  0  0  0  0  0  0
    6.3230   -2.0609   -1.2350 H   0  0  0  0  0  0  0  0  0  0  0  0
    4.6703   -1.7710   -1.9023 H   0  0  0  0  0  0  0  0  0  0  0  0
    5.9208    2.7784    1.5511 H   0  0  0  0  0  0  0  0  0  0  0  0
    7.6837    2.1990   -1.0030 H   0  0  0  0  0  0  0  0  0  0  0  0
  1  2  1  0
  2  3  1  0
  3  4  1  0
  4  5  1  0
  1  6  1  0
  5  6  1  0
  6  7  1  0
  7  8  1  0
  8  9  1  0
  9 10  1  0
 10 11  1  0
 11 12  1  0
 12 13  1  0
 13 14  1  0
 14 15  1  0
  1 16  1  0
  1 17  1  0
  5 18  1  0
  9 19  1  0
 13 20  1  0
 15 21  1  0
 15 22  1  0
 23 24  1  0
 24 25  1  0
 25 26  1  0
 26 27  1  0
 23 28  1  0
 27 28  1  0
 28 29  1  0
 29 30  1  0
 30 31  1  0
 31 32  1  0
 32 33  1  0
 33 34  1  0
 34 35  1  0
 35 36  1  0
 36 37  1  0
 23 38  1  0
 23 39  1  0
 27 40  1  0
 31 41  1  0
 35 42  1  0
 37 43  1  0
 37 44  1  0
  2 45  1  0
  2 46  1  0
  3 47  1  0
  3 48  1  0
  4 49  1  0
  4 50  1  0
  5 51  1  0
  6 52  1  0
  7 53  1  0
  7 54  1  0
  8 55  1  0
  8 56  1  0
  9 57  1  1
 10 58  1  0
 10 59  1  0
 11 60  1  0
 11 61  1  0
 12 62  1  0
 12 63  1  0
 13 64  1  0
 14 65  1  0
 14 66  1  0
 15 67  1  0
 16 68  1  0
 16 69  1  0
 16 70  1  0
 17 71  1  0
 17 72  1  0
 17 73  1  0
 18 74  1  0
 18 75  1  0
 18 76  1  0
 19 77  1  0
 19 78  1  0
 19 79  1  0
 20 80  1  0
 20 81  1  0
 20 82  1  0
 21 83  1  0
 22 84  1  0
 24 85  1  0
 24 86  1  0
 25 87  1  0
 25 88  1  0
 26 89  1  0
 26 90  1  0
 27 91  1  0
 28 92  1  0
 29 93  1  0
 29 94  1  0
 30 95  1  0
 30 96  1  0
 31 97  1  0
 32 98  1  0
 32 99  1  0
 33100  1  0
 33101  1  0
 34102  1  0
 34103  1  0
 35104  1  0
 36105  1  0
 36106  1  0
 37107  1  0
 38108  1  0
 38109  1  0
 38110  1  0
 39111  1  0
 39112  1  0
 39113  1  0
 40114  1  0
 40115  1  0
 40116  1  0
 41117  1  0
 41118  1  0
 41119  1  0
 42120  1  0
 42121  1  0
 42122  1  0
 43123  1  0
 44124  1  0
M  END
>  <PDBID>  (1) 
3FC6

>  <PDB ID>  (1) 
3FC6

>  <Generic Name>  (1) 
Tretinoin

>  <Brand Name>  (1) 
Atralin#Avita#Biacna Topical Gel#Clindamycin Phosphate and Tretinoin#Dr. Throwers Hydrotet#Dr. Throwers Pbc No. 1#Obagi#Refissa#Rejuva-A#Renova#Retin-A#Retin-A Micro#Retisol-A#Solagé#Stie Vaa Sol 0.05%#Stieva-A Cream#Stieva-A Gel#Stieva-A Solution#Stievaa Gel 0.01%#Stievamycin Forte#Stievamycin Mild#Stievamycin Regular#Tretin.x#Tretinoin#Tretinoin Cream#Tretinoin Gel#Tretinoin Gel Microsphere#Tretinx#Tri-luma#Veltin#Vesanoid#Vitamin A Acid 0.01% Cream#Vitamin A Acid 0.01% Gel#Vitamin A Acid 0.025% Cream#Vitamin A Acid 0.025% Gel#Vitamin A Acid 0.05% Cream#Vitamin A Acid 0.05% Gel#Vitamin A Acid 0.1% Cream#Vitinoin - Crm 0.025%#Vitinoin - Crm 0.05%#Vitinoin - Crm 0.1%#Vitinoin Gel - 0.025%#Ziana#Aberel#Aberela#Airol#Dermairol#Eudyna#Kétrel#Retisol-A#Sotret#Stieva-A#Vitinoin

>  <DrugBank ID>  (1) 
DB00755

>  <ATC Codes>  (1) 
L01XX14#D10AD01#D10AD51

>  <Ligand ID>  (1) 
3KV,REA

>  <Target Name>  (1) 
Retinoic acid receptor RXR-beta

>  <UniProt ID>  (1) 
P28702

>  <PDB ID.1>  (1) 
3FC6

>  <Seq. Identity>  (1) 
87%

$$$$
