PDB_DB05015_07
     RDKit          3D

108110  0  0  0  0  0  0  0  0999 V2000
    6.4598   -0.9136    0.5677 O   0  0  0  0  0  0  0  0  0  0  0  0
    5.1762   -0.9029    0.0245 C   0  0  0  0  0  0  0  0  0  0  0  0
    5.1662   -1.9651   -0.9956 N   0  0  0  0  0  0  0  0  0  0  0  0
    5.4383   -3.1585   -0.4563 O   0  0  0  0  0  0  0  0  0  0  0  0
    4.1395   -1.1819    1.0887 C   0  0  0  0  0  0  0  0  0  0  0  0
    2.7428   -1.1787    0.5456 C   0  0  0  0  0  0  0  0  0  0  0  0
    2.3486    0.1354   -0.0771 C   0  0  0  0  0  0  0  0  0  0  0  0
    0.9464    0.0444   -0.5891 C   0  0  0  0  0  0  0  0  0  0  0  0
    2.4979    1.2994    0.8298 C   0  0  0  0  0  0  0  0  0  0  0  0
    1.1205    1.6800    1.3494 C   0  0  0  0  0  0  0  0  0  0  0  0
    0.4138    2.3727    0.2057 C   0  0  0  0  0  0  0  0  0  0  0  0
    0.3640    1.3930   -0.9521 C   0  0  2  0  0  0  0  0  0  0  0  0
   -1.2371    1.2905   -1.5253 S   0  0  0  0  0  0  0  0  0  0  0  0
   -1.6295    2.9270   -1.8875 O   0  0  0  0  0  0  0  0  0  0  0  0
   -1.7239    0.3681   -2.4292 O   0  0  0  0  0  0  0  0  0  0  0  0
   -2.2172    1.2239    0.0289 N   0  0  0  0  0  0  0  0  0  0  0  0
   -3.4498    0.5843   -0.2986 C   0  0  0  0  0  0  0  0  0  0  0  0
   -3.2099   -0.8231   -0.7603 C   0  0  0  0  0  0  0  0  0  0  0  0
   -4.0140   -1.8227    0.0596 C   0  0  0  0  0  0  0  0  0  0  0  0
   -5.4530   -1.4410    0.1549 C   0  0  0  0  0  0  0  0  0  0  0  0
   -5.6492   -0.0094    0.5235 C   0  0  0  0  0  0  0  0  0  0  0  0
   -4.3260    0.5883    0.9402 C   0  0  0  0  0  0  0  0  0  0  0  0
    6.4268   -0.9570    0.6112 O   0  0  0  0  0  0  0  0  0  0  0  0
    5.1500   -0.9299    0.0531 C   0  0  0  0  0  0  0  0  0  0  0  0
    5.1429   -1.9906   -0.9675 N   0  0  0  0  0  0  0  0  0  0  0  0
    5.3933   -3.1873   -0.4308 O   0  0  0  0  0  0  0  0  0  0  0  0
    4.0978   -1.1988    1.1055 C   0  0  0  0  0  0  0  0  0  0  0  0
    2.7085   -1.1792    0.5501 C   0  0  0  0  0  0  0  0  0  0  0  0
    2.3298    0.1366   -0.0746 C   0  0  0  0  0  0  0  0  0  0  0  0
    0.9309    0.0596   -0.5984 C   0  0  0  0  0  0  0  0  0  0  0  0
    2.4840    1.3009    0.8328 C   0  0  0  0  0  0  0  0  0  0  0  0
    1.1040    1.6992    1.3342 C   0  0  0  0  0  0  0  0  0  0  0  0
    0.4210    2.3964    0.1778 C   0  0  0  0  0  0  0  0  0  0  0  0
    0.3632    1.4111   -0.9711 C   0  0  2  0  0  0  0  0  0  0  0  0
   -1.2373    1.3195   -1.5502 S   0  0  0  0  0  0  0  0  0  0  0  0
   -1.6129    2.9582   -1.9205 O   0  0  0  0  0  0  0  0  0  0  0  0
   -1.7300    0.3979   -2.4508 O   0  0  0  0  0  0  0  0  0  0  0  0
   -2.2225    1.2692    0.0017 N   0  0  0  0  0  0  0  0  0  0  0  0
   -3.4409    0.5991   -0.3220 C   0  0  0  0  0  0  0  0  0  0  0  0
   -3.1676   -0.8111   -0.7568 C   0  0  0  0  0  0  0  0  0  0  0  0
   -3.9424   -1.8148    0.0832 C   0  0  0  0  0  0  0  0  0  0  0  0
   -5.3912   -1.4707    0.1751 C   0  0  0  0  0  0  0  0  0  0  0  0
   -5.6236   -0.0384    0.5177 C   0  0  0  0  0  0  0  0  0  0  0  0
   -4.3165    0.5995    0.9214 C   0  0  0  0  0  0  0  0  0  0  0  0
    6.9776   -0.1172    0.3201 H   0  0  0  0  0  0  0  0  0  0  0  0
    5.0174    0.0725   -0.4737 H   0  0  0  0  0  0  0  0  0  0  0  0
    5.8541   -1.6871   -1.7350 H   0  0  0  0  0  0  0  0  0  0  0  0
    6.3415   -3.2422   -0.0733 H   0  0  0  0  0  0  0  0  0  0  0  0
    4.3199   -0.5022    1.9177 H   0  0  0  0  0  0  0  0  0  0  0  0
    4.3387   -2.2143    1.4634 H   0  0  0  0  0  0  0  0  0  0  0  0
    2.6581   -1.9553   -0.2237 H   0  0  0  0  0  0  0  0  0  0  0  0
    2.0257   -1.4230    1.3476 H   0  0  0  0  0  0  0  0  0  0  0  0
    3.0131    0.2571   -0.9825 H   0  0  0  0  0  0  0  0  0  0  0  0
    0.2678   -0.5315    0.0775 H   0  0  0  0  0  0  0  0  0  0  0  0
    0.9765   -0.5324   -1.5524 H   0  0  0  0  0  0  0  0  0  0  0  0
    3.1322    1.1415    1.7091 H   0  0  0  0  0  0  0  0  0  0  0  0
    2.8882    2.1566    0.2151 H   0  0  0  0  0  0  0  0  0  0  0  0
    0.5722    0.8065    1.7225 H   0  0  0  0  0  0  0  0  0  0  0  0
    1.2670    2.3737    2.2014 H   0  0  0  0  0  0  0  0  0  0  0  0
   -0.5946    2.6731    0.5506 H   0  0  0  0  0  0  0  0  0  0  0  0
    0.9798    3.2823   -0.0306 H   0  0  0  0  0  0  0  0  0  0  0  0
    1.0067    1.8206   -1.7481 H   0  0  0  0  0  0  0  0  0  0  0  0
   -1.6823    3.4541   -1.0764 H   0  0  0  0  0  0  0  0  0  0  0  0
   -1.9907    0.2879   -3.3761 H   0  0  0  0  0  0  0  0  0  0  0  0
   -1.5759    0.6102    0.5740 H   0  0  0  0  0  0  0  0  0  0  0  0
   -4.0270    1.1083   -1.0846 H   0  0  0  0  0  0  0  0  0  0  0  0
   -3.5270   -0.9652   -1.8200 H   0  0  0  0  0  0  0  0  0  0  0  0
   -2.1519   -1.0606   -0.6482 H   0  0  0  0  0  0  0  0  0  0  0  0
   -3.9067   -2.8065   -0.4672 H   0  0  0  0  0  0  0  0  0  0  0  0
   -3.5295   -1.9718    1.0490 H   0  0  0  0  0  0  0  0  0  0  0  0
   -5.9351   -2.1284    0.8897 H   0  0  0  0  0  0  0  0  0  0  0  0
   -5.9541   -1.6567   -0.8155 H   0  0  0  0  0  0  0  0  0  0  0  0
   -5.9817    0.5569   -0.3756 H   0  0  0  0  0  0  0  0  0  0  0  0
   -6.3873    0.1196    1.3451 H   0  0  0  0  0  0  0  0  0  0  0  0
   -4.4829    1.6159    1.3252 H   0  0  0  0  0  0  0  0  0  0  0  0
   -3.8143   -0.0525    1.7084 H   0  0  0  0  0  0  0  0  0  0  0  0
    6.9750   -0.1845    0.3490 H   0  0  0  0  0  0  0  0  0  0  0  0
    5.0078    0.0480   -0.4439 H   0  0  0  0  0  0  0  0  0  0  0  0
    5.8163   -1.7244   -1.7072 H   0  0  0  0  0  0  0  0  0  0  0  0
    6.2863   -3.2975   -0.0485 H   0  0  0  0  0  0  0  0  0  0  0  0
    4.2774   -0.5308    1.9443 H   0  0  0  0  0  0  0  0  0  0  0  0
    4.2829   -2.2409    1.4717 H   0  0  0  0  0  0  0  0  0  0  0  0
    2.6228   -1.9530   -0.2249 H   0  0  0  0  0  0  0  0  0  0  0  0
    1.9798   -1.4250    1.3400 H   0  0  0  0  0  0  0  0  0  0  0  0
    3.0030    0.2540   -0.9733 H   0  0  0  0  0  0  0  0  0  0  0  0
    0.2404   -0.5259    0.0476 H   0  0  0  0  0  0  0  0  0  0  0  0
    0.9733   -0.5209   -1.5666 H   0  0  0  0  0  0  0  0  0  0  0  0
    3.0946    1.1127    1.7325 H   0  0  0  0  0  0  0  0  0  0  0  0
    2.9008    2.1541    0.2417 H   0  0  0  0  0  0  0  0  0  0  0  0
    0.5363    0.8391    1.6963 H   0  0  0  0  0  0  0  0  0  0  0  0
    1.2536    2.4068    2.1755 H   0  0  0  0  0  0  0  0  0  0  0  0
   -0.5876    2.7104    0.5078 H   0  0  0  0  0  0  0  0  0  0  0  0
    1.0044    3.2966   -0.0549 H   0  0  0  0  0  0  0  0  0  0  0  0
    1.0105    1.8284   -1.7684 H   0  0  0  0  0  0  0  0  0  0  0  0
   -1.6199    3.4860   -1.1050 H   0  0  0  0  0  0  0  0  0  0  0  0
   -2.1107    0.3381   -3.3476 H   0  0  0  0  0  0  0  0  0  0  0  0
   -1.5845    0.6845    0.5817 H   0  0  0  0  0  0  0  0  0  0  0  0
   -4.0290    1.0958   -1.1106 H   0  0  0  0  0  0  0  0  0  0  0  0
   -3.4876   -0.9800   -1.8138 H   0  0  0  0  0  0  0  0  0  0  0  0
   -2.1038   -1.0198   -0.6495 H   0  0  0  0  0  0  0  0  0  0  0  0
   -3.8150   -2.7985   -0.4394 H   0  0  0  0  0  0  0  0  0  0  0  0
   -3.4469   -1.9419    1.0688 H   0  0  0  0  0  0  0  0  0  0  0  0
   -5.8531   -2.1631    0.9183 H   0  0  0  0  0  0  0  0  0  0  0  0
   -5.8840   -1.7131   -0.7931 H   0  0  0  0  0  0  0  0  0  0  0  0
   -5.9701    0.5032   -0.3902 H   0  0  0  0  0  0  0  0  0  0  0  0
   -6.3633    0.0866    1.3379 H   0  0  0  0  0  0  0  0  0  0  0  0
   -4.4903    1.6291    1.2927 H   0  0  0  0  0  0  0  0  0  0  0  0
   -3.7869   -0.0236    1.6910 H   0  0  0  0  0  0  0  0  0  0  0  0
  1  2  1  0
  2  3  1  0
  3  4  1  0
  2  5  1  0
  5  6  1  0
  6  7  1  0
  7  8  1  0
  7  9  1  0
  9 10  1  0
 10 11  1  0
  8 12  1  0
 11 12  1  0
 12 13  1  0
 13 14  1  0
 13 15  1  0
 13 16  1  0
 16 17  1  0
 17 18  1  0
 18 19  1  0
 19 20  1  0
 20 21  1  0
 17 22  1  0
 21 22  1  0
 24 23  1  0
 24 25  1  0
 26 25  1  0
 24 27  1  0
 27 28  1  0
 28 29  1  0
 29 30  1  0
 29 31  1  0
 31 32  1  0
 32 33  1  0
 30 34  1  0
 33 34  1  0
 34 35  1  0
 35 36  1  0
 35 37  1  0
 35 38  1  0
 38 39  1  0
 39 40  1  0
 40 41  1  0
 41 42  1  0
 42 43  1  0
 39 44  1  0
 43 44  1  0
  1 45  1  0
  2 46  1  0
  3 47  1  0
  4 48  1  0
  5 49  1  0
  5 50  1  0
  6 51  1  0
  6 52  1  0
  7 53  1  0
  8 54  1  0
  8 55  1  0
  9 56  1  0
  9 57  1  0
 10 58  1  0
 10 59  1  0
 11 60  1  0
 11 61  1  0
 12 62  1  6
 14 63  1  0
 15 64  1  0
 16 65  1  0
 17 66  1  0
 18 67  1  0
 18 68  1  0
 19 69  1  0
 19 70  1  0
 20 71  1  0
 20 72  1  0
 21 73  1  0
 21 74  1  0
 22 75  1  0
 22 76  1  0
 23 77  1  0
 24 78  1  0
 25 79  1  0
 26 80  1  0
 27 81  1  0
 27 82  1  0
 28 83  1  0
 28 84  1  0
 29 85  1  0
 30 86  1  0
 30 87  1  0
 31 88  1  0
 31 89  1  0
 32 90  1  0
 32 91  1  0
 33 92  1  0
 33 93  1  0
 34 94  1  6
 36 95  1  0
 37 96  1  0
 38 97  1  0
 39 98  1  0
 40 99  1  0
 40100  1  0
 41101  1  0
 41102  1  0
 42103  1  0
 42104  1  0
 43105  1  0
 43106  1  0
 44107  1  0
 44108  1  0
M  END
>  <PDBID>  (1) 
5EEN

>  <PDB ID>  (1) 
5EEN

>  <Generic Name>  (1) 
Belinostat

>  <Brand Name>  (1) 
Beleodaq

>  <DrugBank ID>  (1) 
DB05015

>  <ATC Codes>  (1) 
L01XX49

>  <Ligand ID>  (1) 
5OG

>  <Target Name>  (1) 
Histone deacetylase 9

>  <UniProt ID>  (1) 
Q9UKV0

>  <PDB ID.1>  (1) 
5EEN

>  <Seq. Identity>  (1) 
46%

$$$$
