PDB_DB01026_07
     RDKit          3D

164172  0  0  0  0  0  0  0  0999 V2000
   -4.5322    3.0102    1.5182 C   0  0  0  0  0  0  0  0  0  0  0  0
   -3.7682    1.8842    0.9304 N   0  0  0  0  0  0  0  0  0  0  0  0
   -3.5453   -0.4300   -0.9619 O   0  0  0  0  0  0  0  0  0  0  0  0
   -9.6605   -0.6996    1.4128 Cl  0  0  0  0  0  0  0  0  0  0  0  0
   -4.5869    3.1829   -0.8012 C   0  0  0  0  0  0  0  0  0  0  0  0
   -5.2083    3.6224    0.4109 N   0  0  0  0  0  0  0  0  0  0  0  0
   -3.2692   -0.9412    1.2018 O   0  0  0  0  0  0  0  0  0  0  0  0
   -6.1299   -2.1884   -2.2378 Cl  0  0  0  0  0  0  0  0  0  0  0  0
   -3.3238    2.5044   -0.3116 C   0  0  0  0  0  0  0  0  0  0  0  0
    5.2597    0.0304   -0.3843 N   0  0  0  0  0  0  0  0  0  0  0  0
   -0.0706   -1.2367   -0.7713 O   0  0  0  0  0  0  0  0  0  0  0  0
   -4.7320    0.8386    0.7362 C   0  0  0  0  0  0  0  0  0  0  0  0
    7.6130    0.7030   -0.5521 N   0  0  0  0  0  0  0  0  0  0  0  0
    8.9250    2.5522   -0.7139 O   0  0  0  0  0  0  0  0  0  0  0  0
   -4.1932   -0.4582    0.2396 C   0  0  1  0  0  0  0  0  0  0  0  0
   -2.3962   -1.1885   -0.8448 C   0  0  2  0  0  0  0  0  0  0  0  0
   -2.5049   -1.8502    0.5129 C   0  0  0  0  0  0  0  0  0  0  0  0
   -5.3297   -1.4971    0.2744 C   0  0  0  0  0  0  0  0  0  0  0  0
   -6.3411   -1.1853   -0.7576 C   0  0  0  0  0  0  0  0  0  0  0  0
   -7.7589   -1.5091   -0.2706 C   0  0  0  0  0  0  0  0  0  0  0  0
   -7.9377   -0.6177    0.9388 C   0  0  0  0  0  0  0  0  0  0  0  0
   -7.1108   -1.2024    2.0493 C   0  0  0  0  0  0  0  0  0  0  0  0
   -5.7898   -1.7237    1.6587 C   0  0  0  0  0  0  0  0  0  0  0  0
   -1.1128   -0.3655   -0.9266 C   0  0  0  0  0  0  0  0  0  0  0  0
    1.2029   -0.6527   -0.7806 C   0  0  0  0  0  0  0  0  0  0  0  0
    1.7642   -0.7906    0.5920 C   0  0  0  0  0  0  0  0  0  0  0  0
    3.2451   -0.9244    0.6920 C   0  0  0  0  0  0  0  0  0  0  0  0
    3.8657   -0.2465   -0.5069 C   0  0  0  0  0  0  0  0  0  0  0  0
    3.5283   -1.0667   -1.7009 C   0  0  0  0  0  0  0  0  0  0  0  0
    2.0461   -1.1431   -1.8922 C   0  0  0  0  0  0  0  0  0  0  0  0
    5.5617    0.9429    0.6696 C   0  0  0  0  0  0  0  0  0  0  0  0
    7.0470    1.2184    0.6674 C   0  0  0  0  0  0  0  0  0  0  0  0
    7.4820   -0.7378   -0.6771 C   0  0  0  0  0  0  0  0  0  0  0  0
    6.0954   -1.1345   -0.2031 C   0  0  0  0  0  0  0  0  0  0  0  0
    8.9804    1.1373   -0.7461 C   0  0  0  0  0  0  0  0  0  0  0  0
    9.9301    0.6653    0.3002 C   0  0  0  0  0  0  0  0  0  0  0  0
   -4.5053    3.2149    0.9431 C   0  0  0  0  0  0  0  0  0  0  0  0
   -3.7407    2.0017    0.5760 N   0  0  0  0  0  0  0  0  0  0  0  0
   -3.5123   -0.6082   -0.8517 O   0  0  0  0  0  0  0  0  0  0  0  0
   -9.7376   -1.0496    1.5590 Cl  0  0  0  0  0  0  0  0  0  0  0  0
   -4.6644    2.9122   -1.3379 C   0  0  0  0  0  0  0  0  0  0  0  0
   -5.3375    3.4927   -0.2125 N   0  0  0  0  0  0  0  0  0  0  0  0
   -3.2429   -0.7632    1.3673 O   0  0  0  0  0  0  0  0  0  0  0  0
   -5.9544   -2.3444   -1.9460 Cl  0  0  0  0  0  0  0  0  0  0  0  0
   -3.3476    2.3892   -0.7688 C   0  0  0  0  0  0  0  0  0  0  0  0
    5.3918    0.0837   -0.2931 N   0  0  0  0  0  0  0  0  0  0  0  0
    0.0495   -1.2165   -0.5579 O   0  0  0  0  0  0  0  0  0  0  0  0
   -4.7204    0.9350    0.5830 C   0  0  0  0  0  0  0  0  0  0  0  0
    8.0251    0.1494    0.6197 N   0  0  0  0  0  0  0  0  0  0  0  0
    9.8292    1.5324    0.8736 O   0  0  0  0  0  0  0  0  0  0  0  0
   -4.1595   -0.4299    0.3370 C   0  0  1  0  0  0  0  0  0  0  0  0
   -2.3456   -1.3243   -0.6064 C   0  0  2  0  0  0  0  0  0  0  0  0
   -2.4794   -1.7687    0.8343 C   0  0  0  0  0  0  0  0  0  0  0  0
   -5.3041   -1.4346    0.5345 C   0  0  0  0  0  0  0  0  0  0  0  0
   -6.3177   -1.2935   -0.5302 C   0  0  0  0  0  0  0  0  0  0  0  0
   -7.6777   -1.7918   -0.0136 C   0  0  0  0  0  0  0  0  0  0  0  0
   -8.0461   -0.7742    1.0482 C   0  0  0  0  0  0  0  0  0  0  0  0
   -7.1394   -0.9499    2.2115 C   0  0  0  0  0  0  0  0  0  0  0  0
   -5.7825   -1.4596    1.9294 C   0  0  0  0  0  0  0  0  0  0  0  0
   -1.0899   -0.5058   -0.8073 C   0  0  0  0  0  0  0  0  0  0  0  0
    1.2174   -0.4841   -0.7007 C   0  0  0  0  0  0  0  0  0  0  0  0
    1.8590   -0.4057    0.6625 C   0  0  0  0  0  0  0  0  0  0  0  0
    3.3032   -0.8849    0.6067 C   0  0  0  0  0  0  0  0  0  0  0  0
    3.9806   -0.0552   -0.4566 C   0  0  0  0  0  0  0  0  0  0  0  0
    3.5012   -0.4859   -1.7906 C   0  0  0  0  0  0  0  0  0  0  0  0
    2.1413   -1.0768   -1.7284 C   0  0  0  0  0  0  0  0  0  0  0  0
    5.7108    0.7703    0.9329 C   0  0  0  0  0  0  0  0  0  0  0  0
    7.1459    1.2373    0.8066 C   0  0  0  0  0  0  0  0  0  0  0  0
    7.4958   -1.0807    0.2125 C   0  0  0  0  0  0  0  0  0  0  0  0
    6.2019   -1.0446   -0.5406 C   0  0  0  0  0  0  0  0  0  0  0  0
    9.3006    0.5175    0.0564 C   0  0  2  0  0  0  0  0  0  0  0  0
    9.0716    1.0954   -1.3198 C   0  0  0  0  0  0  0  0  0  0  0  0
   -3.8420    3.7131    2.0226 H   0  0  0  0  0  0  0  0  0  0  0  0
   -5.2916    2.6308    2.2300 H   0  0  0  0  0  0  0  0  0  0  0  0
   -5.1992    2.5373   -1.4359 H   0  0  0  0  0  0  0  0  0  0  0  0
   -4.2674    4.0391   -1.4507 H   0  0  0  0  0  0  0  0  0  0  0  0
   -6.2383    3.4350    0.3744 H   0  0  0  0  0  0  0  0  0  0  0  0
   -2.5722    3.2507   -0.0353 H   0  0  0  0  0  0  0  0  0  0  0  0
   -3.0195    1.8018   -1.0895 H   0  0  0  0  0  0  0  0  0  0  0  0
   -5.2320    0.6837    1.7370 H   0  0  0  0  0  0  0  0  0  0  0  0
   -5.5348    1.2362    0.0872 H   0  0  0  0  0  0  0  0  0  0  0  0
    9.1870    2.8807    0.1931 H   0  0  0  0  0  0  0  0  0  0  0  0
   -2.3749   -1.9083   -1.6840 H   0  0  0  0  0  0  0  0  0  0  0  0
   -2.9020   -2.8504    0.3951 H   0  0  0  0  0  0  0  0  0  0  0  0
   -1.5158   -1.9452    1.0070 H   0  0  0  0  0  0  0  0  0  0  0  0
   -4.8245   -2.4490   -0.0725 H   0  0  0  0  0  0  0  0  0  0  0  0
   -6.3838   -0.1490   -1.1183 H   0  0  0  0  0  0  0  0  0  0  0  0
   -7.7853   -2.5778    0.0836 H   0  0  0  0  0  0  0  0  0  0  0  0
   -8.4908   -1.3393   -1.0655 H   0  0  0  0  0  0  0  0  0  0  0  0
   -7.7034    0.4128    0.6808 H   0  0  0  0  0  0  0  0  0  0  0  0
   -7.0488   -0.4164    2.8408 H   0  0  0  0  0  0  0  0  0  0  0  0
   -7.7580   -1.9935    2.5255 H   0  0  0  0  0  0  0  0  0  0  0  0
   -5.0234   -1.2680    2.3553 H   0  0  0  0  0  0  0  0  0  0  0  0
   -5.7484   -2.8202    1.9353 H   0  0  0  0  0  0  0  0  0  0  0  0
   -1.1332    0.4983   -0.2677 H   0  0  0  0  0  0  0  0  0  0  0  0
   -1.0552    0.0302   -1.9798 H   0  0  0  0  0  0  0  0  0  0  0  0
    0.9799    0.4467   -0.9439 H   0  0  0  0  0  0  0  0  0  0  0  0
    1.2174   -1.5957    1.1344 H   0  0  0  0  0  0  0  0  0  0  0  0
    1.4792    0.1426    1.1737 H   0  0  0  0  0  0  0  0  0  0  0  0
    3.4652   -2.0326    0.6653 H   0  0  0  0  0  0  0  0  0  0  0  0
    3.6251   -0.5832    1.6597 H   0  0  0  0  0  0  0  0  0  0  0  0
    3.3555    0.7511   -0.6138 H   0  0  0  0  0  0  0  0  0  0  0  0
    4.0600   -0.7272   -2.6215 H   0  0  0  0  0  0  0  0  0  0  0  0
    3.8755   -2.1178   -1.4705 H   0  0  0  0  0  0  0  0  0  0  0  0
    1.7673   -2.1698   -2.2421 H   0  0  0  0  0  0  0  0  0  0  0  0
    1.8354   -0.4620   -2.7846 H   0  0  0  0  0  0  0  0  0  0  0  0
    5.3763    0.3996    1.6452 H   0  0  0  0  0  0  0  0  0  0  0  0
    4.9441    1.8641    0.6719 H   0  0  0  0  0  0  0  0  0  0  0  0
    7.5651    0.8479    1.5728 H   0  0  0  0  0  0  0  0  0  0  0  0
    7.1449    2.3414    0.5953 H   0  0  0  0  0  0  0  0  0  0  0  0
    8.2352   -1.1905   -0.0000 H   0  0  0  0  0  0  0  0  0  0  0  0
    7.6702   -0.9900   -1.7343 H   0  0  0  0  0  0  0  0  0  0  0  0
    6.1738   -1.4239    0.8712 H   0  0  0  0  0  0  0  0  0  0  0  0
    5.7772   -2.0162   -0.7534 H   0  0  0  0  0  0  0  0  0  0  0  0
    9.3060    0.8661   -1.7634 H   0  0  0  0  0  0  0  0  0  0  0  0
   10.5397    1.5242    0.6476 H   0  0  0  0  0  0  0  0  0  0  0  0
    9.4631    0.2158    1.1908 H   0  0  0  0  0  0  0  0  0  0  0  0
   10.6564   -0.0262   -0.1864 H   0  0  0  0  0  0  0  0  0  0  0  0
   -3.8064    4.0527    1.1535 H   0  0  0  0  0  0  0  0  0  0  0  0
   -5.1579    2.9687    1.7810 H   0  0  0  0  0  0  0  0  0  0  0  0
   -5.2395    2.1319   -1.8576 H   0  0  0  0  0  0  0  0  0  0  0  0
   -4.3616    3.6627   -2.1135 H   0  0  0  0  0  0  0  0  0  0  0  0
   -6.3223    3.1593   -0.0900 H   0  0  0  0  0  0  0  0  0  0  0  0
   -2.6789    3.2453   -0.6808 H   0  0  0  0  0  0  0  0  0  0  0  0
   -2.9766    1.5664   -1.3873 H   0  0  0  0  0  0  0  0  0  0  0  0
   -5.1413    0.9317    1.6324 H   0  0  0  0  0  0  0  0  0  0  0  0
   -5.5527    1.2215   -0.0567 H   0  0  0  0  0  0  0  0  0  0  0  0
    9.7763    1.2508    1.8394 H   0  0  0  0  0  0  0  0  0  0  0  0
   -2.3158   -2.1676   -1.3217 H   0  0  0  0  0  0  0  0  0  0  0  0
   -2.8862   -2.7740    0.8587 H   0  0  0  0  0  0  0  0  0  0  0  0
   -1.5036   -1.7808    1.3591 H   0  0  0  0  0  0  0  0  0  0  0  0
   -4.8043   -2.4338    0.3296 H   0  0  0  0  0  0  0  0  0  0  0  0
   -6.5063   -0.3051   -0.9343 H   0  0  0  0  0  0  0  0  0  0  0  0
   -7.6057   -2.7845    0.4327 H   0  0  0  0  0  0  0  0  0  0  0  0
   -8.4410   -1.7129   -0.8096 H   0  0  0  0  0  0  0  0  0  0  0  0
   -8.0195    0.2545    0.6320 H   0  0  0  0  0  0  0  0  0  0  0  0
   -7.0929    0.0539    2.7349 H   0  0  0  0  0  0  0  0  0  0  0  0
   -7.6812   -1.5953    2.9554 H   0  0  0  0  0  0  0  0  0  0  0  0
   -5.0540   -0.8787    2.5546 H   0  0  0  0  0  0  0  0  0  0  0  0
   -5.7139   -2.5006    2.3723 H   0  0  0  0  0  0  0  0  0  0  0  0
   -1.1261    0.3667   -0.1195 H   0  0  0  0  0  0  0  0  0  0  0  0
   -1.1594   -0.1031   -1.8481 H   0  0  0  0  0  0  0  0  0  0  0  0
    0.8978    0.5354   -0.9921 H   0  0  0  0  0  0  0  0  0  0  0  0
    1.2503   -0.9344    1.4071 H   0  0  0  0  0  0  0  0  0  0  0  0
    1.9074    0.6525    0.9680 H   0  0  0  0  0  0  0  0  0  0  0  0
    3.2616   -1.9638    0.3540 H   0  0  0  0  0  0  0  0  0  0  0  0
    3.8025   -0.7527    1.5783 H   0  0  0  0  0  0  0  0  0  0  0  0
    3.5732    0.9945   -0.3050 H   0  0  0  0  0  0  0  0  0  0  0  0
    3.5620    0.3884   -2.4945 H   0  0  0  0  0  0  0  0  0  0  0  0
    4.2060   -1.2804   -2.1855 H   0  0  0  0  0  0  0  0  0  0  0  0
    2.1331   -2.2051   -1.7084 H   0  0  0  0  0  0  0  0  0  0  0  0
    1.6532   -0.8466   -2.7254 H   0  0  0  0  0  0  0  0  0  0  0  0
    5.5733    0.1762    1.8467 H   0  0  0  0  0  0  0  0  0  0  0  0
    5.0767    1.6937    0.9522 H   0  0  0  0  0  0  0  0  0  0  0  0
    7.4079    1.8352    1.7012 H   0  0  0  0  0  0  0  0  0  0  0  0
    7.1935    1.9070   -0.0761 H   0  0  0  0  0  0  0  0  0  0  0  0
    7.3884   -1.7453    1.1169 H   0  0  0  0  0  0  0  0  0  0  0  0
    8.2440   -1.6078   -0.4373 H   0  0  0  0  0  0  0  0  0  0  0  0
    5.6667   -2.0073   -0.3249 H   0  0  0  0  0  0  0  0  0  0  0  0
    6.3983   -1.0887   -1.6499 H   0  0  0  0  0  0  0  0  0  0  0  0
   10.0172   -0.3146    0.0756 H   0  0  0  0  0  0  0  0  0  0  0  0
    8.1000    0.7601   -1.7289 H   0  0  0  0  0  0  0  0  0  0  0  0
    9.8755    0.6845   -1.9930 H   0  0  0  0  0  0  0  0  0  0  0  0
    9.0626    2.1898   -1.2804 H   0  0  0  0  0  0  0  0  0  0  0  0
  1  2  1  0
  1  6  1  0
  5  6  1  0
  2  9  1  0
  5  9  1  0
  2 12  1  0
  3 15  1  0
  7 15  1  0
 15 12  1  1
  3 16  1  0
  7 17  1  0
 16 17  1  0
 15 18  1  0
  8 19  1  0
 18 19  1  0
 19 20  1  0
  4 21  1  0
 20 21  1  0
 21 22  1  0
 18 23  1  0
 22 23  1  0
 11 24  1  0
 16 24  1  0
 11 25  1  0
 25 26  1  0
 26 27  1  0
 10 28  1  0
 27 28  1  0
 28 29  1  0
 25 30  1  0
 29 30  1  0
 10 31  1  0
 13 32  1  0
 31 32  1  0
 13 33  1  0
 10 34  1  0
 33 34  1  0
 13 35  1  0
 14 35  1  0
 35 36  1  0
 37 38  1  0
 37 42  1  0
 41 42  1  0
 38 45  1  0
 41 45  1  0
 38 48  1  0
 39 51  1  0
 43 51  1  0
 51 48  1  1
 39 52  1  0
 43 53  1  0
 52 53  1  0
 51 54  1  0
 44 55  1  0
 54 55  1  0
 55 56  1  0
 40 57  1  0
 56 57  1  0
 57 58  1  0
 54 59  1  0
 58 59  1  0
 47 60  1  0
 52 60  1  0
 47 61  1  0
 61 62  1  0
 62 63  1  0
 46 64  1  0
 63 64  1  0
 64 65  1  0
 61 66  1  0
 65 66  1  0
 46 67  1  0
 49 68  1  0
 67 68  1  0
 49 69  1  0
 46 70  1  0
 69 70  1  0
 49 71  1  0
 50 71  1  0
 71 72  1  0
  1 73  1  0
  1 74  1  0
  5 75  1  0
  5 76  1  0
  6 77  1  0
  9 78  1  0
  9 79  1  0
 12 80  1  0
 12 81  1  0
 14 82  1  0
 16 83  1  6
 17 84  1  0
 17 85  1  0
 18 86  1  0
 19 87  1  0
 20 88  1  0
 20 89  1  0
 21 90  1  0
 22 91  1  0
 22 92  1  0
 23 93  1  0
 23 94  1  0
 24 95  1  0
 24 96  1  0
 25 97  1  0
 26 98  1  0
 26 99  1  0
 27100  1  0
 27101  1  0
 28102  1  0
 29103  1  0
 29104  1  0
 30105  1  0
 30106  1  0
 31107  1  0
 31108  1  0
 32109  1  0
 32110  1  0
 33111  1  0
 33112  1  0
 34113  1  0
 34114  1  0
 35115  1  0
 36116  1  0
 36117  1  0
 36118  1  0
 37119  1  0
 37120  1  0
 41121  1  0
 41122  1  0
 42123  1  0
 45124  1  0
 45125  1  0
 48126  1  0
 48127  1  0
 50128  1  0
 52129  1  6
 53130  1  0
 53131  1  0
 54132  1  0
 55133  1  0
 56134  1  0
 56135  1  0
 57136  1  0
 58137  1  0
 58138  1  0
 59139  1  0
 59140  1  0
 60141  1  0
 60142  1  0
 61143  1  0
 62144  1  0
 62145  1  0
 63146  1  0
 63147  1  0
 64148  1  0
 65149  1  0
 65150  1  0
 66151  1  0
 66152  1  0
 67153  1  0
 67154  1  0
 68155  1  0
 68156  1  0
 69157  1  0
 69158  1  0
 70159  1  0
 70160  1  0
 71161  1  6
 72162  1  0
 72163  1  0
 72164  1  0
M  END
>  <PDBID>  (1) 
3LD6

>  <PDB ID>  (1) 
3LD6

>  <Generic Name>  (1) 
Ketoconazole

>  <Brand Name>  (1) 
Apo-ketoconazole#Extina#Ketoconazole#Ketodan#Ketoderm Cream 2%#Nizoral#Nizoral  - 2%#Nizoral A-D#Nizoral Cream 2%#Nizoral Oral Suspension 20mg/ml#Nizoral Shp 2%#Nizoral Tablets 200mg#Nu-ketocon Tablets - 200mg#Teva-ketoconazole#Xolegel#Fungarest#Fungoral#Ketoderm#Ketoisdin#Ketozole#Nizoral Cream#Nizoral Shampoo#Orifungal#Orifungal M#Panfungol

>  <DrugBank ID>  (1) 
DB01026

>  <ATC Codes>  (1) 
G01AF11#D01AC08#J02AB02

>  <Ligand ID>  (1) 
KKK,KLN,KTN

>  <Target Name>  (1) 
Lanosterol 14-alpha demethylase

>  <UniProt ID>  (1) 
P10613

>  <PDB ID.1>  (1) 
3LD6

>  <Seq. Identity>  (1) 
40%

$$$$
