PDB_DB01577_04
     RDKit          3D

 32 32  0  0  0  0  0  0  0  0999 V2000
   -1.6857    0.0817   -0.9476 N   0  0  0  0  0  0  0  0  0  0  0  0
   -1.3613    0.7890    0.2669 C   0  0  1  0  0  0  0  0  0  0  0  0
   -2.6666    1.3583    0.8071 C   0  0  0  0  0  0  0  0  0  0  0  0
   -0.6055    0.0529    1.2674 C   0  0  0  0  0  0  0  0  0  0  0  0
    0.7690   -0.4549    0.9556 C   0  0  0  0  0  0  0  0  0  0  0  0
    0.9270   -1.4066   -0.1499 C   0  0  0  0  0  0  0  0  0  0  0  0
    1.8182    0.6300    1.0296 C   0  0  0  0  0  0  0  0  0  0  0  0
    1.5036   -0.8721   -1.4251 C   0  0  0  0  0  0  0  0  0  0  0  0
    2.3840    1.0456   -0.2736 C   0  0  0  0  0  0  0  0  0  0  0  0
    2.8252   -0.1905   -1.0334 C   0  0  0  0  0  0  0  0  0  0  0  0
   -2.6233   -1.0100   -0.7390 C   0  0  0  0  0  0  0  0  0  0  0  0
   -2.1332    0.7577   -1.6225 H   0  0  0  0  0  0  0  0  0  0  0  0
   -0.8269    1.7217   -0.1006 H   0  0  0  0  0  0  0  0  0  0  0  0
   -3.3598    1.5846   -0.0333 H   0  0  0  0  0  0  0  0  0  0  0  0
   -2.4815    2.2499    1.4493 H   0  0  0  0  0  0  0  0  0  0  0  0
   -3.1995    0.6109    1.4371 H   0  0  0  0  0  0  0  0  0  0  0  0
   -1.2054   -0.8724    1.5445 H   0  0  0  0  0  0  0  0  0  0  0  0
   -0.5464    0.6933    2.1994 H   0  0  0  0  0  0  0  0  0  0  0  0
    0.9928   -1.0763    1.8945 H   0  0  0  0  0  0  0  0  0  0  0  0
    1.6260   -2.2776    0.1199 H   0  0  0  0  0  0  0  0  0  0  0  0
   -0.0168   -1.9265   -0.3699 H   0  0  0  0  0  0  0  0  0  0  0  0
    2.6632    0.3801    1.7047 H   0  0  0  0  0  0  0  0  0  0  0  0
    1.3311    1.5315    1.4973 H   0  0  0  0  0  0  0  0  0  0  0  0
    0.8677   -0.1747   -1.9592 H   0  0  0  0  0  0  0  0  0  0  0  0
    1.8133   -1.7387   -2.0605 H   0  0  0  0  0  0  0  0  0  0  0  0
    3.2862    1.6538   -0.0907 H   0  0  0  0  0  0  0  0  0  0  0  0
    1.7269    1.6207   -0.9299 H   0  0  0  0  0  0  0  0  0  0  0  0
    3.4391    0.0525   -1.9048 H   0  0  0  0  0  0  0  0  0  0  0  0
    3.3746   -0.8969   -0.3670 H   0  0  0  0  0  0  0  0  0  0  0  0
   -2.7802   -1.2646    0.3090 H   0  0  0  0  0  0  0  0  0  0  0  0
   -2.2285   -1.8846   -1.2953 H   0  0  0  0  0  0  0  0  0  0  0  0
   -3.6272   -0.7679   -1.1798 H   0  0  0  0  0  0  0  0  0  0  0  0
  1  2  1  0
  2  3  1  0
  2  4  1  0
  4  5  1  0
  5  6  1  0
  5  7  1  0
  6  8  1  0
  7  9  1  0
  8 10  1  0
  9 10  1  0
  1 11  1  0
  1 12  1  0
  2 13  1  6
  3 14  1  0
  3 15  1  0
  3 16  1  0
  4 17  1  0
  4 18  1  0
  5 19  1  0
  6 20  1  0
  6 21  1  0
  7 22  1  0
  7 23  1  0
  8 24  1  0
  8 25  1  0
  9 26  1  0
  9 27  1  0
 10 28  1  0
 10 29  1  0
 11 30  1  0
 11 31  1  0
 11 32  1  0
M  END
>  <PDBID>  (1) 
4XP6

>  <PDB ID>  (1) 
4XP6

>  <Generic Name>  (1) 
Methamphetamine

>  <Brand Name>  (1) 
Desoxyn#Methamphetamine Hydrochloride

>  <DrugBank ID>  (1) 
DB01577

>  <ATC Codes>  (1) 
N06BA03

>  <Ligand ID>  (1) 
B40

>  <Target Name>  (1) 
Sodium-dependent noradrenaline transporter

>  <UniProt ID>  (1) 
P23975

>  <PDB ID.1>  (1) 
4XP6

>  <Seq. Identity>  (1) 
59%

$$$$
