PDB_DB01194_03
     RDKit          3D

 52 53  0  0  0  0  0  0  0  0999 V2000
   -3.6179    0.1482   -0.6276 C   0  0  0  0  0  0  0  0  0  0  0  0
    1.6662    0.3395   -0.9719 C   0  0  0  0  0  0  0  0  0  0  0  0
    1.0377   -0.7868   -1.6767 C   0  0  1  0  0  0  0  0  0  0  0  0
    0.8189    1.2243   -0.1285 C   0  0  2  0  0  0  0  0  0  0  0  0
   -0.6488    1.2789   -0.4678 C   0  0  0  0  0  0  0  0  0  0  0  0
    3.7628   -2.2193    1.1433 S   0  0  0  0  0  0  0  0  0  0  0  0
   -4.8209   -0.3099    0.2296 C   0  0  0  0  0  0  0  0  0  0  0  0
    1.5829    4.7955    0.6254 C   0  0  0  0  0  0  0  0  0  0  0  0
    1.0804    3.3896    0.9103 C   0  0  0  0  0  0  0  0  0  0  0  0
    1.5946   -2.2409   -0.7203 S   0  0  0  0  0  0  0  0  0  0  0  0
    5.0227   -1.9002    1.7823 N   0  0  0  0  0  0  0  0  0  0  0  0
    2.5083   -2.9065    1.9984 O   0  0  0  0  0  0  0  0  0  0  0  0
    4.2170   -3.9203    0.3098 O   0  0  0  0  0  0  0  0  0  0  0  0
    3.1923   -1.4870   -0.2737 C   0  0  0  0  0  0  0  0  0  0  0  0
    2.8575   -0.0638   -0.1768 C   0  0  0  0  0  0  0  0  0  0  0  0
   -0.6595   -0.8338   -1.7559 S   0  0  0  0  0  0  0  0  0  0  0  0
   -1.2264    0.0593   -3.3551 O   0  0  0  0  0  0  0  0  0  0  0  0
   -1.3327   -2.4849   -1.9301 O   0  0  0  0  0  0  0  0  0  0  0  0
   -1.1477   -0.0492   -0.4306 N   0  0  0  0  0  0  0  0  0  0  0  0
    1.3397    2.5868   -0.2513 N   0  0  0  0  0  0  0  0  0  0  0  0
   -2.3929   -0.3175    0.1278 C   0  0  0  0  0  0  0  0  0  0  0  0
   -4.7644   -1.6935    0.3670 O   0  0  0  0  0  0  0  0  0  0  0  0
   -5.7829   -2.2365    1.1294 C   0  0  0  0  0  0  0  0  0  0  0  0
   -3.6594    1.2490   -0.6410 H   0  0  0  0  0  0  0  0  0  0  0  0
   -3.7061   -0.2253   -1.6474 H   0  0  0  0  0  0  0  0  0  0  0  0
    2.0788    1.0087   -1.7984 H   0  0  0  0  0  0  0  0  0  0  0  0
    1.5166   -0.9388   -2.6847 H   0  0  0  0  0  0  0  0  0  0  0  0
    0.9221    0.9322    0.9302 H   0  0  0  0  0  0  0  0  0  0  0  0
   -0.8310    1.8262   -1.3928 H   0  0  0  0  0  0  0  0  0  0  0  0
   -1.1227    1.8661    0.3468 H   0  0  0  0  0  0  0  0  0  0  0  0
   -4.6596    0.1462    1.2161 H   0  0  0  0  0  0  0  0  0  0  0  0
   -5.7717    0.0613   -0.1765 H   0  0  0  0  0  0  0  0  0  0  0  0
    1.1334    5.1823   -0.3379 H   0  0  0  0  0  0  0  0  0  0  0  0
    1.3973    5.5126    1.4315 H   0  0  0  0  0  0  0  0  0  0  0  0
    2.6675    4.7533    0.4679 H   0  0  0  0  0  0  0  0  0  0  0  0
    0.0629    3.3373    1.2877 H   0  0  0  0  0  0  0  0  0  0  0  0
    1.7501    2.9876    1.7314 H   0  0  0  0  0  0  0  0  0  0  0  0
    5.3941   -0.9513    1.9940 H   0  0  0  0  0  0  0  0  0  0  0  0
    5.6605   -2.5940    2.2384 H   0  0  0  0  0  0  0  0  0  0  0  0
    2.7637   -3.1273    2.9259 H   0  0  0  0  0  0  0  0  0  0  0  0
    4.9406   -3.5139   -0.2295 H   0  0  0  0  0  0  0  0  0  0  0  0
    3.8603   -1.6171   -1.1656 H   0  0  0  0  0  0  0  0  0  0  0  0
    3.7867    0.5192   -0.4579 H   0  0  0  0  0  0  0  0  0  0  0  0
    2.7485    0.1863    0.9215 H   0  0  0  0  0  0  0  0  0  0  0  0
   -0.7964    0.9105   -3.1977 H   0  0  0  0  0  0  0  0  0  0  0  0
   -2.2988   -2.3417   -2.0966 H   0  0  0  0  0  0  0  0  0  0  0  0
    1.0391    3.0101   -1.1362 H   0  0  0  0  0  0  0  0  0  0  0  0
   -2.5007   -1.4242    0.2705 H   0  0  0  0  0  0  0  0  0  0  0  0
   -2.4670    0.1083    1.1683 H   0  0  0  0  0  0  0  0  0  0  0  0
   -5.7888   -1.8160    2.1682 H   0  0  0  0  0  0  0  0  0  0  0  0
   -5.6075   -3.3384    1.2832 H   0  0  0  0  0  0  0  0  0  0  0  0
   -6.7995   -2.0811    0.7235 H   0  0  0  0  0  0  0  0  0  0  0  0
  2  3  1  0
  2  4  1  0
  4  5  1  0
  1  7  1  0
  8  9  1  0
  3 10  1  0
  6 11  1  0
  6 12  1  0
  6 13  1  0
  6 14  1  0
 10 14  1  0
  2 15  1  0
 14 15  1  0
  3 16  1  0
 16 17  1  0
 16 18  1  0
  5 19  1  0
 16 19  1  0
  4 20  1  0
  9 20  1  0
  1 21  1  0
 19 21  1  0
  7 22  1  0
 22 23  1  0
  1 24  1  0
  1 25  1  0
  2 26  1  0
  3 27  1  6
  4 28  1  1
  5 29  1  0
  5 30  1  0
  7 31  1  0
  7 32  1  0
  8 33  1  0
  8 34  1  0
  8 35  1  0
  9 36  1  0
  9 37  1  0
 11 38  1  0
 11 39  1  0
 12 40  1  0
 13 41  1  0
 14 42  1  0
 15 43  1  0
 15 44  1  0
 17 45  1  0
 18 46  1  0
 20 47  1  0
 21 48  1  0
 21 49  1  0
 23 50  1  0
 23 51  1  0
 23 52  1  0
M  END
>  <PDBID>  (1) 
4M2R

>  <PDB ID>  (1) 
4M2R

>  <Generic Name>  (1) 
Brinzolamide

>  <Brand Name>  (1) 
Azarga#Azopt#Sandoz Brinzolamide#Simbrinza

>  <DrugBank ID>  (1) 
DB01194

>  <ATC Codes>  (1) 
S01EC54#S01EC04

>  <Ligand ID>  (1) 
BZ1

>  <Target Name>  (1) 
Carbonic anhydrase 2

>  <UniProt ID>  (1) 
P00918

>  <PDB ID.1>  (1) 
4M2R

>  <Seq. Identity>  (1) 
100%

$$$$
