PDB_DB00238_08
     RDKit          3D

 48 51  0  0  0  0  0  0  0  0999 V2000
    0.1757    0.9931    0.2704 N   0  0  0  0  0  0  0  0  0  0  0  0
    0.2230    2.3580    0.6156 C   0  0  0  0  0  0  0  0  0  0  0  0
    0.3752    3.2681   -0.6488 C   0  0  0  0  0  0  0  0  0  0  0  0
   -0.6786    3.4465    0.4050 C   0  0  0  0  0  0  0  0  0  0  0  0
   -1.9632    1.2664   -0.7304 N   0  0  0  0  0  0  0  0  0  0  0  0
   -3.1060    0.9554    0.0972 C   0  0  0  0  0  0  0  0  0  0  0  0
   -3.7578   -0.2809   -0.5073 C   0  0  0  0  0  0  0  0  0  0  0  0
   -2.6605   -1.2861   -0.6720 C   0  0  0  0  0  0  0  0  0  0  0  0
   -3.1218   -2.5733   -0.0205 C   0  0  0  0  0  0  0  0  0  0  0  0
   -0.8263    0.4409   -0.5011 C   0  0  2  0  0  0  0  0  0  0  0  0
   -1.3758   -0.8907    0.0238 C   0  0  2  0  0  0  0  0  0  0  0  0
   -0.4406   -1.9450   -0.2069 N   0  0  0  0  0  0  0  0  0  0  0  0
    0.7505   -1.7066    0.5601 C   0  0  0  0  0  0  0  0  0  0  0  0
    1.3541   -2.8854    0.9901 O   0  0  0  0  0  0  0  0  0  0  0  0
    1.6736   -0.8787   -0.3271 C   0  0  1  0  0  0  0  0  0  0  0  0
    1.5206    0.5455    0.0624 C   0  0  2  0  0  0  0  0  0  0  0  0
    3.0818   -1.3798   -0.2701 C   0  0  0  0  0  0  0  0  0  0  0  0
    4.1034   -0.4465    0.2294 C   0  0  0  0  0  0  0  0  0  0  0  0
    3.6492    0.7614    0.9573 C   0  0  0  0  0  0  0  0  0  0  0  0
    2.2368    0.7345    1.3293 N   0  0  0  0  0  0  0  0  0  0  0  0
    1.0666    2.5484    1.3555 H   0  0  0  0  0  0  0  0  0  0  0  0
    0.0426    2.8666   -1.6001 H   0  0  0  0  0  0  0  0  0  0  0  0
    1.2588    3.9292   -0.6873 H   0  0  0  0  0  0  0  0  0  0  0  0
   -0.4911    4.3891    1.0129 H   0  0  0  0  0  0  0  0  0  0  0  0
   -1.7099    3.4645    0.0492 H   0  0  0  0  0  0  0  0  0  0  0  0
   -2.2770    1.3330   -1.7109 H   0  0  0  0  0  0  0  0  0  0  0  0
   -2.8271    0.8074    1.1562 H   0  0  0  0  0  0  0  0  0  0  0  0
   -3.8235    1.7769    0.0113 H   0  0  0  0  0  0  0  0  0  0  0  0
   -4.5989   -0.6359    0.1305 H   0  0  0  0  0  0  0  0  0  0  0  0
   -4.1411    0.0147   -1.5114 H   0  0  0  0  0  0  0  0  0  0  0  0
   -2.4455   -1.5205   -1.7386 H   0  0  0  0  0  0  0  0  0  0  0  0
   -2.5339   -2.8218    0.8957 H   0  0  0  0  0  0  0  0  0  0  0  0
   -3.0771   -3.4316   -0.6985 H   0  0  0  0  0  0  0  0  0  0  0  0
   -4.1830   -2.5095    0.3317 H   0  0  0  0  0  0  0  0  0  0  0  0
   -0.4134    0.1738   -1.5200 H   0  0  0  0  0  0  0  0  0  0  0  0
   -1.5512   -0.8123    1.1128 H   0  0  0  0  0  0  0  0  0  0  0  0
   -0.8045   -2.8934   -0.1896 H   0  0  0  0  0  0  0  0  0  0  0  0
    0.4459   -1.1531    1.4757 H   0  0  0  0  0  0  0  0  0  0  0  0
    1.2214   -3.6218    0.3395 H   0  0  0  0  0  0  0  0  0  0  0  0
    1.3473   -0.9402   -1.4099 H   0  0  0  0  0  0  0  0  0  0  0  0
    2.0665    1.1624   -0.6997 H   0  0  0  0  0  0  0  0  0  0  0  0
    3.4266   -1.7478   -1.2824 H   0  0  0  0  0  0  0  0  0  0  0  0
    3.0692   -2.3089    0.3506 H   0  0  0  0  0  0  0  0  0  0  0  0
    4.8083   -1.0003    0.9209 H   0  0  0  0  0  0  0  0  0  0  0  0
    4.7933   -0.0942   -0.5956 H   0  0  0  0  0  0  0  0  0  0  0  0
    4.2113    0.9489    1.9015 H   0  0  0  0  0  0  0  0  0  0  0  0
    3.7747    1.6827    0.3444 H   0  0  0  0  0  0  0  0  0  0  0  0
    2.1314   -0.1032    1.9486 H   0  0  0  0  0  0  0  0  0  0  0  0
  1  2  1  0
  2  3  1  0
  2  4  1  0
  3  4  1  0
  5  6  1  0
  6  7  1  0
  7  8  1  0
  8  9  1  0
  1 10  1  0
  5 10  1  0
  8 11  1  0
 10 11  1  0
 11 12  1  0
 12 13  1  0
 13 14  1  0
 13 15  1  0
  1 16  1  0
 15 16  1  0
 15 17  1  0
 17 18  1  0
 18 19  1  0
 16 20  1  0
 19 20  1  0
  2 21  1  0
  3 22  1  0
  3 23  1  0
  4 24  1  0
  4 25  1  0
  5 26  1  0
  6 27  1  0
  6 28  1  0
  7 29  1  0
  7 30  1  0
  8 31  1  0
  9 32  1  0
  9 33  1  0
  9 34  1  0
 10 35  1  6
 11 36  1  1
 12 37  1  0
 13 38  1  0
 14 39  1  0
 15 40  1  6
 16 41  1  6
 17 42  1  0
 17 43  1  0
 18 44  1  0
 18 45  1  0
 19 46  1  0
 19 47  1  0
 20 48  1  0
M  END
>  <PDBID>  (1) 
2HND

>  <PDB ID>  (1) 
2HND

>  <Generic Name>  (1) 
Nevirapine

>  <Brand Name>  (1) 
Apo-nevirapine#Apo-nevirapine XR#Apo-zidovudine-lamivudine-nevirapine#Auro-nevirapine#Mylan-nevirapine#Nevirapine#Nevirapine Extended Release#PMS-nevirapine#Teva-nevirapine#Viramune#Viramune XR

>  <DrugBank ID>  (1) 
DB00238

>  <ATC Codes>  (1) 
J05AR05#J05AG01#J05AR07

>  <Ligand ID>  (1) 
NVP

>  <Target Name>  (1) 
Reverse transcriptase/RNaseH

>  <UniProt ID>  (1) 
Q72547

>  <PDB ID.1>  (1) 
2HND

>  <Seq. Identity>  (1) 
96%

$$$$
