PDB_DB00482_00
     RDKit          3D

116120  0  0  0  0  0  0  0  0999 V2000
   -4.3282    1.1895    1.9248 S   0  0  0  0  0  0  0  0  0  0  0  0
   -2.8354    0.8309    1.1771 C   0  0  0  0  0  0  0  0  0  0  0  0
   -2.7782    1.3715   -0.2591 C   0  0  0  0  0  0  0  0  0  0  0  0
   -1.3448    1.0594   -0.7184 C   0  0  0  0  0  0  0  0  0  0  0  0
   -1.3373   -0.4173   -1.0636 C   0  0  0  0  0  0  0  0  0  0  0  0
   -2.2068   -1.2096   -0.1481 C   0  0  0  0  0  0  0  0  0  0  0  0
   -2.4078   -0.6048    1.2188 C   0  0  0  0  0  0  0  0  0  0  0  0
   -0.0201   -0.9044   -1.2919 N   0  0  0  0  0  0  0  0  0  0  0  0
    0.9196   -0.8749   -0.2425 C   0  0  0  0  0  0  0  0  0  0  0  0
    2.2354   -0.3239   -0.7778 C   0  0  0  0  0  0  0  0  0  0  0  0
    3.2984   -0.2498    0.2872 C   0  0  0  0  0  0  0  0  0  0  0  0
    4.3218    0.8209   -0.1190 C   0  0  0  0  0  0  0  0  0  0  0  0
    3.6964    2.1902   -0.1370 C   0  0  0  0  0  0  0  0  0  0  0  0
    3.7285    2.8582    1.2189 C   0  0  0  0  0  0  0  0  0  0  0  0
    2.2533    2.1732   -0.5911 C   0  0  0  0  0  0  0  0  0  0  0  0
    2.1061    0.9599   -1.5198 C   0  0  0  0  0  0  0  0  0  0  0  0
    1.1046   -2.3778    0.0376 C   0  0  0  0  0  0  0  0  0  0  0  0
    0.9590   -2.9895   -1.3439 C   0  0  0  0  0  0  0  0  0  0  0  0
    0.4383   -4.3819   -1.3485 C   0  0  0  0  0  0  0  0  0  0  0  0
    1.3054   -5.2070   -0.6274 F   0  0  0  0  0  0  0  0  0  0  0  0
    0.4700   -4.9036   -2.6485 F   0  0  0  0  0  0  0  0  0  0  0  0
   -0.8091   -4.5499   -0.8183 F   0  0  0  0  0  0  0  0  0  0  0  0
    0.0338   -2.1060   -1.9815 N   0  0  0  0  0  0  0  0  0  0  0  0
   -5.5904    0.5417    1.4223 N   0  0  0  0  0  0  0  0  0  0  0  0
   -4.3650    2.8228    2.1542 O   0  0  0  0  0  0  0  0  0  0  0  0
   -4.0384    0.6473    3.5598 O   0  0  0  0  0  0  0  0  0  0  0  0
   -4.3282    1.1895    1.9248 S   0  0  0  0  0  0  0  0  0  0  0  0
   -2.8354    0.8309    1.1771 C   0  0  0  0  0  0  0  0  0  0  0  0
   -2.7782    1.3715   -0.2591 C   0  0  0  0  0  0  0  0  0  0  0  0
   -1.3448    1.0594   -0.7184 C   0  0  0  0  0  0  0  0  0  0  0  0
   -1.3373   -0.4173   -1.0636 C   0  0  0  0  0  0  0  0  0  0  0  0
   -2.2068   -1.2096   -0.1481 C   0  0  0  0  0  0  0  0  0  0  0  0
   -2.4078   -0.6048    1.2188 C   0  0  0  0  0  0  0  0  0  0  0  0
   -0.0201   -0.9044   -1.2919 N   0  0  0  0  0  0  0  0  0  0  0  0
    0.9196   -0.8749   -0.2425 C   0  0  0  0  0  0  0  0  0  0  0  0
    2.2354   -0.3239   -0.7778 C   0  0  0  0  0  0  0  0  0  0  0  0
    3.2984   -0.2498    0.2872 C   0  0  0  0  0  0  0  0  0  0  0  0
    4.3218    0.8209   -0.1190 C   0  0  0  0  0  0  0  0  0  0  0  0
    3.6964    2.1902   -0.1370 C   0  0  0  0  0  0  0  0  0  0  0  0
    3.7285    2.8582    1.2189 C   0  0  0  0  0  0  0  0  0  0  0  0
    2.2533    2.1732   -0.5911 C   0  0  0  0  0  0  0  0  0  0  0  0
    2.1061    0.9599   -1.5198 C   0  0  0  0  0  0  0  0  0  0  0  0
    1.1046   -2.3778    0.0376 C   0  0  0  0  0  0  0  0  0  0  0  0
    0.9590   -2.9895   -1.3439 C   0  0  0  0  0  0  0  0  0  0  0  0
    0.4383   -4.3819   -1.3485 C   0  0  0  0  0  0  0  0  0  0  0  0
    1.3054   -5.2070   -0.6274 F   0  0  0  0  0  0  0  0  0  0  0  0
    0.4700   -4.9036   -2.6485 F   0  0  0  0  0  0  0  0  0  0  0  0
   -0.8091   -4.5499   -0.8183 F   0  0  0  0  0  0  0  0  0  0  0  0
    0.0338   -2.1060   -1.9815 N   0  0  0  0  0  0  0  0  0  0  0  0
   -5.5904    0.5417    1.4223 N   0  0  0  0  0  0  0  0  0  0  0  0
   -4.3650    2.8228    2.1542 O   0  0  0  0  0  0  0  0  0  0  0  0
   -4.0384    0.6473    3.5598 O   0  0  0  0  0  0  0  0  0  0  0  0
   -2.0365    1.4183    1.7138 H   0  0  0  0  0  0  0  0  0  0  0  0
   -2.9853    2.4411   -0.2508 H   0  0  0  0  0  0  0  0  0  0  0  0
   -3.4976    0.7614   -0.8432 H   0  0  0  0  0  0  0  0  0  0  0  0
   -0.6964    1.2523    0.1360 H   0  0  0  0  0  0  0  0  0  0  0  0
   -1.0872    1.6729   -1.6067 H   0  0  0  0  0  0  0  0  0  0  0  0
   -1.8449   -0.4609   -2.0791 H   0  0  0  0  0  0  0  0  0  0  0  0
   -3.2478   -1.3593   -0.5657 H   0  0  0  0  0  0  0  0  0  0  0  0
   -1.8081   -2.2130   -0.0005 H   0  0  0  0  0  0  0  0  0  0  0  0
   -1.5156   -0.7871    1.8463 H   0  0  0  0  0  0  0  0  0  0  0  0
   -3.2423   -1.1892    1.6910 H   0  0  0  0  0  0  0  0  0  0  0  0
    0.6652   -0.3190    0.6534 H   0  0  0  0  0  0  0  0  0  0  0  0
    2.6219   -1.0799   -1.5269 H   0  0  0  0  0  0  0  0  0  0  0  0
    3.8938   -1.1943    0.3265 H   0  0  0  0  0  0  0  0  0  0  0  0
    2.9136    0.0521    1.2709 H   0  0  0  0  0  0  0  0  0  0  0  0
    5.1506    0.8236    0.6125 H   0  0  0  0  0  0  0  0  0  0  0  0
    4.7795    0.5720   -1.1078 H   0  0  0  0  0  0  0  0  0  0  0  0
    4.2606    2.8070   -0.8657 H   0  0  0  0  0  0  0  0  0  0  0  0
    3.6826    3.9550    1.1111 H   0  0  0  0  0  0  0  0  0  0  0  0
    4.5886    2.5415    1.8369 H   0  0  0  0  0  0  0  0  0  0  0  0
    2.7912    2.5601    1.7626 H   0  0  0  0  0  0  0  0  0  0  0  0
    2.0019    3.0564   -1.2292 H   0  0  0  0  0  0  0  0  0  0  0  0
    1.5612    2.0254    0.2432 H   0  0  0  0  0  0  0  0  0  0  0  0
    2.9300    1.0308   -2.2952 H   0  0  0  0  0  0  0  0  0  0  0  0
    1.1866    1.1142   -2.0810 H   0  0  0  0  0  0  0  0  0  0  0  0
    0.3851   -2.7627    0.7737 H   0  0  0  0  0  0  0  0  0  0  0  0
    2.1132   -2.6162    0.3986 H   0  0  0  0  0  0  0  0  0  0  0  0
    1.9283   -2.9629   -1.8877 H   0  0  0  0  0  0  0  0  0  0  0  0
    0.2526   -1.9104   -2.9777 H   0  0  0  0  0  0  0  0  0  0  0  0
   -6.3171    0.1997    2.1201 H   0  0  0  0  0  0  0  0  0  0  0  0
   -6.1776    1.0425    0.6902 H   0  0  0  0  0  0  0  0  0  0  0  0
   -4.5386    3.3384    1.3329 H   0  0  0  0  0  0  0  0  0  0  0  0
   -3.5209   -0.1748    3.4336 H   0  0  0  0  0  0  0  0  0  0  0  0
   -2.0365    1.4183    1.7138 H   0  0  0  0  0  0  0  0  0  0  0  0
   -2.9853    2.4411   -0.2508 H   0  0  0  0  0  0  0  0  0  0  0  0
   -3.4976    0.7614   -0.8432 H   0  0  0  0  0  0  0  0  0  0  0  0
   -0.6964    1.2523    0.1360 H   0  0  0  0  0  0  0  0  0  0  0  0
   -1.0872    1.6729   -1.6067 H   0  0  0  0  0  0  0  0  0  0  0  0
   -1.8449   -0.4609   -2.0791 H   0  0  0  0  0  0  0  0  0  0  0  0
   -3.2478   -1.3593   -0.5657 H   0  0  0  0  0  0  0  0  0  0  0  0
   -1.8081   -2.2130   -0.0005 H   0  0  0  0  0  0  0  0  0  0  0  0
   -1.5156   -0.7871    1.8463 H   0  0  0  0  0  0  0  0  0  0  0  0
   -3.2423   -1.1892    1.6910 H   0  0  0  0  0  0  0  0  0  0  0  0
    0.6652   -0.3190    0.6534 H   0  0  0  0  0  0  0  0  0  0  0  0
    2.6219   -1.0799   -1.5269 H   0  0  0  0  0  0  0  0  0  0  0  0
    3.8938   -1.1943    0.3265 H   0  0  0  0  0  0  0  0  0  0  0  0
    2.9136    0.0521    1.2709 H   0  0  0  0  0  0  0  0  0  0  0  0
    5.1506    0.8236    0.6125 H   0  0  0  0  0  0  0  0  0  0  0  0
    4.7795    0.5720   -1.1078 H   0  0  0  0  0  0  0  0  0  0  0  0
    4.2606    2.8070   -0.8657 H   0  0  0  0  0  0  0  0  0  0  0  0
    3.6826    3.9550    1.1111 H   0  0  0  0  0  0  0  0  0  0  0  0
    4.5886    2.5415    1.8369 H   0  0  0  0  0  0  0  0  0  0  0  0
    2.7912    2.5601    1.7626 H   0  0  0  0  0  0  0  0  0  0  0  0
    2.0019    3.0564   -1.2292 H   0  0  0  0  0  0  0  0  0  0  0  0
    1.5612    2.0254    0.2432 H   0  0  0  0  0  0  0  0  0  0  0  0
    2.9300    1.0308   -2.2952 H   0  0  0  0  0  0  0  0  0  0  0  0
    1.1866    1.1142   -2.0810 H   0  0  0  0  0  0  0  0  0  0  0  0
    0.3851   -2.7627    0.7737 H   0  0  0  0  0  0  0  0  0  0  0  0
    2.1132   -2.6162    0.3986 H   0  0  0  0  0  0  0  0  0  0  0  0
    1.9283   -2.9629   -1.8877 H   0  0  0  0  0  0  0  0  0  0  0  0
    0.2526   -1.9104   -2.9777 H   0  0  0  0  0  0  0  0  0  0  0  0
   -6.3171    0.1997    2.1201 H   0  0  0  0  0  0  0  0  0  0  0  0
   -6.1776    1.0425    0.6902 H   0  0  0  0  0  0  0  0  0  0  0  0
   -4.5386    3.3384    1.3329 H   0  0  0  0  0  0  0  0  0  0  0  0
   -3.5209   -0.1748    3.4336 H   0  0  0  0  0  0  0  0  0  0  0  0
  1  2  1  0
  2  3  1  0
  3  4  1  0
  4  5  1  0
  5  6  1  0
  2  7  1  0
  6  7  1  0
  5  8  1  0
  8  9  1  0
  9 10  1  0
 10 11  1  0
 11 12  1  0
 12 13  1  0
 13 14  1  0
 13 15  1  0
 10 16  1  0
 15 16  1  0
  9 17  1  0
 17 18  1  0
 18 19  1  0
 19 20  1  0
 19 21  1  0
 19 22  1  0
  8 23  1  0
 18 23  1  0
  1 24  1  0
  1 25  1  0
  1 26  1  0
 27 28  1  0
 28 29  1  0
 29 30  1  0
 30 31  1  0
 31 32  1  0
 28 33  1  0
 32 33  1  0
 31 34  1  0
 34 35  1  0
 35 36  1  0
 36 37  1  0
 37 38  1  0
 38 39  1  0
 39 40  1  0
 39 41  1  0
 36 42  1  0
 41 42  1  0
 35 43  1  0
 43 44  1  0
 44 45  1  0
 45 46  1  0
 45 47  1  0
 45 48  1  0
 34 49  1  0
 44 49  1  0
 27 50  1  0
 27 51  1  0
 27 52  1  0
  2 53  1  0
  3 54  1  0
  3 55  1  0
  4 56  1  0
  4 57  1  0
  5 58  1  0
  6 59  1  0
  6 60  1  0
  7 61  1  0
  7 62  1  0
  9 63  1  0
 10 64  1  0
 11 65  1  0
 11 66  1  0
 12 67  1  0
 12 68  1  0
 13 69  1  0
 14 70  1  0
 14 71  1  0
 14 72  1  0
 15 73  1  0
 15 74  1  0
 16 75  1  0
 16 76  1  0
 17 77  1  0
 17 78  1  0
 18 79  1  0
 23 80  1  0
 24 81  1  0
 24 82  1  0
 25 83  1  0
 26 84  1  0
 28 85  1  0
 29 86  1  0
 29 87  1  0
 30 88  1  0
 30 89  1  0
 31 90  1  0
 32 91  1  0
 32 92  1  0
 33 93  1  0
 33 94  1  0
 35 95  1  0
 36 96  1  0
 37 97  1  0
 37 98  1  0
 38 99  1  0
 38100  1  0
 39101  1  0
 40102  1  0
 40103  1  0
 40104  1  0
 41105  1  0
 41106  1  0
 42107  1  0
 42108  1  0
 43109  1  0
 43110  1  0
 44111  1  0
 49112  1  0
 50113  1  0
 50114  1  0
 51115  1  0
 52116  1  0
M  END
>  <PDBID>  (1) 
5JW1

>  <PDB ID>  (1) 
5JW1

>  <Generic Name>  (1) 
Celecoxib

>  <Brand Name>  (1) 
Accel-celecoxib#Act Celecoxib#Ag-celecoxib#Apo-celecoxib#Auro-celecoxib#Bio-celecoxib#Celebrex#Celecoxib#Celecoxib 100 mg#Celecoxib 200 mg#Celecoxib 400 mg#Celecoxib 50 mg#Dom-celecoxib#Gd-celecoxib#Ipg-celecoxib#Jamp-celecoxib#Lupin-celecoxib#Mar-celecoxib#Mint-celecoxib#Mylan-celecoxib#PMS-celecoxib#Priva-celecoxib#Ran-celecoxib#Rbx-celecoxib#Riva-celecox#Riva-celecoxib#Sandoz Celecoxib#Sdz Celecoxib#Teva-celecoxib#Articox#Articoxib#Artiflex#Artilog#Artix#Artrixib#Blockten#Caditar#Cefinix#Celact#Celebra#Onsenal#Valdyne

>  <DrugBank ID>  (1) 
DB00482

>  <ATC Codes>  (1) 
L01XX33#M01AH01

>  <Ligand ID>  (1) 
CEL

>  <Target Name>  (1) 
Prostaglandin G/H synthase 2

>  <UniProt ID>  (1) 
P35354

>  <PDB ID.1>  (1) 
5JW1

>  <Seq. Identity>  (1) 
85%

$$$$
