PDB_DB00843_02
     RDKit          3D

142148  0  0  0  0  0  0  0  0999 V2000
   -5.6567   -1.1650   -0.1534 C   0  0  0  0  0  0  0  0  0  0  0  0
   -5.9985    0.3053   -0.0264 C   0  0  0  0  0  0  0  0  0  0  0  0
   -5.1125    0.9001    1.0727 C   0  0  0  0  0  0  0  0  0  0  0  0
   -3.6996    0.6482    0.6814 C   0  0  0  0  0  0  0  0  0  0  0  0
   -3.6000   -0.0146   -0.6998 C   0  0  0  0  0  0  0  0  0  0  0  0
   -4.2022   -1.3645   -0.5826 C   0  0  0  0  0  0  0  0  0  0  0  0
   -2.0386   -0.0629   -0.7524 C   0  0  0  0  0  0  0  0  0  0  0  0
   -1.7031    1.3448   -0.4071 C   0  0  1  0  0  0  0  0  0  0  0  0
   -2.8591    1.8573    0.4748 C   0  0  0  0  0  0  0  0  0  0  0  0
   -0.4534    1.6053    0.3340 C   0  0  0  0  0  0  0  0  0  0  0  0
    0.8600    1.2625   -0.2452 C   0  0  0  0  0  0  0  0  0  0  0  0
    1.0947   -0.1648   -0.5304 C   0  0  0  0  0  0  0  0  0  0  0  0
    2.5292   -0.4226   -1.0102 C   0  0  0  0  0  0  0  0  0  0  0  0
    3.4953    0.3281   -0.3161 N   0  0  0  0  0  0  0  0  0  0  0  0
    3.2270    1.6854   -0.0280 C   0  0  0  0  0  0  0  0  0  0  0  0
    1.9195    1.7413    0.7604 C   0  0  0  0  0  0  0  0  0  0  0  0
    4.3916   -0.3400    0.5456 C   0  0  0  0  0  0  0  0  0  0  0  0
    5.4094   -1.2218   -0.1149 C   0  0  0  0  0  0  0  0  0  0  0  0
    6.3135   -1.8944    0.8917 C   0  0  0  0  0  0  0  0  0  0  0  0
    7.2383   -0.9394    1.5845 C   0  0  0  0  0  0  0  0  0  0  0  0
    8.1152   -0.2900    0.5398 C   0  0  0  0  0  0  0  0  0  0  0  0
    7.2179    0.4974   -0.3791 C   0  0  0  0  0  0  0  0  0  0  0  0
    6.2895   -0.4559   -1.0752 C   0  0  0  0  0  0  0  0  0  0  0  0
   -1.7208   -0.9806    0.2354 O   0  0  0  0  0  0  0  0  0  0  0  0
   -6.4629   -1.7121   -1.1470 O   0  0  0  0  0  0  0  0  0  0  0  0
   -7.2859   -2.7216   -0.6443 C   0  0  0  0  0  0  0  0  0  0  0  0
   -7.2943    0.4356    0.4069 O   0  0  0  0  0  0  0  0  0  0  0  0
   -7.9953    1.2194   -0.5024 C   0  0  0  0  0  0  0  0  0  0  0  0
   -5.6567   -1.1650   -0.1534 C   0  0  0  0  0  0  0  0  0  0  0  0
   -5.9985    0.3053   -0.0264 C   0  0  0  0  0  0  0  0  0  0  0  0
   -5.1125    0.9001    1.0727 C   0  0  0  0  0  0  0  0  0  0  0  0
   -3.6996    0.6482    0.6814 C   0  0  0  0  0  0  0  0  0  0  0  0
   -3.6000   -0.0146   -0.6998 C   0  0  0  0  0  0  0  0  0  0  0  0
   -4.2022   -1.3645   -0.5826 C   0  0  0  0  0  0  0  0  0  0  0  0
   -2.0386   -0.0629   -0.7524 C   0  0  0  0  0  0  0  0  0  0  0  0
   -1.7031    1.3448   -0.4071 C   0  0  1  0  0  0  0  0  0  0  0  0
   -2.8591    1.8573    0.4748 C   0  0  0  0  0  0  0  0  0  0  0  0
   -0.4534    1.6053    0.3340 C   0  0  0  0  0  0  0  0  0  0  0  0
    0.8600    1.2625   -0.2452 C   0  0  0  0  0  0  0  0  0  0  0  0
    1.0947   -0.1648   -0.5304 C   0  0  0  0  0  0  0  0  0  0  0  0
    2.5292   -0.4226   -1.0102 C   0  0  0  0  0  0  0  0  0  0  0  0
    3.4953    0.3281   -0.3161 N   0  0  0  0  0  0  0  0  0  0  0  0
    3.2270    1.6854   -0.0280 C   0  0  0  0  0  0  0  0  0  0  0  0
    1.9195    1.7413    0.7604 C   0  0  0  0  0  0  0  0  0  0  0  0
    4.3916   -0.3400    0.5456 C   0  0  0  0  0  0  0  0  0  0  0  0
    5.4094   -1.2218   -0.1149 C   0  0  0  0  0  0  0  0  0  0  0  0
    6.3135   -1.8944    0.8917 C   0  0  0  0  0  0  0  0  0  0  0  0
    7.2383   -0.9394    1.5845 C   0  0  0  0  0  0  0  0  0  0  0  0
    8.1152   -0.2900    0.5398 C   0  0  0  0  0  0  0  0  0  0  0  0
    7.2179    0.4974   -0.3791 C   0  0  0  0  0  0  0  0  0  0  0  0
    6.2895   -0.4559   -1.0752 C   0  0  0  0  0  0  0  0  0  0  0  0
   -1.7208   -0.9806    0.2354 O   0  0  0  0  0  0  0  0  0  0  0  0
   -6.4629   -1.7121   -1.1470 O   0  0  0  0  0  0  0  0  0  0  0  0
   -7.2859   -2.7216   -0.6443 C   0  0  0  0  0  0  0  0  0  0  0  0
   -7.2943    0.4356    0.4069 O   0  0  0  0  0  0  0  0  0  0  0  0
   -7.9953    1.2194   -0.5024 C   0  0  0  0  0  0  0  0  0  0  0  0
   -5.7960   -1.6132    0.8313 H   0  0  0  0  0  0  0  0  0  0  0  0
   -5.8763    0.8478   -0.9729 H   0  0  0  0  0  0  0  0  0  0  0  0
   -5.3605    1.9423    1.2782 H   0  0  0  0  0  0  0  0  0  0  0  0
   -5.3292    0.2671    1.9823 H   0  0  0  0  0  0  0  0  0  0  0  0
   -3.1741   -0.0553    1.3695 H   0  0  0  0  0  0  0  0  0  0  0  0
   -3.9307    0.6183   -1.5134 H   0  0  0  0  0  0  0  0  0  0  0  0
   -3.6433   -1.9189    0.2042 H   0  0  0  0  0  0  0  0  0  0  0  0
   -4.1338   -1.9282   -1.5307 H   0  0  0  0  0  0  0  0  0  0  0  0
   -1.7588   -0.3748   -1.7811 H   0  0  0  0  0  0  0  0  0  0  0  0
   -1.7186    1.9921   -1.3490 H   0  0  0  0  0  0  0  0  0  0  0  0
   -2.4813    2.3049    1.4174 H   0  0  0  0  0  0  0  0  0  0  0  0
   -3.4503    2.5869   -0.1139 H   0  0  0  0  0  0  0  0  0  0  0  0
   -0.3971    2.7144    0.6259 H   0  0  0  0  0  0  0  0  0  0  0  0
   -0.4855    1.1087    1.3681 H   0  0  0  0  0  0  0  0  0  0  0  0
    1.0591    1.8639   -1.1808 H   0  0  0  0  0  0  0  0  0  0  0  0
    0.4665   -0.5212   -1.3511 H   0  0  0  0  0  0  0  0  0  0  0  0
    0.9290   -0.8273    0.3466 H   0  0  0  0  0  0  0  0  0  0  0  0
    2.6040   -0.2605   -2.1081 H   0  0  0  0  0  0  0  0  0  0  0  0
    2.7095   -1.5034   -0.8345 H   0  0  0  0  0  0  0  0  0  0  0  0
    3.1663    2.3051   -0.9457 H   0  0  0  0  0  0  0  0  0  0  0  0
    4.0057    2.0765    0.6458 H   0  0  0  0  0  0  0  0  0  0  0  0
    1.9979    0.9458    1.5282 H   0  0  0  0  0  0  0  0  0  0  0  0
    1.6908    2.7380    1.1347 H   0  0  0  0  0  0  0  0  0  0  0  0
    3.8295   -0.8876    1.3501 H   0  0  0  0  0  0  0  0  0  0  0  0
    4.9799    0.4382    1.1156 H   0  0  0  0  0  0  0  0  0  0  0  0
    4.8825   -2.0027   -0.6846 H   0  0  0  0  0  0  0  0  0  0  0  0
    6.8840   -2.7113    0.4331 H   0  0  0  0  0  0  0  0  0  0  0  0
    5.6624   -2.3684    1.6723 H   0  0  0  0  0  0  0  0  0  0  0  0
    7.8808   -1.5232    2.2488 H   0  0  0  0  0  0  0  0  0  0  0  0
    6.6866   -0.1635    2.1363 H   0  0  0  0  0  0  0  0  0  0  0  0
    8.8871    0.3403    1.0406 H   0  0  0  0  0  0  0  0  0  0  0  0
    8.6397   -1.0763   -0.0336 H   0  0  0  0  0  0  0  0  0  0  0  0
    6.6856    1.2748    0.1776 H   0  0  0  0  0  0  0  0  0  0  0  0
    7.8601    0.9555   -1.1629 H   0  0  0  0  0  0  0  0  0  0  0  0
    6.9257   -1.2049   -1.6054 H   0  0  0  0  0  0  0  0  0  0  0  0
    5.7479    0.1028   -1.8410 H   0  0  0  0  0  0  0  0  0  0  0  0
   -1.5881   -1.8926   -0.1035 H   0  0  0  0  0  0  0  0  0  0  0  0
   -7.9551   -2.3121    0.1615 H   0  0  0  0  0  0  0  0  0  0  0  0
   -7.9624   -3.1049   -1.4283 H   0  0  0  0  0  0  0  0  0  0  0  0
   -6.7016   -3.5708   -0.2325 H   0  0  0  0  0  0  0  0  0  0  0  0
   -9.0459    1.3862   -0.2525 H   0  0  0  0  0  0  0  0  0  0  0  0
   -7.4268    2.1802   -0.6456 H   0  0  0  0  0  0  0  0  0  0  0  0
   -7.9831    0.7507   -1.5266 H   0  0  0  0  0  0  0  0  0  0  0  0
   -5.7960   -1.6132    0.8313 H   0  0  0  0  0  0  0  0  0  0  0  0
   -5.8763    0.8478   -0.9729 H   0  0  0  0  0  0  0  0  0  0  0  0
   -5.3605    1.9423    1.2782 H   0  0  0  0  0  0  0  0  0  0  0  0
   -5.3292    0.2671    1.9823 H   0  0  0  0  0  0  0  0  0  0  0  0
   -3.1741   -0.0553    1.3695 H   0  0  0  0  0  0  0  0  0  0  0  0
   -3.9307    0.6183   -1.5134 H   0  0  0  0  0  0  0  0  0  0  0  0
   -3.6433   -1.9189    0.2042 H   0  0  0  0  0  0  0  0  0  0  0  0
   -4.1338   -1.9282   -1.5307 H   0  0  0  0  0  0  0  0  0  0  0  0
   -1.7588   -0.3748   -1.7811 H   0  0  0  0  0  0  0  0  0  0  0  0
   -1.7186    1.9921   -1.3490 H   0  0  0  0  0  0  0  0  0  0  0  0
   -2.4813    2.3049    1.4174 H   0  0  0  0  0  0  0  0  0  0  0  0
   -3.4503    2.5869   -0.1139 H   0  0  0  0  0  0  0  0  0  0  0  0
   -0.3971    2.7144    0.6259 H   0  0  0  0  0  0  0  0  0  0  0  0
   -0.4855    1.1087    1.3681 H   0  0  0  0  0  0  0  0  0  0  0  0
    1.0591    1.8639   -1.1808 H   0  0  0  0  0  0  0  0  0  0  0  0
    0.4665   -0.5212   -1.3511 H   0  0  0  0  0  0  0  0  0  0  0  0
    0.9290   -0.8273    0.3466 H   0  0  0  0  0  0  0  0  0  0  0  0
    2.6040   -0.2605   -2.1081 H   0  0  0  0  0  0  0  0  0  0  0  0
    2.7095   -1.5034   -0.8345 H   0  0  0  0  0  0  0  0  0  0  0  0
    3.1663    2.3051   -0.9457 H   0  0  0  0  0  0  0  0  0  0  0  0
    4.0057    2.0765    0.6458 H   0  0  0  0  0  0  0  0  0  0  0  0
    1.9979    0.9458    1.5282 H   0  0  0  0  0  0  0  0  0  0  0  0
    1.6908    2.7380    1.1347 H   0  0  0  0  0  0  0  0  0  0  0  0
    3.8295   -0.8876    1.3501 H   0  0  0  0  0  0  0  0  0  0  0  0
    4.9799    0.4382    1.1156 H   0  0  0  0  0  0  0  0  0  0  0  0
    4.8825   -2.0027   -0.6846 H   0  0  0  0  0  0  0  0  0  0  0  0
    6.8840   -2.7113    0.4331 H   0  0  0  0  0  0  0  0  0  0  0  0
    5.6624   -2.3684    1.6723 H   0  0  0  0  0  0  0  0  0  0  0  0
    7.8808   -1.5232    2.2488 H   0  0  0  0  0  0  0  0  0  0  0  0
    6.6866   -0.1635    2.1363 H   0  0  0  0  0  0  0  0  0  0  0  0
    8.8871    0.3403    1.0406 H   0  0  0  0  0  0  0  0  0  0  0  0
    8.6397   -1.0763   -0.0336 H   0  0  0  0  0  0  0  0  0  0  0  0
    6.6856    1.2748    0.1776 H   0  0  0  0  0  0  0  0  0  0  0  0
    7.8601    0.9555   -1.1629 H   0  0  0  0  0  0  0  0  0  0  0  0
    6.9257   -1.2049   -1.6054 H   0  0  0  0  0  0  0  0  0  0  0  0
    5.7479    0.1028   -1.8410 H   0  0  0  0  0  0  0  0  0  0  0  0
   -1.5881   -1.8926   -0.1035 H   0  0  0  0  0  0  0  0  0  0  0  0
   -7.9551   -2.3121    0.1615 H   0  0  0  0  0  0  0  0  0  0  0  0
   -7.9624   -3.1049   -1.4283 H   0  0  0  0  0  0  0  0  0  0  0  0
   -6.7016   -3.5708   -0.2325 H   0  0  0  0  0  0  0  0  0  0  0  0
   -9.0459    1.3862   -0.2525 H   0  0  0  0  0  0  0  0  0  0  0  0
   -7.4268    2.1802   -0.6456 H   0  0  0  0  0  0  0  0  0  0  0  0
   -7.9831    0.7507   -1.5266 H   0  0  0  0  0  0  0  0  0  0  0  0
  1  2  1  0
  2  3  1  0
  3  4  1  0
  4  5  1  0
  1  6  1  0
  5  6  1  0
  5  7  1  0
  7  8  1  0
  4  9  1  0
  8  9  1  0
  8 10  1  0
 10 11  1  0
 11 12  1  0
 12 13  1  0
 13 14  1  0
 14 15  1  0
 11 16  1  0
 15 16  1  0
 14 17  1  0
 17 18  1  0
 18 19  1  0
 19 20  1  0
 20 21  1  0
 21 22  1  0
 18 23  1  0
 22 23  1  0
  7 24  1  0
  1 25  1  0
 25 26  1  0
  2 27  1  0
 27 28  1  0
 29 30  1  0
 30 31  1  0
 31 32  1  0
 32 33  1  0
 29 34  1  0
 33 34  1  0
 33 35  1  0
 35 36  1  0
 32 37  1  0
 36 37  1  0
 36 38  1  0
 38 39  1  0
 39 40  1  0
 40 41  1  0
 41 42  1  0
 42 43  1  0
 39 44  1  0
 43 44  1  0
 42 45  1  0
 45 46  1  0
 46 47  1  0
 47 48  1  0
 48 49  1  0
 49 50  1  0
 46 51  1  0
 50 51  1  0
 35 52  1  0
 29 53  1  0
 53 54  1  0
 30 55  1  0
 55 56  1  0
  1 57  1  0
  2 58  1  0
  3 59  1  0
  3 60  1  0
  4 61  1  0
  5 62  1  0
  6 63  1  0
  6 64  1  0
  7 65  1  0
  8 66  1  6
  9 67  1  0
  9 68  1  0
 10 69  1  0
 10 70  1  0
 11 71  1  0
 12 72  1  0
 12 73  1  0
 13 74  1  0
 13 75  1  0
 15 76  1  0
 15 77  1  0
 16 78  1  0
 16 79  1  0
 17 80  1  0
 17 81  1  0
 18 82  1  0
 19 83  1  0
 19 84  1  0
 20 85  1  0
 20 86  1  0
 21 87  1  0
 21 88  1  0
 22 89  1  0
 22 90  1  0
 23 91  1  0
 23 92  1  0
 24 93  1  0
 26 94  1  0
 26 95  1  0
 26 96  1  0
 28 97  1  0
 28 98  1  0
 28 99  1  0
 29100  1  0
 30101  1  0
 31102  1  0
 31103  1  0
 32104  1  0
 33105  1  0
 34106  1  0
 34107  1  0
 35108  1  0
 36109  1  6
 37110  1  0
 37111  1  0
 38112  1  0
 38113  1  0
 39114  1  0
 40115  1  0
 40116  1  0
 41117  1  0
 41118  1  0
 43119  1  0
 43120  1  0
 44121  1  0
 44122  1  0
 45123  1  0
 45124  1  0
 46125  1  0
 47126  1  0
 47127  1  0
 48128  1  0
 48129  1  0
 49130  1  0
 49131  1  0
 50132  1  0
 50133  1  0
 51134  1  0
 51135  1  0
 52136  1  0
 54137  1  0
 54138  1  0
 54139  1  0
 56140  1  0
 56141  1  0
 56142  1  0
M  END
>  <PDBID>  (1) 
4EY7

>  <PDB ID>  (1) 
4EY7

>  <Generic Name>  (1) 
Donepezil

>  <Brand Name>  (1) 
Accel-donepezil#Act Donepezil#Act Donepezil ODT#Ag-donepezil#Apo-donepezil#Aricept#Aricept ODT#Aricept Rdt#Auro-donepezil#Bio-donepezil#Dom-donepezil#Donepezil#Donepezil Hydrochloride#Donepezil Hydrochloride 10 mg#Donepezil Hydrochloride 10mg#Donepezil Hydrochloride 5 mg#Donepezil Hydrochloride ODT#Donepezil Hydrochloride Tablets#Donepezil Hydrochloride Tablets USP#Donepezil Hyrochloride 5mg#Ecl-donepezil#Ipg-donepezil#Jamp-donepezil#Jamp-donepezil Tablets#Mar-donepezil#Mint-donepezil#Mylan-donepezil#Namzaric#Nat-donepezil#PMS-donepezil#Priva-donepezil#Ran-donepezil#Riva-donepezil#Sandoz Donepezil#Sandoz Donepezil ODT#Septa Donepezil#Teva-donepezil#Van-donepezil#Alzepil#Davia#Depzil#Donecept#Donecil#Donep#Donepex#Donesyn#Dopezil#Eranz#Memac#Nomi-Nox#Pezale#Redumas#Zolpezil

>  <DrugBank ID>  (1) 
DB00843

>  <ATC Codes>  (1) 
N06DA02#N06DA52#N06DA53

>  <Ligand ID>  (1) 
E20

>  <Target Name>  (1) 
Acetylcholinesterase

>  <UniProt ID>  (1) 
P22303

>  <PDB ID.1>  (1) 
4EY7

>  <Seq. Identity>  (1) 
97%

$$$$
