PDB_DB01232_04
     RDKit          3D

123127  0  0  0  0  0  0  0  0999 V2000
   -4.4750   -0.6221    0.9166 C   0  0  0  0  0  0  0  0  0  0  0  0
   -5.1745   -0.8349    2.1079 O   0  0  0  0  0  0  0  0  0  0  0  0
   -6.5632   -0.6484   -0.3536 N   0  0  0  0  0  0  0  0  0  0  0  0
   -5.2608   -1.2009   -0.2361 C   0  0  2  0  0  0  0  0  0  0  0  0
   -5.1226   -2.6710   -0.2668 C   0  0  0  0  0  0  0  0  0  0  0  0
   -6.4255   -3.3985   -0.5266 C   0  0  0  0  0  0  0  0  0  0  0  0
   -8.6274   -3.6417    0.6854 C   0  0  0  0  0  0  0  0  0  0  0  0
   -9.9201   -2.9822    0.2590 C   0  0  0  0  0  0  0  0  0  0  0  0
   -9.6637   -2.4459   -1.1378 C   0  0  0  0  0  0  0  0  0  0  0  0
   -8.7256   -1.2955   -1.0418 C   0  0  0  0  0  0  0  0  0  0  0  0
   -7.4091   -2.8222    0.4785 C   0  0  0  0  0  0  0  0  0  0  0  0
   -7.6814   -1.4223    0.0590 C   0  0  0  0  0  0  0  0  0  0  0  0
   -4.0654    0.7034    0.8307 N   0  0  0  0  0  0  0  0  0  0  0  0
   -3.0931    1.1491   -0.0969 C   0  0  2  0  0  0  0  0  0  0  0  0
   -1.7211    0.5711    0.1500 C   0  0  0  0  0  0  0  0  0  0  0  0
   -1.3401    0.8197    1.4899 O   0  0  0  0  0  0  0  0  0  0  0  0
   -3.0472    2.6166   -0.2579 C   0  0  0  0  0  0  0  0  0  0  0  0
   -4.3244    3.2561   -0.7498 C   0  0  1  0  0  0  0  0  0  0  0  0
   -4.6308    2.7247   -1.9963 O   0  0  0  0  0  0  0  0  0  0  0  0
   -5.4527    3.1110    0.1048 N   0  0  0  0  0  0  0  0  0  0  0  0
    1.2143    0.9266    0.7601 C   0  0  1  0  0  0  0  0  0  0  0  0
    2.0072    1.6768    1.6519 O   0  0  0  0  0  0  0  0  0  0  0  0
    0.3258    1.8548    0.0129 C   0  0  1  0  0  0  0  0  0  0  0  0
   -0.7575    1.2473   -0.7165 N   0  0  0  0  0  0  0  0  0  0  0  0
    0.1353    3.2292    0.5528 C   0  0  0  0  0  0  0  0  0  0  0  0
    1.4249    4.0750    0.5572 C   0  0  0  0  0  0  0  0  0  0  0  0
    1.0733    5.4196    1.1603 C   0  0  0  0  0  0  0  0  0  0  0  0
    1.7962    4.3676   -0.9048 C   0  0  0  0  0  0  0  0  0  0  0  0
    0.3858    6.2839    0.1602 C   0  0  0  0  0  0  0  0  0  0  0  0
    2.4951    5.7031   -0.9311 C   0  0  0  0  0  0  0  0  0  0  0  0
    1.4148    6.7718   -0.8580 C   0  0  0  0  0  0  0  0  0  0  0  0
    3.1734   -0.4868    0.4933 N   0  0  0  0  0  0  0  0  0  0  0  0
    2.2539    0.3332   -0.2438 C   0  0  0  0  0  0  0  0  0  0  0  0
    4.4831   -0.5336    0.1224 C   0  0  2  0  0  0  0  0  0  0  0  0
    4.9284   -0.9369   -1.2925 C   0  0  0  0  0  0  0  0  0  0  0  0
    4.5229   -2.2019   -1.6530 O   0  0  0  0  0  0  0  0  0  0  0  0
    5.4635   -1.0620    1.1463 C   0  0  0  0  0  0  0  0  0  0  0  0
    4.8334   -1.8064    2.2722 C   0  0  2  0  0  0  0  0  0  0  0  0
    5.8060   -2.8139    2.8575 C   0  0  0  0  0  0  0  0  0  0  0  0
    5.6639   -4.1835    2.3457 C   0  0  0  0  0  0  0  0  0  0  0  0
    4.7698   -4.3838    1.1760 C   0  0  0  0  0  0  0  0  0  0  0  0
    3.4836   -3.6581    1.2119 C   0  0  0  0  0  0  0  0  0  0  0  0
    3.4915   -2.3848    1.9814 C   0  0  2  0  0  0  0  0  0  0  0  0
    2.5888   -1.3198    1.4556 C   0  0  0  0  0  0  0  0  0  0  0  0
    6.3153   -0.6848   -1.3844 N   0  0  0  0  0  0  0  0  0  0  0  0
    7.2250   -1.3562   -2.1592 C   0  0  0  0  0  0  0  0  0  0  0  0
    8.5822   -1.3182   -1.3879 C   0  0  0  0  0  0  0  0  0  0  0  0
    7.5799   -0.5955   -3.4627 C   0  0  0  0  0  0  0  0  0  0  0  0
    7.0230   -2.8007   -2.4814 C   0  0  0  0  0  0  0  0  0  0  0  0
   -3.5232   -1.2539    1.0608 H   0  0  0  0  0  0  0  0  0  0  0  0
   -5.8492   -0.1335    2.2553 H   0  0  0  0  0  0  0  0  0  0  0  0
   -6.5417    0.2961    0.1005 H   0  0  0  0  0  0  0  0  0  0  0  0
   -4.7178   -0.8079   -1.1566 H   0  0  0  0  0  0  0  0  0  0  0  0
   -4.7337   -3.0866    0.7100 H   0  0  0  0  0  0  0  0  0  0  0  0
   -4.4048   -3.0481   -1.0308 H   0  0  0  0  0  0  0  0  0  0  0  0
   -6.7070   -3.2295   -1.5682 H   0  0  0  0  0  0  0  0  0  0  0  0
   -6.3498   -4.4778   -0.3245 H   0  0  0  0  0  0  0  0  0  0  0  0
   -8.5336   -4.5739    0.0642 H   0  0  0  0  0  0  0  0  0  0  0  0
   -8.7750   -3.9316    1.7545 H   0  0  0  0  0  0  0  0  0  0  0  0
  -10.7097   -3.7552    0.1514 H   0  0  0  0  0  0  0  0  0  0  0  0
  -10.2230   -2.1404    0.8889 H   0  0  0  0  0  0  0  0  0  0  0  0
   -9.3018   -3.2751   -1.7527 H   0  0  0  0  0  0  0  0  0  0  0  0
  -10.6236   -2.1033   -1.6091 H   0  0  0  0  0  0  0  0  0  0  0  0
   -9.3401   -0.3874   -0.8398 H   0  0  0  0  0  0  0  0  0  0  0  0
   -8.2221   -1.0561   -2.0250 H   0  0  0  0  0  0  0  0  0  0  0  0
   -6.8613   -2.7972    1.4478 H   0  0  0  0  0  0  0  0  0  0  0  0
   -8.1223   -0.8953    0.9631 H   0  0  0  0  0  0  0  0  0  0  0  0
   -3.9754    1.1344    1.7578 H   0  0  0  0  0  0  0  0  0  0  0  0
   -3.3501    0.6948   -1.1344 H   0  0  0  0  0  0  0  0  0  0  0  0
   -1.6623   -0.5000   -0.0163 H   0  0  0  0  0  0  0  0  0  0  0  0
   -1.9369    1.4453    1.9272 H   0  0  0  0  0  0  0  0  0  0  0  0
   -2.2807    2.8744   -1.0571 H   0  0  0  0  0  0  0  0  0  0  0  0
   -2.7456    3.1784    0.6404 H   0  0  0  0  0  0  0  0  0  0  0  0
   -4.1372    4.3571   -0.8948 H   0  0  0  0  0  0  0  0  0  0  0  0
   -5.3545    3.2484   -2.4118 H   0  0  0  0  0  0  0  0  0  0  0  0
   -6.3420    3.2720   -0.4556 H   0  0  0  0  0  0  0  0  0  0  0  0
   -5.4673    3.7125    0.9323 H   0  0  0  0  0  0  0  0  0  0  0  0
    0.7644    0.0888    1.2526 H   0  0  0  0  0  0  0  0  0  0  0  0
    2.9508    1.3969    1.6533 H   0  0  0  0  0  0  0  0  0  0  0  0
    0.9985    2.1691   -0.9688 H   0  0  0  0  0  0  0  0  0  0  0  0
   -0.3902    0.6025   -1.4269 H   0  0  0  0  0  0  0  0  0  0  0  0
   -0.1108    3.1723    1.6660 H   0  0  0  0  0  0  0  0  0  0  0  0
   -0.5798    3.8496    0.0212 H   0  0  0  0  0  0  0  0  0  0  0  0
    2.2810    3.6332    1.0095 H   0  0  0  0  0  0  0  0  0  0  0  0
    1.9777    5.9039    1.6000 H   0  0  0  0  0  0  0  0  0  0  0  0
    0.3781    5.2793    2.0200 H   0  0  0  0  0  0  0  0  0  0  0  0
    2.5044    3.5899   -1.2417 H   0  0  0  0  0  0  0  0  0  0  0  0
    0.8958    4.3343   -1.5599 H   0  0  0  0  0  0  0  0  0  0  0  0
   -0.1132    7.1722    0.6414 H   0  0  0  0  0  0  0  0  0  0  0  0
   -0.3824    5.7441   -0.4037 H   0  0  0  0  0  0  0  0  0  0  0  0
    3.1203    5.8276   -1.8420 H   0  0  0  0  0  0  0  0  0  0  0  0
    3.1701    5.7781   -0.0622 H   0  0  0  0  0  0  0  0  0  0  0  0
    0.9480    6.8447   -1.8755 H   0  0  0  0  0  0  0  0  0  0  0  0
    1.8038    7.7318   -0.4908 H   0  0  0  0  0  0  0  0  0  0  0  0
    2.7488    1.2032   -0.6846 H   0  0  0  0  0  0  0  0  0  0  0  0
    1.6593   -0.1829   -0.9955 H   0  0  0  0  0  0  0  0  0  0  0  0
    4.7999    0.6063    0.0807 H   0  0  0  0  0  0  0  0  0  0  0  0
    4.4364   -0.2449   -2.0472 H   0  0  0  0  0  0  0  0  0  0  0  0
    4.0683   -2.2517   -2.5214 H   0  0  0  0  0  0  0  0  0  0  0  0
    6.1292   -1.7834    0.6080 H   0  0  0  0  0  0  0  0  0  0  0  0
    6.1601   -0.2617    1.4879 H   0  0  0  0  0  0  0  0  0  0  0  0
    4.6743   -1.0704    3.0938 H   0  0  0  0  0  0  0  0  0  0  0  0
    5.8083   -2.8274    3.9709 H   0  0  0  0  0  0  0  0  0  0  0  0
    6.8323   -2.4191    2.5952 H   0  0  0  0  0  0  0  0  0  0  0  0
    5.3161   -4.8821    3.1670 H   0  0  0  0  0  0  0  0  0  0  0  0
    6.6760   -4.6172    2.0760 H   0  0  0  0  0  0  0  0  0  0  0  0
    5.3241   -4.0736    0.2373 H   0  0  0  0  0  0  0  0  0  0  0  0
    4.5980   -5.4755    1.0520 H   0  0  0  0  0  0  0  0  0  0  0  0
    3.1485   -3.4640    0.1791 H   0  0  0  0  0  0  0  0  0  0  0  0
    2.7119   -4.3870    1.6032 H   0  0  0  0  0  0  0  0  0  0  0  0
    3.0211   -2.6893    2.9908 H   0  0  0  0  0  0  0  0  0  0  0  0
    1.7311   -1.8573    0.9616 H   0  0  0  0  0  0  0  0  0  0  0  0
    2.2058   -0.7690    2.3590 H   0  0  0  0  0  0  0  0  0  0  0  0
    6.6515    0.1591   -0.9359 H   0  0  0  0  0  0  0  0  0  0  0  0
    9.3524   -1.8731   -1.9548 H   0  0  0  0  0  0  0  0  0  0  0  0
    8.4096   -1.7963   -0.3974 H   0  0  0  0  0  0  0  0  0  0  0  0
    8.9050   -0.2859   -1.2460 H   0  0  0  0  0  0  0  0  0  0  0  0
    8.0808    0.3415   -3.1084 H   0  0  0  0  0  0  0  0  0  0  0  0
    6.6836   -0.4446   -4.0576 H   0  0  0  0  0  0  0  0  0  0  0  0
    8.3598   -1.2038   -3.9541 H   0  0  0  0  0  0  0  0  0  0  0  0
    6.4285   -3.3624   -1.7438 H   0  0  0  0  0  0  0  0  0  0  0  0
    8.0178   -3.3589   -2.5023 H   0  0  0  0  0  0  0  0  0  0  0  0
    6.6578   -2.9356   -3.5422 H   0  0  0  0  0  0  0  0  0  0  0  0
  1  2  1  0
  1  4  1  0
  3  4  1  0
  4  5  1  0
  5  6  1  0
  7  8  1  0
  8  9  1  0
  9 10  1  0
  6 11  1  0
  7 11  1  0
  3 12  1  0
 10 12  1  0
 11 12  1  0
  1 13  1  0
 13 14  1  0
 14 15  1  0
 15 16  1  0
 14 17  1  0
 17 18  1  0
 18 19  1  0
 18 20  1  0
 21 22  1  0
 21 23  1  0
 15 24  1  0
 23 24  1  0
 23 25  1  0
 25 26  1  0
 26 27  1  0
 26 28  1  0
 27 29  1  0
 28 30  1  0
 29 31  1  0
 30 31  1  0
 21 33  1  0
 32 33  1  0
 32 34  1  0
 34 35  1  0
 35 36  1  0
 34 37  1  0
 37 38  1  0
 38 39  1  0
 39 40  1  0
 40 41  1  0
 41 42  1  0
 38 43  1  0
 42 43  1  0
 32 44  1  0
 43 44  1  0
 35 45  1  0
 46 45  1  0
 46 47  1  0
 46 48  1  0
 46 49  1  0
  1 50  1  0
  2 51  1  0
  3 52  1  0
  4 53  1  6
  5 54  1  0
  5 55  1  0
  6 56  1  0
  6 57  1  0
  7 58  1  0
  7 59  1  0
  8 60  1  0
  8 61  1  0
  9 62  1  0
  9 63  1  0
 10 64  1  0
 10 65  1  0
 11 66  1  0
 12 67  1  0
 13 68  1  0
 14 69  1  6
 15 70  1  0
 16 71  1  0
 17 72  1  0
 17 73  1  0
 18 74  1  6
 19 75  1  0
 20 76  1  0
 20 77  1  0
 21 78  1  1
 22 79  1  0
 23 80  1  6
 24 81  1  0
 25 82  1  0
 25 83  1  0
 26 84  1  0
 27 85  1  0
 27 86  1  0
 28 87  1  0
 28 88  1  0
 29 89  1  0
 29 90  1  0
 30 91  1  0
 30 92  1  0
 31 93  1  0
 31 94  1  0
 33 95  1  0
 33 96  1  0
 34 97  1  6
 35 98  1  0
 36 99  1  0
 37100  1  0
 37101  1  0
 38102  1  1
 39103  1  0
 39104  1  0
 40105  1  0
 40106  1  0
 41107  1  0
 41108  1  0
 42109  1  0
 42110  1  0
 43111  1  1
 44112  1  0
 44113  1  0
 45114  1  0
 47115  1  0
 47116  1  0
 47117  1  0
 48118  1  0
 48119  1  0
 48120  1  0
 49121  1  0
 49122  1  0
 49123  1  0
M  END
>  <PDBID>  (1) 
1HXB

>  <PDB ID>  (1) 
1HXB

>  <Generic Name>  (1) 
Saquinavir

>  <Brand Name>  (1) 
Fortovase Roche#Invirase#Invirase - Cap 200mg#Fortovase#ROC

>  <DrugBank ID>  (1) 
DB01232

>  <ATC Codes>  (1) 
J05AE01

>  <Ligand ID>  (1) 
ROC

>  <Target Name>  (1) 
Pol polyprotein

>  <UniProt ID>  (1) 
Q72874

>  <PDB ID.1>  (1) 
1HXB

>  <Seq. Identity>  (1) 
100%

$$$$
