PDB_DB05990_05
     RDKit          3D

 76 79  0  0  0  0  0  0  0  0999 V2000
   -3.0880   -1.9138   -1.2293 C   0  0  0  0  0  0  0  0  0  0  0  0
   -4.5447   -1.9825   -1.4513 C   0  0  0  0  0  0  0  0  0  0  0  0
   -5.2526   -0.7670   -1.9028 C   0  0  1  0  0  0  0  0  0  0  0  0
   -6.5594   -0.8181   -1.3462 O   0  0  0  0  0  0  0  0  0  0  0  0
   -4.6710    0.5450   -1.5846 C   0  0  0  0  0  0  0  0  0  0  0  0
   -3.2897    0.5714   -1.0255 C   0  0  1  0  0  0  0  0  0  0  0  0
   -3.2950    0.8700    0.4564 C   0  0  2  0  0  0  0  0  0  0  0  0
   -1.9402    0.8193    1.0769 C   0  0  1  0  0  0  0  0  0  0  0  0
   -1.8966   -0.2960    1.9302 O   0  0  0  0  0  0  0  0  0  0  0  0
   -0.8215    0.6327    0.0743 C   0  0  2  0  0  0  0  0  0  0  0  0
   -1.1067   -0.6214   -0.7637 C   0  0  1  0  0  0  0  0  0  0  0  0
   -2.4396   -0.5812   -1.4298 C   0  0  1  0  0  0  0  0  0  0  0  0
    0.0463   -0.8450   -1.7170 C   0  0  0  0  0  0  0  0  0  0  0  0
    1.3087   -1.1727   -0.9447 C   0  0  0  0  0  0  0  0  0  0  0  0
    1.6074   -0.0293   -0.0497 C   0  0  1  0  0  0  0  0  0  0  0  0
    0.4013    0.3237    0.8388 C   0  0  1  0  0  0  0  0  0  0  0  0
    0.9846    1.3639    1.7048 C   0  0  0  0  0  0  0  0  0  0  0  0
    2.4189    0.8482    1.9406 C   0  0  0  0  0  0  0  0  0  0  0  0
    2.5357   -0.3632    1.0935 C   0  0  2  0  0  0  0  0  0  0  0  0
    1.9575    1.2036   -0.8049 C   0  0  0  0  0  0  0  0  0  0  0  0
   -2.2345   -0.4330   -2.9484 C   0  0  0  0  0  0  0  0  0  0  0  0
    3.7987   -0.9868    0.8176 C   0  0  2  0  0  0  0  0  0  0  0  0
    4.5170   -1.1959    2.1731 C   0  0  0  0  0  0  0  0  0  0  0  0
    4.7899   -0.4733   -0.1227 C   0  0  0  0  0  0  0  0  0  0  0  0
    5.3771    0.8739    0.1145 C   0  0  0  0  0  0  0  0  0  0  0  0
    6.4168    1.2170   -0.9755 C   0  0  0  0  0  0  0  0  0  0  0  0
   -4.2021    0.4881    2.7144 C   0  0  0  0  0  0  0  0  0  0  0  0
   -4.3049    0.0874    1.2441 C   0  0  0  0  0  0  0  0  0  0  0  0
    5.7963    1.2079   -2.2250 O   0  0  0  0  0  0  0  0  0  0  0  0
    6.8877    2.4956   -0.7378 O   0  0  0  0  0  0  0  0  0  0  0  0
   -2.5365   -2.6061   -1.9432 H   0  0  0  0  0  0  0  0  0  0  0  0
   -2.7783   -2.3542   -0.2313 H   0  0  0  0  0  0  0  0  0  0  0  0
   -4.7418   -2.8375   -2.1687 H   0  0  0  0  0  0  0  0  0  0  0  0
   -5.0019   -2.3827   -0.4941 H   0  0  0  0  0  0  0  0  0  0  0  0
   -5.4564   -0.8754   -3.0046 H   0  0  0  0  0  0  0  0  0  0  0  0
   -6.4876   -1.2838   -0.4755 H   0  0  0  0  0  0  0  0  0  0  0  0
   -5.3224    1.1348   -0.9001 H   0  0  0  0  0  0  0  0  0  0  0  0
   -4.6767    1.1671   -2.5321 H   0  0  0  0  0  0  0  0  0  0  0  0
   -2.7446    1.4703   -1.4660 H   0  0  0  0  0  0  0  0  0  0  0  0
   -3.6362    1.9477    0.5350 H   0  0  0  0  0  0  0  0  0  0  0  0
   -1.6864    1.6991    1.7000 H   0  0  0  0  0  0  0  0  0  0  0  0
   -1.4314   -0.1002    2.7796 H   0  0  0  0  0  0  0  0  0  0  0  0
   -0.8035    1.5237   -0.5523 H   0  0  0  0  0  0  0  0  0  0  0  0
   -1.0437   -1.4673   -0.0160 H   0  0  0  0  0  0  0  0  0  0  0  0
   -0.1909   -1.6419   -2.4534 H   0  0  0  0  0  0  0  0  0  0  0  0
    0.2787    0.0519   -2.3322 H   0  0  0  0  0  0  0  0  0  0  0  0
    2.1237   -1.2364   -1.7027 H   0  0  0  0  0  0  0  0  0  0  0  0
    1.1966   -2.1146   -0.3739 H   0  0  0  0  0  0  0  0  0  0  0  0
    0.2116   -0.5852    1.4505 H   0  0  0  0  0  0  0  0  0  0  0  0
    0.9739    2.3919    1.3202 H   0  0  0  0  0  0  0  0  0  0  0  0
    0.4236    1.4190    2.6805 H   0  0  0  0  0  0  0  0  0  0  0  0
    3.1502    1.6347    1.8164 H   0  0  0  0  0  0  0  0  0  0  0  0
    2.4573    0.5439    3.0255 H   0  0  0  0  0  0  0  0  0  0  0  0
    1.9087   -1.1544    1.6725 H   0  0  0  0  0  0  0  0  0  0  0  0
    2.3059    2.0365   -0.1645 H   0  0  0  0  0  0  0  0  0  0  0  0
    2.7183    1.0367   -1.5873 H   0  0  0  0  0  0  0  0  0  0  0  0
    1.0675    1.6367   -1.3388 H   0  0  0  0  0  0  0  0  0  0  0  0
   -1.9823   -1.4090   -3.3983 H   0  0  0  0  0  0  0  0  0  0  0  0
   -1.5403    0.3784   -3.1887 H   0  0  0  0  0  0  0  0  0  0  0  0
   -3.2146   -0.1378   -3.4266 H   0  0  0  0  0  0  0  0  0  0  0  0
    3.5942   -2.0721    0.5099 H   0  0  0  0  0  0  0  0  0  0  0  0
    4.8936   -0.1950    2.4797 H   0  0  0  0  0  0  0  0  0  0  0  0
    3.7681   -1.4959    2.9384 H   0  0  0  0  0  0  0  0  0  0  0  0
    5.2853   -1.9622    2.1048 H   0  0  0  0  0  0  0  0  0  0  0  0
    4.4920   -0.5252   -1.1990 H   0  0  0  0  0  0  0  0  0  0  0  0
    5.6725   -1.1936   -0.0916 H   0  0  0  0  0  0  0  0  0  0  0  0
    5.9099    0.8961    1.0867 H   0  0  0  0  0  0  0  0  0  0  0  0
    4.6502    1.7038    0.0328 H   0  0  0  0  0  0  0  0  0  0  0  0
    7.2133    0.4690   -1.0027 H   0  0  0  0  0  0  0  0  0  0  0  0
   -5.2195    0.7187    3.1445 H   0  0  0  0  0  0  0  0  0  0  0  0
   -3.7565   -0.2904    3.3426 H   0  0  0  0  0  0  0  0  0  0  0  0
   -3.6552    1.4559    2.7707 H   0  0  0  0  0  0  0  0  0  0  0  0
   -5.3426    0.2778    0.9437 H   0  0  0  0  0  0  0  0  0  0  0  0
   -4.0878   -1.0033    1.2366 H   0  0  0  0  0  0  0  0  0  0  0  0
    6.3083    1.7527   -2.8606 H   0  0  0  0  0  0  0  0  0  0  0  0
    7.5363    2.5097    0.0138 H   0  0  0  0  0  0  0  0  0  0  0  0
  1  2  1  0
  2  3  1  0
  3  4  1  0
  3  5  1  0
  5  6  1  0
  6  7  1  0
  7  8  1  0
  8  9  1  0
  8 10  1  0
 10 11  1  0
  1 12  1  0
  6 12  1  0
 11 12  1  0
 11 13  1  0
 13 14  1  0
 14 15  1  0
 10 16  1  0
 15 16  1  0
 16 17  1  0
 17 18  1  0
 15 19  1  0
 18 19  1  0
 15 20  1  6
 12 21  1  6
 19 22  1  0
 22 23  1  0
 22 24  1  0
 24 25  1  0
 25 26  1  0
  7 28  1  0
 27 28  1  0
 26 29  1  0
 26 30  1  0
  1 31  1  0
  1 32  1  0
  2 33  1  0
  2 34  1  0
  3 35  1  6
  4 36  1  0
  5 37  1  0
  5 38  1  0
  6 39  1  6
  7 40  1  6
  8 41  1  1
  9 42  1  0
 10 43  1  6
 11 44  1  1
 13 45  1  0
 13 46  1  0
 14 47  1  0
 14 48  1  0
 16 49  1  1
 17 50  1  0
 17 51  1  0
 18 52  1  0
 18 53  1  0
 19 54  1  1
 20 55  1  0
 20 56  1  0
 20 57  1  0
 21 58  1  0
 21 59  1  0
 21 60  1  0
 22 61  1  6
 23 62  1  0
 23 63  1  0
 23 64  1  0
 24 65  1  0
 24 66  1  0
 25 67  1  0
 25 68  1  0
 26 69  1  0
 27 70  1  0
 27 71  1  0
 27 72  1  0
 28 73  1  0
 28 74  1  0
 29 75  1  0
 30 76  1  0
M  END
>  <PDBID>  (1) 
1OT7

>  <PDB ID>  (1) 
1OT7

>  <Generic Name>  (1) 
Obeticholic acid

>  <Brand Name>  (1) 
Ocaliva

>  <DrugBank ID>  (1) 
DB05990

>  <ATC Codes>  (1) 
A05AA04

>  <Ligand ID>  (1) 
CHC

>  <Target Name>  (1) 
Bile acid receptor

>  <UniProt ID>  (1) 
Q96RI1

>  <PDB ID.1>  (1) 
1OT7

>  <Seq. Identity>  (1) 
95%

$$$$
