PDB_DB00190_00
     RDKit          3D

 74 74  0  0  0  0  0  0  0  0999 V2000
    2.7786   -0.5753    1.0198 N   0  0  0  0  0  0  0  0  0  0  0  0
    2.0574   -0.0243    2.0905 N   0  0  0  0  0  0  0  0  0  0  0  0
    1.9314   -0.1765   -0.1894 C   0  0  2  0  0  0  0  0  0  0  0  0
    0.6607   -0.8171    0.1098 C   0  0  0  0  0  0  0  0  0  0  0  0
    2.7031   -0.7618   -1.3500 C   0  0  0  0  0  0  0  0  0  0  0  0
   -0.5345   -0.7422   -0.7702 C   0  0  0  0  0  0  0  0  0  0  0  0
   -1.6518   -1.5824   -0.1789 C   0  0  0  0  0  0  0  0  0  0  0  0
   -2.3675   -0.9590    0.9644 C   0  0  0  0  0  0  0  0  0  0  0  0
   -0.9554    0.6919   -0.9244 C   0  0  0  0  0  0  0  0  0  0  0  0
   -2.4845    0.8359   -0.7219 C   0  0  0  0  0  0  0  0  0  0  0  0
   -2.6477    0.5143    0.7666 C   0  0  0  0  0  0  0  0  0  0  0  0
   -3.9152    0.8316    1.1911 O   0  0  0  0  0  0  0  0  0  0  0  0
   -3.5998   -1.5702    1.1800 O   0  0  0  0  0  0  0  0  0  0  0  0
    2.0850    1.2926   -0.2122 C   0  0  0  0  0  0  0  0  0  0  0  0
    3.4960    1.6228   -0.2513 O   0  0  0  0  0  0  0  0  0  0  0  0
    1.6474    1.9180   -1.3982 O   0  0  0  0  0  0  0  0  0  0  0  0
    2.7786   -0.5753    1.0198 N   0  0  0  0  0  0  0  0  0  0  0  0
    2.0574   -0.0243    2.0905 N   0  0  0  0  0  0  0  0  0  0  0  0
    1.9314   -0.1765   -0.1894 C   0  0  2  0  0  0  0  0  0  0  0  0
    0.6607   -0.8171    0.1098 C   0  0  0  0  0  0  0  0  0  0  0  0
    2.7031   -0.7618   -1.3500 C   0  0  0  0  0  0  0  0  0  0  0  0
   -0.5345   -0.7422   -0.7702 C   0  0  0  0  0  0  0  0  0  0  0  0
   -1.6518   -1.5824   -0.1789 C   0  0  0  0  0  0  0  0  0  0  0  0
   -2.3675   -0.9590    0.9644 C   0  0  0  0  0  0  0  0  0  0  0  0
   -0.9554    0.6919   -0.9244 C   0  0  0  0  0  0  0  0  0  0  0  0
   -2.4845    0.8359   -0.7219 C   0  0  0  0  0  0  0  0  0  0  0  0
   -2.6477    0.5143    0.7666 C   0  0  0  0  0  0  0  0  0  0  0  0
   -3.9152    0.8316    1.1911 O   0  0  0  0  0  0  0  0  0  0  0  0
   -3.5998   -1.5702    1.1800 O   0  0  0  0  0  0  0  0  0  0  0  0
    2.0850    1.2926   -0.2122 C   0  0  0  0  0  0  0  0  0  0  0  0
    3.4960    1.6228   -0.2513 O   0  0  0  0  0  0  0  0  0  0  0  0
    1.6474    1.9180   -1.3982 O   0  0  0  0  0  0  0  0  0  0  0  0
    3.6721   -0.0704    0.9430 H   0  0  0  0  0  0  0  0  0  0  0  0
    2.6561   -0.0533    2.9245 H   0  0  0  0  0  0  0  0  0  0  0  0
    0.8041   -1.9333    0.3354 H   0  0  0  0  0  0  0  0  0  0  0  0
    0.3495   -0.4497    1.1589 H   0  0  0  0  0  0  0  0  0  0  0  0
    3.7700   -0.4536   -1.1959 H   0  0  0  0  0  0  0  0  0  0  0  0
    2.4099   -0.3065   -2.3220 H   0  0  0  0  0  0  0  0  0  0  0  0
    2.6990   -1.8549   -1.3665 H   0  0  0  0  0  0  0  0  0  0  0  0
   -0.2871   -1.1309   -1.7679 H   0  0  0  0  0  0  0  0  0  0  0  0
   -2.3803   -1.8335   -0.9675 H   0  0  0  0  0  0  0  0  0  0  0  0
   -1.1952   -2.5324    0.1460 H   0  0  0  0  0  0  0  0  0  0  0  0
   -1.8090   -1.0423    1.9169 H   0  0  0  0  0  0  0  0  0  0  0  0
   -0.5316    1.2690   -0.0898 H   0  0  0  0  0  0  0  0  0  0  0  0
   -0.7379    1.0594   -1.9228 H   0  0  0  0  0  0  0  0  0  0  0  0
   -2.7537    1.8835   -0.8603 H   0  0  0  0  0  0  0  0  0  0  0  0
   -2.9977    0.1179   -1.3635 H   0  0  0  0  0  0  0  0  0  0  0  0
   -1.9239    1.1556    1.3076 H   0  0  0  0  0  0  0  0  0  0  0  0
   -4.5644    0.9408    0.4653 H   0  0  0  0  0  0  0  0  0  0  0  0
   -3.4790   -2.5461    1.1428 H   0  0  0  0  0  0  0  0  0  0  0  0
    1.6873    1.8668    0.6262 H   0  0  0  0  0  0  0  0  0  0  0  0
    3.6173    2.5259    0.1355 H   0  0  0  0  0  0  0  0  0  0  0  0
    1.7913    2.8899   -1.2400 H   0  0  0  0  0  0  0  0  0  0  0  0
    3.6721   -0.0704    0.9430 H   0  0  0  0  0  0  0  0  0  0  0  0
    2.6561   -0.0533    2.9245 H   0  0  0  0  0  0  0  0  0  0  0  0
    0.8041   -1.9333    0.3354 H   0  0  0  0  0  0  0  0  0  0  0  0
    0.3495   -0.4497    1.1589 H   0  0  0  0  0  0  0  0  0  0  0  0
    3.7700   -0.4536   -1.1959 H   0  0  0  0  0  0  0  0  0  0  0  0
    2.4099   -0.3065   -2.3220 H   0  0  0  0  0  0  0  0  0  0  0  0
    2.6990   -1.8549   -1.3665 H   0  0  0  0  0  0  0  0  0  0  0  0
   -0.2871   -1.1309   -1.7679 H   0  0  0  0  0  0  0  0  0  0  0  0
   -2.3803   -1.8335   -0.9675 H   0  0  0  0  0  0  0  0  0  0  0  0
   -1.1952   -2.5324    0.1460 H   0  0  0  0  0  0  0  0  0  0  0  0
   -1.8090   -1.0423    1.9169 H   0  0  0  0  0  0  0  0  0  0  0  0
   -0.5316    1.2690   -0.0898 H   0  0  0  0  0  0  0  0  0  0  0  0
   -0.7379    1.0594   -1.9228 H   0  0  0  0  0  0  0  0  0  0  0  0
   -2.7537    1.8835   -0.8603 H   0  0  0  0  0  0  0  0  0  0  0  0
   -2.9977    0.1179   -1.3635 H   0  0  0  0  0  0  0  0  0  0  0  0
   -1.9239    1.1556    1.3076 H   0  0  0  0  0  0  0  0  0  0  0  0
   -4.5644    0.9408    0.4653 H   0  0  0  0  0  0  0  0  0  0  0  0
   -3.4790   -2.5461    1.1428 H   0  0  0  0  0  0  0  0  0  0  0  0
    1.6873    1.8668    0.6262 H   0  0  0  0  0  0  0  0  0  0  0  0
    3.6173    2.5259    0.1355 H   0  0  0  0  0  0  0  0  0  0  0  0
    1.7913    2.8899   -1.2400 H   0  0  0  0  0  0  0  0  0  0  0  0
  1  2  1  0
  3  1  1  1
  3  4  1  0
  3  5  1  0
  4  6  1  0
  6  7  1  0
  7  8  1  0
  6  9  1  0
  9 10  1  0
  8 11  1  0
 10 11  1  0
 11 12  1  0
  8 13  1  0
  3 14  1  0
 14 15  1  0
 14 16  1  0
 17 18  1  0
 19 17  1  1
 19 20  1  0
 19 21  1  0
 20 22  1  0
 22 23  1  0
 23 24  1  0
 22 25  1  0
 25 26  1  0
 24 27  1  0
 26 27  1  0
 27 28  1  0
 24 29  1  0
 19 30  1  0
 30 31  1  0
 30 32  1  0
  1 33  1  0
  2 34  1  0
  4 35  1  0
  4 36  1  0
  5 37  1  0
  5 38  1  0
  5 39  1  0
  6 40  1  0
  7 41  1  0
  7 42  1  0
  8 43  1  0
  9 44  1  0
  9 45  1  0
 10 46  1  0
 10 47  1  0
 11 48  1  0
 12 49  1  0
 13 50  1  0
 14 51  1  0
 15 52  1  0
 16 53  1  0
 17 54  1  0
 18 55  1  0
 20 56  1  0
 20 57  1  0
 21 58  1  0
 21 59  1  0
 21 60  1  0
 22 61  1  0
 23 62  1  0
 23 63  1  0
 24 64  1  0
 25 65  1  0
 25 66  1  0
 26 67  1  0
 26 68  1  0
 27 69  1  0
 28 70  1  0
 29 71  1  0
 30 72  1  0
 31 73  1  0
 32 74  1  0
M  END
>  <PDBID>  (1) 
1JS3

>  <PDB ID>  (1) 
1JS3

>  <Generic Name>  (1) 
Carbidopa

>  <Brand Name>  (1) 
Apo-levocarb - Tab 10mg/100mg#Apo-levocarb - Tab 25mg/250mg#Apo-levocarb CR#Apo-levocarb-tab 25mg/100mg#Carbidopa#Carbidopa Tablets, 25 mg#Carbidopa and Levodopa#Carbidopa, Levodopa and Entacapone#Carbidopa, Levodopa, and Entacapone#Dom-levo-carbidopa#Duodopa#Duopa#Lodosyn#Mint-levocarb#Nu-levocarb - Tab 10mg/100mg#Nu-levocarb - Tab 25 Mg/100 mg#Nu-levocarb - Tablets 25 Mg/250 mg#PMS-levocarb CR#Parcopa#Pro-lecarb-100/10 - Tab#Pro-lecarb-100/25 - Tab#Pro-levocarb - 100/25#Ratio-levodopa/carbidopa#Rytary#Sinemet#Sinemet 100/10#Sinemet 100/25#Sinemet 250/25#Sinemet CR#Sinemet CR 100/25#Sinemet CR 200/50#Stalevo#Teva-levocarbidopa

>  <DrugBank ID>  (1) 
DB00190

>  <ATC Codes>  (1) 
nan

>  <Ligand ID>  (1) 
142

>  <Target Name>  (1) 
Aromatic-L-amino-acid decarboxylase

>  <UniProt ID>  (1) 
P20711

>  <PDB ID.1>  (1) 
1JS3

>  <Seq. Identity>  (1) 
90%

$$$$
