PDB_DB00282_05
     RDKit          3D

 28 27  0  0  0  0  0  0  0  0999 V2000
   -1.2911   -1.3994    0.2180 P   0  0  0  0  0  0  0  0  0  0  0  0
   -1.5205   -1.8863    1.6709 O   0  0  0  0  0  0  0  0  0  0  0  0
   -1.3473   -1.2391   -1.3155 O   0  0  0  0  0  0  0  0  0  0  0  0
   -0.4941   -2.8382   -0.0450 O   0  0  0  0  0  0  0  0  0  0  0  0
   -0.2460    0.0071    0.4769 C   0  0  0  0  0  0  0  0  0  0  0  0
   -0.7817    1.5494   -0.1056 P   0  0  0  0  0  0  0  0  0  0  0  0
   -2.1890    1.1521   -0.5515 O   0  0  0  0  0  0  0  0  0  0  0  0
   -0.4654    2.0333   -1.6805 O   0  0  0  0  0  0  0  0  0  0  0  0
   -1.4357    2.6609    0.9573 O   0  0  0  0  0  0  0  0  0  0  0  0
    0.1426    0.1802    1.8383 O   0  0  0  0  0  0  0  0  0  0  0  0
    1.0639   -0.4357   -0.1773 C   0  0  0  0  0  0  0  0  0  0  0  0
    2.1503    0.5804   -0.1087 C   0  0  0  0  0  0  0  0  0  0  0  0
    3.3397   -0.0087   -0.7610 N   0  0  0  0  0  0  0  0  0  0  0  0
   -2.6495   -1.2547    0.1963 H   0  0  0  0  0  0  0  0  0  0  0  0
   -0.7531   -1.8124    2.2484 H   0  0  0  0  0  0  0  0  0  0  0  0
   -1.7938   -1.8223   -1.9475 H   0  0  0  0  0  0  0  0  0  0  0  0
   -1.1364   -3.5268   -0.2328 H   0  0  0  0  0  0  0  0  0  0  0  0
    0.3242    2.1441    0.1759 H   0  0  0  0  0  0  0  0  0  0  0  0
   -2.7668    0.7405    0.1015 H   0  0  0  0  0  0  0  0  0  0  0  0
   -0.1893    1.2319   -2.1343 H   0  0  0  0  0  0  0  0  0  0  0  0
   -1.6915    3.4362    0.4507 H   0  0  0  0  0  0  0  0  0  0  0  0
   -0.7083    0.3116    2.3589 H   0  0  0  0  0  0  0  0  0  0  0  0
    1.4306   -1.3412    0.3699 H   0  0  0  0  0  0  0  0  0  0  0  0
    0.9009   -0.6926   -1.2461 H   0  0  0  0  0  0  0  0  0  0  0  0
    2.4489    0.8650    0.9152 H   0  0  0  0  0  0  0  0  0  0  0  0
    1.9426    1.4830   -0.7601 H   0  0  0  0  0  0  0  0  0  0  0  0
    3.6164   -0.8180   -0.1670 H   0  0  0  0  0  0  0  0  0  0  0  0
    4.0993    0.6998   -0.7450 H   0  0  0  0  0  0  0  0  0  0  0  0
  1  2  1  0
  1  3  1  0
  1  4  1  0
  1  5  1  0
  5  6  1  0
  6  7  1  0
  6  8  1  0
  6  9  1  0
  5 10  1  0
  5 11  1  0
 11 12  1  0
 12 13  1  0
  1 14  1  0
  2 15  1  0
  3 16  1  0
  4 17  1  0
  6 18  1  0
  7 19  1  0
  8 20  1  0
  9 21  1  0
 10 22  1  0
 11 23  1  0
 11 24  1  0
 12 25  1  0
 12 26  1  0
 13 27  1  0
 13 28  1  0
M  END
>  <PDBID>  (1) 
2F89

>  <PDB ID>  (1) 
2F89

>  <Generic Name>  (1) 
Pamidronate

>  <Brand Name>  (1) 
Aredia#Aredia 30mg#Aredia 90mg#Aredia Liq Inj 3mg/ml#PMS-pamidronate#Pamidronate Disodium#Pamidronate Disodium Omega 3 mg/ml#Pamidronate Disodium Omega 6 mg/ml#Pamidronate Disodium Omega 9 mg/ml#Pamidronate Disodium for Injection#Val-pamidronate Disodium#Aminomux#Pamimed

>  <DrugBank ID>  (1) 
DB00282

>  <ATC Codes>  (1) 
M05BA03

>  <Ligand ID>  (1) 
210

>  <Target Name>  (1) 
Farnesyl pyrophosphate synthase

>  <UniProt ID>  (1) 
P14324

>  <PDB ID.1>  (1) 
2F89

>  <Seq. Identity>  (1) 
100%

$$$$
