PDB_DB01273_04
     RDKit          3D

195210  0  0  0  0  0  0  0  0999 V2000
   -2.4475    0.0704    1.3782 C   0  0  0  0  0  0  0  0  0  0  0  0
   -2.1165    1.3889    0.9684 N   0  0  0  0  0  0  0  0  0  0  0  0
   -2.5092    1.7405   -0.3676 C   0  0  0  0  0  0  0  0  0  0  0  0
   -1.9595    0.6216   -1.2745 C   0  0  2  0  0  0  0  0  0  0  0  0
   -2.8844   -0.5614   -0.9245 C   0  0  0  0  0  0  0  0  0  0  0  0
   -2.1864   -1.0089    0.3771 C   0  0  1  0  0  0  0  0  0  0  0  0
   -0.7983   -1.0904   -0.1079 C   0  0  0  0  0  0  0  0  0  0  0  0
    0.2946   -1.2054    0.8729 C   0  0  0  0  0  0  0  0  0  0  0  0
    1.5893   -1.2725    0.0540 C   0  0  0  0  0  0  0  0  0  0  0  0
    2.7410   -1.4046    0.8627 N   0  0  0  0  0  0  0  0  0  0  0  0
    3.2623   -0.2066    1.4234 C   0  0  0  0  0  0  0  0  0  0  0  0
    3.2777    0.9673    0.4802 C   0  0  0  0  0  0  0  0  0  0  0  0
    2.0718    1.1070   -0.2721 N   0  0  0  0  0  0  0  0  0  0  0  0
    1.7429   -0.1437   -0.8984 C   0  0  0  0  0  0  0  0  0  0  0  0
    0.4797    0.1132   -1.7339 C   0  0  0  0  0  0  0  0  0  0  0  0
   -0.6184    0.2927   -0.7574 C   0  0  0  0  0  0  0  0  0  0  0  0
   -2.4475    0.0704    1.3782 C   0  0  0  0  0  0  0  0  0  0  0  0
   -2.1165    1.3889    0.9684 N   0  0  0  0  0  0  0  0  0  0  0  0
   -2.5092    1.7405   -0.3676 C   0  0  0  0  0  0  0  0  0  0  0  0
   -1.9595    0.6216   -1.2745 C   0  0  2  0  0  0  0  0  0  0  0  0
   -2.8844   -0.5614   -0.9245 C   0  0  0  0  0  0  0  0  0  0  0  0
   -2.1864   -1.0089    0.3771 C   0  0  1  0  0  0  0  0  0  0  0  0
   -0.7983   -1.0904   -0.1079 C   0  0  0  0  0  0  0  0  0  0  0  0
    0.2946   -1.2054    0.8729 C   0  0  0  0  0  0  0  0  0  0  0  0
    1.5893   -1.2725    0.0540 C   0  0  0  0  0  0  0  0  0  0  0  0
    2.7410   -1.4046    0.8627 N   0  0  0  0  0  0  0  0  0  0  0  0
    3.2623   -0.2066    1.4234 C   0  0  0  0  0  0  0  0  0  0  0  0
    3.2777    0.9673    0.4802 C   0  0  0  0  0  0  0  0  0  0  0  0
    2.0718    1.1070   -0.2721 N   0  0  0  0  0  0  0  0  0  0  0  0
    1.7429   -0.1437   -0.8984 C   0  0  0  0  0  0  0  0  0  0  0  0
    0.4797    0.1132   -1.7339 C   0  0  0  0  0  0  0  0  0  0  0  0
   -0.6184    0.2927   -0.7574 C   0  0  0  0  0  0  0  0  0  0  0  0
   -2.4475    0.0704    1.3782 C   0  0  0  0  0  0  0  0  0  0  0  0
   -2.1165    1.3889    0.9684 N   0  0  0  0  0  0  0  0  0  0  0  0
   -2.5092    1.7405   -0.3676 C   0  0  0  0  0  0  0  0  0  0  0  0
   -1.9595    0.6216   -1.2745 C   0  0  2  0  0  0  0  0  0  0  0  0
   -2.8844   -0.5614   -0.9245 C   0  0  0  0  0  0  0  0  0  0  0  0
   -2.1864   -1.0089    0.3771 C   0  0  1  0  0  0  0  0  0  0  0  0
   -0.7983   -1.0904   -0.1079 C   0  0  0  0  0  0  0  0  0  0  0  0
    0.2946   -1.2054    0.8729 C   0  0  0  0  0  0  0  0  0  0  0  0
    1.5893   -1.2725    0.0540 C   0  0  0  0  0  0  0  0  0  0  0  0
    2.7410   -1.4046    0.8627 N   0  0  0  0  0  0  0  0  0  0  0  0
    3.2623   -0.2066    1.4234 C   0  0  0  0  0  0  0  0  0  0  0  0
    3.2777    0.9673    0.4802 C   0  0  0  0  0  0  0  0  0  0  0  0
    2.0718    1.1070   -0.2721 N   0  0  0  0  0  0  0  0  0  0  0  0
    1.7429   -0.1437   -0.8984 C   0  0  0  0  0  0  0  0  0  0  0  0
    0.4797    0.1132   -1.7339 C   0  0  0  0  0  0  0  0  0  0  0  0
   -0.6184    0.2927   -0.7574 C   0  0  0  0  0  0  0  0  0  0  0  0
   -2.4475    0.0704    1.3782 C   0  0  0  0  0  0  0  0  0  0  0  0
   -2.1165    1.3889    0.9684 N   0  0  0  0  0  0  0  0  0  0  0  0
   -2.5092    1.7405   -0.3676 C   0  0  0  0  0  0  0  0  0  0  0  0
   -1.9595    0.6216   -1.2745 C   0  0  2  0  0  0  0  0  0  0  0  0
   -2.8844   -0.5614   -0.9245 C   0  0  0  0  0  0  0  0  0  0  0  0
   -2.1864   -1.0089    0.3771 C   0  0  1  0  0  0  0  0  0  0  0  0
   -0.7983   -1.0904   -0.1079 C   0  0  0  0  0  0  0  0  0  0  0  0
    0.2946   -1.2054    0.8729 C   0  0  0  0  0  0  0  0  0  0  0  0
    1.5893   -1.2725    0.0540 C   0  0  0  0  0  0  0  0  0  0  0  0
    2.7410   -1.4046    0.8627 N   0  0  0  0  0  0  0  0  0  0  0  0
    3.2623   -0.2066    1.4234 C   0  0  0  0  0  0  0  0  0  0  0  0
    3.2777    0.9673    0.4802 C   0  0  0  0  0  0  0  0  0  0  0  0
    2.0718    1.1070   -0.2721 N   0  0  0  0  0  0  0  0  0  0  0  0
    1.7429   -0.1437   -0.8984 C   0  0  0  0  0  0  0  0  0  0  0  0
    0.4797    0.1132   -1.7339 C   0  0  0  0  0  0  0  0  0  0  0  0
   -0.6184    0.2927   -0.7574 C   0  0  0  0  0  0  0  0  0  0  0  0
   -2.4475    0.0704    1.3782 C   0  0  0  0  0  0  0  0  0  0  0  0
   -2.1165    1.3889    0.9684 N   0  0  0  0  0  0  0  0  0  0  0  0
   -2.5092    1.7405   -0.3676 C   0  0  0  0  0  0  0  0  0  0  0  0
   -1.9595    0.6216   -1.2745 C   0  0  2  0  0  0  0  0  0  0  0  0
   -2.8844   -0.5614   -0.9245 C   0  0  0  0  0  0  0  0  0  0  0  0
   -2.1864   -1.0089    0.3771 C   0  0  1  0  0  0  0  0  0  0  0  0
   -0.7983   -1.0904   -0.1079 C   0  0  0  0  0  0  0  0  0  0  0  0
    0.2946   -1.2054    0.8729 C   0  0  0  0  0  0  0  0  0  0  0  0
    1.5893   -1.2725    0.0540 C   0  0  0  0  0  0  0  0  0  0  0  0
    2.7410   -1.4046    0.8627 N   0  0  0  0  0  0  0  0  0  0  0  0
    3.2623   -0.2066    1.4234 C   0  0  0  0  0  0  0  0  0  0  0  0
    3.2777    0.9673    0.4802 C   0  0  0  0  0  0  0  0  0  0  0  0
    2.0718    1.1070   -0.2721 N   0  0  0  0  0  0  0  0  0  0  0  0
    1.7429   -0.1437   -0.8984 C   0  0  0  0  0  0  0  0  0  0  0  0
    0.4797    0.1132   -1.7339 C   0  0  0  0  0  0  0  0  0  0  0  0
   -0.6184    0.2927   -0.7574 C   0  0  0  0  0  0  0  0  0  0  0  0
   -1.9272   -0.1381    2.3340 H   0  0  0  0  0  0  0  0  0  0  0  0
   -3.5429    0.0381    1.6164 H   0  0  0  0  0  0  0  0  0  0  0  0
   -2.6028    2.0612    1.6157 H   0  0  0  0  0  0  0  0  0  0  0  0
   -3.5794    1.8847   -0.5005 H   0  0  0  0  0  0  0  0  0  0  0  0
   -1.9208    2.6602   -0.6421 H   0  0  0  0  0  0  0  0  0  0  0  0
   -2.0226    0.8924   -2.3248 H   0  0  0  0  0  0  0  0  0  0  0  0
   -3.9074   -0.2039   -0.7218 H   0  0  0  0  0  0  0  0  0  0  0  0
   -2.7964   -1.3086   -1.7097 H   0  0  0  0  0  0  0  0  0  0  0  0
   -2.6401   -1.9418    0.7089 H   0  0  0  0  0  0  0  0  0  0  0  0
   -0.7273   -1.8717   -0.8834 H   0  0  0  0  0  0  0  0  0  0  0  0
    0.3555   -0.2519    1.4561 H   0  0  0  0  0  0  0  0  0  0  0  0
    0.2639   -2.0950    1.5152 H   0  0  0  0  0  0  0  0  0  0  0  0
    1.4851   -2.2133   -0.5555 H   0  0  0  0  0  0  0  0  0  0  0  0
    3.4670   -1.9866    0.4007 H   0  0  0  0  0  0  0  0  0  0  0  0
    2.7854    0.0780    2.4001 H   0  0  0  0  0  0  0  0  0  0  0  0
    4.3431   -0.3989    1.6933 H   0  0  0  0  0  0  0  0  0  0  0  0
    4.1689    0.9743   -0.1895 H   0  0  0  0  0  0  0  0  0  0  0  0
    3.3824    1.8913    1.1113 H   0  0  0  0  0  0  0  0  0  0  0  0
    2.2786    1.7879   -1.0633 H   0  0  0  0  0  0  0  0  0  0  0  0
    2.5174   -0.4417   -1.6475 H   0  0  0  0  0  0  0  0  0  0  0  0
    0.6807    0.9735   -2.3792 H   0  0  0  0  0  0  0  0  0  0  0  0
    0.2440   -0.7991   -2.3539 H   0  0  0  0  0  0  0  0  0  0  0  0
   -0.2444    1.0009    0.0390 H   0  0  0  0  0  0  0  0  0  0  0  0
   -1.9272   -0.1381    2.3340 H   0  0  0  0  0  0  0  0  0  0  0  0
   -3.5429    0.0381    1.6164 H   0  0  0  0  0  0  0  0  0  0  0  0
   -2.6028    2.0612    1.6157 H   0  0  0  0  0  0  0  0  0  0  0  0
   -3.5794    1.8847   -0.5005 H   0  0  0  0  0  0  0  0  0  0  0  0
   -1.9208    2.6602   -0.6421 H   0  0  0  0  0  0  0  0  0  0  0  0
   -2.0226    0.8924   -2.3248 H   0  0  0  0  0  0  0  0  0  0  0  0
   -3.9074   -0.2039   -0.7218 H   0  0  0  0  0  0  0  0  0  0  0  0
   -2.7964   -1.3086   -1.7097 H   0  0  0  0  0  0  0  0  0  0  0  0
   -2.6401   -1.9418    0.7089 H   0  0  0  0  0  0  0  0  0  0  0  0
   -0.7273   -1.8717   -0.8834 H   0  0  0  0  0  0  0  0  0  0  0  0
    0.3555   -0.2519    1.4561 H   0  0  0  0  0  0  0  0  0  0  0  0
    0.2639   -2.0950    1.5152 H   0  0  0  0  0  0  0  0  0  0  0  0
    1.4851   -2.2133   -0.5555 H   0  0  0  0  0  0  0  0  0  0  0  0
    3.4670   -1.9866    0.4007 H   0  0  0  0  0  0  0  0  0  0  0  0
    2.7854    0.0780    2.4001 H   0  0  0  0  0  0  0  0  0  0  0  0
    4.3431   -0.3989    1.6933 H   0  0  0  0  0  0  0  0  0  0  0  0
    4.1689    0.9743   -0.1895 H   0  0  0  0  0  0  0  0  0  0  0  0
    3.3824    1.8913    1.1113 H   0  0  0  0  0  0  0  0  0  0  0  0
    2.2786    1.7879   -1.0633 H   0  0  0  0  0  0  0  0  0  0  0  0
    2.5174   -0.4417   -1.6475 H   0  0  0  0  0  0  0  0  0  0  0  0
    0.6807    0.9735   -2.3792 H   0  0  0  0  0  0  0  0  0  0  0  0
    0.2440   -0.7991   -2.3539 H   0  0  0  0  0  0  0  0  0  0  0  0
   -0.2444    1.0009    0.0390 H   0  0  0  0  0  0  0  0  0  0  0  0
   -1.9272   -0.1381    2.3340 H   0  0  0  0  0  0  0  0  0  0  0  0
   -3.5429    0.0381    1.6164 H   0  0  0  0  0  0  0  0  0  0  0  0
   -2.6028    2.0612    1.6157 H   0  0  0  0  0  0  0  0  0  0  0  0
   -3.5794    1.8847   -0.5005 H   0  0  0  0  0  0  0  0  0  0  0  0
   -1.9208    2.6602   -0.6421 H   0  0  0  0  0  0  0  0  0  0  0  0
   -2.0226    0.8924   -2.3248 H   0  0  0  0  0  0  0  0  0  0  0  0
   -3.9074   -0.2039   -0.7218 H   0  0  0  0  0  0  0  0  0  0  0  0
   -2.7964   -1.3086   -1.7097 H   0  0  0  0  0  0  0  0  0  0  0  0
   -2.6401   -1.9418    0.7089 H   0  0  0  0  0  0  0  0  0  0  0  0
   -0.7273   -1.8717   -0.8834 H   0  0  0  0  0  0  0  0  0  0  0  0
    0.3555   -0.2519    1.4561 H   0  0  0  0  0  0  0  0  0  0  0  0
    0.2639   -2.0950    1.5152 H   0  0  0  0  0  0  0  0  0  0  0  0
    1.4851   -2.2133   -0.5555 H   0  0  0  0  0  0  0  0  0  0  0  0
    3.4670   -1.9866    0.4007 H   0  0  0  0  0  0  0  0  0  0  0  0
    2.7854    0.0780    2.4001 H   0  0  0  0  0  0  0  0  0  0  0  0
    4.3431   -0.3989    1.6933 H   0  0  0  0  0  0  0  0  0  0  0  0
    4.1689    0.9743   -0.1895 H   0  0  0  0  0  0  0  0  0  0  0  0
    3.3824    1.8913    1.1113 H   0  0  0  0  0  0  0  0  0  0  0  0
    2.2786    1.7879   -1.0633 H   0  0  0  0  0  0  0  0  0  0  0  0
    2.5174   -0.4417   -1.6475 H   0  0  0  0  0  0  0  0  0  0  0  0
    0.6807    0.9735   -2.3792 H   0  0  0  0  0  0  0  0  0  0  0  0
    0.2440   -0.7991   -2.3539 H   0  0  0  0  0  0  0  0  0  0  0  0
   -0.2444    1.0009    0.0390 H   0  0  0  0  0  0  0  0  0  0  0  0
   -1.9272   -0.1381    2.3340 H   0  0  0  0  0  0  0  0  0  0  0  0
   -3.5429    0.0381    1.6164 H   0  0  0  0  0  0  0  0  0  0  0  0
   -2.6028    2.0612    1.6157 H   0  0  0  0  0  0  0  0  0  0  0  0
   -3.5794    1.8847   -0.5005 H   0  0  0  0  0  0  0  0  0  0  0  0
   -1.9208    2.6602   -0.6421 H   0  0  0  0  0  0  0  0  0  0  0  0
   -2.0226    0.8924   -2.3248 H   0  0  0  0  0  0  0  0  0  0  0  0
   -3.9074   -0.2039   -0.7218 H   0  0  0  0  0  0  0  0  0  0  0  0
   -2.7964   -1.3086   -1.7097 H   0  0  0  0  0  0  0  0  0  0  0  0
   -2.6401   -1.9418    0.7089 H   0  0  0  0  0  0  0  0  0  0  0  0
   -0.7273   -1.8717   -0.8834 H   0  0  0  0  0  0  0  0  0  0  0  0
    0.3555   -0.2519    1.4561 H   0  0  0  0  0  0  0  0  0  0  0  0
    0.2639   -2.0950    1.5152 H   0  0  0  0  0  0  0  0  0  0  0  0
    1.4851   -2.2133   -0.5555 H   0  0  0  0  0  0  0  0  0  0  0  0
    3.4670   -1.9866    0.4007 H   0  0  0  0  0  0  0  0  0  0  0  0
    2.7854    0.0780    2.4001 H   0  0  0  0  0  0  0  0  0  0  0  0
    4.3431   -0.3989    1.6933 H   0  0  0  0  0  0  0  0  0  0  0  0
    4.1689    0.9743   -0.1895 H   0  0  0  0  0  0  0  0  0  0  0  0
    3.3824    1.8913    1.1113 H   0  0  0  0  0  0  0  0  0  0  0  0
    2.2786    1.7879   -1.0633 H   0  0  0  0  0  0  0  0  0  0  0  0
    2.5174   -0.4417   -1.6475 H   0  0  0  0  0  0  0  0  0  0  0  0
    0.6807    0.9735   -2.3792 H   0  0  0  0  0  0  0  0  0  0  0  0
    0.2440   -0.7991   -2.3539 H   0  0  0  0  0  0  0  0  0  0  0  0
   -0.2444    1.0009    0.0390 H   0  0  0  0  0  0  0  0  0  0  0  0
   -1.9272   -0.1381    2.3340 H   0  0  0  0  0  0  0  0  0  0  0  0
   -3.5429    0.0381    1.6164 H   0  0  0  0  0  0  0  0  0  0  0  0
   -2.6028    2.0612    1.6157 H   0  0  0  0  0  0  0  0  0  0  0  0
   -3.5794    1.8847   -0.5005 H   0  0  0  0  0  0  0  0  0  0  0  0
   -1.9208    2.6602   -0.6421 H   0  0  0  0  0  0  0  0  0  0  0  0
   -2.0226    0.8924   -2.3248 H   0  0  0  0  0  0  0  0  0  0  0  0
   -3.9074   -0.2039   -0.7218 H   0  0  0  0  0  0  0  0  0  0  0  0
   -2.7964   -1.3086   -1.7097 H   0  0  0  0  0  0  0  0  0  0  0  0
   -2.6401   -1.9418    0.7089 H   0  0  0  0  0  0  0  0  0  0  0  0
   -0.7273   -1.8717   -0.8834 H   0  0  0  0  0  0  0  0  0  0  0  0
    0.3555   -0.2519    1.4561 H   0  0  0  0  0  0  0  0  0  0  0  0
    0.2639   -2.0950    1.5152 H   0  0  0  0  0  0  0  0  0  0  0  0
    1.4851   -2.2133   -0.5555 H   0  0  0  0  0  0  0  0  0  0  0  0
    3.4670   -1.9866    0.4007 H   0  0  0  0  0  0  0  0  0  0  0  0
    2.7854    0.0780    2.4001 H   0  0  0  0  0  0  0  0  0  0  0  0
    4.3431   -0.3989    1.6933 H   0  0  0  0  0  0  0  0  0  0  0  0
    4.1689    0.9743   -0.1895 H   0  0  0  0  0  0  0  0  0  0  0  0
    3.3824    1.8913    1.1113 H   0  0  0  0  0  0  0  0  0  0  0  0
    2.2786    1.7879   -1.0633 H   0  0  0  0  0  0  0  0  0  0  0  0
    2.5174   -0.4417   -1.6475 H   0  0  0  0  0  0  0  0  0  0  0  0
    0.6807    0.9735   -2.3792 H   0  0  0  0  0  0  0  0  0  0  0  0
    0.2440   -0.7991   -2.3539 H   0  0  0  0  0  0  0  0  0  0  0  0
   -0.2444    1.0009    0.0390 H   0  0  0  0  0  0  0  0  0  0  0  0
  1  2  1  0
  2  3  1  0
  3  4  1  0
  4  5  1  0
  1  6  1  0
  5  6  1  0
  6  7  1  0
  7  8  1  0
  8  9  1  0
  9 10  1  0
 10 11  1  0
 11 12  1  0
 12 13  1  0
  9 14  1  0
 13 14  1  0
 14 15  1  0
  4 16  1  0
  7 16  1  0
 15 16  1  0
 17 18  1  0
 18 19  1  0
 19 20  1  0
 20 21  1  0
 17 22  1  0
 21 22  1  0
 22 23  1  0
 23 24  1  0
 24 25  1  0
 25 26  1  0
 26 27  1  0
 27 28  1  0
 28 29  1  0
 25 30  1  0
 29 30  1  0
 30 31  1  0
 20 32  1  0
 23 32  1  0
 31 32  1  0
 33 34  1  0
 34 35  1  0
 35 36  1  0
 36 37  1  0
 33 38  1  0
 37 38  1  0
 38 39  1  0
 39 40  1  0
 40 41  1  0
 41 42  1  0
 42 43  1  0
 43 44  1  0
 44 45  1  0
 41 46  1  0
 45 46  1  0
 46 47  1  0
 36 48  1  0
 39 48  1  0
 47 48  1  0
 49 50  1  0
 50 51  1  0
 51 52  1  0
 52 53  1  0
 49 54  1  0
 53 54  1  0
 54 55  1  0
 55 56  1  0
 56 57  1  0
 57 58  1  0
 58 59  1  0
 59 60  1  0
 60 61  1  0
 57 62  1  0
 61 62  1  0
 62 63  1  0
 52 64  1  0
 55 64  1  0
 63 64  1  0
 65 66  1  0
 66 67  1  0
 67 68  1  0
 68 69  1  0
 65 70  1  0
 69 70  1  0
 70 71  1  0
 71 72  1  0
 72 73  1  0
 73 74  1  0
 74 75  1  0
 75 76  1  0
 76 77  1  0
 73 78  1  0
 77 78  1  0
 78 79  1  0
 68 80  1  0
 71 80  1  0
 79 80  1  0
  1 81  1  0
  1 82  1  0
  2 83  1  0
  3 84  1  0
  3 85  1  0
  4 86  1  6
  5 87  1  0
  5 88  1  0
  6 89  1  1
  7 90  1  0
  8 91  1  0
  8 92  1  0
  9 93  1  0
 10 94  1  0
 11 95  1  0
 11 96  1  0
 12 97  1  0
 12 98  1  0
 13 99  1  0
 14100  1  0
 15101  1  0
 15102  1  0
 16103  1  0
 17104  1  0
 17105  1  0
 18106  1  0
 19107  1  0
 19108  1  0
 20109  1  6
 21110  1  0
 21111  1  0
 22112  1  1
 23113  1  0
 24114  1  0
 24115  1  0
 25116  1  0
 26117  1  0
 27118  1  0
 27119  1  0
 28120  1  0
 28121  1  0
 29122  1  0
 30123  1  0
 31124  1  0
 31125  1  0
 32126  1  0
 33127  1  0
 33128  1  0
 34129  1  0
 35130  1  0
 35131  1  0
 36132  1  6
 37133  1  0
 37134  1  0
 38135  1  1
 39136  1  0
 40137  1  0
 40138  1  0
 41139  1  0
 42140  1  0
 43141  1  0
 43142  1  0
 44143  1  0
 44144  1  0
 45145  1  0
 46146  1  0
 47147  1  0
 47148  1  0
 48149  1  0
 49150  1  0
 49151  1  0
 50152  1  0
 51153  1  0
 51154  1  0
 52155  1  6
 53156  1  0
 53157  1  0
 54158  1  1
 55159  1  0
 56160  1  0
 56161  1  0
 57162  1  0
 58163  1  0
 59164  1  0
 59165  1  0
 60166  1  0
 60167  1  0
 61168  1  0
 62169  1  0
 63170  1  0
 63171  1  0
 64172  1  0
 65173  1  0
 65174  1  0
 66175  1  0
 67176  1  0
 67177  1  0
 68178  1  6
 69179  1  0
 69180  1  0
 70181  1  1
 71182  1  0
 72183  1  0
 72184  1  0
 73185  1  0
 74186  1  0
 75187  1  0
 75188  1  0
 76189  1  0
 76190  1  0
 77191  1  0
 78192  1  0
 79193  1  0
 79194  1  0
 80195  1  0
M  END
>  <PDBID>  (1) 
4AFG

>  <PDB ID>  (1) 
4AFG

>  <Generic Name>  (1) 
Varenicline

>  <Brand Name>  (1) 
Champix#Chantix#Gd-varenicline

>  <DrugBank ID>  (1) 
DB01273

>  <ATC Codes>  (1) 
N07BA03

>  <Ligand ID>  (1) 
QMR

>  <Target Name>  (1) 
Neuronal acetylcholine receptor subunit alpha-4

>  <UniProt ID>  (1) 
P43681

>  <PDB ID.1>  (1) 
4AFG

>  <Seq. Identity>  (1) 
31%

$$$$
