PDB_DB00712_04
     RDKit          3D

 90 92  0  0  0  0  0  0  0  0999 V2000
   -4.0022    0.0405   -0.9343 C   0  0  0  0  0  0  0  0  0  0  0  0
   -2.5300    0.3734   -0.9991 C   0  0  0  0  0  0  0  0  0  0  0  0
   -1.8997   -0.1888    0.2397 C   0  0  0  0  0  0  0  0  0  0  0  0
   -2.4234    0.4499    1.4783 C   0  0  0  0  0  0  0  0  0  0  0  0
   -3.8718    0.7219    1.4942 C   0  0  0  0  0  0  0  0  0  0  0  0
   -4.5535    0.8715    0.1949 C   0  0  0  0  0  0  0  0  0  0  0  0
   -0.3949   -0.1089    0.1015 C   0  0  0  0  0  0  0  0  0  0  0  0
    0.3279   -0.5621    1.3249 C   0  0  0  0  0  0  0  0  0  0  0  0
    1.6147   -1.2643    1.1072 C   0  0  0  0  0  0  0  0  0  0  0  0
    2.2441   -1.0455   -0.2281 C   0  0  0  0  0  0  0  0  0  0  0  0
    1.2533   -1.5338   -1.2164 C   0  0  0  0  0  0  0  0  0  0  0  0
   -0.0332   -0.8185   -1.1589 C   0  0  0  0  0  0  0  0  0  0  0  0
    2.8000    0.3012   -0.4884 C   0  0  2  0  0  0  0  0  0  0  0  0
    3.4020    0.3955   -1.8717 C   0  0  0  0  0  0  0  0  0  0  0  0
    3.9859    0.5962    0.4421 C   0  0  0  0  0  0  0  0  0  0  0  0
    4.3894    1.9015    0.0538 O   0  0  0  0  0  0  0  0  0  0  0  0
    3.6043    0.7376    1.7630 O   0  0  0  0  0  0  0  0  0  0  0  0
   -1.0130   -1.7731   -1.5071 F   0  0  0  0  0  0  0  0  0  0  0  0
   -4.0022    0.0405   -0.9343 C   0  0  0  0  0  0  0  0  0  0  0  0
   -2.5300    0.3734   -0.9991 C   0  0  0  0  0  0  0  0  0  0  0  0
   -1.8997   -0.1888    0.2397 C   0  0  0  0  0  0  0  0  0  0  0  0
   -2.4234    0.4499    1.4783 C   0  0  0  0  0  0  0  0  0  0  0  0
   -3.8718    0.7219    1.4942 C   0  0  0  0  0  0  0  0  0  0  0  0
   -4.5535    0.8715    0.1949 C   0  0  0  0  0  0  0  0  0  0  0  0
   -0.3949   -0.1089    0.1015 C   0  0  0  0  0  0  0  0  0  0  0  0
    0.3279   -0.5621    1.3249 C   0  0  0  0  0  0  0  0  0  0  0  0
    1.6147   -1.2643    1.1072 C   0  0  0  0  0  0  0  0  0  0  0  0
    2.2441   -1.0455   -0.2281 C   0  0  0  0  0  0  0  0  0  0  0  0
    1.2533   -1.5338   -1.2164 C   0  0  0  0  0  0  0  0  0  0  0  0
   -0.0332   -0.8185   -1.1589 C   0  0  0  0  0  0  0  0  0  0  0  0
    2.8000    0.3012   -0.4884 C   0  0  2  0  0  0  0  0  0  0  0  0
    3.4020    0.3955   -1.8717 C   0  0  0  0  0  0  0  0  0  0  0  0
    3.9859    0.5962    0.4421 C   0  0  0  0  0  0  0  0  0  0  0  0
    4.3894    1.9015    0.0538 O   0  0  0  0  0  0  0  0  0  0  0  0
    3.6043    0.7376    1.7630 O   0  0  0  0  0  0  0  0  0  0  0  0
   -1.0130   -1.7731   -1.5071 F   0  0  0  0  0  0  0  0  0  0  0  0
   -4.1627   -1.0453   -0.7768 H   0  0  0  0  0  0  0  0  0  0  0  0
   -4.4629    0.3936   -1.8741 H   0  0  0  0  0  0  0  0  0  0  0  0
   -2.0629    0.1513   -1.9402 H   0  0  0  0  0  0  0  0  0  0  0  0
   -2.4838    1.4992   -0.8658 H   0  0  0  0  0  0  0  0  0  0  0  0
   -2.1524   -1.2694    0.2752 H   0  0  0  0  0  0  0  0  0  0  0  0
   -1.8213    1.3901    1.6465 H   0  0  0  0  0  0  0  0  0  0  0  0
   -2.2020   -0.2354    2.3326 H   0  0  0  0  0  0  0  0  0  0  0  0
   -4.0373    1.6741    2.0807 H   0  0  0  0  0  0  0  0  0  0  0  0
   -4.4403   -0.0499    2.0937 H   0  0  0  0  0  0  0  0  0  0  0  0
   -5.6400    0.5829    0.2927 H   0  0  0  0  0  0  0  0  0  0  0  0
   -4.5823    1.9268   -0.1736 H   0  0  0  0  0  0  0  0  0  0  0  0
   -0.1844    0.9717   -0.0285 H   0  0  0  0  0  0  0  0  0  0  0  0
    0.5542    0.3225    1.9966 H   0  0  0  0  0  0  0  0  0  0  0  0
   -0.3208   -1.2085    1.9529 H   0  0  0  0  0  0  0  0  0  0  0  0
    2.2934   -1.1447    1.9770 H   0  0  0  0  0  0  0  0  0  0  0  0
    1.3996   -2.3834    1.1236 H   0  0  0  0  0  0  0  0  0  0  0  0
    3.1256   -1.7592   -0.2619 H   0  0  0  0  0  0  0  0  0  0  0  0
    1.0703   -2.6245   -0.9674 H   0  0  0  0  0  0  0  0  0  0  0  0
    1.6179   -1.5687   -2.2588 H   0  0  0  0  0  0  0  0  0  0  0  0
   -0.0609   -0.1020   -2.0340 H   0  0  0  0  0  0  0  0  0  0  0  0
    2.1375    1.1565   -0.3704 H   0  0  0  0  0  0  0  0  0  0  0  0
    4.3524   -0.1698   -1.9657 H   0  0  0  0  0  0  0  0  0  0  0  0
    2.7416    0.0828   -2.6720 H   0  0  0  0  0  0  0  0  0  0  0  0
    3.6719    1.4717   -2.0831 H   0  0  0  0  0  0  0  0  0  0  0  0
    4.8359   -0.0583    0.2645 H   0  0  0  0  0  0  0  0  0  0  0  0
    3.5486    2.4364    0.1062 H   0  0  0  0  0  0  0  0  0  0  0  0
    4.3654    0.4655    2.3347 H   0  0  0  0  0  0  0  0  0  0  0  0
   -4.1627   -1.0453   -0.7768 H   0  0  0  0  0  0  0  0  0  0  0  0
   -4.4629    0.3936   -1.8741 H   0  0  0  0  0  0  0  0  0  0  0  0
   -2.0629    0.1513   -1.9402 H   0  0  0  0  0  0  0  0  0  0  0  0
   -2.4838    1.4992   -0.8658 H   0  0  0  0  0  0  0  0  0  0  0  0
   -2.1524   -1.2694    0.2752 H   0  0  0  0  0  0  0  0  0  0  0  0
   -1.8213    1.3901    1.6465 H   0  0  0  0  0  0  0  0  0  0  0  0
   -2.2020   -0.2354    2.3326 H   0  0  0  0  0  0  0  0  0  0  0  0
   -4.0373    1.6741    2.0807 H   0  0  0  0  0  0  0  0  0  0  0  0
   -4.4403   -0.0499    2.0937 H   0  0  0  0  0  0  0  0  0  0  0  0
   -5.6400    0.5829    0.2927 H   0  0  0  0  0  0  0  0  0  0  0  0
   -4.5823    1.9268   -0.1736 H   0  0  0  0  0  0  0  0  0  0  0  0
   -0.1844    0.9717   -0.0285 H   0  0  0  0  0  0  0  0  0  0  0  0
    0.5542    0.3225    1.9966 H   0  0  0  0  0  0  0  0  0  0  0  0
   -0.3208   -1.2085    1.9529 H   0  0  0  0  0  0  0  0  0  0  0  0
    2.2934   -1.1447    1.9770 H   0  0  0  0  0  0  0  0  0  0  0  0
    1.3996   -2.3834    1.1236 H   0  0  0  0  0  0  0  0  0  0  0  0
    3.1256   -1.7592   -0.2619 H   0  0  0  0  0  0  0  0  0  0  0  0
    1.0703   -2.6245   -0.9674 H   0  0  0  0  0  0  0  0  0  0  0  0
    1.6179   -1.5687   -2.2588 H   0  0  0  0  0  0  0  0  0  0  0  0
   -0.0609   -0.1020   -2.0340 H   0  0  0  0  0  0  0  0  0  0  0  0
    2.1375    1.1565   -0.3704 H   0  0  0  0  0  0  0  0  0  0  0  0
    4.3524   -0.1698   -1.9657 H   0  0  0  0  0  0  0  0  0  0  0  0
    2.7416    0.0828   -2.6720 H   0  0  0  0  0  0  0  0  0  0  0  0
    3.6719    1.4717   -2.0831 H   0  0  0  0  0  0  0  0  0  0  0  0
    4.8359   -0.0583    0.2645 H   0  0  0  0  0  0  0  0  0  0  0  0
    3.5486    2.4364    0.1062 H   0  0  0  0  0  0  0  0  0  0  0  0
    4.3654    0.4655    2.3347 H   0  0  0  0  0  0  0  0  0  0  0  0
  1  2  1  0
  2  3  1  0
  3  4  1  0
  4  5  1  0
  1  6  1  0
  5  6  1  0
  3  7  1  0
  7  8  1  0
  8  9  1  0
  9 10  1  0
 10 11  1  0
  7 12  1  0
 11 12  1  0
 10 13  1  0
 13 14  1  0
 13 15  1  0
 15 16  1  0
 15 17  1  0
 12 18  1  0
 19 20  1  0
 20 21  1  0
 21 22  1  0
 22 23  1  0
 19 24  1  0
 23 24  1  0
 21 25  1  0
 25 26  1  0
 26 27  1  0
 27 28  1  0
 28 29  1  0
 25 30  1  0
 29 30  1  0
 28 31  1  0
 31 32  1  0
 31 33  1  0
 33 34  1  0
 33 35  1  0
 30 36  1  0
  1 37  1  0
  1 38  1  0
  2 39  1  0
  2 40  1  0
  3 41  1  0
  4 42  1  0
  4 43  1  0
  5 44  1  0
  5 45  1  0
  6 46  1  0
  6 47  1  0
  7 48  1  0
  8 49  1  0
  8 50  1  0
  9 51  1  0
  9 52  1  0
 10 53  1  0
 11 54  1  0
 11 55  1  0
 12 56  1  0
 13 57  1  6
 14 58  1  0
 14 59  1  0
 14 60  1  0
 15 61  1  0
 16 62  1  0
 17 63  1  0
 19 64  1  0
 19 65  1  0
 20 66  1  0
 20 67  1  0
 21 68  1  0
 22 69  1  0
 22 70  1  0
 23 71  1  0
 23 72  1  0
 24 73  1  0
 24 74  1  0
 25 75  1  0
 26 76  1  0
 26 77  1  0
 27 78  1  0
 27 79  1  0
 28 80  1  0
 29 81  1  0
 29 82  1  0
 30 83  1  0
 31 84  1  6
 32 85  1  0
 32 86  1  0
 32 87  1  0
 33 88  1  0
 34 89  1  0
 35 90  1  0
M  END
>  <PDBID>  (1) 
5JVZ

>  <PDB ID>  (1) 
5JVZ

>  <Generic Name>  (1) 
Flurbiprofen

>  <Brand Name>  (1) 
Ansaid Tablets 100 mg#Ansaid Tablets 50 mg#Antiphlamine Pain Relieving#Apo-flurbiprofen Fc Tablets 100mg#Apo-flurbiprofen Fc Tablets 50mg#Flurbiprofen#Flurbiprofen Sodium#Flurbiprofen-100 Tab 100mg#Flurbiprofen-50 Tab 50mg#Froben#Froben SR#Froben Tab 100mg#Froben Tab 50mg#Froben-SR Cap 200mg#Novo-flurprofen SR#Nu-flurbiprofen Tab 100mg#Nu-flurbiprofen Tab 50mg#Ocufen#Ocufen Oph Soln 0.03%#Ratio-flurbiprofen Tablets 100mg#Ratio-flurbiprofen Tablets 50mg#Teva-flurbiprofen#Acustop Cataplasma#Adofeed#Ansaid#Antadys#Cebutid#Flurofen#Ocuflur#Stayban#Strefen#Strepfen#Strepsils#Strepsils Intensive#TransAct#Urbifen#Zepolas

>  <DrugBank ID>  (1) 
DB00712

>  <ATC Codes>  (1) 
M02AA19#R02AX01#M01AE09#S01BC04

>  <Ligand ID>  (1) 
FLP,FLR

>  <Target Name>  (1) 
Prostaglandin G/H synthase 2

>  <UniProt ID>  (1) 
P35354

>  <PDB ID.1>  (1) 
5JVZ

>  <Seq. Identity>  (1) 
85%

$$$$
