PDB_DB01016_09
     RDKit          3D

316324  0  0  0  0  0  0  0  0999 V2000
   -4.9743    1.7415   -0.6221 O   0  0  0  0  0  0  0  0  0  0  0  0
   -3.6095   -0.4059    2.6113 O   0  0  0  0  0  0  0  0  0  0  0  0
   -3.9862   -2.4926    0.9848 O   0  0  0  0  0  0  0  0  0  0  0  0
    4.1978    2.1374   -2.1759 O   0  0  0  0  0  0  0  0  0  0  0  0
    8.6994    1.5397   -2.3364 Cl  0  0  0  0  0  0  0  0  0  0  0  0
   -3.1366   -1.1512    0.9896 S   0  0  0  0  0  0  0  0  0  0  0  0
    5.8853   -0.7149    0.6972 O   0  0  0  0  0  0  0  0  0  0  0  0
   -5.9351    0.0724    0.6315 N   0  0  0  0  0  0  0  0  0  0  0  0
   -3.6149   -0.0449    0.0241 N   0  0  0  0  0  0  0  0  0  0  0  0
    3.5562    0.1009   -1.5366 N   0  0  0  0  0  0  0  0  0  0  0  0
   -6.5354   -0.6511   -0.4283 C   0  0  0  0  0  0  0  0  0  0  0  0
   -7.0308    0.1742   -1.5811 C   0  0  0  0  0  0  0  0  0  0  0  0
   -7.7814   -1.3765    0.1138 C   0  0  0  0  0  0  0  0  0  0  0  0
   -8.0694    1.1861   -1.1497 C   0  0  0  0  0  0  0  0  0  0  0  0
   -8.7372   -0.3875    0.7063 C   0  0  0  0  0  0  0  0  0  0  0  0
   -8.4736    1.0338    0.2959 C   0  0  0  0  0  0  0  0  0  0  0  0
   -4.7490    0.7946    0.3661 C   0  0  0  0  0  0  0  0  0  0  0  0
   -1.4736   -1.3916    1.2064 C   0  0  0  0  0  0  0  0  0  0  0  0
    1.2649   -0.5087    0.3033 C   0  0  0  0  0  0  0  0  0  0  0  0
    2.6296   -1.1328    0.3391 C   0  0  0  0  0  0  0  0  0  0  0  0
   -0.7238   -0.1286    1.6244 C   0  0  0  0  0  0  0  0  0  0  0  0
   -0.7540   -2.0123    0.0556 C   0  0  0  0  0  0  0  0  0  0  0  0
    0.7374   -0.5878    1.7381 C   0  0  0  0  0  0  0  0  0  0  0  0
    0.2758   -1.1245   -0.6015 C   0  0  0  0  0  0  0  0  0  0  0  0
    3.3408   -1.1459   -0.9947 C   0  0  0  0  0  0  0  0  0  0  0  0
    4.3669    1.1223   -1.1011 C   0  0  0  0  0  0  0  0  0  0  0  0
    5.8452    1.0307   -1.0270 C   0  0  0  0  0  0  0  0  0  0  0  0
    6.5406    0.2063   -0.0517 C   0  0  0  0  0  0  0  0  0  0  0  0
    6.4529    2.4478   -1.0667 C   0  0  0  0  0  0  0  0  0  0  0  0
    7.3018    1.0808    0.9882 C   0  0  0  0  0  0  0  0  0  0  0  0
    7.9527    2.4076   -1.0023 C   0  0  0  0  0  0  0  0  0  0  0  0
    8.4033    1.8642    0.3501 C   0  0  0  0  0  0  0  0  0  0  0  0
    6.5125   -1.9714    0.6716 C   0  0  0  0  0  0  0  0  0  0  0  0
   -4.9743    1.7415   -0.6221 O   0  0  0  0  0  0  0  0  0  0  0  0
   -3.6095   -0.4059    2.6113 O   0  0  0  0  0  0  0  0  0  0  0  0
   -3.9862   -2.4926    0.9848 O   0  0  0  0  0  0  0  0  0  0  0  0
    4.1978    2.1374   -2.1759 O   0  0  0  0  0  0  0  0  0  0  0  0
    8.6994    1.5397   -2.3364 Cl  0  0  0  0  0  0  0  0  0  0  0  0
   -3.1366   -1.1512    0.9896 S   0  0  0  0  0  0  0  0  0  0  0  0
    5.8853   -0.7149    0.6972 O   0  0  0  0  0  0  0  0  0  0  0  0
   -5.9351    0.0724    0.6315 N   0  0  0  0  0  0  0  0  0  0  0  0
   -3.6149   -0.0449    0.0241 N   0  0  0  0  0  0  0  0  0  0  0  0
    3.5562    0.1009   -1.5366 N   0  0  0  0  0  0  0  0  0  0  0  0
   -6.5354   -0.6511   -0.4283 C   0  0  0  0  0  0  0  0  0  0  0  0
   -7.0308    0.1742   -1.5811 C   0  0  0  0  0  0  0  0  0  0  0  0
   -7.7814   -1.3765    0.1138 C   0  0  0  0  0  0  0  0  0  0  0  0
   -8.0694    1.1861   -1.1497 C   0  0  0  0  0  0  0  0  0  0  0  0
   -8.7372   -0.3875    0.7063 C   0  0  0  0  0  0  0  0  0  0  0  0
   -8.4736    1.0338    0.2959 C   0  0  0  0  0  0  0  0  0  0  0  0
   -4.7490    0.7946    0.3661 C   0  0  0  0  0  0  0  0  0  0  0  0
   -1.4736   -1.3916    1.2064 C   0  0  0  0  0  0  0  0  0  0  0  0
    1.2649   -0.5087    0.3033 C   0  0  0  0  0  0  0  0  0  0  0  0
    2.6296   -1.1328    0.3391 C   0  0  0  0  0  0  0  0  0  0  0  0
   -0.7238   -0.1286    1.6244 C   0  0  0  0  0  0  0  0  0  0  0  0
   -0.7540   -2.0123    0.0556 C   0  0  0  0  0  0  0  0  0  0  0  0
    0.7374   -0.5878    1.7381 C   0  0  0  0  0  0  0  0  0  0  0  0
    0.2758   -1.1245   -0.6015 C   0  0  0  0  0  0  0  0  0  0  0  0
    3.3408   -1.1459   -0.9947 C   0  0  0  0  0  0  0  0  0  0  0  0
    4.3669    1.1223   -1.1011 C   0  0  0  0  0  0  0  0  0  0  0  0
    5.8452    1.0307   -1.0270 C   0  0  0  0  0  0  0  0  0  0  0  0
    6.5406    0.2063   -0.0517 C   0  0  0  0  0  0  0  0  0  0  0  0
    6.4529    2.4478   -1.0667 C   0  0  0  0  0  0  0  0  0  0  0  0
    7.3018    1.0808    0.9882 C   0  0  0  0  0  0  0  0  0  0  0  0
    7.9527    2.4076   -1.0023 C   0  0  0  0  0  0  0  0  0  0  0  0
    8.4033    1.8642    0.3501 C   0  0  0  0  0  0  0  0  0  0  0  0
    6.5125   -1.9714    0.6716 C   0  0  0  0  0  0  0  0  0  0  0  0
   -4.9743    1.7415   -0.6221 O   0  0  0  0  0  0  0  0  0  0  0  0
   -3.6095   -0.4059    2.6113 O   0  0  0  0  0  0  0  0  0  0  0  0
   -3.9862   -2.4926    0.9848 O   0  0  0  0  0  0  0  0  0  0  0  0
    4.1978    2.1374   -2.1759 O   0  0  0  0  0  0  0  0  0  0  0  0
    8.6994    1.5397   -2.3364 Cl  0  0  0  0  0  0  0  0  0  0  0  0
   -3.1366   -1.1512    0.9896 S   0  0  0  0  0  0  0  0  0  0  0  0
    5.8853   -0.7149    0.6972 O   0  0  0  0  0  0  0  0  0  0  0  0
   -5.9351    0.0724    0.6315 N   0  0  0  0  0  0  0  0  0  0  0  0
   -3.6149   -0.0449    0.0241 N   0  0  0  0  0  0  0  0  0  0  0  0
    3.5562    0.1009   -1.5366 N   0  0  0  0  0  0  0  0  0  0  0  0
   -6.5354   -0.6511   -0.4283 C   0  0  0  0  0  0  0  0  0  0  0  0
   -7.0308    0.1742   -1.5811 C   0  0  0  0  0  0  0  0  0  0  0  0
   -7.7814   -1.3765    0.1138 C   0  0  0  0  0  0  0  0  0  0  0  0
   -8.0694    1.1861   -1.1497 C   0  0  0  0  0  0  0  0  0  0  0  0
   -8.7372   -0.3875    0.7063 C   0  0  0  0  0  0  0  0  0  0  0  0
   -8.4736    1.0338    0.2959 C   0  0  0  0  0  0  0  0  0  0  0  0
   -4.7490    0.7946    0.3661 C   0  0  0  0  0  0  0  0  0  0  0  0
   -1.4736   -1.3916    1.2064 C   0  0  0  0  0  0  0  0  0  0  0  0
    1.2649   -0.5087    0.3033 C   0  0  0  0  0  0  0  0  0  0  0  0
    2.6296   -1.1328    0.3391 C   0  0  0  0  0  0  0  0  0  0  0  0
   -0.7238   -0.1286    1.6244 C   0  0  0  0  0  0  0  0  0  0  0  0
   -0.7540   -2.0123    0.0556 C   0  0  0  0  0  0  0  0  0  0  0  0
    0.7374   -0.5878    1.7381 C   0  0  0  0  0  0  0  0  0  0  0  0
    0.2758   -1.1245   -0.6015 C   0  0  0  0  0  0  0  0  0  0  0  0
    3.3408   -1.1459   -0.9947 C   0  0  0  0  0  0  0  0  0  0  0  0
    4.3669    1.1223   -1.1011 C   0  0  0  0  0  0  0  0  0  0  0  0
    5.8452    1.0307   -1.0270 C   0  0  0  0  0  0  0  0  0  0  0  0
    6.5406    0.2063   -0.0517 C   0  0  0  0  0  0  0  0  0  0  0  0
    6.4529    2.4478   -1.0667 C   0  0  0  0  0  0  0  0  0  0  0  0
    7.3018    1.0808    0.9882 C   0  0  0  0  0  0  0  0  0  0  0  0
    7.9527    2.4076   -1.0023 C   0  0  0  0  0  0  0  0  0  0  0  0
    8.4033    1.8642    0.3501 C   0  0  0  0  0  0  0  0  0  0  0  0
    6.5125   -1.9714    0.6716 C   0  0  0  0  0  0  0  0  0  0  0  0
   -4.9743    1.7415   -0.6221 O   0  0  0  0  0  0  0  0  0  0  0  0
   -3.6095   -0.4059    2.6113 O   0  0  0  0  0  0  0  0  0  0  0  0
   -3.9862   -2.4926    0.9848 O   0  0  0  0  0  0  0  0  0  0  0  0
    4.1978    2.1374   -2.1759 O   0  0  0  0  0  0  0  0  0  0  0  0
    8.6994    1.5397   -2.3364 Cl  0  0  0  0  0  0  0  0  0  0  0  0
   -3.1366   -1.1512    0.9896 S   0  0  0  0  0  0  0  0  0  0  0  0
    5.8853   -0.7149    0.6972 O   0  0  0  0  0  0  0  0  0  0  0  0
   -5.9351    0.0724    0.6315 N   0  0  0  0  0  0  0  0  0  0  0  0
   -3.6149   -0.0449    0.0241 N   0  0  0  0  0  0  0  0  0  0  0  0
    3.5562    0.1009   -1.5366 N   0  0  0  0  0  0  0  0  0  0  0  0
   -6.5354   -0.6511   -0.4283 C   0  0  0  0  0  0  0  0  0  0  0  0
   -7.0308    0.1742   -1.5811 C   0  0  0  0  0  0  0  0  0  0  0  0
   -7.7814   -1.3765    0.1138 C   0  0  0  0  0  0  0  0  0  0  0  0
   -8.0694    1.1861   -1.1497 C   0  0  0  0  0  0  0  0  0  0  0  0
   -8.7372   -0.3875    0.7063 C   0  0  0  0  0  0  0  0  0  0  0  0
   -8.4736    1.0338    0.2959 C   0  0  0  0  0  0  0  0  0  0  0  0
   -4.7490    0.7946    0.3661 C   0  0  0  0  0  0  0  0  0  0  0  0
   -1.4736   -1.3916    1.2064 C   0  0  0  0  0  0  0  0  0  0  0  0
    1.2649   -0.5087    0.3033 C   0  0  0  0  0  0  0  0  0  0  0  0
    2.6296   -1.1328    0.3391 C   0  0  0  0  0  0  0  0  0  0  0  0
   -0.7238   -0.1286    1.6244 C   0  0  0  0  0  0  0  0  0  0  0  0
   -0.7540   -2.0123    0.0556 C   0  0  0  0  0  0  0  0  0  0  0  0
    0.7374   -0.5878    1.7381 C   0  0  0  0  0  0  0  0  0  0  0  0
    0.2758   -1.1245   -0.6015 C   0  0  0  0  0  0  0  0  0  0  0  0
    3.3408   -1.1459   -0.9947 C   0  0  0  0  0  0  0  0  0  0  0  0
    4.3669    1.1223   -1.1011 C   0  0  0  0  0  0  0  0  0  0  0  0
    5.8452    1.0307   -1.0270 C   0  0  0  0  0  0  0  0  0  0  0  0
    6.5406    0.2063   -0.0517 C   0  0  0  0  0  0  0  0  0  0  0  0
    6.4529    2.4478   -1.0667 C   0  0  0  0  0  0  0  0  0  0  0  0
    7.3018    1.0808    0.9882 C   0  0  0  0  0  0  0  0  0  0  0  0
    7.9527    2.4076   -1.0023 C   0  0  0  0  0  0  0  0  0  0  0  0
    8.4033    1.8642    0.3501 C   0  0  0  0  0  0  0  0  0  0  0  0
    6.5125   -1.9714    0.6716 C   0  0  0  0  0  0  0  0  0  0  0  0
   -4.2848    2.4411   -0.5732 H   0  0  0  0  0  0  0  0  0  0  0  0
   -2.9800   -0.8677    3.2202 H   0  0  0  0  0  0  0  0  0  0  0  0
   -4.2483   -2.8725    0.1127 H   0  0  0  0  0  0  0  0  0  0  0  0
    3.2780    2.5017   -2.0634 H   0  0  0  0  0  0  0  0  0  0  0  0
   -6.0933   -0.2669    1.5836 H   0  0  0  0  0  0  0  0  0  0  0  0
   -2.9044    0.5479   -0.4346 H   0  0  0  0  0  0  0  0  0  0  0  0
    2.9535    0.2911   -2.3787 H   0  0  0  0  0  0  0  0  0  0  0  0
   -5.9114   -1.4620   -0.8639 H   0  0  0  0  0  0  0  0  0  0  0  0
   -7.5554   -0.5468   -2.2820 H   0  0  0  0  0  0  0  0  0  0  0  0
   -6.2378    0.6232   -2.1759 H   0  0  0  0  0  0  0  0  0  0  0  0
   -8.2979   -1.8334   -0.7735 H   0  0  0  0  0  0  0  0  0  0  0  0
   -7.4707   -2.1268    0.8474 H   0  0  0  0  0  0  0  0  0  0  0  0
   -8.9803    1.1035   -1.7614 H   0  0  0  0  0  0  0  0  0  0  0  0
   -7.6618    2.2194   -1.2530 H   0  0  0  0  0  0  0  0  0  0  0  0
   -8.6693   -0.4251    1.8278 H   0  0  0  0  0  0  0  0  0  0  0  0
   -9.8038   -0.6146    0.4713 H   0  0  0  0  0  0  0  0  0  0  0  0
   -7.7575    1.5487    1.0002 H   0  0  0  0  0  0  0  0  0  0  0  0
   -9.4155    1.6501    0.4014 H   0  0  0  0  0  0  0  0  0  0  0  0
   -4.5234    1.3976    1.2980 H   0  0  0  0  0  0  0  0  0  0  0  0
   -1.3258   -2.0861    2.0890 H   0  0  0  0  0  0  0  0  0  0  0  0
    1.3942    0.5828    0.0898 H   0  0  0  0  0  0  0  0  0  0  0  0
    3.2444   -0.5706    1.0655 H   0  0  0  0  0  0  0  0  0  0  0  0
    2.5903   -2.1808    0.6989 H   0  0  0  0  0  0  0  0  0  0  0  0
   -1.0127    0.2025    2.6366 H   0  0  0  0  0  0  0  0  0  0  0  0
   -0.8357    0.6763    0.8829 H   0  0  0  0  0  0  0  0  0  0  0  0
   -0.3263   -3.0135    0.2891 H   0  0  0  0  0  0  0  0  0  0  0  0
   -1.5313   -2.2042   -0.7427 H   0  0  0  0  0  0  0  0  0  0  0  0
    1.3008    0.0352    2.4334 H   0  0  0  0  0  0  0  0  0  0  0  0
    0.7771   -1.6302    2.0536 H   0  0  0  0  0  0  0  0  0  0  0  0
    0.6653   -1.6948   -1.4591 H   0  0  0  0  0  0  0  0  0  0  0  0
   -0.3253   -0.2871   -1.0702 H   0  0  0  0  0  0  0  0  0  0  0  0
    4.2016   -1.8228   -0.9239 H   0  0  0  0  0  0  0  0  0  0  0  0
    2.6620   -1.7247   -1.7272 H   0  0  0  0  0  0  0  0  0  0  0  0
    4.0269    1.6534   -0.1626 H   0  0  0  0  0  0  0  0  0  0  0  0
    6.1768    0.6349   -2.0702 H   0  0  0  0  0  0  0  0  0  0  0  0
    7.4109   -0.3395   -0.5404 H   0  0  0  0  0  0  0  0  0  0  0  0
    6.0858    3.0462   -0.2198 H   0  0  0  0  0  0  0  0  0  0  0  0
    6.1591    2.9600   -2.0048 H   0  0  0  0  0  0  0  0  0  0  0  0
    7.7521    0.3467    1.6857 H   0  0  0  0  0  0  0  0  0  0  0  0
    6.6263    1.7220    1.5478 H   0  0  0  0  0  0  0  0  0  0  0  0
    8.2936    3.4622   -1.0475 H   0  0  0  0  0  0  0  0  0  0  0  0
    9.3298    1.2734    0.1924 H   0  0  0  0  0  0  0  0  0  0  0  0
    8.6965    2.7101    1.0174 H   0  0  0  0  0  0  0  0  0  0  0  0
    5.9581   -2.6899    1.2822 H   0  0  0  0  0  0  0  0  0  0  0  0
    7.5159   -1.8036    1.1392 H   0  0  0  0  0  0  0  0  0  0  0  0
    6.6754   -2.2784   -0.3663 H   0  0  0  0  0  0  0  0  0  0  0  0
   -4.2848    2.4411   -0.5732 H   0  0  0  0  0  0  0  0  0  0  0  0
   -2.9800   -0.8677    3.2202 H   0  0  0  0  0  0  0  0  0  0  0  0
   -4.2483   -2.8725    0.1127 H   0  0  0  0  0  0  0  0  0  0  0  0
    3.2780    2.5017   -2.0634 H   0  0  0  0  0  0  0  0  0  0  0  0
   -6.0933   -0.2669    1.5836 H   0  0  0  0  0  0  0  0  0  0  0  0
   -2.9044    0.5479   -0.4346 H   0  0  0  0  0  0  0  0  0  0  0  0
    2.9535    0.2911   -2.3787 H   0  0  0  0  0  0  0  0  0  0  0  0
   -5.9114   -1.4620   -0.8639 H   0  0  0  0  0  0  0  0  0  0  0  0
   -7.5554   -0.5468   -2.2820 H   0  0  0  0  0  0  0  0  0  0  0  0
   -6.2378    0.6232   -2.1759 H   0  0  0  0  0  0  0  0  0  0  0  0
   -8.2979   -1.8334   -0.7735 H   0  0  0  0  0  0  0  0  0  0  0  0
   -7.4707   -2.1268    0.8474 H   0  0  0  0  0  0  0  0  0  0  0  0
   -8.9803    1.1035   -1.7614 H   0  0  0  0  0  0  0  0  0  0  0  0
   -7.6618    2.2194   -1.2530 H   0  0  0  0  0  0  0  0  0  0  0  0
   -8.6693   -0.4251    1.8278 H   0  0  0  0  0  0  0  0  0  0  0  0
   -9.8038   -0.6146    0.4713 H   0  0  0  0  0  0  0  0  0  0  0  0
   -7.7575    1.5487    1.0002 H   0  0  0  0  0  0  0  0  0  0  0  0
   -9.4155    1.6501    0.4014 H   0  0  0  0  0  0  0  0  0  0  0  0
   -4.5234    1.3976    1.2980 H   0  0  0  0  0  0  0  0  0  0  0  0
   -1.3258   -2.0861    2.0890 H   0  0  0  0  0  0  0  0  0  0  0  0
    1.3942    0.5828    0.0898 H   0  0  0  0  0  0  0  0  0  0  0  0
    3.2444   -0.5706    1.0655 H   0  0  0  0  0  0  0  0  0  0  0  0
    2.5903   -2.1808    0.6989 H   0  0  0  0  0  0  0  0  0  0  0  0
   -1.0127    0.2025    2.6366 H   0  0  0  0  0  0  0  0  0  0  0  0
   -0.8357    0.6763    0.8829 H   0  0  0  0  0  0  0  0  0  0  0  0
   -0.3263   -3.0135    0.2891 H   0  0  0  0  0  0  0  0  0  0  0  0
   -1.5313   -2.2042   -0.7427 H   0  0  0  0  0  0  0  0  0  0  0  0
    1.3008    0.0352    2.4334 H   0  0  0  0  0  0  0  0  0  0  0  0
    0.7771   -1.6302    2.0536 H   0  0  0  0  0  0  0  0  0  0  0  0
    0.6653   -1.6948   -1.4591 H   0  0  0  0  0  0  0  0  0  0  0  0
   -0.3253   -0.2871   -1.0702 H   0  0  0  0  0  0  0  0  0  0  0  0
    4.2016   -1.8228   -0.9239 H   0  0  0  0  0  0  0  0  0  0  0  0
    2.6620   -1.7247   -1.7272 H   0  0  0  0  0  0  0  0  0  0  0  0
    4.0269    1.6534   -0.1626 H   0  0  0  0  0  0  0  0  0  0  0  0
    6.1768    0.6349   -2.0702 H   0  0  0  0  0  0  0  0  0  0  0  0
    7.4109   -0.3395   -0.5404 H   0  0  0  0  0  0  0  0  0  0  0  0
    6.0858    3.0462   -0.2198 H   0  0  0  0  0  0  0  0  0  0  0  0
    6.1591    2.9600   -2.0048 H   0  0  0  0  0  0  0  0  0  0  0  0
    7.7521    0.3467    1.6857 H   0  0  0  0  0  0  0  0  0  0  0  0
    6.6263    1.7220    1.5478 H   0  0  0  0  0  0  0  0  0  0  0  0
    8.2936    3.4622   -1.0475 H   0  0  0  0  0  0  0  0  0  0  0  0
    9.3298    1.2734    0.1924 H   0  0  0  0  0  0  0  0  0  0  0  0
    8.6965    2.7101    1.0174 H   0  0  0  0  0  0  0  0  0  0  0  0
    5.9581   -2.6899    1.2822 H   0  0  0  0  0  0  0  0  0  0  0  0
    7.5159   -1.8036    1.1392 H   0  0  0  0  0  0  0  0  0  0  0  0
    6.6754   -2.2784   -0.3663 H   0  0  0  0  0  0  0  0  0  0  0  0
   -4.2848    2.4411   -0.5732 H   0  0  0  0  0  0  0  0  0  0  0  0
   -2.9800   -0.8677    3.2202 H   0  0  0  0  0  0  0  0  0  0  0  0
   -4.2483   -2.8725    0.1127 H   0  0  0  0  0  0  0  0  0  0  0  0
    3.2780    2.5017   -2.0634 H   0  0  0  0  0  0  0  0  0  0  0  0
   -6.0933   -0.2669    1.5836 H   0  0  0  0  0  0  0  0  0  0  0  0
   -2.9044    0.5479   -0.4346 H   0  0  0  0  0  0  0  0  0  0  0  0
    2.9535    0.2911   -2.3787 H   0  0  0  0  0  0  0  0  0  0  0  0
   -5.9114   -1.4620   -0.8639 H   0  0  0  0  0  0  0  0  0  0  0  0
   -7.5554   -0.5468   -2.2820 H   0  0  0  0  0  0  0  0  0  0  0  0
   -6.2378    0.6232   -2.1759 H   0  0  0  0  0  0  0  0  0  0  0  0
   -8.2979   -1.8334   -0.7735 H   0  0  0  0  0  0  0  0  0  0  0  0
   -7.4707   -2.1268    0.8474 H   0  0  0  0  0  0  0  0  0  0  0  0
   -8.9803    1.1035   -1.7614 H   0  0  0  0  0  0  0  0  0  0  0  0
   -7.6618    2.2194   -1.2530 H   0  0  0  0  0  0  0  0  0  0  0  0
   -8.6693   -0.4251    1.8278 H   0  0  0  0  0  0  0  0  0  0  0  0
   -9.8038   -0.6146    0.4713 H   0  0  0  0  0  0  0  0  0  0  0  0
   -7.7575    1.5487    1.0002 H   0  0  0  0  0  0  0  0  0  0  0  0
   -9.4155    1.6501    0.4014 H   0  0  0  0  0  0  0  0  0  0  0  0
   -4.5234    1.3976    1.2980 H   0  0  0  0  0  0  0  0  0  0  0  0
   -1.3258   -2.0861    2.0890 H   0  0  0  0  0  0  0  0  0  0  0  0
    1.3942    0.5828    0.0898 H   0  0  0  0  0  0  0  0  0  0  0  0
    3.2444   -0.5706    1.0655 H   0  0  0  0  0  0  0  0  0  0  0  0
    2.5903   -2.1808    0.6989 H   0  0  0  0  0  0  0  0  0  0  0  0
   -1.0127    0.2025    2.6366 H   0  0  0  0  0  0  0  0  0  0  0  0
   -0.8357    0.6763    0.8829 H   0  0  0  0  0  0  0  0  0  0  0  0
   -0.3263   -3.0135    0.2891 H   0  0  0  0  0  0  0  0  0  0  0  0
   -1.5313   -2.2042   -0.7427 H   0  0  0  0  0  0  0  0  0  0  0  0
    1.3008    0.0352    2.4334 H   0  0  0  0  0  0  0  0  0  0  0  0
    0.7771   -1.6302    2.0536 H   0  0  0  0  0  0  0  0  0  0  0  0
    0.6653   -1.6948   -1.4591 H   0  0  0  0  0  0  0  0  0  0  0  0
   -0.3253   -0.2871   -1.0702 H   0  0  0  0  0  0  0  0  0  0  0  0
    4.2016   -1.8228   -0.9239 H   0  0  0  0  0  0  0  0  0  0  0  0
    2.6620   -1.7247   -1.7272 H   0  0  0  0  0  0  0  0  0  0  0  0
    4.0269    1.6534   -0.1626 H   0  0  0  0  0  0  0  0  0  0  0  0
    6.1768    0.6349   -2.0702 H   0  0  0  0  0  0  0  0  0  0  0  0
    7.4109   -0.3395   -0.5404 H   0  0  0  0  0  0  0  0  0  0  0  0
    6.0858    3.0462   -0.2198 H   0  0  0  0  0  0  0  0  0  0  0  0
    6.1591    2.9600   -2.0048 H   0  0  0  0  0  0  0  0  0  0  0  0
    7.7521    0.3467    1.6857 H   0  0  0  0  0  0  0  0  0  0  0  0
    6.6263    1.7220    1.5478 H   0  0  0  0  0  0  0  0  0  0  0  0
    8.2936    3.4622   -1.0475 H   0  0  0  0  0  0  0  0  0  0  0  0
    9.3298    1.2734    0.1924 H   0  0  0  0  0  0  0  0  0  0  0  0
    8.6965    2.7101    1.0174 H   0  0  0  0  0  0  0  0  0  0  0  0
    5.9581   -2.6899    1.2822 H   0  0  0  0  0  0  0  0  0  0  0  0
    7.5159   -1.8036    1.1392 H   0  0  0  0  0  0  0  0  0  0  0  0
    6.6754   -2.2784   -0.3663 H   0  0  0  0  0  0  0  0  0  0  0  0
   -4.2848    2.4411   -0.5732 H   0  0  0  0  0  0  0  0  0  0  0  0
   -2.9800   -0.8677    3.2202 H   0  0  0  0  0  0  0  0  0  0  0  0
   -4.2483   -2.8725    0.1127 H   0  0  0  0  0  0  0  0  0  0  0  0
    3.2780    2.5017   -2.0634 H   0  0  0  0  0  0  0  0  0  0  0  0
   -6.0933   -0.2669    1.5836 H   0  0  0  0  0  0  0  0  0  0  0  0
   -2.9044    0.5479   -0.4346 H   0  0  0  0  0  0  0  0  0  0  0  0
    2.9535    0.2911   -2.3787 H   0  0  0  0  0  0  0  0  0  0  0  0
   -5.9114   -1.4620   -0.8639 H   0  0  0  0  0  0  0  0  0  0  0  0
   -7.5554   -0.5468   -2.2820 H   0  0  0  0  0  0  0  0  0  0  0  0
   -6.2378    0.6232   -2.1759 H   0  0  0  0  0  0  0  0  0  0  0  0
   -8.2979   -1.8334   -0.7735 H   0  0  0  0  0  0  0  0  0  0  0  0
   -7.4707   -2.1268    0.8474 H   0  0  0  0  0  0  0  0  0  0  0  0
   -8.9803    1.1035   -1.7614 H   0  0  0  0  0  0  0  0  0  0  0  0
   -7.6618    2.2194   -1.2530 H   0  0  0  0  0  0  0  0  0  0  0  0
   -8.6693   -0.4251    1.8278 H   0  0  0  0  0  0  0  0  0  0  0  0
   -9.8038   -0.6146    0.4713 H   0  0  0  0  0  0  0  0  0  0  0  0
   -7.7575    1.5487    1.0002 H   0  0  0  0  0  0  0  0  0  0  0  0
   -9.4155    1.6501    0.4014 H   0  0  0  0  0  0  0  0  0  0  0  0
   -4.5234    1.3976    1.2980 H   0  0  0  0  0  0  0  0  0  0  0  0
   -1.3258   -2.0861    2.0890 H   0  0  0  0  0  0  0  0  0  0  0  0
    1.3942    0.5828    0.0898 H   0  0  0  0  0  0  0  0  0  0  0  0
    3.2444   -0.5706    1.0655 H   0  0  0  0  0  0  0  0  0  0  0  0
    2.5903   -2.1808    0.6989 H   0  0  0  0  0  0  0  0  0  0  0  0
   -1.0127    0.2025    2.6366 H   0  0  0  0  0  0  0  0  0  0  0  0
   -0.8357    0.6763    0.8829 H   0  0  0  0  0  0  0  0  0  0  0  0
   -0.3263   -3.0135    0.2891 H   0  0  0  0  0  0  0  0  0  0  0  0
   -1.5313   -2.2042   -0.7427 H   0  0  0  0  0  0  0  0  0  0  0  0
    1.3008    0.0352    2.4334 H   0  0  0  0  0  0  0  0  0  0  0  0
    0.7771   -1.6302    2.0536 H   0  0  0  0  0  0  0  0  0  0  0  0
    0.6653   -1.6948   -1.4591 H   0  0  0  0  0  0  0  0  0  0  0  0
   -0.3253   -0.2871   -1.0702 H   0  0  0  0  0  0  0  0  0  0  0  0
    4.2016   -1.8228   -0.9239 H   0  0  0  0  0  0  0  0  0  0  0  0
    2.6620   -1.7247   -1.7272 H   0  0  0  0  0  0  0  0  0  0  0  0
    4.0269    1.6534   -0.1626 H   0  0  0  0  0  0  0  0  0  0  0  0
    6.1768    0.6349   -2.0702 H   0  0  0  0  0  0  0  0  0  0  0  0
    7.4109   -0.3395   -0.5404 H   0  0  0  0  0  0  0  0  0  0  0  0
    6.0858    3.0462   -0.2198 H   0  0  0  0  0  0  0  0  0  0  0  0
    6.1591    2.9600   -2.0048 H   0  0  0  0  0  0  0  0  0  0  0  0
    7.7521    0.3467    1.6857 H   0  0  0  0  0  0  0  0  0  0  0  0
    6.6263    1.7220    1.5478 H   0  0  0  0  0  0  0  0  0  0  0  0
    8.2936    3.4622   -1.0475 H   0  0  0  0  0  0  0  0  0  0  0  0
    9.3298    1.2734    0.1924 H   0  0  0  0  0  0  0  0  0  0  0  0
    8.6965    2.7101    1.0174 H   0  0  0  0  0  0  0  0  0  0  0  0
    5.9581   -2.6899    1.2822 H   0  0  0  0  0  0  0  0  0  0  0  0
    7.5159   -1.8036    1.1392 H   0  0  0  0  0  0  0  0  0  0  0  0
    6.6754   -2.2784   -0.3663 H   0  0  0  0  0  0  0  0  0  0  0  0
  6  2  1  0
  3  6  1  0
  6  9  1  0
  8 11  1  0
 11 12  1  0
 11 13  1  0
 12 14  1  0
 13 15  1  0
 14 16  1  0
 15 16  1  0
  1 17  1  0
  8 17  1  0
  9 17  1  0
  6 18  1  0
 19 20  1  0
 18 21  1  0
 18 22  1  0
 19 23  1  0
 21 23  1  0
 19 24  1  0
 22 24  1  0
 10 25  1  0
 20 25  1  0
  4 26  1  0
 10 26  1  0
 26 27  1  0
  7 28  1  0
 27 28  1  0
 27 29  1  0
 28 30  1  0
  5 31  1  0
 29 31  1  0
 30 32  1  0
 31 32  1  0
  7 33  1  0
 39 35  1  0
 36 39  1  0
 39 42  1  0
 41 44  1  0
 44 45  1  0
 44 46  1  0
 45 47  1  0
 46 48  1  0
 47 49  1  0
 48 49  1  0
 34 50  1  0
 41 50  1  0
 42 50  1  0
 39 51  1  0
 52 53  1  0
 51 54  1  0
 51 55  1  0
 52 56  1  0
 54 56  1  0
 52 57  1  0
 55 57  1  0
 43 58  1  0
 53 58  1  0
 37 59  1  0
 43 59  1  0
 59 60  1  0
 40 61  1  0
 60 61  1  0
 60 62  1  0
 61 63  1  0
 38 64  1  0
 62 64  1  0
 63 65  1  0
 64 65  1  0
 40 66  1  0
 72 68  1  0
 69 72  1  0
 72 75  1  0
 74 77  1  0
 77 78  1  0
 77 79  1  0
 78 80  1  0
 79 81  1  0
 80 82  1  0
 81 82  1  0
 67 83  1  0
 74 83  1  0
 75 83  1  0
 72 84  1  0
 85 86  1  0
 84 87  1  0
 84 88  1  0
 85 89  1  0
 87 89  1  0
 85 90  1  0
 88 90  1  0
 76 91  1  0
 86 91  1  0
 70 92  1  0
 76 92  1  0
 92 93  1  0
 73 94  1  0
 93 94  1  0
 93 95  1  0
 94 96  1  0
 71 97  1  0
 95 97  1  0
 96 98  1  0
 97 98  1  0
 73 99  1  0
105101  1  0
102105  1  0
105108  1  0
107110  1  0
110111  1  0
110112  1  0
111113  1  0
112114  1  0
113115  1  0
114115  1  0
100116  1  0
107116  1  0
108116  1  0
105117  1  0
118119  1  0
117120  1  0
117121  1  0
118122  1  0
120122  1  0
118123  1  0
121123  1  0
109124  1  0
119124  1  0
103125  1  0
109125  1  0
125126  1  0
106127  1  0
126127  1  0
126128  1  0
127129  1  0
104130  1  0
128130  1  0
129131  1  0
130131  1  0
106132  1  0
  1133  1  0
  2134  1  0
  3135  1  0
  4136  1  0
  8137  1  0
  9138  1  0
 10139  1  0
 11140  1  0
 12141  1  0
 12142  1  0
 13143  1  0
 13144  1  0
 14145  1  0
 14146  1  0
 15147  1  0
 15148  1  0
 16149  1  0
 16150  1  0
 17151  1  0
 18152  1  0
 19153  1  0
 20154  1  0
 20155  1  0
 21156  1  0
 21157  1  0
 22158  1  0
 22159  1  0
 23160  1  0
 23161  1  0
 24162  1  0
 24163  1  0
 25164  1  0
 25165  1  0
 26166  1  0
 27167  1  0
 28168  1  0
 29169  1  0
 29170  1  0
 30171  1  0
 30172  1  0
 31173  1  0
 32174  1  0
 32175  1  0
 33176  1  0
 33177  1  0
 33178  1  0
 34179  1  0
 35180  1  0
 36181  1  0
 37182  1  0
 41183  1  0
 42184  1  0
 43185  1  0
 44186  1  0
 45187  1  0
 45188  1  0
 46189  1  0
 46190  1  0
 47191  1  0
 47192  1  0
 48193  1  0
 48194  1  0
 49195  1  0
 49196  1  0
 50197  1  0
 51198  1  0
 52199  1  0
 53200  1  0
 53201  1  0
 54202  1  0
 54203  1  0
 55204  1  0
 55205  1  0
 56206  1  0
 56207  1  0
 57208  1  0
 57209  1  0
 58210  1  0
 58211  1  0
 59212  1  0
 60213  1  0
 61214  1  0
 62215  1  0
 62216  1  0
 63217  1  0
 63218  1  0
 64219  1  0
 65220  1  0
 65221  1  0
 66222  1  0
 66223  1  0
 66224  1  0
 67225  1  0
 68226  1  0
 69227  1  0
 70228  1  0
 74229  1  0
 75230  1  0
 76231  1  0
 77232  1  0
 78233  1  0
 78234  1  0
 79235  1  0
 79236  1  0
 80237  1  0
 80238  1  0
 81239  1  0
 81240  1  0
 82241  1  0
 82242  1  0
 83243  1  0
 84244  1  0
 85245  1  0
 86246  1  0
 86247  1  0
 87248  1  0
 87249  1  0
 88250  1  0
 88251  1  0
 89252  1  0
 89253  1  0
 90254  1  0
 90255  1  0
 91256  1  0
 91257  1  0
 92258  1  0
 93259  1  0
 94260  1  0
 95261  1  0
 95262  1  0
 96263  1  0
 96264  1  0
 97265  1  0
 98266  1  0
 98267  1  0
 99268  1  0
 99269  1  0
 99270  1  0
100271  1  0
101272  1  0
102273  1  0
103274  1  0
107275  1  0
108276  1  0
109277  1  0
110278  1  0
111279  1  0
111280  1  0
112281  1  0
112282  1  0
113283  1  0
113284  1  0
114285  1  0
114286  1  0
115287  1  0
115288  1  0
116289  1  0
117290  1  0
118291  1  0
119292  1  0
119293  1  0
120294  1  0
120295  1  0
121296  1  0
121297  1  0
122298  1  0
122299  1  0
123300  1  0
123301  1  0
124302  1  0
124303  1  0
125304  1  0
126305  1  0
127306  1  0
128307  1  0
128308  1  0
129309  1  0
129310  1  0
130311  1  0
131312  1  0
131313  1  0
132314  1  0
132315  1  0
132316  1  0
M  END
>  <PDBID>  (1) 
6BAA

>  <PDB ID>  (1) 
6BAA

>  <Generic Name>  (1) 
Glyburide

>  <Brand Name>  (1) 
Apo Glyburide Tab 2.5mg#Apo Glyburide Tab 5mg#Ava-glyburide#Diabeta#Diabeta 5mg#Diabeta Tab 2.5mg#Diabeta Tab 5mg#Diabeta Tablets 2.5mg#Dom-glyburide#Euglucon#Glucovance#Glyburide#Glyburide (micronized) and Metformin Hydrochloride#Glyburide Tablets 2.5mg#Glyburide Tablets 5mg#Glyburide and Metformin#Glyburide and Metformin Hydrochloride#Glyburide-2.5 Tab 2.5mg#Glyburide-5 Tab 5mg#Glyburide-metformin Hydrochloride#Glynase#Med Glybe Tab 2.5mg#Med Glybe Tab 5mg#Mylan-glybe#Ntp-glyburide#Nu-glyburide Tab 2.5mg#Nu-glyburide Tab 5mg#PMS-glyburide#Penta-glyburide - 2.5mg#Penta-glyburide - 5mg#Pro-glyburide#Ratio-glyburide#Riva-glyburide#Sandoz Glyburide#Teva-glyburide#Daonil#Delmide#Micronase#Novo-Glyburide#Semi-Daonil

>  <DrugBank ID>  (1) 
DB01016

>  <ATC Codes>  (1) 
A10BB01

>  <Ligand ID>  (1) 
GBM

>  <Target Name>  (1) 
ATP-sensitive inward rectifier potassium channel 11

>  <UniProt ID>  (1) 
Q14654

>  <PDB ID.1>  (1) 
6BAA

>  <Seq. Identity>  (1) 
94%

$$$$
