PDB_DB00300_03
     RDKit          3D

 41 42  0  0  0  0  0  0  0  0999 V2000
    5.2919    0.5120   -0.5900 P   0  0  0  0  0  0  0  0  0  0  0  0
    6.3894    1.7366   -0.3606 O   0  0  0  0  0  0  0  0  0  0  0  0
    5.7058   -0.8265    0.3021 O   0  0  0  0  0  0  0  0  0  0  0  0
    3.6478    1.0665   -0.0735 C   0  0  0  0  0  0  0  0  0  0  0  0
    2.9740   -0.0401    0.3582 O   0  0  0  0  0  0  0  0  0  0  0  0
    1.4435   -0.3101    2.2106 C   0  0  0  0  0  0  0  0  0  0  0  0
    1.6905    0.1311    0.7898 C   0  0  2  0  0  0  0  0  0  0  0  0
    0.8266   -0.7354   -0.1606 C   0  0  0  0  0  0  0  0  0  0  0  0
   -0.5069   -0.7282    0.0702 N   0  0  0  0  0  0  0  0  0  0  0  0
   -1.3935    0.3473   -0.1373 C   0  0  1  0  0  0  0  0  0  0  0  0
   -2.0530    0.2013   -1.4204 N   0  0  0  0  0  0  0  0  0  0  0  0
   -3.3686    0.7155   -1.5187 C   0  0  0  0  0  0  0  0  0  0  0  0
   -3.8762    1.3986   -0.3649 N   0  0  0  0  0  0  0  0  0  0  0  0
   -3.7648    0.5115    0.7487 C   0  0  0  0  0  0  0  0  0  0  0  0
   -4.5980   -0.6855    0.6214 N   0  0  0  0  0  0  0  0  0  0  0  0
   -2.3610    0.1136    1.0128 C   0  0  0  0  0  0  0  0  0  0  0  0
   -2.2863   -1.3270    1.2754 N   0  0  0  0  0  0  0  0  0  0  0  0
   -1.3086   -1.8567    0.3092 C   0  0  0  0  0  0  0  0  0  0  0  0
    5.2215    0.1607   -1.9399 H   0  0  0  0  0  0  0  0  0  0  0  0
    6.0975    2.3205    0.3721 H   0  0  0  0  0  0  0  0  0  0  0  0
    5.5749   -1.6219   -0.2588 H   0  0  0  0  0  0  0  0  0  0  0  0
    3.8140    1.7275    0.8233 H   0  0  0  0  0  0  0  0  0  0  0  0
    3.1485    1.6837   -0.8154 H   0  0  0  0  0  0  0  0  0  0  0  0
    1.9287    0.3823    2.9190 H   0  0  0  0  0  0  0  0  0  0  0  0
    1.7566   -1.3432    2.3829 H   0  0  0  0  0  0  0  0  0  0  0  0
    0.3335   -0.1806    2.3775 H   0  0  0  0  0  0  0  0  0  0  0  0
    1.4080    1.1959    0.7141 H   0  0  0  0  0  0  0  0  0  0  0  0
    1.2178   -1.7978   -0.0872 H   0  0  0  0  0  0  0  0  0  0  0  0
    1.1936   -0.4190   -1.1690 H   0  0  0  0  0  0  0  0  0  0  0  0
   -0.8966    1.3413   -0.0423 H   0  0  0  0  0  0  0  0  0  0  0  0
   -1.4715    0.6044   -2.1718 H   0  0  0  0  0  0  0  0  0  0  0  0
   -3.5173    1.4124   -2.3883 H   0  0  0  0  0  0  0  0  0  0  0  0
   -4.0466   -0.1586   -1.7554 H   0  0  0  0  0  0  0  0  0  0  0  0
   -4.9166    1.5317   -0.5458 H   0  0  0  0  0  0  0  0  0  0  0  0
   -4.1555    1.0707    1.6520 H   0  0  0  0  0  0  0  0  0  0  0  0
   -4.1514   -1.3508   -0.0674 H   0  0  0  0  0  0  0  0  0  0  0  0
   -4.5837   -1.1472    1.5731 H   0  0  0  0  0  0  0  0  0  0  0  0
   -1.9110    0.6824    1.8780 H   0  0  0  0  0  0  0  0  0  0  0  0
   -1.8216   -1.4479    2.2189 H   0  0  0  0  0  0  0  0  0  0  0  0
   -1.8894   -2.1316   -0.6158 H   0  0  0  0  0  0  0  0  0  0  0  0
   -0.7858   -2.7393    0.7264 H   0  0  0  0  0  0  0  0  0  0  0  0
  1  2  1  0
  1  3  1  0
  1  4  1  0
  4  5  1  0
  5  7  1  0
  6  7  1  0
  7  8  1  0
  8  9  1  0
  9 10  1  0
 10 11  1  0
 11 12  1  0
 12 13  1  0
 13 14  1  0
 14 15  1  0
 10 16  1  0
 14 16  1  0
 16 17  1  0
  9 18  1  0
 17 18  1  0
  1 19  1  0
  2 20  1  0
  3 21  1  0
  4 22  1  0
  4 23  1  0
  6 24  1  0
  6 25  1  0
  6 26  1  0
  7 27  1  1
  8 28  1  0
  8 29  1  0
 10 30  1  1
 11 31  1  0
 12 32  1  0
 12 33  1  0
 13 34  1  0
 14 35  1  0
 15 36  1  0
 15 37  1  0
 16 38  1  0
 17 39  1  0
 18 40  1  0
 18 41  1  0
M  END
>  <PDBID>  (1) 
1T03

>  <PDB ID>  (1) 
1T03

>  <Generic Name>  (1) 
Tenofovir

>  <Brand Name>  (1) 
Atripla#Complera#Stribild#Truvada#Viread

>  <DrugBank ID>  (1) 
DB00300

>  <ATC Codes>  (1) 
nan

>  <Ligand ID>  (1) 
TFO

>  <Target Name>  (1) 
Reverse transcriptase/RNaseH

>  <UniProt ID>  (1) 
Q72547

>  <PDB ID.1>  (1) 
1T03

>  <Seq. Identity>  (1) 
95%

$$$$
