PDB_DB00783_06
     RDKit          3D

 50 53  0  0  0  0  0  0  0  0999 V2000
    2.2403   -1.1395    0.9162 C   0  0  0  0  0  0  0  0  0  0  0  0
    3.7191   -1.4941    0.6968 C   0  0  0  0  0  0  0  0  0  0  0  0
    4.4527   -0.3398    0.0563 C   0  0  0  0  0  0  0  0  0  0  0  0
    5.7198   -0.1603    0.5972 O   0  0  0  0  0  0  0  0  0  0  0  0
    3.5908    0.8757    0.1793 C   0  0  0  0  0  0  0  0  0  0  0  0
    2.3626    0.6607   -0.7219 C   0  0  0  0  0  0  0  0  0  0  0  0
    1.5397    1.8896   -0.5818 C   0  0  0  0  0  0  0  0  0  0  0  0
    0.2311    1.6480   -1.3413 C   0  0  0  0  0  0  0  0  0  0  0  0
   -0.4884    0.6425   -0.4644 C   0  0  2  0  0  0  0  0  0  0  0  0
    0.2319   -0.6914   -0.5332 C   0  0  1  0  0  0  0  0  0  0  0  0
    1.6917   -0.6263   -0.4241 C   0  0  0  0  0  0  0  0  0  0  0  0
   -0.3976   -1.5694    0.5276 C   0  0  0  0  0  0  0  0  0  0  0  0
   -1.8826   -1.6498    0.4322 C   0  0  0  0  0  0  0  0  0  0  0  0
   -2.5723   -0.3332    0.3089 C   0  0  1  0  0  0  0  0  0  0  0  0
   -1.8890    0.4108   -0.8474 C   0  0  1  0  0  0  0  0  0  0  0  0
   -2.7726    1.5835   -0.9816 C   0  0  0  0  0  0  0  0  0  0  0  0
   -4.1690    0.9753   -0.8169 C   0  0  0  0  0  0  0  0  0  0  0  0
   -3.9561   -0.4268   -0.2792 C   0  0  2  0  0  0  0  0  0  0  0  0
   -4.8841   -0.7623    0.7000 O   0  0  0  0  0  0  0  0  0  0  0  0
   -2.6313    0.4714    1.5526 C   0  0  0  0  0  0  0  0  0  0  0  0
    2.0984   -0.4278    1.7239 H   0  0  0  0  0  0  0  0  0  0  0  0
    1.7674   -2.0955    1.2079 H   0  0  0  0  0  0  0  0  0  0  0  0
    3.6885   -2.3757   -0.0082 H   0  0  0  0  0  0  0  0  0  0  0  0
    4.1600   -1.8405    1.6308 H   0  0  0  0  0  0  0  0  0  0  0  0
    4.5552   -0.5642   -1.0335 H   0  0  0  0  0  0  0  0  0  0  0  0
    6.3382   -0.7434    0.1182 H   0  0  0  0  0  0  0  0  0  0  0  0
    3.3036    1.1350    1.2027 H   0  0  0  0  0  0  0  0  0  0  0  0
    4.1007    1.7909   -0.2432 H   0  0  0  0  0  0  0  0  0  0  0  0
    2.7989    0.6809   -1.7658 H   0  0  0  0  0  0  0  0  0  0  0  0
    2.0508    2.7317   -1.0620 H   0  0  0  0  0  0  0  0  0  0  0  0
    1.3122    2.1775    0.4609 H   0  0  0  0  0  0  0  0  0  0  0  0
   -0.3419    2.5621   -1.4892 H   0  0  0  0  0  0  0  0  0  0  0  0
    0.5360    1.1459   -2.2887 H   0  0  0  0  0  0  0  0  0  0  0  0
   -0.3849    0.9915    0.5866 H   0  0  0  0  0  0  0  0  0  0  0  0
   -0.0931   -1.1437   -1.5185 H   0  0  0  0  0  0  0  0  0  0  0  0
    2.1222   -1.3804   -1.1554 H   0  0  0  0  0  0  0  0  0  0  0  0
   -0.0121   -2.6039    0.3548 H   0  0  0  0  0  0  0  0  0  0  0  0
   -0.0621   -1.2677    1.5547 H   0  0  0  0  0  0  0  0  0  0  0  0
   -2.1828   -2.3175   -0.4088 H   0  0  0  0  0  0  0  0  0  0  0  0
   -2.2547   -2.1442    1.3532 H   0  0  0  0  0  0  0  0  0  0  0  0
   -1.9753   -0.2246   -1.7480 H   0  0  0  0  0  0  0  0  0  0  0  0
   -2.6875    1.9768   -2.0293 H   0  0  0  0  0  0  0  0  0  0  0  0
   -2.5969    2.4011   -0.2812 H   0  0  0  0  0  0  0  0  0  0  0  0
   -4.7902    1.5636   -0.1331 H   0  0  0  0  0  0  0  0  0  0  0  0
   -4.6430    0.8572   -1.8231 H   0  0  0  0  0  0  0  0  0  0  0  0
   -3.9241   -1.1763   -1.0978 H   0  0  0  0  0  0  0  0  0  0  0  0
   -5.0324   -1.7469    0.6089 H   0  0  0  0  0  0  0  0  0  0  0  0
   -2.1650    1.4706    1.4861 H   0  0  0  0  0  0  0  0  0  0  0  0
   -2.1358   -0.0521    2.4031 H   0  0  0  0  0  0  0  0  0  0  0  0
   -3.6870    0.6548    1.9041 H   0  0  0  0  0  0  0  0  0  0  0  0
  1  2  1  0
  2  3  1  0
  3  4  1  0
  3  5  1  0
  5  6  1  0
  6  7  1  0
  7  8  1  0
  8  9  1  0
  9 10  1  0
  1 11  1  0
  6 11  1  0
 10 11  1  0
 10 12  1  0
 12 13  1  0
 13 14  1  0
  9 15  1  0
 14 15  1  0
 15 16  1  0
 16 17  1  0
 14 18  1  0
 17 18  1  0
 18 19  1  0
 14 20  1  1
  1 21  1  0
  1 22  1  0
  2 23  1  0
  2 24  1  0
  3 25  1  0
  4 26  1  0
  5 27  1  0
  5 28  1  0
  6 29  1  0
  7 30  1  0
  7 31  1  0
  8 32  1  0
  8 33  1  0
  9 34  1  1
 10 35  1  6
 11 36  1  0
 12 37  1  0
 12 38  1  0
 13 39  1  0
 13 40  1  0
 15 41  1  6
 16 42  1  0
 16 43  1  0
 17 44  1  0
 17 45  1  0
 18 46  1  6
 19 47  1  0
 20 48  1  0
 20 49  1  0
 20 50  1  0
M  END
>  <PDBID>  (1) 
2OCF

>  <PDB ID>  (1) 
2OCF

>  <Generic Name>  (1) 
Estradiol

>  <Brand Name>  (1) 
Activella#Activelle#Activelle Ld#Alora#Amabelz#Angeliq#Climara#Climara 100#Climara 25#Climara 50#Climara 75#Climara Pro#Combipatch#Combipatch (estradiol/norethindrone Acetate Transdermal System)#Delestrogen#Delestrogen Inj 10mg/ml#Depo-estradiol#Divigel#Elestrin#Estalis 140/50 Mcg#Estalis 250/50 Mcg#Estalis Sequi#Estrace#Estrace Tab 1mg#Estrace Tab 2mg#Estracomb#Estraderm-100#Estraderm-25#Estraderm-50#Estradiol#Estradiol / Norethindrone Acetate#Estradiol Transdermal System#Estradiol Valerate#Estradot 100#Estradot 25#Estradot 37.5#Estradot 50#Estradot 75#Estring#Estrogel#Estrogel Propak#Evamist#Femring#Lopreeza#Lupin-estradiol#Menostar#Mimvey#Mimvey Lo#Minivelle#Natazia#Neo Pause Injection#Neo-diol Inj 20mg/ml#Oesclim#PMS-estradiol Valerate Inj 10mg/ml#Prefesta#Sandoz Estradiol Derm 100#Sandoz Estradiol Derm 50#Sandoz Estradiol Derm 75#Vagifem#Vagifem 10#Vivelle 100mcg#Vivelle 37.5mcg#Vivelle 50mcg#Vivelle 75mcg#Vivelle Dot#Vivelle-dot#Yuvafem#Estraderm MX#Estraderm TTS#Estrasorb#Estrofem#Femtrace#Innofem#Vivelle

>  <DrugBank ID>  (1) 
DB00783

>  <ATC Codes>  (1) 
G03FA16#G03FA11#G03FA12#G03FB12#G03FA17#G03FA05#G03FB09#G03FA14#G03FA08#G03AA14#G03EA03#G03FB01#G03AB08#G03EA02#G03FB05#G03HB01#G03FB11#G03CA53#G03FB04#G03FA07#G03FB07#G03FB02#G03FB10#G03FA06#G03CA03#G03FA15#G03FA09#G03FA13#G03EA01#G03FB06#G03FA01#G03FA02#G02BB01#G03FA03#G03FB08#G03FA10#G03FA04#G03FB03

>  <Ligand ID>  (1) 
EST

>  <Target Name>  (1) 
Estrogen receptor

>  <UniProt ID>  (1) 
P03372

>  <PDB ID.1>  (1) 
2OCF

>  <Seq. Identity>  (1) 
94%

$$$$
