PDB_DB01076_05
     RDKit          3D

408420  0  0  0  0  0  0  0  0999 V2000
   -2.9473   -2.7756   -0.1490 C   0  0  0  0  0  0  0  0  0  0  0  0
   -2.4491   -1.8317    0.8421 C   0  0  0  0  0  0  0  0  0  0  0  0
   -2.7249   -2.5081    2.2150 C   0  0  0  0  0  0  0  0  0  0  0  0
   -4.2460   -2.5560    2.3624 C   0  0  0  0  0  0  0  0  0  0  0  0
   -4.8654   -3.3694    1.2474 C   0  0  0  0  0  0  0  0  0  0  0  0
   -4.4765   -2.8224   -0.1152 C   0  0  0  0  0  0  0  0  0  0  0  0
    2.4197   -4.5008    1.1616 C   0  0  0  0  0  0  0  0  0  0  0  0
    1.9764   -3.0807    1.4452 C   0  0  0  0  0  0  0  0  0  0  0  0
    0.5786   -2.8599    0.9263 C   0  0  0  0  0  0  0  0  0  0  0  0
    0.5329   -3.6498   -0.3990 C   0  0  0  0  0  0  0  0  0  0  0  0
    0.3001   -5.1041   -0.0141 C   0  0  0  0  0  0  0  0  0  0  0  0
    1.2833   -5.4559    1.0617 C   0  0  0  0  0  0  0  0  0  0  0  0
    0.6056   -5.6409    2.2388 F   0  0  0  0  0  0  0  0  0  0  0  0
    0.1520   -1.4703    0.6766 C   0  0  0  0  0  0  0  0  0  0  0  0
   -3.2204    3.1081   -0.6646 C   0  0  0  0  0  0  0  0  0  0  0  0
   -3.2559    3.5647    0.7606 C   0  0  0  0  0  0  0  0  0  0  0  0
   -4.5879    4.3303    0.9067 C   0  0  0  0  0  0  0  0  0  0  0  0
   -4.5015    5.5219    0.0041 C   0  0  0  0  0  0  0  0  0  0  0  0
   -3.2420    5.5935   -0.7991 C   0  0  0  0  0  0  0  0  0  0  0  0
   -2.9451    4.3298   -1.5456 C   0  0  0  0  0  0  0  0  0  0  0  0
    8.7958    1.0625    1.0140 O   0  0  0  0  0  0  0  0  0  0  0  0
    8.2672    2.0169   -0.9769 O   0  0  0  0  0  0  0  0  0  0  0  0
    5.6746    3.4622    0.3911 O   0  0  0  0  0  0  0  0  0  0  0  0
    7.8812    1.8649    0.3555 C   0  0  0  0  0  0  0  0  0  0  0  0
    6.4661    1.2749    0.4427 C   0  0  0  0  0  0  0  0  0  0  0  0
    5.5650    2.2424   -0.2995 C   0  0  1  0  0  0  0  0  0  0  0  0
    4.1492    1.7965   -0.4258 C   0  0  0  0  0  0  0  0  0  0  0  0
    3.4542    1.5390    0.8537 C   0  0  1  0  0  0  0  0  0  0  0  0
    1.9879    1.1084    0.6699 C   0  0  0  0  0  0  0  0  0  0  0  0
    1.9989   -0.1130   -0.1843 C   0  0  0  0  0  0  0  0  0  0  0  0
    0.7839   -0.7943   -0.4222 N   0  0  0  0  0  0  0  0  0  0  0  0
   -1.2380   -1.0589    0.8038 C   0  0  0  0  0  0  0  0  0  0  0  0
   -1.1988    0.2260   -0.0061 C   0  0  0  0  0  0  0  0  0  0  0  0
   -2.5089    0.8606   -0.3136 C   0  0  0  0  0  0  0  0  0  0  0  0
   -2.2706    2.1138   -1.0055 N   0  0  0  0  0  0  0  0  0  0  0  0
   -3.2962    0.1241   -1.1962 O   0  0  0  0  0  0  0  0  0  0  0  0
   -0.1811    0.1102   -1.0442 C   0  0  0  0  0  0  0  0  0  0  0  0
   -0.2546   -0.1231   -2.4470 C   0  0  0  0  0  0  0  0  0  0  0  0
   -0.6430   -1.3609   -3.1424 C   0  0  0  0  0  0  0  0  0  0  0  0
   -0.7836    1.0399   -3.3096 C   0  0  0  0  0  0  0  0  0  0  0  0
    4.0967    0.6520    1.7156 O   0  0  0  0  0  0  0  0  0  0  0  0
   -2.9473   -2.7756   -0.1490 C   0  0  0  0  0  0  0  0  0  0  0  0
   -2.4491   -1.8317    0.8421 C   0  0  0  0  0  0  0  0  0  0  0  0
   -2.7249   -2.5081    2.2150 C   0  0  0  0  0  0  0  0  0  0  0  0
   -4.2460   -2.5560    2.3624 C   0  0  0  0  0  0  0  0  0  0  0  0
   -4.8654   -3.3694    1.2474 C   0  0  0  0  0  0  0  0  0  0  0  0
   -4.4765   -2.8224   -0.1152 C   0  0  0  0  0  0  0  0  0  0  0  0
    2.4197   -4.5008    1.1616 C   0  0  0  0  0  0  0  0  0  0  0  0
    1.9764   -3.0807    1.4452 C   0  0  0  0  0  0  0  0  0  0  0  0
    0.5786   -2.8599    0.9263 C   0  0  0  0  0  0  0  0  0  0  0  0
    0.5329   -3.6498   -0.3990 C   0  0  0  0  0  0  0  0  0  0  0  0
    0.3001   -5.1041   -0.0141 C   0  0  0  0  0  0  0  0  0  0  0  0
    1.2833   -5.4559    1.0617 C   0  0  0  0  0  0  0  0  0  0  0  0
    0.6056   -5.6409    2.2388 F   0  0  0  0  0  0  0  0  0  0  0  0
    0.1520   -1.4703    0.6766 C   0  0  0  0  0  0  0  0  0  0  0  0
   -3.2204    3.1081   -0.6646 C   0  0  0  0  0  0  0  0  0  0  0  0
   -3.2559    3.5647    0.7606 C   0  0  0  0  0  0  0  0  0  0  0  0
   -4.5879    4.3303    0.9067 C   0  0  0  0  0  0  0  0  0  0  0  0
   -4.5015    5.5219    0.0041 C   0  0  0  0  0  0  0  0  0  0  0  0
   -3.2420    5.5935   -0.7991 C   0  0  0  0  0  0  0  0  0  0  0  0
   -2.9451    4.3298   -1.5456 C   0  0  0  0  0  0  0  0  0  0  0  0
    8.7958    1.0625    1.0140 O   0  0  0  0  0  0  0  0  0  0  0  0
    8.2672    2.0169   -0.9769 O   0  0  0  0  0  0  0  0  0  0  0  0
    5.6746    3.4622    0.3911 O   0  0  0  0  0  0  0  0  0  0  0  0
    7.8812    1.8649    0.3555 C   0  0  0  0  0  0  0  0  0  0  0  0
    6.4661    1.2749    0.4427 C   0  0  0  0  0  0  0  0  0  0  0  0
    5.5650    2.2424   -0.2995 C   0  0  1  0  0  0  0  0  0  0  0  0
    4.1492    1.7965   -0.4258 C   0  0  0  0  0  0  0  0  0  0  0  0
    3.4542    1.5390    0.8537 C   0  0  1  0  0  0  0  0  0  0  0  0
    1.9879    1.1084    0.6699 C   0  0  0  0  0  0  0  0  0  0  0  0
    1.9989   -0.1130   -0.1843 C   0  0  0  0  0  0  0  0  0  0  0  0
    0.7839   -0.7943   -0.4222 N   0  0  0  0  0  0  0  0  0  0  0  0
   -1.2380   -1.0589    0.8038 C   0  0  0  0  0  0  0  0  0  0  0  0
   -1.1988    0.2260   -0.0061 C   0  0  0  0  0  0  0  0  0  0  0  0
   -2.5089    0.8606   -0.3136 C   0  0  0  0  0  0  0  0  0  0  0  0
   -2.2706    2.1138   -1.0055 N   0  0  0  0  0  0  0  0  0  0  0  0
   -3.2962    0.1241   -1.1962 O   0  0  0  0  0  0  0  0  0  0  0  0
   -0.1811    0.1102   -1.0442 C   0  0  0  0  0  0  0  0  0  0  0  0
   -0.2546   -0.1231   -2.4470 C   0  0  0  0  0  0  0  0  0  0  0  0
   -0.6430   -1.3609   -3.1424 C   0  0  0  0  0  0  0  0  0  0  0  0
   -0.7836    1.0399   -3.3096 C   0  0  0  0  0  0  0  0  0  0  0  0
    4.0967    0.6520    1.7156 O   0  0  0  0  0  0  0  0  0  0  0  0
   -2.9473   -2.7756   -0.1490 C   0  0  0  0  0  0  0  0  0  0  0  0
   -2.4491   -1.8317    0.8421 C   0  0  0  0  0  0  0  0  0  0  0  0
   -2.7249   -2.5081    2.2150 C   0  0  0  0  0  0  0  0  0  0  0  0
   -4.2460   -2.5560    2.3624 C   0  0  0  0  0  0  0  0  0  0  0  0
   -4.8654   -3.3694    1.2474 C   0  0  0  0  0  0  0  0  0  0  0  0
   -4.4765   -2.8224   -0.1152 C   0  0  0  0  0  0  0  0  0  0  0  0
    2.4197   -4.5008    1.1616 C   0  0  0  0  0  0  0  0  0  0  0  0
    1.9764   -3.0807    1.4452 C   0  0  0  0  0  0  0  0  0  0  0  0
    0.5786   -2.8599    0.9263 C   0  0  0  0  0  0  0  0  0  0  0  0
    0.5329   -3.6498   -0.3990 C   0  0  0  0  0  0  0  0  0  0  0  0
    0.3001   -5.1041   -0.0141 C   0  0  0  0  0  0  0  0  0  0  0  0
    1.2833   -5.4559    1.0617 C   0  0  0  0  0  0  0  0  0  0  0  0
    0.6056   -5.6409    2.2388 F   0  0  0  0  0  0  0  0  0  0  0  0
    0.1520   -1.4703    0.6766 C   0  0  0  0  0  0  0  0  0  0  0  0
   -3.2204    3.1081   -0.6646 C   0  0  0  0  0  0  0  0  0  0  0  0
   -3.2559    3.5647    0.7606 C   0  0  0  0  0  0  0  0  0  0  0  0
   -4.5879    4.3303    0.9067 C   0  0  0  0  0  0  0  0  0  0  0  0
   -4.5015    5.5219    0.0041 C   0  0  0  0  0  0  0  0  0  0  0  0
   -3.2420    5.5935   -0.7991 C   0  0  0  0  0  0  0  0  0  0  0  0
   -2.9451    4.3298   -1.5456 C   0  0  0  0  0  0  0  0  0  0  0  0
    8.7958    1.0625    1.0140 O   0  0  0  0  0  0  0  0  0  0  0  0
    8.2672    2.0169   -0.9769 O   0  0  0  0  0  0  0  0  0  0  0  0
    5.6746    3.4622    0.3911 O   0  0  0  0  0  0  0  0  0  0  0  0
    7.8812    1.8649    0.3555 C   0  0  0  0  0  0  0  0  0  0  0  0
    6.4661    1.2749    0.4427 C   0  0  0  0  0  0  0  0  0  0  0  0
    5.5650    2.2424   -0.2995 C   0  0  1  0  0  0  0  0  0  0  0  0
    4.1492    1.7965   -0.4258 C   0  0  0  0  0  0  0  0  0  0  0  0
    3.4542    1.5390    0.8537 C   0  0  1  0  0  0  0  0  0  0  0  0
    1.9879    1.1084    0.6699 C   0  0  0  0  0  0  0  0  0  0  0  0
    1.9989   -0.1130   -0.1843 C   0  0  0  0  0  0  0  0  0  0  0  0
    0.7839   -0.7943   -0.4222 N   0  0  0  0  0  0  0  0  0  0  0  0
   -1.2380   -1.0589    0.8038 C   0  0  0  0  0  0  0  0  0  0  0  0
   -1.1988    0.2260   -0.0061 C   0  0  0  0  0  0  0  0  0  0  0  0
   -2.5089    0.8606   -0.3136 C   0  0  0  0  0  0  0  0  0  0  0  0
   -2.2706    2.1138   -1.0055 N   0  0  0  0  0  0  0  0  0  0  0  0
   -3.2962    0.1241   -1.1962 O   0  0  0  0  0  0  0  0  0  0  0  0
   -0.1811    0.1102   -1.0442 C   0  0  0  0  0  0  0  0  0  0  0  0
   -0.2546   -0.1231   -2.4470 C   0  0  0  0  0  0  0  0  0  0  0  0
   -0.6430   -1.3609   -3.1424 C   0  0  0  0  0  0  0  0  0  0  0  0
   -0.7836    1.0399   -3.3096 C   0  0  0  0  0  0  0  0  0  0  0  0
    4.0967    0.6520    1.7156 O   0  0  0  0  0  0  0  0  0  0  0  0
   -2.9473   -2.7756   -0.1490 C   0  0  0  0  0  0  0  0  0  0  0  0
   -2.4491   -1.8317    0.8421 C   0  0  0  0  0  0  0  0  0  0  0  0
   -2.7249   -2.5081    2.2150 C   0  0  0  0  0  0  0  0  0  0  0  0
   -4.2460   -2.5560    2.3624 C   0  0  0  0  0  0  0  0  0  0  0  0
   -4.8654   -3.3694    1.2474 C   0  0  0  0  0  0  0  0  0  0  0  0
   -4.4765   -2.8224   -0.1152 C   0  0  0  0  0  0  0  0  0  0  0  0
    2.4197   -4.5008    1.1616 C   0  0  0  0  0  0  0  0  0  0  0  0
    1.9764   -3.0807    1.4452 C   0  0  0  0  0  0  0  0  0  0  0  0
    0.5786   -2.8599    0.9263 C   0  0  0  0  0  0  0  0  0  0  0  0
    0.5329   -3.6498   -0.3990 C   0  0  0  0  0  0  0  0  0  0  0  0
    0.3001   -5.1041   -0.0141 C   0  0  0  0  0  0  0  0  0  0  0  0
    1.2833   -5.4559    1.0617 C   0  0  0  0  0  0  0  0  0  0  0  0
    0.6056   -5.6409    2.2388 F   0  0  0  0  0  0  0  0  0  0  0  0
    0.1520   -1.4703    0.6766 C   0  0  0  0  0  0  0  0  0  0  0  0
   -3.2204    3.1081   -0.6646 C   0  0  0  0  0  0  0  0  0  0  0  0
   -3.2559    3.5647    0.7606 C   0  0  0  0  0  0  0  0  0  0  0  0
   -4.5879    4.3303    0.9067 C   0  0  0  0  0  0  0  0  0  0  0  0
   -4.5015    5.5219    0.0041 C   0  0  0  0  0  0  0  0  0  0  0  0
   -3.2420    5.5935   -0.7991 C   0  0  0  0  0  0  0  0  0  0  0  0
   -2.9451    4.3298   -1.5456 C   0  0  0  0  0  0  0  0  0  0  0  0
    8.7958    1.0625    1.0140 O   0  0  0  0  0  0  0  0  0  0  0  0
    8.2672    2.0169   -0.9769 O   0  0  0  0  0  0  0  0  0  0  0  0
    5.6746    3.4622    0.3911 O   0  0  0  0  0  0  0  0  0  0  0  0
    7.8812    1.8649    0.3555 C   0  0  0  0  0  0  0  0  0  0  0  0
    6.4661    1.2749    0.4427 C   0  0  0  0  0  0  0  0  0  0  0  0
    5.5650    2.2424   -0.2995 C   0  0  1  0  0  0  0  0  0  0  0  0
    4.1492    1.7965   -0.4258 C   0  0  0  0  0  0  0  0  0  0  0  0
    3.4542    1.5390    0.8537 C   0  0  1  0  0  0  0  0  0  0  0  0
    1.9879    1.1084    0.6699 C   0  0  0  0  0  0  0  0  0  0  0  0
    1.9989   -0.1130   -0.1843 C   0  0  0  0  0  0  0  0  0  0  0  0
    0.7839   -0.7943   -0.4222 N   0  0  0  0  0  0  0  0  0  0  0  0
   -1.2380   -1.0589    0.8038 C   0  0  0  0  0  0  0  0  0  0  0  0
   -1.1988    0.2260   -0.0061 C   0  0  0  0  0  0  0  0  0  0  0  0
   -2.5089    0.8606   -0.3136 C   0  0  0  0  0  0  0  0  0  0  0  0
   -2.2706    2.1138   -1.0055 N   0  0  0  0  0  0  0  0  0  0  0  0
   -3.2962    0.1241   -1.1962 O   0  0  0  0  0  0  0  0  0  0  0  0
   -0.1811    0.1102   -1.0442 C   0  0  0  0  0  0  0  0  0  0  0  0
   -0.2546   -0.1231   -2.4470 C   0  0  0  0  0  0  0  0  0  0  0  0
   -0.6430   -1.3609   -3.1424 C   0  0  0  0  0  0  0  0  0  0  0  0
   -0.7836    1.0399   -3.3096 C   0  0  0  0  0  0  0  0  0  0  0  0
    4.0967    0.6520    1.7156 O   0  0  0  0  0  0  0  0  0  0  0  0
   -2.7014   -2.5828   -1.1942 H   0  0  0  0  0  0  0  0  0  0  0  0
   -2.7379   -3.8700    0.1176 H   0  0  0  0  0  0  0  0  0  0  0  0
   -3.2576   -1.0078    0.8692 H   0  0  0  0  0  0  0  0  0  0  0  0
   -2.3615   -1.7800    2.9612 H   0  0  0  0  0  0  0  0  0  0  0  0
   -2.2961   -3.5083    2.2704 H   0  0  0  0  0  0  0  0  0  0  0  0
   -4.5567   -2.9887    3.3087 H   0  0  0  0  0  0  0  0  0  0  0  0
   -4.6151   -1.5164    2.2669 H   0  0  0  0  0  0  0  0  0  0  0  0
   -5.9529   -3.2571    1.3395 H   0  0  0  0  0  0  0  0  0  0  0  0
   -4.5119   -4.3985    1.3417 H   0  0  0  0  0  0  0  0  0  0  0  0
   -4.8925   -1.8277   -0.2716 H   0  0  0  0  0  0  0  0  0  0  0  0
   -4.8455   -3.5607   -0.8597 H   0  0  0  0  0  0  0  0  0  0  0  0
    3.0648   -4.8243    2.0185 H   0  0  0  0  0  0  0  0  0  0  0  0
    3.0635   -4.5872    0.2697 H   0  0  0  0  0  0  0  0  0  0  0  0
    1.9239   -2.9818    2.5866 H   0  0  0  0  0  0  0  0  0  0  0  0
    2.7380   -2.3844    1.1580 H   0  0  0  0  0  0  0  0  0  0  0  0
   -0.0486   -3.3974    1.6713 H   0  0  0  0  0  0  0  0  0  0  0  0
   -0.2856   -3.2812   -1.0338 H   0  0  0  0  0  0  0  0  0  0  0  0
    1.5113   -3.6355   -0.9150 H   0  0  0  0  0  0  0  0  0  0  0  0
   -0.7477   -5.2895    0.2292 H   0  0  0  0  0  0  0  0  0  0  0  0
    0.5414   -5.6782   -0.9609 H   0  0  0  0  0  0  0  0  0  0  0  0
    1.7257   -6.4514    0.7951 H   0  0  0  0  0  0  0  0  0  0  0  0
    0.7182   -0.9232    1.5502 H   0  0  0  0  0  0  0  0  0  0  0  0
   -4.2518    2.7522   -0.9153 H   0  0  0  0  0  0  0  0  0  0  0  0
   -2.4100    4.2479    1.0024 H   0  0  0  0  0  0  0  0  0  0  0  0
   -3.2814    2.7756    1.5046 H   0  0  0  0  0  0  0  0  0  0  0  0
   -4.8043    4.5270    1.9503 H   0  0  0  0  0  0  0  0  0  0  0  0
   -5.3489    3.6022    0.4929 H   0  0  0  0  0  0  0  0  0  0  0  0
   -4.5754    6.4601    0.6134 H   0  0  0  0  0  0  0  0  0  0  0  0
   -5.3457    5.5555   -0.7450 H   0  0  0  0  0  0  0  0  0  0  0  0
   -3.4083    6.4017   -1.5722 H   0  0  0  0  0  0  0  0  0  0  0  0
   -2.3471    5.8987   -0.1901 H   0  0  0  0  0  0  0  0  0  0  0  0
   -1.8514    4.3722   -1.8117 H   0  0  0  0  0  0  0  0  0  0  0  0
   -3.5037    4.2445   -2.4893 H   0  0  0  0  0  0  0  0  0  0  0  0
    8.8700    1.2732    1.9788 H   0  0  0  0  0  0  0  0  0  0  0  0
    8.1044    1.1684   -1.4686 H   0  0  0  0  0  0  0  0  0  0  0  0
    5.4396    4.1952   -0.2259 H   0  0  0  0  0  0  0  0  0  0  0  0
    7.8829    2.8646    0.8196 H   0  0  0  0  0  0  0  0  0  0  0  0
    6.2544    1.3048    1.5572 H   0  0  0  0  0  0  0  0  0  0  0  0
    6.5054    0.2739    0.0327 H   0  0  0  0  0  0  0  0  0  0  0  0
    5.9982    2.4012   -1.3053 H   0  0  0  0  0  0  0  0  0  0  0  0
    3.6036    2.5972   -0.9634 H   0  0  0  0  0  0  0  0  0  0  0  0
    4.0973    0.8460   -1.0329 H   0  0  0  0  0  0  0  0  0  0  0  0
    3.3812    2.5186    1.4122 H   0  0  0  0  0  0  0  0  0  0  0  0
    1.5944    0.9656    1.6913 H   0  0  0  0  0  0  0  0  0  0  0  0
    1.5167    2.0059    0.2542 H   0  0  0  0  0  0  0  0  0  0  0  0
    2.9192   -0.6419   -0.0714 H   0  0  0  0  0  0  0  0  0  0  0  0
    2.1778    0.3726   -1.2564 H   0  0  0  0  0  0  0  0  0  0  0  0
   -1.2859   -0.6708    1.9394 H   0  0  0  0  0  0  0  0  0  0  0  0
   -0.7805    0.9844    0.7492 H   0  0  0  0  0  0  0  0  0  0  0  0
   -3.0234    1.1233    0.6099 H   0  0  0  0  0  0  0  0  0  0  0  0
   -1.2743    2.4341   -0.8584 H   0  0  0  0  0  0  0  0  0  0  0  0
   -4.2594    0.3399   -1.0870 H   0  0  0  0  0  0  0  0  0  0  0  0
    0.3481    1.1384   -1.0438 H   0  0  0  0  0  0  0  0  0  0  0  0
    0.8823   -0.0652   -2.7514 H   0  0  0  0  0  0  0  0  0  0  0  0
    0.0692   -2.2110   -3.0632 H   0  0  0  0  0  0  0  0  0  0  0  0
   -1.6332   -1.7578   -3.0300 H   0  0  0  0  0  0  0  0  0  0  0  0
   -0.5780   -1.1562   -4.2767 H   0  0  0  0  0  0  0  0  0  0  0  0
   -0.3960    0.9028   -4.3778 H   0  0  0  0  0  0  0  0  0  0  0  0
   -1.8779    0.9674   -3.4566 H   0  0  0  0  0  0  0  0  0  0  0  0
   -0.3876    2.0061   -3.0214 H   0  0  0  0  0  0  0  0  0  0  0  0
    4.3710   -0.1529    1.2517 H   0  0  0  0  0  0  0  0  0  0  0  0
   -2.7014   -2.5828   -1.1942 H   0  0  0  0  0  0  0  0  0  0  0  0
   -2.7379   -3.8700    0.1176 H   0  0  0  0  0  0  0  0  0  0  0  0
   -3.2576   -1.0078    0.8692 H   0  0  0  0  0  0  0  0  0  0  0  0
   -2.3615   -1.7800    2.9612 H   0  0  0  0  0  0  0  0  0  0  0  0
   -2.2961   -3.5083    2.2704 H   0  0  0  0  0  0  0  0  0  0  0  0
   -4.5567   -2.9887    3.3087 H   0  0  0  0  0  0  0  0  0  0  0  0
   -4.6151   -1.5164    2.2669 H   0  0  0  0  0  0  0  0  0  0  0  0
   -5.9529   -3.2571    1.3395 H   0  0  0  0  0  0  0  0  0  0  0  0
   -4.5119   -4.3985    1.3417 H   0  0  0  0  0  0  0  0  0  0  0  0
   -4.8925   -1.8277   -0.2716 H   0  0  0  0  0  0  0  0  0  0  0  0
   -4.8455   -3.5607   -0.8597 H   0  0  0  0  0  0  0  0  0  0  0  0
    3.0648   -4.8243    2.0185 H   0  0  0  0  0  0  0  0  0  0  0  0
    3.0635   -4.5872    0.2697 H   0  0  0  0  0  0  0  0  0  0  0  0
    1.9239   -2.9818    2.5866 H   0  0  0  0  0  0  0  0  0  0  0  0
    2.7380   -2.3844    1.1580 H   0  0  0  0  0  0  0  0  0  0  0  0
   -0.0486   -3.3974    1.6713 H   0  0  0  0  0  0  0  0  0  0  0  0
   -0.2856   -3.2812   -1.0338 H   0  0  0  0  0  0  0  0  0  0  0  0
    1.5113   -3.6355   -0.9150 H   0  0  0  0  0  0  0  0  0  0  0  0
   -0.7477   -5.2895    0.2292 H   0  0  0  0  0  0  0  0  0  0  0  0
    0.5414   -5.6782   -0.9609 H   0  0  0  0  0  0  0  0  0  0  0  0
    1.7257   -6.4514    0.7951 H   0  0  0  0  0  0  0  0  0  0  0  0
    0.7182   -0.9232    1.5502 H   0  0  0  0  0  0  0  0  0  0  0  0
   -4.2518    2.7522   -0.9153 H   0  0  0  0  0  0  0  0  0  0  0  0
   -2.4100    4.2479    1.0024 H   0  0  0  0  0  0  0  0  0  0  0  0
   -3.2814    2.7756    1.5046 H   0  0  0  0  0  0  0  0  0  0  0  0
   -4.8043    4.5270    1.9503 H   0  0  0  0  0  0  0  0  0  0  0  0
   -5.3489    3.6022    0.4929 H   0  0  0  0  0  0  0  0  0  0  0  0
   -4.5754    6.4601    0.6134 H   0  0  0  0  0  0  0  0  0  0  0  0
   -5.3457    5.5555   -0.7450 H   0  0  0  0  0  0  0  0  0  0  0  0
   -3.4083    6.4017   -1.5722 H   0  0  0  0  0  0  0  0  0  0  0  0
   -2.3471    5.8987   -0.1901 H   0  0  0  0  0  0  0  0  0  0  0  0
   -1.8514    4.3722   -1.8117 H   0  0  0  0  0  0  0  0  0  0  0  0
   -3.5037    4.2445   -2.4893 H   0  0  0  0  0  0  0  0  0  0  0  0
    8.8700    1.2732    1.9788 H   0  0  0  0  0  0  0  0  0  0  0  0
    8.1044    1.1684   -1.4686 H   0  0  0  0  0  0  0  0  0  0  0  0
    5.4396    4.1952   -0.2259 H   0  0  0  0  0  0  0  0  0  0  0  0
    7.8829    2.8646    0.8196 H   0  0  0  0  0  0  0  0  0  0  0  0
    6.2544    1.3048    1.5572 H   0  0  0  0  0  0  0  0  0  0  0  0
    6.5054    0.2739    0.0327 H   0  0  0  0  0  0  0  0  0  0  0  0
    5.9982    2.4012   -1.3053 H   0  0  0  0  0  0  0  0  0  0  0  0
    3.6036    2.5972   -0.9634 H   0  0  0  0  0  0  0  0  0  0  0  0
    4.0973    0.8460   -1.0329 H   0  0  0  0  0  0  0  0  0  0  0  0
    3.3812    2.5186    1.4122 H   0  0  0  0  0  0  0  0  0  0  0  0
    1.5944    0.9656    1.6913 H   0  0  0  0  0  0  0  0  0  0  0  0
    1.5167    2.0059    0.2542 H   0  0  0  0  0  0  0  0  0  0  0  0
    2.9192   -0.6419   -0.0714 H   0  0  0  0  0  0  0  0  0  0  0  0
    2.1778    0.3726   -1.2564 H   0  0  0  0  0  0  0  0  0  0  0  0
   -1.2859   -0.6708    1.9394 H   0  0  0  0  0  0  0  0  0  0  0  0
   -0.7805    0.9844    0.7492 H   0  0  0  0  0  0  0  0  0  0  0  0
   -3.0234    1.1233    0.6099 H   0  0  0  0  0  0  0  0  0  0  0  0
   -1.2743    2.4341   -0.8584 H   0  0  0  0  0  0  0  0  0  0  0  0
   -4.2594    0.3399   -1.0870 H   0  0  0  0  0  0  0  0  0  0  0  0
    0.3481    1.1384   -1.0438 H   0  0  0  0  0  0  0  0  0  0  0  0
    0.8823   -0.0652   -2.7514 H   0  0  0  0  0  0  0  0  0  0  0  0
    0.0692   -2.2110   -3.0632 H   0  0  0  0  0  0  0  0  0  0  0  0
   -1.6332   -1.7578   -3.0300 H   0  0  0  0  0  0  0  0  0  0  0  0
   -0.5780   -1.1562   -4.2767 H   0  0  0  0  0  0  0  0  0  0  0  0
   -0.3960    0.9028   -4.3778 H   0  0  0  0  0  0  0  0  0  0  0  0
   -1.8779    0.9674   -3.4566 H   0  0  0  0  0  0  0  0  0  0  0  0
   -0.3876    2.0061   -3.0214 H   0  0  0  0  0  0  0  0  0  0  0  0
    4.3710   -0.1529    1.2517 H   0  0  0  0  0  0  0  0  0  0  0  0
   -2.7014   -2.5828   -1.1942 H   0  0  0  0  0  0  0  0  0  0  0  0
   -2.7379   -3.8700    0.1176 H   0  0  0  0  0  0  0  0  0  0  0  0
   -3.2576   -1.0078    0.8692 H   0  0  0  0  0  0  0  0  0  0  0  0
   -2.3615   -1.7800    2.9612 H   0  0  0  0  0  0  0  0  0  0  0  0
   -2.2961   -3.5083    2.2704 H   0  0  0  0  0  0  0  0  0  0  0  0
   -4.5567   -2.9887    3.3087 H   0  0  0  0  0  0  0  0  0  0  0  0
   -4.6151   -1.5164    2.2669 H   0  0  0  0  0  0  0  0  0  0  0  0
   -5.9529   -3.2571    1.3395 H   0  0  0  0  0  0  0  0  0  0  0  0
   -4.5119   -4.3985    1.3417 H   0  0  0  0  0  0  0  0  0  0  0  0
   -4.8925   -1.8277   -0.2716 H   0  0  0  0  0  0  0  0  0  0  0  0
   -4.8455   -3.5607   -0.8597 H   0  0  0  0  0  0  0  0  0  0  0  0
    3.0648   -4.8243    2.0185 H   0  0  0  0  0  0  0  0  0  0  0  0
    3.0635   -4.5872    0.2697 H   0  0  0  0  0  0  0  0  0  0  0  0
    1.9239   -2.9818    2.5866 H   0  0  0  0  0  0  0  0  0  0  0  0
    2.7380   -2.3844    1.1580 H   0  0  0  0  0  0  0  0  0  0  0  0
   -0.0486   -3.3974    1.6713 H   0  0  0  0  0  0  0  0  0  0  0  0
   -0.2856   -3.2812   -1.0338 H   0  0  0  0  0  0  0  0  0  0  0  0
    1.5113   -3.6355   -0.9150 H   0  0  0  0  0  0  0  0  0  0  0  0
   -0.7477   -5.2895    0.2292 H   0  0  0  0  0  0  0  0  0  0  0  0
    0.5414   -5.6782   -0.9609 H   0  0  0  0  0  0  0  0  0  0  0  0
    1.7257   -6.4514    0.7951 H   0  0  0  0  0  0  0  0  0  0  0  0
    0.7182   -0.9232    1.5502 H   0  0  0  0  0  0  0  0  0  0  0  0
   -4.2518    2.7522   -0.9153 H   0  0  0  0  0  0  0  0  0  0  0  0
   -2.4100    4.2479    1.0024 H   0  0  0  0  0  0  0  0  0  0  0  0
   -3.2814    2.7756    1.5046 H   0  0  0  0  0  0  0  0  0  0  0  0
   -4.8043    4.5270    1.9503 H   0  0  0  0  0  0  0  0  0  0  0  0
   -5.3489    3.6022    0.4929 H   0  0  0  0  0  0  0  0  0  0  0  0
   -4.5754    6.4601    0.6134 H   0  0  0  0  0  0  0  0  0  0  0  0
   -5.3457    5.5555   -0.7450 H   0  0  0  0  0  0  0  0  0  0  0  0
   -3.4083    6.4017   -1.5722 H   0  0  0  0  0  0  0  0  0  0  0  0
   -2.3471    5.8987   -0.1901 H   0  0  0  0  0  0  0  0  0  0  0  0
   -1.8514    4.3722   -1.8117 H   0  0  0  0  0  0  0  0  0  0  0  0
   -3.5037    4.2445   -2.4893 H   0  0  0  0  0  0  0  0  0  0  0  0
    8.8700    1.2732    1.9788 H   0  0  0  0  0  0  0  0  0  0  0  0
    8.1044    1.1684   -1.4686 H   0  0  0  0  0  0  0  0  0  0  0  0
    5.4396    4.1952   -0.2259 H   0  0  0  0  0  0  0  0  0  0  0  0
    7.8829    2.8646    0.8196 H   0  0  0  0  0  0  0  0  0  0  0  0
    6.2544    1.3048    1.5572 H   0  0  0  0  0  0  0  0  0  0  0  0
    6.5054    0.2739    0.0327 H   0  0  0  0  0  0  0  0  0  0  0  0
    5.9982    2.4012   -1.3053 H   0  0  0  0  0  0  0  0  0  0  0  0
    3.6036    2.5972   -0.9634 H   0  0  0  0  0  0  0  0  0  0  0  0
    4.0973    0.8460   -1.0329 H   0  0  0  0  0  0  0  0  0  0  0  0
    3.3812    2.5186    1.4122 H   0  0  0  0  0  0  0  0  0  0  0  0
    1.5944    0.9656    1.6913 H   0  0  0  0  0  0  0  0  0  0  0  0
    1.5167    2.0059    0.2542 H   0  0  0  0  0  0  0  0  0  0  0  0
    2.9192   -0.6419   -0.0714 H   0  0  0  0  0  0  0  0  0  0  0  0
    2.1778    0.3726   -1.2564 H   0  0  0  0  0  0  0  0  0  0  0  0
   -1.2859   -0.6708    1.9394 H   0  0  0  0  0  0  0  0  0  0  0  0
   -0.7805    0.9844    0.7492 H   0  0  0  0  0  0  0  0  0  0  0  0
   -3.0234    1.1233    0.6099 H   0  0  0  0  0  0  0  0  0  0  0  0
   -1.2743    2.4341   -0.8584 H   0  0  0  0  0  0  0  0  0  0  0  0
   -4.2594    0.3399   -1.0870 H   0  0  0  0  0  0  0  0  0  0  0  0
    0.3481    1.1384   -1.0438 H   0  0  0  0  0  0  0  0  0  0  0  0
    0.8823   -0.0652   -2.7514 H   0  0  0  0  0  0  0  0  0  0  0  0
    0.0692   -2.2110   -3.0632 H   0  0  0  0  0  0  0  0  0  0  0  0
   -1.6332   -1.7578   -3.0300 H   0  0  0  0  0  0  0  0  0  0  0  0
   -0.5780   -1.1562   -4.2767 H   0  0  0  0  0  0  0  0  0  0  0  0
   -0.3960    0.9028   -4.3778 H   0  0  0  0  0  0  0  0  0  0  0  0
   -1.8779    0.9674   -3.4566 H   0  0  0  0  0  0  0  0  0  0  0  0
   -0.3876    2.0061   -3.0214 H   0  0  0  0  0  0  0  0  0  0  0  0
    4.3710   -0.1529    1.2517 H   0  0  0  0  0  0  0  0  0  0  0  0
   -2.7014   -2.5828   -1.1942 H   0  0  0  0  0  0  0  0  0  0  0  0
   -2.7379   -3.8700    0.1176 H   0  0  0  0  0  0  0  0  0  0  0  0
   -3.2576   -1.0078    0.8692 H   0  0  0  0  0  0  0  0  0  0  0  0
   -2.3615   -1.7800    2.9612 H   0  0  0  0  0  0  0  0  0  0  0  0
   -2.2961   -3.5083    2.2704 H   0  0  0  0  0  0  0  0  0  0  0  0
   -4.5567   -2.9887    3.3087 H   0  0  0  0  0  0  0  0  0  0  0  0
   -4.6151   -1.5164    2.2669 H   0  0  0  0  0  0  0  0  0  0  0  0
   -5.9529   -3.2571    1.3395 H   0  0  0  0  0  0  0  0  0  0  0  0
   -4.5119   -4.3985    1.3417 H   0  0  0  0  0  0  0  0  0  0  0  0
   -4.8925   -1.8277   -0.2716 H   0  0  0  0  0  0  0  0  0  0  0  0
   -4.8455   -3.5607   -0.8597 H   0  0  0  0  0  0  0  0  0  0  0  0
    3.0648   -4.8243    2.0185 H   0  0  0  0  0  0  0  0  0  0  0  0
    3.0635   -4.5872    0.2697 H   0  0  0  0  0  0  0  0  0  0  0  0
    1.9239   -2.9818    2.5866 H   0  0  0  0  0  0  0  0  0  0  0  0
    2.7380   -2.3844    1.1580 H   0  0  0  0  0  0  0  0  0  0  0  0
   -0.0486   -3.3974    1.6713 H   0  0  0  0  0  0  0  0  0  0  0  0
   -0.2856   -3.2812   -1.0338 H   0  0  0  0  0  0  0  0  0  0  0  0
    1.5113   -3.6355   -0.9150 H   0  0  0  0  0  0  0  0  0  0  0  0
   -0.7477   -5.2895    0.2292 H   0  0  0  0  0  0  0  0  0  0  0  0
    0.5414   -5.6782   -0.9609 H   0  0  0  0  0  0  0  0  0  0  0  0
    1.7257   -6.4514    0.7951 H   0  0  0  0  0  0  0  0  0  0  0  0
    0.7182   -0.9232    1.5502 H   0  0  0  0  0  0  0  0  0  0  0  0
   -4.2518    2.7522   -0.9153 H   0  0  0  0  0  0  0  0  0  0  0  0
   -2.4100    4.2479    1.0024 H   0  0  0  0  0  0  0  0  0  0  0  0
   -3.2814    2.7756    1.5046 H   0  0  0  0  0  0  0  0  0  0  0  0
   -4.8043    4.5270    1.9503 H   0  0  0  0  0  0  0  0  0  0  0  0
   -5.3489    3.6022    0.4929 H   0  0  0  0  0  0  0  0  0  0  0  0
   -4.5754    6.4601    0.6134 H   0  0  0  0  0  0  0  0  0  0  0  0
   -5.3457    5.5555   -0.7450 H   0  0  0  0  0  0  0  0  0  0  0  0
   -3.4083    6.4017   -1.5722 H   0  0  0  0  0  0  0  0  0  0  0  0
   -2.3471    5.8987   -0.1901 H   0  0  0  0  0  0  0  0  0  0  0  0
   -1.8514    4.3722   -1.8117 H   0  0  0  0  0  0  0  0  0  0  0  0
   -3.5037    4.2445   -2.4893 H   0  0  0  0  0  0  0  0  0  0  0  0
    8.8700    1.2732    1.9788 H   0  0  0  0  0  0  0  0  0  0  0  0
    8.1044    1.1684   -1.4686 H   0  0  0  0  0  0  0  0  0  0  0  0
    5.4396    4.1952   -0.2259 H   0  0  0  0  0  0  0  0  0  0  0  0
    7.8829    2.8646    0.8196 H   0  0  0  0  0  0  0  0  0  0  0  0
    6.2544    1.3048    1.5572 H   0  0  0  0  0  0  0  0  0  0  0  0
    6.5054    0.2739    0.0327 H   0  0  0  0  0  0  0  0  0  0  0  0
    5.9982    2.4012   -1.3053 H   0  0  0  0  0  0  0  0  0  0  0  0
    3.6036    2.5972   -0.9634 H   0  0  0  0  0  0  0  0  0  0  0  0
    4.0973    0.8460   -1.0329 H   0  0  0  0  0  0  0  0  0  0  0  0
    3.3812    2.5186    1.4122 H   0  0  0  0  0  0  0  0  0  0  0  0
    1.5944    0.9656    1.6913 H   0  0  0  0  0  0  0  0  0  0  0  0
    1.5167    2.0059    0.2542 H   0  0  0  0  0  0  0  0  0  0  0  0
    2.9192   -0.6419   -0.0714 H   0  0  0  0  0  0  0  0  0  0  0  0
    2.1778    0.3726   -1.2564 H   0  0  0  0  0  0  0  0  0  0  0  0
   -1.2859   -0.6708    1.9394 H   0  0  0  0  0  0  0  0  0  0  0  0
   -0.7805    0.9844    0.7492 H   0  0  0  0  0  0  0  0  0  0  0  0
   -3.0234    1.1233    0.6099 H   0  0  0  0  0  0  0  0  0  0  0  0
   -1.2743    2.4341   -0.8584 H   0  0  0  0  0  0  0  0  0  0  0  0
   -4.2594    0.3399   -1.0870 H   0  0  0  0  0  0  0  0  0  0  0  0
    0.3481    1.1384   -1.0438 H   0  0  0  0  0  0  0  0  0  0  0  0
    0.8823   -0.0652   -2.7514 H   0  0  0  0  0  0  0  0  0  0  0  0
    0.0692   -2.2110   -3.0632 H   0  0  0  0  0  0  0  0  0  0  0  0
   -1.6332   -1.7578   -3.0300 H   0  0  0  0  0  0  0  0  0  0  0  0
   -0.5780   -1.1562   -4.2767 H   0  0  0  0  0  0  0  0  0  0  0  0
   -0.3960    0.9028   -4.3778 H   0  0  0  0  0  0  0  0  0  0  0  0
   -1.8779    0.9674   -3.4566 H   0  0  0  0  0  0  0  0  0  0  0  0
   -0.3876    2.0061   -3.0214 H   0  0  0  0  0  0  0  0  0  0  0  0
    4.3710   -0.1529    1.2517 H   0  0  0  0  0  0  0  0  0  0  0  0
  1  2  1  0
  2  3  1  0
  3  4  1  0
  4  5  1  0
  1  6  1  0
  5  6  1  0
  7  8  1  0
  8  9  1  0
  9 10  1  0
 10 11  1  0
  7 12  1  0
 11 12  1  0
 12 13  1  0
  9 14  1  0
 15 16  1  0
 16 17  1  0
 17 18  1  0
 18 19  1  0
 15 20  1  0
 19 20  1  0
 21 24  1  0
 22 24  1  0
 24 25  1  0
 23 26  1  0
 25 26  1  0
 26 27  1  0
 27 28  1  0
 28 29  1  0
 29 30  1  0
 14 31  1  0
 30 31  1  0
  2 32  1  0
 14 32  1  0
 32 33  1  0
 33 34  1  0
 15 35  1  0
 34 35  1  0
 34 36  1  0
 31 37  1  0
 33 37  1  0
 37 38  1  0
 38 39  1  0
 38 40  1  0
 28 41  1  0
 42 43  1  0
 43 44  1  0
 44 45  1  0
 45 46  1  0
 42 47  1  0
 46 47  1  0
 48 49  1  0
 49 50  1  0
 50 51  1  0
 51 52  1  0
 48 53  1  0
 52 53  1  0
 53 54  1  0
 50 55  1  0
 56 57  1  0
 57 58  1  0
 58 59  1  0
 59 60  1  0
 56 61  1  0
 60 61  1  0
 62 65  1  0
 63 65  1  0
 65 66  1  0
 64 67  1  0
 66 67  1  0
 67 68  1  0
 68 69  1  0
 69 70  1  0
 70 71  1  0
 55 72  1  0
 71 72  1  0
 43 73  1  0
 55 73  1  0
 73 74  1  0
 74 75  1  0
 56 76  1  0
 75 76  1  0
 75 77  1  0
 72 78  1  0
 74 78  1  0
 78 79  1  0
 79 80  1  0
 79 81  1  0
 69 82  1  0
 83 84  1  0
 84 85  1  0
 85 86  1  0
 86 87  1  0
 83 88  1  0
 87 88  1  0
 89 90  1  0
 90 91  1  0
 91 92  1  0
 92 93  1  0
 89 94  1  0
 93 94  1  0
 94 95  1  0
 91 96  1  0
 97 98  1  0
 98 99  1  0
 99100  1  0
100101  1  0
 97102  1  0
101102  1  0
103106  1  0
104106  1  0
106107  1  0
105108  1  0
107108  1  0
108109  1  0
109110  1  0
110111  1  0
111112  1  0
 96113  1  0
112113  1  0
 84114  1  0
 96114  1  0
114115  1  0
115116  1  0
 97117  1  0
116117  1  0
116118  1  0
113119  1  0
115119  1  0
119120  1  0
120121  1  0
120122  1  0
110123  1  0
124125  1  0
125126  1  0
126127  1  0
127128  1  0
124129  1  0
128129  1  0
130131  1  0
131132  1  0
132133  1  0
133134  1  0
130135  1  0
134135  1  0
135136  1  0
132137  1  0
138139  1  0
139140  1  0
140141  1  0
141142  1  0
138143  1  0
142143  1  0
144147  1  0
145147  1  0
147148  1  0
146149  1  0
148149  1  0
149150  1  0
150151  1  0
151152  1  0
152153  1  0
137154  1  0
153154  1  0
125155  1  0
137155  1  0
155156  1  0
156157  1  0
138158  1  0
157158  1  0
157159  1  0
154160  1  0
156160  1  0
160161  1  0
161162  1  0
161163  1  0
151164  1  0
  1165  1  0
  1166  1  0
  2167  1  0
  3168  1  0
  3169  1  0
  4170  1  0
  4171  1  0
  5172  1  0
  5173  1  0
  6174  1  0
  6175  1  0
  7176  1  0
  7177  1  0
  8178  1  0
  8179  1  0
  9180  1  0
 10181  1  0
 10182  1  0
 11183  1  0
 11184  1  0
 12185  1  0
 14186  1  0
 15187  1  0
 16188  1  0
 16189  1  0
 17190  1  0
 17191  1  0
 18192  1  0
 18193  1  0
 19194  1  0
 19195  1  0
 20196  1  0
 20197  1  0
 21198  1  0
 22199  1  0
 23200  1  0
 24201  1  0
 25202  1  0
 25203  1  0
 26204  1  6
 27205  1  0
 27206  1  0
 28207  1  1
 29208  1  0
 29209  1  0
 30210  1  0
 30211  1  0
 32212  1  0
 33213  1  0
 34214  1  0
 35215  1  0
 36216  1  0
 37217  1  0
 38218  1  0
 39219  1  0
 39220  1  0
 39221  1  0
 40222  1  0
 40223  1  0
 40224  1  0
 41225  1  0
 42226  1  0
 42227  1  0
 43228  1  0
 44229  1  0
 44230  1  0
 45231  1  0
 45232  1  0
 46233  1  0
 46234  1  0
 47235  1  0
 47236  1  0
 48237  1  0
 48238  1  0
 49239  1  0
 49240  1  0
 50241  1  0
 51242  1  0
 51243  1  0
 52244  1  0
 52245  1  0
 53246  1  0
 55247  1  0
 56248  1  0
 57249  1  0
 57250  1  0
 58251  1  0
 58252  1  0
 59253  1  0
 59254  1  0
 60255  1  0
 60256  1  0
 61257  1  0
 61258  1  0
 62259  1  0
 63260  1  0
 64261  1  0
 65262  1  0
 66263  1  0
 66264  1  0
 67265  1  6
 68266  1  0
 68267  1  0
 69268  1  1
 70269  1  0
 70270  1  0
 71271  1  0
 71272  1  0
 73273  1  0
 74274  1  0
 75275  1  0
 76276  1  0
 77277  1  0
 78278  1  0
 79279  1  0
 80280  1  0
 80281  1  0
 80282  1  0
 81283  1  0
 81284  1  0
 81285  1  0
 82286  1  0
 83287  1  0
 83288  1  0
 84289  1  0
 85290  1  0
 85291  1  0
 86292  1  0
 86293  1  0
 87294  1  0
 87295  1  0
 88296  1  0
 88297  1  0
 89298  1  0
 89299  1  0
 90300  1  0
 90301  1  0
 91302  1  0
 92303  1  0
 92304  1  0
 93305  1  0
 93306  1  0
 94307  1  0
 96308  1  0
 97309  1  0
 98310  1  0
 98311  1  0
 99312  1  0
 99313  1  0
100314  1  0
100315  1  0
101316  1  0
101317  1  0
102318  1  0
102319  1  0
103320  1  0
104321  1  0
105322  1  0
106323  1  0
107324  1  0
107325  1  0
108326  1  6
109327  1  0
109328  1  0
110329  1  1
111330  1  0
111331  1  0
112332  1  0
112333  1  0
114334  1  0
115335  1  0
116336  1  0
117337  1  0
118338  1  0
119339  1  0
120340  1  0
121341  1  0
121342  1  0
121343  1  0
122344  1  0
122345  1  0
122346  1  0
123347  1  0
124348  1  0
124349  1  0
125350  1  0
126351  1  0
126352  1  0
127353  1  0
127354  1  0
128355  1  0
128356  1  0
129357  1  0
129358  1  0
130359  1  0
130360  1  0
131361  1  0
131362  1  0
132363  1  0
133364  1  0
133365  1  0
134366  1  0
134367  1  0
135368  1  0
137369  1  0
138370  1  0
139371  1  0
139372  1  0
140373  1  0
140374  1  0
141375  1  0
141376  1  0
142377  1  0
142378  1  0
143379  1  0
143380  1  0
144381  1  0
145382  1  0
146383  1  0
147384  1  0
148385  1  0
148386  1  0
149387  1  6
150388  1  0
150389  1  0
151390  1  1
152391  1  0
152392  1  0
153393  1  0
153394  1  0
155395  1  0
156396  1  0
157397  1  0
158398  1  0
159399  1  0
160400  1  0
161401  1  0
162402  1  0
162403  1  0
162404  1  0
163405  1  0
163406  1  0
163407  1  0
164408  1  0
M  END
>  <PDBID>  (1) 
1HWK

>  <PDB ID>  (1) 
1HWK

>  <Generic Name>  (1) 
Atorvastatin

>  <Brand Name>  (1) 
Ach-atorvastatin Calcium#Act Atorvastatin#Amlodipine Besylate and Atorvastatin Calcium#Amlodipine Besylate/atorvastatin Calcium#Apo-amlodipine-atorvastatin#Apo-atorvastatin#Atorvastatin#Atorvastatin Calcium#Atorvastatin-10#Atorvastatin-20#Atorvastatin-40#Atorvastatin-80#Auro-atorvastatin#Ava-atorvastatin#Caduet#Dom-atorvastatin#Gd-amlodipine/atorvastatin#Gd-atorvastatin#Jamp-atorvastatin#Lipitor#Liptruzet#Mar-atorvastatin#Mylan-amlodipine/atorvastatin#Mylan-atorvastatin#Novo-atorvastatin#Ntp-atorvastatin#PMS-amlodipine-atorvastatin#PMS-atorvastatin#Pendo-amlodipine-atorvastatin#Q-gen Atorvastatin#Ran-atorvastatin#Ratio-atorvastatin#Rbx-atorvastatin#Reddy-atorvastatin#Riva-atorvastatin#Sandoz Atorvastatin#Atogal#Cardyl#Faboxim#Hipolixan#Lipotropic#Liprimar#Lowden#Normalip#Sincol#Sortis#Torvacard#Torvast#Totalip#Tulip#Vastina#Xanator#Xarator#Zurinel

>  <DrugBank ID>  (1) 
DB01076

>  <ATC Codes>  (1) 
C10AA05#C10BA05#C10BX06#C10BX11#C10BX03#C10BX08

>  <Ligand ID>  (1) 
117

>  <Target Name>  (1) 
3-hydroxy-3-methylglutaryl-coenzyme A reductase

>  <UniProt ID>  (1) 
P04035

>  <PDB ID.1>  (1) 
1HWK

>  <Seq. Identity>  (1) 
97%

$$$$
