PDB_DB00503_05
     RDKit          3D

124127  0  0  0  0  0  0  0  0999 V2000
   -4.7570    6.5433   -0.1947 C   0  0  0  0  0  0  0  0  0  0  0  0
   -5.1220    5.0534   -0.2181 C   0  0  0  0  0  0  0  0  0  0  0  0
   -6.8295    5.1719    0.4449 S   0  0  0  0  0  0  0  0  0  0  0  0
   -6.7754    6.9569    0.8938 C   0  0  0  0  0  0  0  0  0  0  0  0
   -5.3135    7.1070    0.9964 N   0  0  0  0  0  0  0  0  0  0  0  0
   -4.2260    4.2780    0.7040 C   0  0  0  0  0  0  0  0  0  0  0  0
   -4.4671    2.9307    0.7578 O   0  0  0  0  0  0  0  0  0  0  0  0
   -4.3251    2.2566   -0.4247 C   0  0  0  0  0  0  0  0  0  0  0  0
   -5.5289    1.7814   -0.9354 O   0  0  0  0  0  0  0  0  0  0  0  0
   -3.2512    1.3304   -0.4221 N   0  0  0  0  0  0  0  0  0  0  0  0
   -3.2704    0.2931    0.5815 C   0  0  2  0  0  0  0  0  0  0  0  0
   -2.5399   -0.8907   -0.0947 C   0  0  2  0  0  0  0  0  0  0  0  0
   -1.1304   -0.5207   -0.3982 C   0  0  0  0  0  0  0  0  0  0  0  0
   -0.2624   -1.4922   -1.0900 C   0  0  2  0  0  0  0  0  0  0  0  0
   -4.6537   -0.1051    0.8737 C   0  0  0  0  0  0  0  0  0  0  0  0
   -4.9382   -1.1398    1.8824 C   0  0  0  0  0  0  0  0  0  0  0  0
   -4.4372   -0.8227    3.2775 C   0  0  0  0  0  0  0  0  0  0  0  0
   -4.8960   -1.9982    4.1484 C   0  0  0  0  0  0  0  0  0  0  0  0
   -6.0769   -2.7220    3.5556 C   0  0  0  0  0  0  0  0  0  0  0  0
   -5.7632   -3.4048    2.2408 C   0  0  0  0  0  0  0  0  0  0  0  0
   -4.6419   -2.5570    1.5802 C   0  0  0  0  0  0  0  0  0  0  0  0
   -3.2834   -1.2058   -1.2160 O   0  0  0  0  0  0  0  0  0  0  0  0
    0.0611   -2.7936   -0.5221 C   0  0  0  0  0  0  0  0  0  0  0  0
   -0.9441   -3.8154   -0.2200 C   0  0  0  0  0  0  0  0  0  0  0  0
   -1.7570   -4.2537   -1.4223 C   0  0  0  0  0  0  0  0  0  0  0  0
   -1.1248   -5.4487   -2.0671 C   0  0  0  0  0  0  0  0  0  0  0  0
   -1.1570   -6.6853   -1.2147 C   0  0  0  0  0  0  0  0  0  0  0  0
   -1.1425   -6.2006    0.2385 C   0  0  0  0  0  0  0  0  0  0  0  0
   -0.1447   -5.0675    0.2918 C   0  0  0  0  0  0  0  0  0  0  0  0
    1.0209   -0.7679   -1.3443 N   0  0  0  0  0  0  0  0  0  0  0  0
    3.2577    0.8052   -2.2774 N   0  0  0  0  0  0  0  0  0  0  0  0
    2.0517    0.7399   -3.0148 C   0  0  2  0  0  0  0  0  0  0  0  0
    0.8511    0.3547   -2.1953 C   0  0  1  0  0  0  0  0  0  0  0  0
   -0.2766    0.3028   -3.0204 O   0  0  0  0  0  0  0  0  0  0  0  0
    2.2430   -0.1554   -4.2255 C   0  0  0  0  0  0  0  0  0  0  0  0
    2.6300   -1.5604   -3.8453 C   0  0  0  0  0  0  0  0  0  0  0  0
    1.0384   -0.1180   -5.1293 C   0  0  0  0  0  0  0  0  0  0  0  0
    3.2818    1.7874   -1.2197 C   0  0  1  0  0  0  0  0  0  0  0  0
    4.6065    1.7996   -0.5748 N   0  0  0  0  0  0  0  0  0  0  0  0
    4.9386    0.4974   -0.0892 C   0  0  0  0  0  0  0  0  0  0  0  0
    2.8966    3.0439   -1.6050 O   0  0  0  0  0  0  0  0  0  0  0  0
    6.2770    0.2747    0.4693 C   0  0  0  0  0  0  0  0  0  0  0  0
    7.4133    0.5531   -0.5327 C   0  0  0  0  0  0  0  0  0  0  0  0
    8.8098    0.5152    0.6713 S   0  0  0  0  0  0  0  0  0  0  0  0
    7.7838    0.5211    2.2025 C   0  0  0  0  0  0  0  0  0  0  0  0
    6.5506    1.1031    1.5999 N   0  0  0  0  0  0  0  0  0  0  0  0
    8.3455    1.4862    3.2046 C   0  0  0  0  0  0  0  0  0  0  0  0
    8.3793    2.9002    2.6700 C   0  0  0  0  0  0  0  0  0  0  0  0
    9.7624    1.0666    3.5217 C   0  0  0  0  0  0  0  0  0  0  0  0
    4.5305    2.7922    0.4796 C   0  0  0  0  0  0  0  0  0  0  0  0
   -3.6803    6.7109   -0.1789 H   0  0  0  0  0  0  0  0  0  0  0  0
   -5.2362    7.0259   -1.0763 H   0  0  0  0  0  0  0  0  0  0  0  0
   -5.1021    4.7504   -1.2597 H   0  0  0  0  0  0  0  0  0  0  0  0
   -7.2207    7.0964    1.8805 H   0  0  0  0  0  0  0  0  0  0  0  0
   -7.1821    7.5866    0.0922 H   0  0  0  0  0  0  0  0  0  0  0  0
   -5.0109    6.5827    1.8272 H   0  0  0  0  0  0  0  0  0  0  0  0
   -4.1593    4.7232    1.7119 H   0  0  0  0  0  0  0  0  0  0  0  0
   -3.1867    4.3899    0.2726 H   0  0  0  0  0  0  0  0  0  0  0  0
   -4.0175    3.0615   -1.1817 H   0  0  0  0  0  0  0  0  0  0  0  0
   -5.6512    1.9775   -1.8984 H   0  0  0  0  0  0  0  0  0  0  0  0
   -3.0270    0.9324   -1.3522 H   0  0  0  0  0  0  0  0  0  0  0  0
   -2.6841    0.6584    1.4405 H   0  0  0  0  0  0  0  0  0  0  0  0
   -2.5489   -1.6673    0.6466 H   0  0  0  0  0  0  0  0  0  0  0  0
   -0.6047   -0.2769    0.5929 H   0  0  0  0  0  0  0  0  0  0  0  0
   -1.1147    0.4670   -0.9168 H   0  0  0  0  0  0  0  0  0  0  0  0
   -0.6729   -1.5626   -2.1499 H   0  0  0  0  0  0  0  0  0  0  0  0
   -5.2948    0.8095    1.1102 H   0  0  0  0  0  0  0  0  0  0  0  0
   -5.1247   -0.4619   -0.0933 H   0  0  0  0  0  0  0  0  0  0  0  0
   -6.0847   -1.0894    2.0208 H   0  0  0  0  0  0  0  0  0  0  0  0
   -3.3394   -0.7982    3.3538 H   0  0  0  0  0  0  0  0  0  0  0  0
   -4.9480    0.0783    3.6734 H   0  0  0  0  0  0  0  0  0  0  0  0
   -5.1698   -1.6724    5.1544 H   0  0  0  0  0  0  0  0  0  0  0  0
   -4.0721   -2.7466    4.2518 H   0  0  0  0  0  0  0  0  0  0  0  0
   -6.2899   -3.5628    4.2810 H   0  0  0  0  0  0  0  0  0  0  0  0
   -6.9933   -2.1162    3.5312 H   0  0  0  0  0  0  0  0  0  0  0  0
   -5.4660   -4.4474    2.3343 H   0  0  0  0  0  0  0  0  0  0  0  0
   -6.6241   -3.3064    1.5504 H   0  0  0  0  0  0  0  0  0  0  0  0
   -4.5896   -2.8528    0.5341 H   0  0  0  0  0  0  0  0  0  0  0  0
   -3.7390   -2.8798    2.1921 H   0  0  0  0  0  0  0  0  0  0  0  0
   -2.7621   -1.1921   -2.0557 H   0  0  0  0  0  0  0  0  0  0  0  0
    0.6503   -2.6212    0.4512 H   0  0  0  0  0  0  0  0  0  0  0  0
    0.8933   -3.2583   -1.1630 H   0  0  0  0  0  0  0  0  0  0  0  0
   -1.6241   -3.6373    0.6106 H   0  0  0  0  0  0  0  0  0  0  0  0
   -1.8181   -3.4561   -2.1924 H   0  0  0  0  0  0  0  0  0  0  0  0
   -2.7541   -4.5627   -1.0557 H   0  0  0  0  0  0  0  0  0  0  0  0
   -1.5174   -5.6522   -3.0831 H   0  0  0  0  0  0  0  0  0  0  0  0
   -0.0364   -5.1919   -2.2344 H   0  0  0  0  0  0  0  0  0  0  0  0
   -2.0870   -7.2225   -1.4029 H   0  0  0  0  0  0  0  0  0  0  0  0
   -0.2292   -7.2750   -1.3626 H   0  0  0  0  0  0  0  0  0  0  0  0
   -0.8728   -7.0292    0.9249 H   0  0  0  0  0  0  0  0  0  0  0  0
   -2.1540   -5.8005    0.4398 H   0  0  0  0  0  0  0  0  0  0  0  0
    0.0820   -4.8553    1.3424 H   0  0  0  0  0  0  0  0  0  0  0  0
    0.7393   -5.2191   -0.3372 H   0  0  0  0  0  0  0  0  0  0  0  0
    1.4457   -0.6062   -0.4314 H   0  0  0  0  0  0  0  0  0  0  0  0
    4.0862    0.9517   -2.8672 H   0  0  0  0  0  0  0  0  0  0  0  0
    1.8509    1.7574   -3.4258 H   0  0  0  0  0  0  0  0  0  0  0  0
    0.6676    1.2430   -1.5138 H   0  0  0  0  0  0  0  0  0  0  0  0
   -0.6343    1.2174   -3.1456 H   0  0  0  0  0  0  0  0  0  0  0  0
    3.0785    0.3007   -4.8021 H   0  0  0  0  0  0  0  0  0  0  0  0
    1.7729   -2.2528   -4.0486 H   0  0  0  0  0  0  0  0  0  0  0  0
    2.8775   -1.6794   -2.7786 H   0  0  0  0  0  0  0  0  0  0  0  0
    3.5395   -1.9022   -4.4134 H   0  0  0  0  0  0  0  0  0  0  0  0
    0.6096    0.8826   -5.1680 H   0  0  0  0  0  0  0  0  0  0  0  0
    0.3185   -0.9314   -4.9096 H   0  0  0  0  0  0  0  0  0  0  0  0
    1.4165   -0.3466   -6.1660 H   0  0  0  0  0  0  0  0  0  0  0  0
    2.5892    1.4551   -0.4246 H   0  0  0  0  0  0  0  0  0  0  0  0
    4.7411   -0.3041   -0.8413 H   0  0  0  0  0  0  0  0  0  0  0  0
    4.1886    0.2771    0.7284 H   0  0  0  0  0  0  0  0  0  0  0  0
    3.6205    3.6262   -1.9393 H   0  0  0  0  0  0  0  0  0  0  0  0
    6.4003   -0.8141    0.7408 H   0  0  0  0  0  0  0  0  0  0  0  0
    7.4905   -0.2557   -1.2591 H   0  0  0  0  0  0  0  0  0  0  0  0
    7.2997    1.5635   -0.9441 H   0  0  0  0  0  0  0  0  0  0  0  0
    7.6158   -0.4768    2.5947 H   0  0  0  0  0  0  0  0  0  0  0  0
    6.8841    2.0318    1.2338 H   0  0  0  0  0  0  0  0  0  0  0  0
    7.7440    1.4481    4.1130 H   0  0  0  0  0  0  0  0  0  0  0  0
    8.9922    3.5139    3.3651 H   0  0  0  0  0  0  0  0  0  0  0  0
    7.3754    3.3750    2.6750 H   0  0  0  0  0  0  0  0  0  0  0  0
    8.8707    2.9585    1.6809 H   0  0  0  0  0  0  0  0  0  0  0  0
    9.8265   -0.0402    3.6178 H   0  0  0  0  0  0  0  0  0  0  0  0
   10.4300    1.3565    2.6952 H   0  0  0  0  0  0  0  0  0  0  0  0
   10.0837    1.4825    4.4913 H   0  0  0  0  0  0  0  0  0  0  0  0
    4.5440    2.3228    1.4813 H   0  0  0  0  0  0  0  0  0  0  0  0
    5.3456    3.5264    0.3098 H   0  0  0  0  0  0  0  0  0  0  0  0
    3.5608    3.3617    0.3522 H   0  0  0  0  0  0  0  0  0  0  0  0
  1  2  1  0
  2  3  1  0
  3  4  1  0
  1  5  1  0
  4  5  1  0
  2  6  1  0
  6  7  1  0
  7  8  1  0
  8  9  1  0
  8 10  1  0
 10 11  1  0
 11 12  1  0
 12 13  1  0
 13 14  1  0
 11 15  1  0
 15 16  1  0
 16 17  1  0
 17 18  1  0
 18 19  1  0
 19 20  1  0
 16 21  1  0
 20 21  1  0
 12 22  1  0
 14 23  1  0
 23 24  1  0
 24 25  1  0
 25 26  1  0
 26 27  1  0
 27 28  1  0
 24 29  1  0
 28 29  1  0
 14 30  1  0
 31 32  1  0
 30 33  1  0
 32 33  1  0
 33 34  1  0
 32 35  1  0
 35 36  1  0
 35 37  1  0
 31 38  1  0
 38 39  1  0
 39 40  1  0
 38 41  1  0
 40 42  1  0
 42 43  1  0
 43 44  1  0
 44 45  1  0
 42 46  1  0
 45 46  1  0
 45 47  1  0
 47 48  1  0
 47 49  1  0
 39 50  1  0
  1 51  1  0
  1 52  1  0
  2 53  1  0
  4 54  1  0
  4 55  1  0
  5 56  1  0
  6 57  1  0
  6 58  1  0
  8 59  1  0
  9 60  1  0
 10 61  1  0
 11 62  1  1
 12 63  1  1
 13 64  1  0
 13 65  1  0
 14 66  1  6
 15 67  1  0
 15 68  1  0
 16 69  1  0
 17 70  1  0
 17 71  1  0
 18 72  1  0
 18 73  1  0
 19 74  1  0
 19 75  1  0
 20 76  1  0
 20 77  1  0
 21 78  1  0
 21 79  1  0
 22 80  1  0
 23 81  1  0
 23 82  1  0
 24 83  1  0
 25 84  1  0
 25 85  1  0
 26 86  1  0
 26 87  1  0
 27 88  1  0
 27 89  1  0
 28 90  1  0
 28 91  1  0
 29 92  1  0
 29 93  1  0
 30 94  1  0
 31 95  1  0
 32 96  1  6
 33 97  1  1
 34 98  1  0
 35 99  1  0
 36100  1  0
 36101  1  0
 36102  1  0
 37103  1  0
 37104  1  0
 37105  1  0
 38106  1  1
 40107  1  0
 40108  1  0
 41109  1  0
 42110  1  0
 43111  1  0
 43112  1  0
 45113  1  0
 46114  1  0
 47115  1  0
 48116  1  0
 48117  1  0
 48118  1  0
 49119  1  0
 49120  1  0
 49121  1  0
 50122  1  0
 50123  1  0
 50124  1  0
M  END
>  <PDBID>  (1) 
1HXW

>  <PDB ID>  (1) 
1HXW

>  <Generic Name>  (1) 
Ritonavir

>  <Brand Name>  (1) 
Holkira Pak#Kaletra#Lopinavir-ritonavir#Norvir#Norvir Sec#Technivie#Viekira Pak#Viekira XR#Busvir#Empetus#Normune

>  <DrugBank ID>  (1) 
DB00503

>  <ATC Codes>  (1) 
J05AX67#J05AR10#J05AE03#J05AX66

>  <Ligand ID>  (1) 
RIT

>  <Target Name>  (1) 
Pol polyprotein

>  <UniProt ID>  (1) 
Q72874

>  <PDB ID.1>  (1) 
1HXW

>  <Seq. Identity>  (1) 
98%

$$$$
