PDB_DB01011_01
     RDKit          3D

 45 46  0  0  0  0  0  0  0  0999 V2000
   -4.0166    0.8904    0.1282 N   0  0  0  0  0  0  0  0  0  0  0  0
   -2.6240    0.8770    0.6397 C   0  0  0  0  0  0  0  0  0  0  0  0
   -1.9467   -0.2456   -0.0272 C   0  0  0  0  0  0  0  0  0  0  0  0
   -2.6276   -1.5349    0.4890 C   0  0  0  0  0  0  0  0  0  0  0  0
   -4.1093   -1.5013    0.2980 C   0  0  0  0  0  0  0  0  0  0  0  0
   -4.6947   -0.1982    0.8055 C   0  0  0  0  0  0  0  0  0  0  0  0
   -0.5120   -0.4744    0.1325 C   0  0  0  0  0  0  0  0  0  0  0  0
   -0.2031   -1.6260   -0.6404 O   0  0  0  0  0  0  0  0  0  0  0  0
    0.2917    1.8115    0.6026 C   0  0  0  0  0  0  0  0  0  0  0  0
    0.4756    0.5497   -0.2251 C   0  0  0  0  0  0  0  0  0  0  0  0
    0.4187    0.9249   -1.7173 C   0  0  0  0  0  0  0  0  0  0  0  0
    1.8634    0.0137   -0.0089 C   0  0  0  0  0  0  0  0  0  0  0  0
    2.1986   -0.3994    1.3713 C   0  0  0  0  0  0  0  0  0  0  0  0
    3.4865   -1.1097    1.3149 N   0  0  0  0  0  0  0  0  0  0  0  0
    4.5410   -0.3101    0.7748 C   0  0  0  0  0  0  0  0  0  0  0  0
    4.2156    0.1618   -0.6407 C   0  0  0  0  0  0  0  0  0  0  0  0
    2.9298    0.9563   -0.5114 C   0  0  0  0  0  0  0  0  0  0  0  0
   -3.9837    0.6230   -0.8907 H   0  0  0  0  0  0  0  0  0  0  0  0
   -2.2710    1.8977    0.3882 H   0  0  0  0  0  0  0  0  0  0  0  0
   -2.7467    0.7643    1.7415 H   0  0  0  0  0  0  0  0  0  0  0  0
   -2.2459   -0.2315   -1.1182 H   0  0  0  0  0  0  0  0  0  0  0  0
   -2.4173   -1.5210    1.5937 H   0  0  0  0  0  0  0  0  0  0  0  0
   -2.1949   -2.4163    0.0131 H   0  0  0  0  0  0  0  0  0  0  0  0
   -4.3503   -1.5551   -0.7900 H   0  0  0  0  0  0  0  0  0  0  0  0
   -4.5439   -2.3508    0.8223 H   0  0  0  0  0  0  0  0  0  0  0  0
   -4.6353   -0.1210    1.9083 H   0  0  0  0  0  0  0  0  0  0  0  0
   -5.7724   -0.1963    0.4974 H   0  0  0  0  0  0  0  0  0  0  0  0
   -0.3409   -0.7220    1.2278 H   0  0  0  0  0  0  0  0  0  0  0  0
   -0.8058   -1.7076   -1.4097 H   0  0  0  0  0  0  0  0  0  0  0  0
   -0.2456    1.6268    1.5536 H   0  0  0  0  0  0  0  0  0  0  0  0
    1.3084    2.1745    0.9706 H   0  0  0  0  0  0  0  0  0  0  0  0
   -0.0745    2.6468   -0.0010 H   0  0  0  0  0  0  0  0  0  0  0  0
    0.7118    1.9851   -1.8602 H   0  0  0  0  0  0  0  0  0  0  0  0
   -0.5823    0.6902   -2.1261 H   0  0  0  0  0  0  0  0  0  0  0  0
    1.1480    0.3246   -2.3019 H   0  0  0  0  0  0  0  0  0  0  0  0
    1.9430   -0.9038   -0.6597 H   0  0  0  0  0  0  0  0  0  0  0  0
    1.5196   -1.1167    1.8560 H   0  0  0  0  0  0  0  0  0  0  0  0
    2.3207    0.4452    2.0817 H   0  0  0  0  0  0  0  0  0  0  0  0
    3.3940   -2.0181    0.8426 H   0  0  0  0  0  0  0  0  0  0  0  0
    5.4348   -0.9353    0.6939 H   0  0  0  0  0  0  0  0  0  0  0  0
    4.7846    0.5390    1.4354 H   0  0  0  0  0  0  0  0  0  0  0  0
    4.0782   -0.7241   -1.2698 H   0  0  0  0  0  0  0  0  0  0  0  0
    5.0492    0.8214   -0.9580 H   0  0  0  0  0  0  0  0  0  0  0  0
    2.6817    1.4112   -1.4899 H   0  0  0  0  0  0  0  0  0  0  0  0
    3.1494    1.7841    0.1915 H   0  0  0  0  0  0  0  0  0  0  0  0
  1  2  1  0
  2  3  1  0
  3  4  1  0
  4  5  1  0
  1  6  1  0
  5  6  1  0
  3  7  1  0
  7  8  1  0
 10  7  1  0
  9 10  1  0
 10 11  1  0
 10 12  1  0
 12 13  1  0
 13 14  1  0
 14 15  1  0
 15 16  1  0
 12 17  1  0
 16 17  1  0
  1 18  1  0
  2 19  1  0
  2 20  1  0
  3 21  1  0
  4 22  1  0
  4 23  1  0
  5 24  1  0
  5 25  1  0
  6 26  1  0
  6 27  1  0
  7 28  1  0
  8 29  1  0
  9 30  1  0
  9 31  1  0
  9 32  1  0
 11 33  1  0
 11 34  1  0
 11 35  1  0
 12 36  1  0
 13 37  1  0
 13 38  1  0
 14 39  1  0
 15 40  1  0
 15 41  1  0
 16 42  1  0
 16 43  1  0
 17 44  1  0
 17 45  1  0
M  END
>  <PDBID>  (1) 
1W0G

>  <PDB ID>  (1) 
1W0G

>  <Generic Name>  (1) 
Metyrapone

>  <Brand Name>  (1) 
Metopirone#Metopiron

>  <DrugBank ID>  (1) 
DB01011

>  <ATC Codes>  (1) 
V04CD01

>  <Ligand ID>  (1) 
MYT

>  <Target Name>  (1) 
Cytochrome P450 11B1, mitochondrial

>  <UniProt ID>  (1) 
P15538

>  <PDB ID.1>  (1) 
1W0G

>  <Seq. Identity>  (1) 
32%

$$$$
