PDB_DB00255_06
     RDKit          3D

108110  0  0  0  0  0  0  0  0999 V2000
   -2.2764   -2.8483   -0.5686 C   0  0  0  0  0  0  0  0  0  0  0  0
   -1.7446   -1.8072   -1.4492 C   0  0  0  0  0  0  0  0  0  0  0  0
   -0.8187   -0.7494   -0.8080 C   0  0  0  0  0  0  0  0  0  0  0  0
   -1.5072   -0.1230    0.3076 C   0  0  0  0  0  0  0  0  0  0  0  0
   -0.9176    0.9163    1.1790 C   0  0  0  0  0  0  0  0  0  0  0  0
   -2.0737    1.6520    1.9527 C   0  0  0  0  0  0  0  0  0  0  0  0
   -2.6493    2.6737    1.0218 C   0  0  0  0  0  0  0  0  0  0  0  0
   -3.9513    2.9534    1.4553 O   0  0  0  0  0  0  0  0  0  0  0  0
   -2.7034    2.0073   -0.3431 C   0  0  0  0  0  0  0  0  0  0  0  0
   -2.8517    0.4934   -0.1510 C   0  0  0  0  0  0  0  0  0  0  0  0
    0.5817   -1.2833   -0.7659 C   0  0  0  0  0  0  0  0  0  0  0  0
    1.5516   -0.2465   -0.2785 C   0  0  0  0  0  0  0  0  0  0  0  0
    1.4620    0.9800   -1.2559 C   0  0  0  0  0  0  0  0  0  0  0  0
    2.4163    2.0242   -0.7393 C   0  0  0  0  0  0  0  0  0  0  0  0
    2.9402    1.7113    0.6241 C   0  0  0  0  0  0  0  0  0  0  0  0
    3.8349    2.7333    0.9662 O   0  0  0  0  0  0  0  0  0  0  0  0
    3.6675    0.4187    0.7133 C   0  0  0  0  0  0  0  0  0  0  0  0
    3.0190   -0.5385   -0.3413 C   0  0  0  0  0  0  0  0  0  0  0  0
    0.6757   -2.5753   -0.0863 C   0  0  0  0  0  0  0  0  0  0  0  0
    1.9423   -3.3296    0.0731 C   0  0  0  0  0  0  0  0  0  0  0  0
   -2.2764   -2.8483   -0.5686 C   0  0  0  0  0  0  0  0  0  0  0  0
   -1.7446   -1.8072   -1.4492 C   0  0  0  0  0  0  0  0  0  0  0  0
   -0.8187   -0.7494   -0.8080 C   0  0  0  0  0  0  0  0  0  0  0  0
   -1.5072   -0.1230    0.3076 C   0  0  0  0  0  0  0  0  0  0  0  0
   -0.9176    0.9163    1.1790 C   0  0  0  0  0  0  0  0  0  0  0  0
   -2.0737    1.6520    1.9527 C   0  0  0  0  0  0  0  0  0  0  0  0
   -2.6493    2.6737    1.0218 C   0  0  0  0  0  0  0  0  0  0  0  0
   -3.9513    2.9534    1.4553 O   0  0  0  0  0  0  0  0  0  0  0  0
   -2.7034    2.0073   -0.3431 C   0  0  0  0  0  0  0  0  0  0  0  0
   -2.8517    0.4934   -0.1510 C   0  0  0  0  0  0  0  0  0  0  0  0
    0.5817   -1.2833   -0.7659 C   0  0  0  0  0  0  0  0  0  0  0  0
    1.5516   -0.2465   -0.2785 C   0  0  0  0  0  0  0  0  0  0  0  0
    1.4620    0.9800   -1.2559 C   0  0  0  0  0  0  0  0  0  0  0  0
    2.4163    2.0242   -0.7393 C   0  0  0  0  0  0  0  0  0  0  0  0
    2.9402    1.7113    0.6241 C   0  0  0  0  0  0  0  0  0  0  0  0
    3.8349    2.7333    0.9662 O   0  0  0  0  0  0  0  0  0  0  0  0
    3.6675    0.4187    0.7133 C   0  0  0  0  0  0  0  0  0  0  0  0
    3.0190   -0.5385   -0.3413 C   0  0  0  0  0  0  0  0  0  0  0  0
    0.6757   -2.5753   -0.0863 C   0  0  0  0  0  0  0  0  0  0  0  0
    1.9423   -3.3296    0.0731 C   0  0  0  0  0  0  0  0  0  0  0  0
   -3.4236   -2.6967   -0.5626 H   0  0  0  0  0  0  0  0  0  0  0  0
   -2.2147   -3.8933   -0.9767 H   0  0  0  0  0  0  0  0  0  0  0  0
   -2.0338   -2.8509    0.4861 H   0  0  0  0  0  0  0  0  0  0  0  0
   -2.4687   -1.3553   -2.1555 H   0  0  0  0  0  0  0  0  0  0  0  0
   -1.0307   -2.3401   -2.1670 H   0  0  0  0  0  0  0  0  0  0  0  0
   -0.8042    0.0211   -1.6493 H   0  0  0  0  0  0  0  0  0  0  0  0
   -1.8971   -0.9035    1.0645 H   0  0  0  0  0  0  0  0  0  0  0  0
   -0.3888    0.4534    2.0853 H   0  0  0  0  0  0  0  0  0  0  0  0
   -0.3509    1.7004    0.7139 H   0  0  0  0  0  0  0  0  0  0  0  0
   -2.7637    0.9093    2.3316 H   0  0  0  0  0  0  0  0  0  0  0  0
   -1.5180    2.2231    2.7469 H   0  0  0  0  0  0  0  0  0  0  0  0
   -2.0470    3.5802    0.9862 H   0  0  0  0  0  0  0  0  0  0  0  0
   -4.5185    2.2226    1.0961 H   0  0  0  0  0  0  0  0  0  0  0  0
   -3.6474    2.3276   -0.8279 H   0  0  0  0  0  0  0  0  0  0  0  0
   -1.8150    2.1866   -0.9484 H   0  0  0  0  0  0  0  0  0  0  0  0
   -3.2144    0.1134   -1.0883 H   0  0  0  0  0  0  0  0  0  0  0  0
   -3.6436    0.3531    0.6043 H   0  0  0  0  0  0  0  0  0  0  0  0
    0.8639   -1.4534   -1.8507 H   0  0  0  0  0  0  0  0  0  0  0  0
    1.3321    0.0307    0.7370 H   0  0  0  0  0  0  0  0  0  0  0  0
    0.4808    1.3593   -1.3514 H   0  0  0  0  0  0  0  0  0  0  0  0
    1.9113    0.5741   -2.2062 H   0  0  0  0  0  0  0  0  0  0  0  0
    1.8646    2.9996   -0.6623 H   0  0  0  0  0  0  0  0  0  0  0  0
    3.2432    2.2390   -1.4735 H   0  0  0  0  0  0  0  0  0  0  0  0
    2.0914    1.8150    1.3490 H   0  0  0  0  0  0  0  0  0  0  0  0
    3.4038    3.4534    1.4661 H   0  0  0  0  0  0  0  0  0  0  0  0
    4.7435    0.4767    0.5535 H   0  0  0  0  0  0  0  0  0  0  0  0
    3.4318   -0.0596    1.6901 H   0  0  0  0  0  0  0  0  0  0  0  0
    3.3806   -1.5162   -0.1980 H   0  0  0  0  0  0  0  0  0  0  0  0
    3.4334   -0.1899   -1.3412 H   0  0  0  0  0  0  0  0  0  0  0  0
   -0.0164   -3.3520   -0.5517 H   0  0  0  0  0  0  0  0  0  0  0  0
    0.2458   -2.4957    0.9699 H   0  0  0  0  0  0  0  0  0  0  0  0
    2.5615   -3.4210   -0.8163 H   0  0  0  0  0  0  0  0  0  0  0  0
    2.5460   -3.1197    0.9611 H   0  0  0  0  0  0  0  0  0  0  0  0
    1.6653   -4.4537    0.2780 H   0  0  0  0  0  0  0  0  0  0  0  0
   -3.4236   -2.6967   -0.5626 H   0  0  0  0  0  0  0  0  0  0  0  0
   -2.2147   -3.8933   -0.9767 H   0  0  0  0  0  0  0  0  0  0  0  0
   -2.0338   -2.8509    0.4861 H   0  0  0  0  0  0  0  0  0  0  0  0
   -2.4687   -1.3553   -2.1555 H   0  0  0  0  0  0  0  0  0  0  0  0
   -1.0307   -2.3401   -2.1670 H   0  0  0  0  0  0  0  0  0  0  0  0
   -0.8042    0.0211   -1.6493 H   0  0  0  0  0  0  0  0  0  0  0  0
   -1.8971   -0.9035    1.0645 H   0  0  0  0  0  0  0  0  0  0  0  0
   -0.3888    0.4534    2.0853 H   0  0  0  0  0  0  0  0  0  0  0  0
   -0.3509    1.7004    0.7139 H   0  0  0  0  0  0  0  0  0  0  0  0
   -2.7637    0.9093    2.3316 H   0  0  0  0  0  0  0  0  0  0  0  0
   -1.5180    2.2231    2.7469 H   0  0  0  0  0  0  0  0  0  0  0  0
   -2.0470    3.5802    0.9862 H   0  0  0  0  0  0  0  0  0  0  0  0
   -4.5185    2.2226    1.0961 H   0  0  0  0  0  0  0  0  0  0  0  0
   -3.6474    2.3276   -0.8279 H   0  0  0  0  0  0  0  0  0  0  0  0
   -1.8150    2.1866   -0.9484 H   0  0  0  0  0  0  0  0  0  0  0  0
   -3.2144    0.1134   -1.0883 H   0  0  0  0  0  0  0  0  0  0  0  0
   -3.6436    0.3531    0.6043 H   0  0  0  0  0  0  0  0  0  0  0  0
    0.8639   -1.4534   -1.8507 H   0  0  0  0  0  0  0  0  0  0  0  0
    1.3321    0.0307    0.7370 H   0  0  0  0  0  0  0  0  0  0  0  0
    0.4808    1.3593   -1.3514 H   0  0  0  0  0  0  0  0  0  0  0  0
    1.9113    0.5741   -2.2062 H   0  0  0  0  0  0  0  0  0  0  0  0
    1.8646    2.9996   -0.6623 H   0  0  0  0  0  0  0  0  0  0  0  0
    3.2432    2.2390   -1.4735 H   0  0  0  0  0  0  0  0  0  0  0  0
    2.0914    1.8150    1.3490 H   0  0  0  0  0  0  0  0  0  0  0  0
    3.4038    3.4534    1.4661 H   0  0  0  0  0  0  0  0  0  0  0  0
    4.7435    0.4767    0.5535 H   0  0  0  0  0  0  0  0  0  0  0  0
    3.4318   -0.0596    1.6901 H   0  0  0  0  0  0  0  0  0  0  0  0
    3.3806   -1.5162   -0.1980 H   0  0  0  0  0  0  0  0  0  0  0  0
    3.4334   -0.1899   -1.3412 H   0  0  0  0  0  0  0  0  0  0  0  0
   -0.0164   -3.3520   -0.5517 H   0  0  0  0  0  0  0  0  0  0  0  0
    0.2458   -2.4957    0.9699 H   0  0  0  0  0  0  0  0  0  0  0  0
    2.5615   -3.4210   -0.8163 H   0  0  0  0  0  0  0  0  0  0  0  0
    2.5460   -3.1197    0.9611 H   0  0  0  0  0  0  0  0  0  0  0  0
    1.6653   -4.4537    0.2780 H   0  0  0  0  0  0  0  0  0  0  0  0
  1  2  1  0
  2  3  1  0
  3  4  1  0
  4  5  1  0
  5  6  1  0
  6  7  1  0
  7  8  1  0
  7  9  1  0
  4 10  1  0
  9 10  1  0
  3 11  1  0
 11 12  1  0
 12 13  1  0
 13 14  1  0
 14 15  1  0
 15 16  1  0
 15 17  1  0
 12 18  1  0
 17 18  1  0
 11 19  1  0
 19 20  1  0
 21 22  1  0
 22 23  1  0
 23 24  1  0
 24 25  1  0
 25 26  1  0
 26 27  1  0
 27 28  1  0
 27 29  1  0
 24 30  1  0
 29 30  1  0
 23 31  1  0
 31 32  1  0
 32 33  1  0
 33 34  1  0
 34 35  1  0
 35 36  1  0
 35 37  1  0
 32 38  1  0
 37 38  1  0
 31 39  1  0
 39 40  1  0
  1 41  1  0
  1 42  1  0
  1 43  1  0
  2 44  1  0
  2 45  1  0
  3 46  1  0
  4 47  1  0
  5 48  1  0
  5 49  1  0
  6 50  1  0
  6 51  1  0
  7 52  1  0
  8 53  1  0
  9 54  1  0
  9 55  1  0
 10 56  1  0
 10 57  1  0
 11 58  1  0
 12 59  1  0
 13 60  1  0
 13 61  1  0
 14 62  1  0
 14 63  1  0
 15 64  1  0
 16 65  1  0
 17 66  1  0
 17 67  1  0
 18 68  1  0
 18 69  1  0
 19 70  1  0
 19 71  1  0
 20 72  1  0
 20 73  1  0
 20 74  1  0
 21 75  1  0
 21 76  1  0
 21 77  1  0
 22 78  1  0
 22 79  1  0
 23 80  1  0
 24 81  1  0
 25 82  1  0
 25 83  1  0
 26 84  1  0
 26 85  1  0
 27 86  1  0
 28 87  1  0
 29 88  1  0
 29 89  1  0
 30 90  1  0
 30 91  1  0
 31 92  1  0
 32 93  1  0
 33 94  1  0
 33 95  1  0
 34 96  1  0
 34 97  1  0
 35 98  1  0
 36 99  1  0
 37100  1  0
 37101  1  0
 38102  1  0
 38103  1  0
 39104  1  0
 39105  1  0
 40106  1  0
 40107  1  0
 40108  1  0
M  END
>  <PDBID>  (1) 
4ZN7

>  <PDB ID>  (1) 
4ZN7

>  <Generic Name>  (1) 
Diethylstilbestrol

>  <Brand Name>  (1) 
Honvol Ampoules 250mg#Honvol Tablets 100mg#Stilbestrol 0.5mg Tablet#Stilbestrol 1.0mg Tablet#Stilbestrol Tab 1mg#Stilbestrol Tablets 0.1 mg#Stilbestrol Tablets 0.5 mg#Stilbestrol Tablets 1.0 mg#Stilboestrol Tab 0.1mg#Stilboestrol Tab 0.5mg#Distilbene#Stilbestrol#Stilbetin

>  <DrugBank ID>  (1) 
DB00255

>  <ATC Codes>  (1) 
L02AA01#G03CC05#L02AA04#G03CB02

>  <Ligand ID>  (1) 
DES

>  <Target Name>  (1) 
Estrogen receptor

>  <UniProt ID>  (1) 
P03372

>  <PDB ID.1>  (1) 
4ZN7

>  <Seq. Identity>  (1) 
93%

$$$$
