PDB_DB00552_07
     RDKit          3D

164172  0  0  0  0  0  0  0  0999 V2000
    1.6480    0.6011    2.3162 N   0  0  0  0  0  0  0  0  0  0  0  0
    0.2263    0.3365    2.2123 C   0  0  0  0  0  0  0  0  0  0  0  0
    0.0307    0.0971    0.8140 N   0  0  0  0  0  0  0  0  0  0  0  0
    2.2751   -0.0831    1.1983 C   0  0  1  0  0  0  0  0  0  0  0  0
    1.1229   -0.7181    0.4261 C   0  0  2  0  0  0  0  0  0  0  0  0
    1.4542   -0.5445   -0.9847 N   0  0  0  0  0  0  0  0  0  0  0  0
    2.5317   -1.3928   -1.3831 C   0  0  0  0  0  0  0  0  0  0  0  0
    3.8090   -1.0007   -0.8345 N   0  0  0  0  0  0  0  0  0  0  0  0
    3.9184    0.4204   -0.6368 C   0  0  0  0  0  0  0  0  0  0  0  0
    2.9307    0.9714    0.3541 C   0  0  1  0  0  0  0  0  0  0  0  0
    1.8941    1.6292   -0.3352 O   0  0  0  0  0  0  0  0  0  0  0  0
   -2.2626    0.6936    0.9313 C   0  0  0  0  0  0  0  0  0  0  0  0
   -3.5026    0.2711    0.1885 C   0  0  2  0  0  0  0  0  0  0  0  0
   -4.3135   -0.4296    1.0977 O   0  0  0  0  0  0  0  0  0  0  0  0
   -3.0292    1.2475   -2.4418 O   0  0  0  0  0  0  0  0  0  0  0  0
   -3.4359   -0.0658   -2.2488 C   0  0  0  0  0  0  0  0  0  0  0  0
   -2.9609   -0.5944   -0.8980 C   0  0  1  0  0  0  0  0  0  0  0  0
   -1.5732   -0.5617   -0.7996 O   0  0  0  0  0  0  0  0  0  0  0  0
   -1.2728   -0.3814    0.5357 C   0  0  1  0  0  0  0  0  0  0  0  0
    1.5640    0.8796    2.2453 N   0  0  0  0  0  0  0  0  0  0  0  0
    0.1573    0.5362    2.1509 C   0  0  0  0  0  0  0  0  0  0  0  0
    0.0104    0.2620    0.7368 N   0  0  0  0  0  0  0  0  0  0  0  0
    2.2322    0.0531    1.2528 C   0  0  0  0  0  0  0  0  0  0  0  0
    1.1221   -0.6072    0.4599 C   0  0  2  0  0  0  0  0  0  0  0  0
    1.4681   -0.5106   -0.9323 N   0  0  0  0  0  0  0  0  0  0  0  0
    2.5287   -1.3878   -1.3220 C   0  0  0  0  0  0  0  0  0  0  0  0
    3.7773   -1.1241   -0.6539 N   0  0  0  0  0  0  0  0  0  0  0  0
    4.0045    0.2806   -0.5221 C   0  0  0  0  0  0  0  0  0  0  0  0
    3.0429    0.9828    0.3795 C   0  0  1  0  0  0  0  0  0  0  0  0
    2.1075    1.7505   -0.3516 O   0  0  0  0  0  0  0  0  0  0  0  0
   -2.3099    0.7272    0.8726 C   0  0  0  0  0  0  0  0  0  0  0  0
   -3.5310    0.2081    0.1471 C   0  0  2  0  0  0  0  0  0  0  0  0
   -4.2761   -0.5094    1.0808 O   0  0  0  0  0  0  0  0  0  0  0  0
   -3.0564    1.1324   -2.5403 O   0  0  0  0  0  0  0  0  0  0  0  0
   -3.4160   -0.1928   -2.3104 C   0  0  0  0  0  0  0  0  0  0  0  0
   -2.9479   -0.6428   -0.9260 C   0  0  1  0  0  0  0  0  0  0  0  0
   -1.5638   -0.5326   -0.8440 O   0  0  0  0  0  0  0  0  0  0  0  0
   -1.2677   -0.3018    0.4905 C   0  0  1  0  0  0  0  0  0  0  0  0
    1.6480    0.6011    2.3162 N   0  0  0  0  0  0  0  0  0  0  0  0
    0.2263    0.3365    2.2123 C   0  0  0  0  0  0  0  0  0  0  0  0
    0.0307    0.0971    0.8140 N   0  0  0  0  0  0  0  0  0  0  0  0
    2.2751   -0.0831    1.1983 C   0  0  1  0  0  0  0  0  0  0  0  0
    1.1229   -0.7181    0.4261 C   0  0  2  0  0  0  0  0  0  0  0  0
    1.4542   -0.5445   -0.9847 N   0  0  0  0  0  0  0  0  0  0  0  0
    2.5317   -1.3928   -1.3831 C   0  0  0  0  0  0  0  0  0  0  0  0
    3.8090   -1.0007   -0.8345 N   0  0  0  0  0  0  0  0  0  0  0  0
    3.9184    0.4204   -0.6368 C   0  0  0  0  0  0  0  0  0  0  0  0
    2.9307    0.9714    0.3541 C   0  0  1  0  0  0  0  0  0  0  0  0
    1.8941    1.6292   -0.3352 O   0  0  0  0  0  0  0  0  0  0  0  0
   -2.2626    0.6936    0.9313 C   0  0  0  0  0  0  0  0  0  0  0  0
   -3.5026    0.2711    0.1885 C   0  0  2  0  0  0  0  0  0  0  0  0
   -4.3135   -0.4296    1.0977 O   0  0  0  0  0  0  0  0  0  0  0  0
   -3.0292    1.2475   -2.4418 O   0  0  0  0  0  0  0  0  0  0  0  0
   -3.4359   -0.0658   -2.2488 C   0  0  0  0  0  0  0  0  0  0  0  0
   -2.9609   -0.5944   -0.8980 C   0  0  1  0  0  0  0  0  0  0  0  0
   -1.5732   -0.5617   -0.7996 O   0  0  0  0  0  0  0  0  0  0  0  0
   -1.2728   -0.3814    0.5357 C   0  0  1  0  0  0  0  0  0  0  0  0
    1.6480    0.6011    2.3162 N   0  0  0  0  0  0  0  0  0  0  0  0
    0.2263    0.3365    2.2123 C   0  0  0  0  0  0  0  0  0  0  0  0
    0.0307    0.0971    0.8140 N   0  0  0  0  0  0  0  0  0  0  0  0
    2.2751   -0.0831    1.1983 C   0  0  1  0  0  0  0  0  0  0  0  0
    1.1229   -0.7181    0.4261 C   0  0  2  0  0  0  0  0  0  0  0  0
    1.4542   -0.5445   -0.9847 N   0  0  0  0  0  0  0  0  0  0  0  0
    2.5317   -1.3928   -1.3831 C   0  0  0  0  0  0  0  0  0  0  0  0
    3.8090   -1.0007   -0.8345 N   0  0  0  0  0  0  0  0  0  0  0  0
    3.9184    0.4204   -0.6368 C   0  0  0  0  0  0  0  0  0  0  0  0
    2.9307    0.9714    0.3541 C   0  0  1  0  0  0  0  0  0  0  0  0
    1.8941    1.6292   -0.3352 O   0  0  0  0  0  0  0  0  0  0  0  0
   -2.2626    0.6936    0.9313 C   0  0  0  0  0  0  0  0  0  0  0  0
   -3.5026    0.2711    0.1885 C   0  0  2  0  0  0  0  0  0  0  0  0
   -4.3135   -0.4296    1.0977 O   0  0  0  0  0  0  0  0  0  0  0  0
   -3.0292    1.2475   -2.4418 O   0  0  0  0  0  0  0  0  0  0  0  0
   -3.4359   -0.0658   -2.2488 C   0  0  0  0  0  0  0  0  0  0  0  0
   -2.9609   -0.5944   -0.8980 C   0  0  1  0  0  0  0  0  0  0  0  0
   -1.5732   -0.5617   -0.7996 O   0  0  0  0  0  0  0  0  0  0  0  0
   -1.2728   -0.3814    0.5357 C   0  0  1  0  0  0  0  0  0  0  0  0
    1.7845    1.6306    2.2913 H   0  0  0  0  0  0  0  0  0  0  0  0
   -0.3765    1.2221    2.5277 H   0  0  0  0  0  0  0  0  0  0  0  0
    0.0155   -0.5304    2.8709 H   0  0  0  0  0  0  0  0  0  0  0  0
    2.9717   -0.8321    1.5939 H   0  0  0  0  0  0  0  0  0  0  0  0
    1.0719   -1.7745    0.7283 H   0  0  0  0  0  0  0  0  0  0  0  0
    0.6630   -0.6852   -1.6183 H   0  0  0  0  0  0  0  0  0  0  0  0
    2.3109   -2.4445   -1.2060 H   0  0  0  0  0  0  0  0  0  0  0  0
    2.6234   -1.2762   -2.5042 H   0  0  0  0  0  0  0  0  0  0  0  0
    4.1102   -1.5804   -0.0382 H   0  0  0  0  0  0  0  0  0  0  0  0
    3.8413    0.9140   -1.6303 H   0  0  0  0  0  0  0  0  0  0  0  0
    4.9360    0.6248   -0.2527 H   0  0  0  0  0  0  0  0  0  0  0  0
    3.4175    1.7769    0.9691 H   0  0  0  0  0  0  0  0  0  0  0  0
    2.1980    2.0152   -1.1874 H   0  0  0  0  0  0  0  0  0  0  0  0
   -2.4059    0.7689    2.0283 H   0  0  0  0  0  0  0  0  0  0  0  0
   -1.8464    1.6534    0.5129 H   0  0  0  0  0  0  0  0  0  0  0  0
   -4.0193    1.1799   -0.1870 H   0  0  0  0  0  0  0  0  0  0  0  0
   -4.6018   -1.2933    0.7437 H   0  0  0  0  0  0  0  0  0  0  0  0
   -3.7950    1.8897   -2.4323 H   0  0  0  0  0  0  0  0  0  0  0  0
   -3.0144   -0.7069   -3.0742 H   0  0  0  0  0  0  0  0  0  0  0  0
   -4.5492   -0.0881   -2.2488 H   0  0  0  0  0  0  0  0  0  0  0  0
   -3.2780   -1.6496   -0.7840 H   0  0  0  0  0  0  0  0  0  0  0  0
   -1.5480   -1.3098    1.0771 H   0  0  0  0  0  0  0  0  0  0  0  0
    1.6379    1.9049    2.0173 H   0  0  0  0  0  0  0  0  0  0  0  0
   -0.0347   -0.3351    2.8014 H   0  0  0  0  0  0  0  0  0  0  0  0
   -0.4948    1.3691    2.4910 H   0  0  0  0  0  0  0  0  0  0  0  0
    2.8638   -0.6824    1.7828 H   0  0  0  0  0  0  0  0  0  0  0  0
    1.0014   -1.6459    0.8232 H   0  0  0  0  0  0  0  0  0  0  0  0
    0.6775   -0.6391   -1.5872 H   0  0  0  0  0  0  0  0  0  0  0  0
    2.2685   -2.4602   -1.2145 H   0  0  0  0  0  0  0  0  0  0  0  0
    2.7121   -1.2118   -2.4144 H   0  0  0  0  0  0  0  0  0  0  0  0
    3.9074   -1.6603    0.2234 H   0  0  0  0  0  0  0  0  0  0  0  0
    3.9096    0.7333   -1.5368 H   0  0  0  0  0  0  0  0  0  0  0  0
    5.0510    0.4098   -0.1310 H   0  0  0  0  0  0  0  0  0  0  0  0
    3.5937    1.7037    1.0197 H   0  0  0  0  0  0  0  0  0  0  0  0
    2.3056    1.6935   -1.3181 H   0  0  0  0  0  0  0  0  0  0  0  0
   -2.4586    0.8098    1.9678 H   0  0  0  0  0  0  0  0  0  0  0  0
   -1.9997    1.7294    0.4783 H   0  0  0  0  0  0  0  0  0  0  0  0
   -4.1603    1.0394   -0.2400 H   0  0  0  0  0  0  0  0  0  0  0  0
   -4.4577   -1.3966    0.7131 H   0  0  0  0  0  0  0  0  0  0  0  0
   -3.8918    1.6802   -2.4767 H   0  0  0  0  0  0  0  0  0  0  0  0
   -2.8350   -0.7957   -3.0543 H   0  0  0  0  0  0  0  0  0  0  0  0
   -4.5023   -0.3450   -2.4113 H   0  0  0  0  0  0  0  0  0  0  0  0
   -3.2503   -1.6930   -0.7460 H   0  0  0  0  0  0  0  0  0  0  0  0
   -1.4895   -1.2113    1.0901 H   0  0  0  0  0  0  0  0  0  0  0  0
    1.7845    1.6306    2.2913 H   0  0  0  0  0  0  0  0  0  0  0  0
   -0.3765    1.2221    2.5277 H   0  0  0  0  0  0  0  0  0  0  0  0
    0.0155   -0.5304    2.8709 H   0  0  0  0  0  0  0  0  0  0  0  0
    2.9717   -0.8321    1.5939 H   0  0  0  0  0  0  0  0  0  0  0  0
    1.0719   -1.7745    0.7283 H   0  0  0  0  0  0  0  0  0  0  0  0
    0.6630   -0.6852   -1.6183 H   0  0  0  0  0  0  0  0  0  0  0  0
    2.3109   -2.4445   -1.2060 H   0  0  0  0  0  0  0  0  0  0  0  0
    2.6234   -1.2762   -2.5042 H   0  0  0  0  0  0  0  0  0  0  0  0
    4.1102   -1.5804   -0.0382 H   0  0  0  0  0  0  0  0  0  0  0  0
    3.8413    0.9140   -1.6303 H   0  0  0  0  0  0  0  0  0  0  0  0
    4.9360    0.6248   -0.2527 H   0  0  0  0  0  0  0  0  0  0  0  0
    3.4175    1.7769    0.9691 H   0  0  0  0  0  0  0  0  0  0  0  0
    2.1980    2.0152   -1.1874 H   0  0  0  0  0  0  0  0  0  0  0  0
   -2.4059    0.7689    2.0283 H   0  0  0  0  0  0  0  0  0  0  0  0
   -1.8464    1.6534    0.5129 H   0  0  0  0  0  0  0  0  0  0  0  0
   -4.0193    1.1799   -0.1870 H   0  0  0  0  0  0  0  0  0  0  0  0
   -4.6018   -1.2933    0.7437 H   0  0  0  0  0  0  0  0  0  0  0  0
   -3.7950    1.8897   -2.4323 H   0  0  0  0  0  0  0  0  0  0  0  0
   -3.0144   -0.7069   -3.0742 H   0  0  0  0  0  0  0  0  0  0  0  0
   -4.5492   -0.0881   -2.2488 H   0  0  0  0  0  0  0  0  0  0  0  0
   -3.2780   -1.6496   -0.7840 H   0  0  0  0  0  0  0  0  0  0  0  0
   -1.5480   -1.3098    1.0771 H   0  0  0  0  0  0  0  0  0  0  0  0
    1.7845    1.6306    2.2913 H   0  0  0  0  0  0  0  0  0  0  0  0
   -0.3765    1.2221    2.5277 H   0  0  0  0  0  0  0  0  0  0  0  0
    0.0155   -0.5304    2.8709 H   0  0  0  0  0  0  0  0  0  0  0  0
    2.9717   -0.8321    1.5939 H   0  0  0  0  0  0  0  0  0  0  0  0
    1.0719   -1.7745    0.7283 H   0  0  0  0  0  0  0  0  0  0  0  0
    0.6630   -0.6852   -1.6183 H   0  0  0  0  0  0  0  0  0  0  0  0
    2.3109   -2.4445   -1.2060 H   0  0  0  0  0  0  0  0  0  0  0  0
    2.6234   -1.2762   -2.5042 H   0  0  0  0  0  0  0  0  0  0  0  0
    4.1102   -1.5804   -0.0382 H   0  0  0  0  0  0  0  0  0  0  0  0
    3.8413    0.9140   -1.6303 H   0  0  0  0  0  0  0  0  0  0  0  0
    4.9360    0.6248   -0.2527 H   0  0  0  0  0  0  0  0  0  0  0  0
    3.4175    1.7769    0.9691 H   0  0  0  0  0  0  0  0  0  0  0  0
    2.1980    2.0152   -1.1874 H   0  0  0  0  0  0  0  0  0  0  0  0
   -2.4059    0.7689    2.0283 H   0  0  0  0  0  0  0  0  0  0  0  0
   -1.8464    1.6534    0.5129 H   0  0  0  0  0  0  0  0  0  0  0  0
   -4.0193    1.1799   -0.1870 H   0  0  0  0  0  0  0  0  0  0  0  0
   -4.6018   -1.2933    0.7437 H   0  0  0  0  0  0  0  0  0  0  0  0
   -3.7950    1.8897   -2.4323 H   0  0  0  0  0  0  0  0  0  0  0  0
   -3.0144   -0.7069   -3.0742 H   0  0  0  0  0  0  0  0  0  0  0  0
   -4.5492   -0.0881   -2.2488 H   0  0  0  0  0  0  0  0  0  0  0  0
   -3.2780   -1.6496   -0.7840 H   0  0  0  0  0  0  0  0  0  0  0  0
   -1.5480   -1.3098    1.0771 H   0  0  0  0  0  0  0  0  0  0  0  0
  1  2  1  0
  2  3  1  0
  1  4  1  0
  3  5  1  0
  4  5  1  0
  5  6  1  0
  6  7  1  0
  7  8  1  0
  8  9  1  0
  4 10  1  0
  9 10  1  0
 10 11  1  0
 12 13  1  0
 13 14  1  0
 15 16  1  0
 13 17  1  0
 16 17  1  0
 17 18  1  0
  3 19  1  0
 12 19  1  0
 18 19  1  0
 20 21  1  0
 21 22  1  0
 20 23  1  0
 22 24  1  0
 23 24  1  0
 24 25  1  0
 25 26  1  0
 26 27  1  0
 27 28  1  0
 23 29  1  0
 28 29  1  0
 29 30  1  0
 31 32  1  0
 32 33  1  0
 34 35  1  0
 32 36  1  0
 35 36  1  0
 36 37  1  0
 22 38  1  0
 31 38  1  0
 37 38  1  0
 39 40  1  0
 40 41  1  0
 39 42  1  0
 41 43  1  0
 42 43  1  0
 43 44  1  0
 44 45  1  0
 45 46  1  0
 46 47  1  0
 42 48  1  0
 47 48  1  0
 48 49  1  0
 50 51  1  0
 51 52  1  0
 53 54  1  0
 51 55  1  0
 54 55  1  0
 55 56  1  0
 41 57  1  0
 50 57  1  0
 56 57  1  0
 58 59  1  0
 59 60  1  0
 58 61  1  0
 60 62  1  0
 61 62  1  0
 62 63  1  0
 63 64  1  0
 64 65  1  0
 65 66  1  0
 61 67  1  0
 66 67  1  0
 67 68  1  0
 69 70  1  0
 70 71  1  0
 72 73  1  0
 70 74  1  0
 73 74  1  0
 74 75  1  0
 60 76  1  0
 69 76  1  0
 75 76  1  0
  1 77  1  0
  2 78  1  0
  2 79  1  0
  4 80  1  1
  5 81  1  1
  6 82  1  0
  7 83  1  0
  7 84  1  0
  8 85  1  0
  9 86  1  0
  9 87  1  0
 10 88  1  1
 11 89  1  0
 12 90  1  0
 12 91  1  0
 13 92  1  6
 14 93  1  0
 15 94  1  0
 16 95  1  0
 16 96  1  0
 17 97  1  1
 19 98  1  1
 20 99  1  0
 21100  1  0
 21101  1  0
 23102  1  0
 24103  1  1
 25104  1  0
 26105  1  0
 26106  1  0
 27107  1  0
 28108  1  0
 28109  1  0
 29110  1  1
 30111  1  0
 31112  1  0
 31113  1  0
 32114  1  6
 33115  1  0
 34116  1  0
 35117  1  0
 35118  1  0
 36119  1  1
 38120  1  1
 39121  1  0
 40122  1  0
 40123  1  0
 42124  1  1
 43125  1  1
 44126  1  0
 45127  1  0
 45128  1  0
 46129  1  0
 47130  1  0
 47131  1  0
 48132  1  1
 49133  1  0
 50134  1  0
 50135  1  0
 51136  1  6
 52137  1  0
 53138  1  0
 54139  1  0
 54140  1  0
 55141  1  1
 57142  1  1
 58143  1  0
 59144  1  0
 59145  1  0
 61146  1  1
 62147  1  1
 63148  1  0
 64149  1  0
 64150  1  0
 65151  1  0
 66152  1  0
 66153  1  0
 67154  1  1
 68155  1  0
 69156  1  0
 69157  1  0
 70158  1  6
 71159  1  0
 72160  1  0
 73161  1  0
 73162  1  0
 74163  1  1
 76164  1  1
M  END
>  <PDBID>  (1) 
1A4L

>  <PDB ID>  (1) 
1A4L

>  <Generic Name>  (1) 
Pentostatin

>  <Brand Name>  (1) 
Nipent#Nipent Pws 10mg/vial

>  <DrugBank ID>  (1) 
DB00552

>  <ATC Codes>  (1) 
L01XX08

>  <Ligand ID>  (1) 
DCF

>  <Target Name>  (1) 
Adenosine deaminase

>  <UniProt ID>  (1) 
P00813

>  <PDB ID.1>  (1) 
1A4L

>  <Seq. Identity>  (1) 
83%

$$$$
