PDB_DB00218_03
     RDKit          3D

390414  0  0  0  0  0  0  0  0999 V2000
    1.7390    1.9589   -1.5952 F   0  0  0  0  0  0  0  0  0  0  0  0
    0.1454    1.1325    2.1123 O   0  0  0  0  0  0  0  0  0  0  0  0
   -1.5274   -0.8014   -2.3418 O   0  0  0  0  0  0  0  0  0  0  0  0
   -5.0696   -1.1991   -1.3302 O   0  0  0  0  0  0  0  0  0  0  0  0
   -3.4804   -2.5247   -2.2230 O   0  0  0  0  0  0  0  0  0  0  0  0
    2.0759    0.1877    0.6286 N   0  0  0  0  0  0  0  0  0  0  0  0
    3.9150   -2.1095   -0.7033 N   0  0  0  0  0  0  0  0  0  0  0  0
   -2.7229    0.7633    1.1926 N   0  0  0  0  0  0  0  0  0  0  0  0
    4.3397   -0.0555    0.5758 C   0  0  2  0  0  0  0  0  0  0  0  0
    3.8154   -1.4641    0.5752 C   0  0  1  0  0  0  0  0  0  0  0  0
    3.1857    0.6082   -0.1885 C   0  0  0  0  0  0  0  0  0  0  0  0
    2.3464   -1.2170    0.8511 C   0  0  0  0  0  0  0  0  0  0  0  0
    5.6489    0.1161   -0.1017 C   0  0  0  0  0  0  0  0  0  0  0  0
   -3.6003    1.9001    1.3003 C   0  0  0  0  0  0  0  0  0  0  0  0
    6.1887   -1.1989   -0.6127 C   0  0  0  0  0  0  0  0  0  0  0  0
   -4.9523    1.7906    1.8921 C   0  0  0  0  0  0  0  0  0  0  0  0
   -4.7314    2.1319    0.4013 C   0  0  0  0  0  0  0  0  0  0  0  0
    5.1013   -1.8427   -1.4389 C   0  0  0  0  0  0  0  0  0  0  0  0
    0.7898    0.3857   -0.0121 C   0  0  1  0  0  0  0  0  0  0  0  0
   -1.5337    1.1521    0.5190 C   0  0  1  0  0  0  0  0  0  0  0  0
   -0.3153    0.4043    1.0168 C   0  0  2  0  0  0  0  0  0  0  0  0
   -1.7335    1.1143   -0.9625 C   0  0  0  0  0  0  0  0  0  0  0  0
    0.6927    1.6431   -0.7946 C   0  0  0  0  0  0  0  0  0  0  0  0
   -3.3418   -0.4436    0.8132 C   0  0  0  0  0  0  0  0  0  0  0  0
   -0.5033    1.4629   -1.7460 C   0  0  0  0  0  0  0  0  0  0  0  0
   -2.8398   -1.0839   -0.4259 C   0  0  2  0  0  0  0  0  0  0  0  0
   -2.3972   -0.1263   -1.4868 C   0  0  0  0  0  0  0  0  0  0  0  0
   -3.9361   -1.9486   -1.0168 C   0  0  0  0  0  0  0  0  0  0  0  0
    0.1230    0.4658    3.3055 C   0  0  0  0  0  0  0  0  0  0  0  0
    0.4790   -2.1512    2.3035 F   0  0  0  0  0  0  0  0  0  0  0  0
    0.1035    1.6865    0.7364 O   0  0  0  0  0  0  0  0  0  0  0  0
   -3.0525   -3.3382   -0.1575 O   0  0  0  0  0  0  0  0  0  0  0  0
   -6.4113   -0.8784    0.2161 O   0  0  0  0  0  0  0  0  0  0  0  0
   -5.1366   -0.9356   -1.7288 O   0  0  0  0  0  0  0  0  0  0  0  0
    1.8596   -0.1830   -0.3237 N   0  0  0  0  0  0  0  0  0  0  0  0
    4.9135   -0.4425   -1.8104 N   0  0  0  0  0  0  0  0  0  0  0  0
   -2.4584    0.7206    0.2995 N   0  0  0  0  0  0  0  0  0  0  0  0
    3.9605    0.4639    0.2538 C   0  0  2  0  0  0  0  0  0  0  0  0
    4.1257   -0.7481   -0.6384 C   0  0  1  0  0  0  0  0  0  0  0  0
    2.6099    1.0353   -0.2334 C   0  0  0  0  0  0  0  0  0  0  0  0
    2.6997   -1.0554   -1.0136 C   0  0  0  0  0  0  0  0  0  0  0  0
    5.0941    1.4170    0.0829 C   0  0  0  0  0  0  0  0  0  0  0  0
   -2.4862    1.9614   -0.4207 C   0  0  0  0  0  0  0  0  0  0  0  0
    6.3502    0.5364   -0.0777 C   0  0  0  0  0  0  0  0  0  0  0  0
   -3.4245    3.0387   -0.0282 C   0  0  0  0  0  0  0  0  0  0  0  0
   -3.5777    2.3193   -1.3740 C   0  0  0  0  0  0  0  0  0  0  0  0
    6.2660   -0.0607   -1.4646 C   0  0  0  0  0  0  0  0  0  0  0  0
    1.0408   -0.5311    0.7284 C   0  0  1  0  0  0  0  0  0  0  0  0
   -1.3564   -0.1159    0.0926 C   0  0  0  0  0  0  0  0  0  0  0  0
   -0.1611    0.3662    0.9073 C   0  0  2  0  0  0  0  0  0  0  0  0
   -1.6548   -1.5143    0.5525 C   0  0  2  0  0  0  0  0  0  0  0  0
    0.7275   -1.9825    0.9277 C   0  0  0  0  0  0  0  0  0  0  0  0
   -3.7031    0.2001    0.6838 C   0  0  0  0  0  0  0  0  0  0  0  0
   -0.5142   -2.4506    0.2606 C   0  0  0  0  0  0  0  0  0  0  0  0
   -4.0323   -1.2081    0.3803 C   0  0  2  0  0  0  0  0  0  0  0  0
   -2.8791   -1.9606   -0.2514 C   0  0  0  0  0  0  0  0  0  0  0  0
   -5.3043   -1.3946   -0.4428 C   0  0  0  0  0  0  0  0  0  0  0  0
   -0.1242    2.4510    1.8751 C   0  0  0  0  0  0  0  0  0  0  0  0
   -0.0043   -2.8636   -0.5469 F   0  0  0  0  0  0  0  0  0  0  0  0
    0.1853    1.7245   -0.0585 O   0  0  0  0  0  0  0  0  0  0  0  0
   -2.5347   -3.2081   -0.1191 O   0  0  0  0  0  0  0  0  0  0  0  0
   -4.9813   -2.0311    1.1102 O   0  0  0  0  0  0  0  0  0  0  0  0
   -6.1685   -1.4323   -0.6868 O   0  0  0  0  0  0  0  0  0  0  0  0
    1.9724   -0.3742    0.0005 N   0  0  0  0  0  0  0  0  0  0  0  0
    4.5571   -1.3573    0.1722 N   0  0  0  0  0  0  0  0  0  0  0  0
   -2.4272    0.6733   -0.6935 N   0  0  0  0  0  0  0  0  0  0  0  0
    3.8443    0.9835   -0.0229 C   0  0  2  0  0  0  0  0  0  0  0  0
    4.0697   -0.1961    0.8954 C   0  0  1  0  0  0  0  0  0  0  0  0
    2.6135    0.5743   -0.7955 C   0  0  0  0  0  0  0  0  0  0  0  0
    2.6125   -0.5236    1.2556 C   0  0  0  0  0  0  0  0  0  0  0  0
    5.0399    1.1570   -0.9460 C   0  0  0  0  0  0  0  0  0  0  0  0
   -2.3760    2.0299   -1.0653 C   0  0  0  0  0  0  0  0  0  0  0  0
    6.1912    0.3286   -0.4199 C   0  0  0  0  0  0  0  0  0  0  0  0
   -2.9370    3.0062   -0.0981 C   0  0  0  0  0  0  0  0  0  0  0  0
   -3.5282    2.8800   -1.4448 C   0  0  0  0  0  0  0  0  0  0  0  0
    5.8023   -1.1157   -0.4859 C   0  0  0  0  0  0  0  0  0  0  0  0
    0.5976   -0.5949   -0.0681 C   0  0  2  0  0  0  0  0  0  0  0  0
   -1.6815    0.3243    0.4845 C   0  0  2  0  0  0  0  0  0  0  0  0
   -0.2018    0.5317    0.4600 C   0  0  0  0  0  0  0  0  0  0  0  0
   -2.0034   -1.0981    0.8270 C   0  0  2  0  0  0  0  0  0  0  0  0
    0.2883   -1.9556    0.4897 C   0  0  0  0  0  0  0  0  0  0  0  0
   -3.7626    0.1778   -0.4393 C   0  0  0  0  0  0  0  0  0  0  0  0
   -0.8647   -1.8399    1.4405 C   0  0  0  0  0  0  0  0  0  0  0  0
   -3.8001   -1.2772   -0.8500 C   0  0  0  0  0  0  0  0  0  0  0  0
   -2.4783   -1.8711   -0.4121 C   0  0  0  0  0  0  0  0  0  0  0  0
   -4.9736   -2.0271   -0.2722 C   0  0  0  0  0  0  0  0  0  0  0  0
    0.6443    2.6656    0.8552 C   0  0  0  0  0  0  0  0  0  0  0  0
    1.3864   -1.6168   -2.6652 F   0  0  0  0  0  0  0  0  0  0  0  0
    0.1156   -0.3579    1.7803 O   0  0  0  0  0  0  0  0  0  0  0  0
   -2.5275   -2.7065   -0.7806 O   0  0  0  0  0  0  0  0  0  0  0  0
   -6.0361   -0.6440    0.9872 O   0  0  0  0  0  0  0  0  0  0  0  0
   -5.4358    0.2875   -0.9841 O   0  0  0  0  0  0  0  0  0  0  0  0
    2.1324   -0.3544   -0.1101 N   0  0  0  0  0  0  0  0  0  0  0  0
    5.5859   -0.4618   -0.9832 N   0  0  0  0  0  0  0  0  0  0  0  0
   -2.0979    0.9091    0.5461 N   0  0  0  0  0  0  0  0  0  0  0  0
    4.1476   -0.0538    0.9832 C   0  0  2  0  0  0  0  0  0  0  0  0
    4.4656   -0.9089   -0.1865 C   0  0  1  0  0  0  0  0  0  0  0  0
    2.6716   -0.4356    1.2281 C   0  0  0  0  0  0  0  0  0  0  0  0
    3.1816   -0.9537   -0.9606 C   0  0  0  0  0  0  0  0  0  0  0  0
    4.2719    1.4144    0.7212 C   0  0  0  0  0  0  0  0  0  0  0  0
   -2.0369    2.3340    0.5416 C   0  0  0  0  0  0  0  0  0  0  0  0
    5.6077    1.6996    0.0927 C   0  0  0  0  0  0  0  0  0  0  0  0
   -2.9402    3.2171    1.2536 C   0  0  0  0  0  0  0  0  0  0  0  0
   -3.0061    3.1413   -0.2815 C   0  0  0  0  0  0  0  0  0  0  0  0
    5.6176    0.9428   -1.2343 C   0  0  0  0  0  0  0  0  0  0  0  0
    0.9426   -1.1294   -0.3390 C   0  0  1  0  0  0  0  0  0  0  0  0
   -1.1357    0.2464   -0.2142 C   0  0  1  0  0  0  0  0  0  0  0  0
   -0.2260   -0.7125    0.5235 C   0  0  2  0  0  0  0  0  0  0  0  0
   -1.8215   -0.5058   -1.3343 C   0  0  0  0  0  0  0  0  0  0  0  0
    0.5568   -0.9065   -1.7888 C   0  0  2  0  0  0  0  0  0  0  0  0
   -3.2641    0.2855    0.9648 C   0  0  0  0  0  0  0  0  0  0  0  0
   -0.8303   -1.3899   -2.0693 C   0  0  0  0  0  0  0  0  0  0  0  0
   -3.7557   -0.9177    0.2443 C   0  0  2  0  0  0  0  0  0  0  0  0
   -2.9582   -1.3620   -0.9215 C   0  0  0  0  0  0  0  0  0  0  0  0
   -5.2438   -0.7967   -0.1233 C   0  0  0  0  0  0  0  0  0  0  0  0
   -0.2964   -1.1366    2.8134 C   0  0  0  0  0  0  0  0  0  0  0  0
    1.5836   -0.5628    3.2604 F   0  0  0  0  0  0  0  0  0  0  0  0
    0.0190    2.3984    0.6594 O   0  0  0  0  0  0  0  0  0  0  0  0
   -2.0560   -3.0633    0.9395 O   0  0  0  0  0  0  0  0  0  0  0  0
   -5.6816   -1.5416   -0.7074 O   0  0  0  0  0  0  0  0  0  0  0  0
   -3.8753   -1.3121   -2.0001 O   0  0  0  0  0  0  0  0  0  0  0  0
    1.5529   -0.5817    0.1057 N   0  0  0  0  0  0  0  0  0  0  0  0
    4.3241    0.1086   -2.0263 N   0  0  0  0  0  0  0  0  0  0  0  0
   -2.5216    0.6778   -0.0490 N   0  0  0  0  0  0  0  0  0  0  0  0
    3.7506   -1.4050   -0.1536 C   0  0  2  0  0  0  0  0  0  0  0  0
    3.3550   -0.7306   -1.4402 C   0  0  1  0  0  0  0  0  0  0  0  0
    2.4013   -1.6351    0.4871 C   0  0  0  0  0  0  0  0  0  0  0  0
    2.2388    0.1863   -0.9218 C   0  0  0  0  0  0  0  0  0  0  0  0
    4.5753   -0.4897    0.6719 C   0  0  0  0  0  0  0  0  0  0  0  0
   -2.9122    2.0522   -0.2561 C   0  0  0  0  0  0  0  0  0  0  0  0
    5.8335   -0.1392   -0.0836 C   0  0  0  0  0  0  0  0  0  0  0  0
   -4.2588    2.4972   -0.6127 C   0  0  0  0  0  0  0  0  0  0  0  0
   -3.1591    2.5599   -1.6359 C   0  0  0  0  0  0  0  0  0  0  0  0
    5.6473    0.0979   -1.5363 C   0  0  0  0  0  0  0  0  0  0  0  0
    1.0372    0.2889    1.0657 C   0  0  1  0  0  0  0  0  0  0  0  0
   -1.4849    0.5805    1.0081 C   0  0  0  0  0  0  0  0  0  0  0  0
   -0.1854    1.0244    0.4579 C   0  0  0  0  0  0  0  0  0  0  0  0
   -1.5507   -0.8296    1.4718 C   0  0  2  0  0  0  0  0  0  0  0  0
    0.6052   -0.2661    2.3723 C   0  0  0  0  0  0  0  0  0  0  0  0
   -3.7217    0.0477    0.5585 C   0  0  0  0  0  0  0  0  0  0  0  0
   -0.3178   -1.4252    2.0733 C   0  0  0  0  0  0  0  0  0  0  0  0
   -3.6298   -1.4480    0.3800 C   0  0  2  0  0  0  0  0  0  0  0  0
   -2.1487   -1.7799    0.4243 C   0  0  0  0  0  0  0  0  0  0  0  0
   -4.3289   -1.9215   -0.8513 C   0  0  0  0  0  0  0  0  0  0  0  0
    0.3144    3.1633   -0.4083 C   0  0  0  0  0  0  0  0  0  0  0  0
    1.2991    0.7687    3.0380 F   0  0  0  0  0  0  0  0  0  0  0  0
   -0.0281    1.8456   -1.3731 O   0  0  0  0  0  0  0  0  0  0  0  0
   -2.2843   -2.4700    1.2361 O   0  0  0  0  0  0  0  0  0  0  0  0
   -4.4860   -2.2556    0.4223 O   0  0  0  0  0  0  0  0  0  0  0  0
   -4.6295   -2.3898   -1.8272 O   0  0  0  0  0  0  0  0  0  0  0  0
    1.9850    0.2977    0.2054 N   0  0  0  0  0  0  0  0  0  0  0  0
    5.4263    0.3321   -0.7020 N   0  0  0  0  0  0  0  0  0  0  0  0
   -2.5328    1.0874   -0.8130 N   0  0  0  0  0  0  0  0  0  0  0  0
    3.6300   -1.2412   -0.1064 C   0  0  2  0  0  0  0  0  0  0  0  0
    4.0521    0.0228   -0.8146 C   0  0  1  0  0  0  0  0  0  0  0  0
    2.1020   -1.0188   -0.0795 C   0  0  0  0  0  0  0  0  0  0  0  0
    3.1423    1.0523   -0.1348 C   0  0  0  0  0  0  0  0  0  0  0  0
    4.0701   -1.1554    1.3268 C   0  0  0  0  0  0  0  0  0  0  0  0
   -3.3668    2.2747   -0.7560 C   0  0  0  0  0  0  0  0  0  0  0  0
    5.5424   -0.9262    1.4124 C   0  0  0  0  0  0  0  0  0  0  0  0
   -4.2822    2.5315    0.3681 C   0  0  0  0  0  0  0  0  0  0  0  0
   -4.8002    2.2435   -1.0386 C   0  0  0  0  0  0  0  0  0  0  0  0
    5.9976    0.2338    0.5921 C   0  0  0  0  0  0  0  0  0  0  0  0
    0.9088    1.0122    0.6809 C   0  0  0  0  0  0  0  0  0  0  0  0
   -1.5790    1.0106    0.2650 C   0  0  2  0  0  0  0  0  0  0  0  0
   -0.2085    0.9165   -0.3474 C   0  0  1  0  0  0  0  0  0  0  0  0
   -1.7593   -0.1919    1.1354 C   0  0  0  0  0  0  0  0  0  0  0  0
    0.3640    0.8190    2.0260 C   0  0  0  0  0  0  0  0  0  0  0  0
   -3.4041   -0.0453   -0.8910 C   0  0  0  0  0  0  0  0  0  0  0  0
   -0.5979   -0.3217    2.0921 C   0  0  0  0  0  0  0  0  0  0  0  0
   -2.6789   -1.3695   -0.8780 C   0  0  0  0  0  0  0  0  0  0  0  0
   -1.8241   -1.4807    0.3511 C   0  0  2  0  0  0  0  0  0  0  0  0
   -3.7658   -2.4481   -0.7608 C   0  0  0  0  0  0  0  0  0  0  0  0
    0.1837    1.2520   -2.6023 C   0  0  0  0  0  0  0  0  0  0  0  0
   -1.3024   -1.7050   -1.9933 H   0  0  0  0  0  0  0  0  0  0  0  0
   -5.4815   -1.4933   -2.1851 H   0  0  0  0  0  0  0  0  0  0  0  0
   -3.7231   -1.9712   -3.0082 H   0  0  0  0  0  0  0  0  0  0  0  0
    3.0451   -2.0805   -1.2767 H   0  0  0  0  0  0  0  0  0  0  0  0
    4.2753    0.3322    1.6111 H   0  0  0  0  0  0  0  0  0  0  0  0
    4.3234   -2.0377    1.3501 H   0  0  0  0  0  0  0  0  0  0  0  0
    3.4278    1.6876   -0.1308 H   0  0  0  0  0  0  0  0  0  0  0  0
    3.1562    0.2012   -1.2204 H   0  0  0  0  0  0  0  0  0  0  0  0
    2.1833   -1.5540    1.8934 H   0  0  0  0  0  0  0  0  0  0  0  0
    1.6808   -1.8699    0.2162 H   0  0  0  0  0  0  0  0  0  0  0  0
    6.3942    0.5111    0.6283 H   0  0  0  0  0  0  0  0  0  0  0  0
    5.5575    0.8060   -0.9657 H   0  0  0  0  0  0  0  0  0  0  0  0
   -3.0318    2.8201    1.6354 H   0  0  0  0  0  0  0  0  0  0  0  0
    6.5779   -1.8501    0.1679 H   0  0  0  0  0  0  0  0  0  0  0  0
    7.0232   -0.9424   -1.3259 H   0  0  0  0  0  0  0  0  0  0  0  0
   -5.3658    2.6467    2.4693 H   0  0  0  0  0  0  0  0  0  0  0  0
   -5.4301    0.8419    2.1347 H   0  0  0  0  0  0  0  0  0  0  0  0
   -4.9514    3.1761    0.0797 H   0  0  0  0  0  0  0  0  0  0  0  0
   -5.1340    1.3726   -0.2791 H   0  0  0  0  0  0  0  0  0  0  0  0
    5.5431   -2.7575   -1.9146 H   0  0  0  0  0  0  0  0  0  0  0  0
    4.8642   -1.1487   -2.2729 H   0  0  0  0  0  0  0  0  0  0  0  0
    0.6289   -0.4972   -0.6815 H   0  0  0  0  0  0  0  0  0  0  0  0
   -1.3775    2.2514    0.7542 H   0  0  0  0  0  0  0  0  0  0  0  0
   -0.5851   -0.6007    1.4037 H   0  0  0  0  0  0  0  0  0  0  0  0
   -2.4622    1.9567   -1.1828 H   0  0  0  0  0  0  0  0  0  0  0  0
    0.5014    2.4957   -0.1010 H   0  0  0  0  0  0  0  0  0  0  0  0
   -3.2476   -1.1838    1.6596 H   0  0  0  0  0  0  0  0  0  0  0  0
   -4.4525   -0.2585    0.7324 H   0  0  0  0  0  0  0  0  0  0  0  0
   -0.5957    2.3934   -2.3563 H   0  0  0  0  0  0  0  0  0  0  0  0
   -0.1943    0.6606   -2.4421 H   0  0  0  0  0  0  0  0  0  0  0  0
   -1.9892   -1.7911   -0.2055 H   0  0  0  0  0  0  0  0  0  0  0  0
   -3.3011    0.1054   -2.1257 H   0  0  0  0  0  0  0  0  0  0  0  0
   -4.2418   -2.7769   -0.3692 H   0  0  0  0  0  0  0  0  0  0  0  0
   -0.9308    0.1752    3.5124 H   0  0  0  0  0  0  0  0  0  0  0  0
    0.3675    1.2383    4.0950 H   0  0  0  0  0  0  0  0  0  0  0  0
    0.8264   -0.3555    3.4302 H   0  0  0  0  0  0  0  0  0  0  0  0
   -2.9810   -3.6589    0.7768 H   0  0  0  0  0  0  0  0  0  0  0  0
   -6.7664   -0.1091   -0.2725 H   0  0  0  0  0  0  0  0  0  0  0  0
   -6.0019   -0.6584   -2.1240 H   0  0  0  0  0  0  0  0  0  0  0  0
    4.9767   -1.3063   -2.3884 H   0  0  0  0  0  0  0  0  0  0  0  0
    3.8808    0.1820    1.3035 H   0  0  0  0  0  0  0  0  0  0  0  0
    4.6387   -1.5562   -0.1091 H   0  0  0  0  0  0  0  0  0  0  0  0
    2.3195    1.7309    0.5522 H   0  0  0  0  0  0  0  0  0  0  0  0
    2.7654    1.5331   -1.2143 H   0  0  0  0  0  0  0  0  0  0  0  0
    2.5913   -0.8111   -2.1199 H   0  0  0  0  0  0  0  0  0  0  0  0
    2.5465   -2.1268   -0.9641 H   0  0  0  0  0  0  0  0  0  0  0  0
    5.2875    2.0243    0.9955 H   0  0  0  0  0  0  0  0  0  0  0  0
    5.0318    1.9932   -0.8439 H   0  0  0  0  0  0  0  0  0  0  0  0
   -1.4901    2.2968   -0.7639 H   0  0  0  0  0  0  0  0  0  0  0  0
    7.2740    1.0870    0.0708 H   0  0  0  0  0  0  0  0  0  0  0  0
    6.2937   -0.3291    0.6451 H   0  0  0  0  0  0  0  0  0  0  0  0
   -3.0783    4.1056   -0.0804 H   0  0  0  0  0  0  0  0  0  0  0  0
   -4.2722    2.8928    0.6463 H   0  0  0  0  0  0  0  0  0  0  0  0
   -4.4468    1.6947   -1.5681 H   0  0  0  0  0  0  0  0  0  0  0  0
   -3.3283    2.9674   -2.2639 H   0  0  0  0  0  0  0  0  0  0  0  0
    6.9858   -0.9134   -1.5593 H   0  0  0  0  0  0  0  0  0  0  0  0
    6.5955    0.7089   -2.1875 H   0  0  0  0  0  0  0  0  0  0  0  0
    1.6488   -0.2707    1.6836 H   0  0  0  0  0  0  0  0  0  0  0  0
   -1.0062   -0.1830   -0.9706 H   0  0  0  0  0  0  0  0  0  0  0  0
   -0.5050    0.2269    1.9808 H   0  0  0  0  0  0  0  0  0  0  0  0
   -1.8971   -1.4549    1.6364 H   0  0  0  0  0  0  0  0  0  0  0  0
    1.6012   -2.5954    0.7368 H   0  0  0  0  0  0  0  0  0  0  0  0
   -3.8133    0.3779    1.7928 H   0  0  0  0  0  0  0  0  0  0  0  0
   -4.5263    0.8282    0.2464 H   0  0  0  0  0  0  0  0  0  0  0  0
   -0.4709   -2.6289   -0.8050 H   0  0  0  0  0  0  0  0  0  0  0  0
   -0.7939   -3.4328    0.7507 H   0  0  0  0  0  0  0  0  0  0  0  0
   -4.2500   -1.7862    1.3325 H   0  0  0  0  0  0  0  0  0  0  0  0
   -2.7987   -1.6597   -1.2927 H   0  0  0  0  0  0  0  0  0  0  0  0
   -5.5242   -2.5003   -0.5505 H   0  0  0  0  0  0  0  0  0  0  0  0
   -1.1685    2.3985    2.2232 H   0  0  0  0  0  0  0  0  0  0  0  0
    0.1408    3.5254    1.6378 H   0  0  0  0  0  0  0  0  0  0  0  0
    0.5875    2.1621    2.6720 H   0  0  0  0  0  0  0  0  0  0  0  0
   -2.9147   -3.3409    0.7828 H   0  0  0  0  0  0  0  0  0  0  0  0
   -5.5615   -1.3015    1.4473 H   0  0  0  0  0  0  0  0  0  0  0  0
   -6.4968   -1.8427   -1.5242 H   0  0  0  0  0  0  0  0  0  0  0  0
    3.8299   -1.7543   -0.4342 H   0  0  0  0  0  0  0  0  0  0  0  0
    3.6909    1.8742    0.6086 H   0  0  0  0  0  0  0  0  0  0  0  0
    4.6694    0.0333    1.7729 H   0  0  0  0  0  0  0  0  0  0  0  0
    2.0808    1.4062   -1.2230 H   0  0  0  0  0  0  0  0  0  0  0  0
    3.0404   -0.0196   -1.6913 H   0  0  0  0  0  0  0  0  0  0  0  0
    2.6460   -1.5124    1.7054 H   0  0  0  0  0  0  0  0  0  0  0  0
    2.3268    0.1801    2.0487 H   0  0  0  0  0  0  0  0  0  0  0  0
    5.3520    2.2201   -0.9395 H   0  0  0  0  0  0  0  0  0  0  0  0
    4.7920    0.7783   -1.9563 H   0  0  0  0  0  0  0  0  0  0  0  0
   -1.4363    2.3017   -1.6416 H   0  0  0  0  0  0  0  0  0  0  0  0
    7.0569    0.4862   -1.0985 H   0  0  0  0  0  0  0  0  0  0  0  0
    6.4855    0.6260    0.6025 H   0  0  0  0  0  0  0  0  0  0  0  0
   -2.2684    3.8707    0.1307 H   0  0  0  0  0  0  0  0  0  0  0  0
   -3.4325    2.6219    0.8138 H   0  0  0  0  0  0  0  0  0  0  0  0
   -4.5408    2.5311   -1.6294 H   0  0  0  0  0  0  0  0  0  0  0  0
   -3.3338    3.7834   -2.1050 H   0  0  0  0  0  0  0  0  0  0  0  0
    5.7232   -1.3913   -1.5736 H   0  0  0  0  0  0  0  0  0  0  0  0
    6.6151   -1.7442   -0.0673 H   0  0  0  0  0  0  0  0  0  0  0  0
    0.3843   -0.6432   -1.2200 H   0  0  0  0  0  0  0  0  0  0  0  0
   -2.0916    0.9643    1.2943 H   0  0  0  0  0  0  0  0  0  0  0  0
    0.0570    0.6161    1.5688 H   0  0  0  0  0  0  0  0  0  0  0  0
   -2.8545   -1.1876    1.5519 H   0  0  0  0  0  0  0  0  0  0  0  0
    1.1091   -2.4552    1.0238 H   0  0  0  0  0  0  0  0  0  0  0  0
   -4.0085    0.2225    0.6633 H   0  0  0  0  0  0  0  0  0  0  0  0
   -4.5761    0.6744   -0.9372 H   0  0  0  0  0  0  0  0  0  0  0  0
   -1.1784   -2.8422    1.7283 H   0  0  0  0  0  0  0  0  0  0  0  0
   -0.5240   -1.3130    2.3405 H   0  0  0  0  0  0  0  0  0  0  0  0
   -3.9288   -1.2920   -1.9641 H   0  0  0  0  0  0  0  0  0  0  0  0
   -1.7874   -1.6471   -1.2746 H   0  0  0  0  0  0  0  0  0  0  0  0
   -4.9963   -3.0698   -0.6679 H   0  0  0  0  0  0  0  0  0  0  0  0
    1.5211    2.3125    1.4199 H   0  0  0  0  0  0  0  0  0  0  0  0
    0.9824    3.5495    0.2592 H   0  0  0  0  0  0  0  0  0  0  0  0
   -0.1278    3.0138    1.5593 H   0  0  0  0  0  0  0  0  0  0  0  0
   -3.0689   -3.1165   -0.0653 H   0  0  0  0  0  0  0  0  0  0  0  0
   -6.7957   -0.0126    0.7815 H   0  0  0  0  0  0  0  0  0  0  0  0
   -5.9522    0.0703   -1.7756 H   0  0  0  0  0  0  0  0  0  0  0  0
    5.5521   -0.9715   -1.8851 H   0  0  0  0  0  0  0  0  0  0  0  0
    4.7117   -0.2949    1.9042 H   0  0  0  0  0  0  0  0  0  0  0  0
    4.7519   -1.9256    0.1800 H   0  0  0  0  0  0  0  0  0  0  0  0
    2.6729   -1.4374    1.6515 H   0  0  0  0  0  0  0  0  0  0  0  0
    2.3147    0.3687    1.9049 H   0  0  0  0  0  0  0  0  0  0  0  0
    3.2529   -0.4469   -1.9287 H   0  0  0  0  0  0  0  0  0  0  0  0
    2.9503   -2.0532   -1.1012 H   0  0  0  0  0  0  0  0  0  0  0  0
    4.2087    1.9653    1.6813 H   0  0  0  0  0  0  0  0  0  0  0  0
    3.4759    1.8157    0.0686 H   0  0  0  0  0  0  0  0  0  0  0  0
   -0.9820    2.7019    0.4306 H   0  0  0  0  0  0  0  0  0  0  0  0
    5.7493    2.7624   -0.1458 H   0  0  0  0  0  0  0  0  0  0  0  0
    6.4352    1.2825    0.7049 H   0  0  0  0  0  0  0  0  0  0  0  0
   -2.5510    4.1925    1.6731 H   0  0  0  0  0  0  0  0  0  0  0  0
   -3.8889    2.9307    1.7198 H   0  0  0  0  0  0  0  0  0  0  0  0
   -2.6648    4.0405   -0.8198 H   0  0  0  0  0  0  0  0  0  0  0  0
   -3.8240    2.5758   -0.7430 H   0  0  0  0  0  0  0  0  0  0  0  0
    6.5868    1.1813   -1.7090 H   0  0  0  0  0  0  0  0  0  0  0  0
    4.7996    1.3057   -1.8931 H   0  0  0  0  0  0  0  0  0  0  0  0
    1.2190   -2.1960   -0.2390 H   0  0  0  0  0  0  0  0  0  0  0  0
   -0.5236    1.0375   -0.7510 H   0  0  0  0  0  0  0  0  0  0  0  0
   -0.8437   -1.6607    0.6175 H   0  0  0  0  0  0  0  0  0  0  0  0
   -2.1787    0.2509   -2.0609 H   0  0  0  0  0  0  0  0  0  0  0  0
    0.7107    0.1591   -2.1013 H   0  0  0  0  0  0  0  0  0  0  0  0
   -3.1663    0.0914    2.0804 H   0  0  0  0  0  0  0  0  0  0  0  0
   -4.1125    1.0311    0.9520 H   0  0  0  0  0  0  0  0  0  0  0  0
   -1.0035   -1.3726   -3.1691 H   0  0  0  0  0  0  0  0  0  0  0  0
   -0.8944   -2.4415   -1.7501 H   0  0  0  0  0  0  0  0  0  0  0  0
   -3.7537   -1.7719    0.9892 H   0  0  0  0  0  0  0  0  0  0  0  0
   -3.6516   -1.4285   -1.8165 H   0  0  0  0  0  0  0  0  0  0  0  0
   -5.5854   -1.6956   -0.6728 H   0  0  0  0  0  0  0  0  0  0  0  0
    0.1016   -2.1917    2.7212 H   0  0  0  0  0  0  0  0  0  0  0  0
   -1.3562   -1.1207    3.0638 H   0  0  0  0  0  0  0  0  0  0  0  0
    0.2329   -0.7525    3.7394 H   0  0  0  0  0  0  0  0  0  0  0  0
   -1.5377   -3.1580    1.7542 H   0  0  0  0  0  0  0  0  0  0  0  0
   -6.0338   -1.0927   -1.5114 H   0  0  0  0  0  0  0  0  0  0  0  0
   -4.1823   -1.7733   -2.8170 H   0  0  0  0  0  0  0  0  0  0  0  0
    4.3228   -0.0160   -3.0619 H   0  0  0  0  0  0  0  0  0  0  0  0
    4.2855   -2.3647   -0.3055 H   0  0  0  0  0  0  0  0  0  0  0  0
    2.9304   -1.5069   -2.1127 H   0  0  0  0  0  0  0  0  0  0  0  0
    2.5443   -1.8423    1.5316 H   0  0  0  0  0  0  0  0  0  0  0  0
    2.0266   -2.5924    0.0005 H   0  0  0  0  0  0  0  0  0  0  0  0
    2.7488    1.0663   -0.4694 H   0  0  0  0  0  0  0  0  0  0  0  0
    1.5790    0.4024   -1.7586 H   0  0  0  0  0  0  0  0  0  0  0  0
    4.9213   -1.0534    1.5900 H   0  0  0  0  0  0  0  0  0  0  0  0
    4.0600    0.4125    1.0075 H   0  0  0  0  0  0  0  0  0  0  0  0
   -2.3823    2.7564    0.4596 H   0  0  0  0  0  0  0  0  0  0  0  0
    6.2762    0.7548    0.4462 H   0  0  0  0  0  0  0  0  0  0  0  0
    6.5690   -0.9534    0.0679 H   0  0  0  0  0  0  0  0  0  0  0  0
   -4.5980    3.5213   -0.2508 H   0  0  0  0  0  0  0  0  0  0  0  0
   -5.1067    1.9002   -0.9353 H   0  0  0  0  0  0  0  0  0  0  0  0
   -3.1600    1.8436   -2.4965 H   0  0  0  0  0  0  0  0  0  0  0  0
   -2.7200    3.5347   -1.8763 H   0  0  0  0  0  0  0  0  0  0  0  0
    6.3119   -0.5929   -2.1383 H   0  0  0  0  0  0  0  0  0  0  0  0
    6.0901    1.1131   -1.7634 H   0  0  0  0  0  0  0  0  0  0  0  0
    1.7865    1.0770    1.2802 H   0  0  0  0  0  0  0  0  0  0  0  0
   -1.8937    1.2964    1.7813 H   0  0  0  0  0  0  0  0  0  0  0  0
   -0.1576    0.8635   -0.6266 H   0  0  0  0  0  0  0  0  0  0  0  0
   -2.3282   -0.8984    2.3203 H   0  0  0  0  0  0  0  0  0  0  0  0
   -0.0374    0.5077    2.8686 H   0  0  0  0  0  0  0  0  0  0  0  0
   -3.7625    0.3563    1.6265 H   0  0  0  0  0  0  0  0  0  0  0  0
   -4.6519    0.3641    0.0997 H   0  0  0  0  0  0  0  0  0  0  0  0
    0.1518   -2.1283    1.3408 H   0  0  0  0  0  0  0  0  0  0  0  0
   -0.4820   -1.9590    3.0302 H   0  0  0  0  0  0  0  0  0  0  0  0
   -4.1615   -1.9004    1.2683 H   0  0  0  0  0  0  0  0  0  0  0  0
   -1.6758   -1.6327   -0.5420 H   0  0  0  0  0  0  0  0  0  0  0  0
   -4.3380   -3.0296   -0.8989 H   0  0  0  0  0  0  0  0  0  0  0  0
   -0.4680    3.1020   -1.1831 H   0  0  0  0  0  0  0  0  0  0  0  0
    1.2412    2.8119   -0.9045 H   0  0  0  0  0  0  0  0  0  0  0  0
    0.4263    4.2583   -0.1344 H   0  0  0  0  0  0  0  0  0  0  0  0
   -1.6078   -3.1683    1.4083 H   0  0  0  0  0  0  0  0  0  0  0  0
   -5.4365   -2.0905    0.2811 H   0  0  0  0  0  0  0  0  0  0  0  0
   -4.5702   -3.2152   -2.3965 H   0  0  0  0  0  0  0  0  0  0  0  0
    6.0274    0.0825   -1.4873 H   0  0  0  0  0  0  0  0  0  0  0  0
    3.9018   -2.1610   -0.6169 H   0  0  0  0  0  0  0  0  0  0  0  0
    3.7997   -0.0995   -1.8892 H   0  0  0  0  0  0  0  0  0  0  0  0
    1.7037   -1.8261    0.5043 H   0  0  0  0  0  0  0  0  0  0  0  0
    1.8015   -1.2223   -1.1530 H   0  0  0  0  0  0  0  0  0  0  0  0
    3.6468    1.5480    0.7040 H   0  0  0  0  0  0  0  0  0  0  0  0
    2.8605    1.7670   -0.9531 H   0  0  0  0  0  0  0  0  0  0  0  0
    3.7785   -2.0261    1.9357 H   0  0  0  0  0  0  0  0  0  0  0  0
    3.5756   -0.2351    1.7546 H   0  0  0  0  0  0  0  0  0  0  0  0
   -2.7993    3.1821   -1.1138 H   0  0  0  0  0  0  0  0  0  0  0  0
    6.1018   -1.8717    1.2084 H   0  0  0  0  0  0  0  0  0  0  0  0
    5.7712   -0.6732    2.4894 H   0  0  0  0  0  0  0  0  0  0  0  0
   -4.4002    3.5638    0.7722 H   0  0  0  0  0  0  0  0  0  0  0  0
   -4.5883    1.7614    1.1004 H   0  0  0  0  0  0  0  0  0  0  0  0
   -5.3828    1.3223   -1.2128 H   0  0  0  0  0  0  0  0  0  0  0  0
   -5.2580    3.1409   -1.5262 H   0  0  0  0  0  0  0  0  0  0  0  0
    7.1174    0.1418    0.4763 H   0  0  0  0  0  0  0  0  0  0  0  0
    5.8553    1.1851    1.1723 H   0  0  0  0  0  0  0  0  0  0  0  0
    1.1946    2.1234    0.6269 H   0  0  0  0  0  0  0  0  0  0  0  0
   -1.7193    1.9227    0.8820 H   0  0  0  0  0  0  0  0  0  0  0  0
   -0.1329   -0.0834   -0.8258 H   0  0  0  0  0  0  0  0  0  0  0  0
   -2.7374   -0.0700    1.6544 H   0  0  0  0  0  0  0  0  0  0  0  0
   -0.2509    1.7359    2.2914 H   0  0  0  0  0  0  0  0  0  0  0  0
   -4.1069   -0.0621   -0.0286 H   0  0  0  0  0  0  0  0  0  0  0  0
   -3.9507    0.0184   -1.8578 H   0  0  0  0  0  0  0  0  0  0  0  0
   -0.0608   -1.3070    1.9862 H   0  0  0  0  0  0  0  0  0  0  0  0
   -1.0748   -0.4076    3.1141 H   0  0  0  0  0  0  0  0  0  0  0  0
   -2.1164   -1.5294   -1.8088 H   0  0  0  0  0  0  0  0  0  0  0  0
   -0.8060   -1.7915    0.0474 H   0  0  0  0  0  0  0  0  0  0  0  0
   -3.3171   -3.4489   -0.7053 H   0  0  0  0  0  0  0  0  0  0  0  0
   -0.6425    0.6001   -2.9431 H   0  0  0  0  0  0  0  0  0  0  0  0
    0.1897    2.1019   -3.3476 H   0  0  0  0  0  0  0  0  0  0  0  0
    1.1577    0.7054   -2.6310 H   0  0  0  0  0  0  0  0  0  0  0  0
  7 10  1  0
  9 10  1  0
  6 11  1  0
  9 11  1  0
  6 12  1  0
 10 12  1  0
  9 13  1  0
  8 14  1  0
 13 15  1  0
 14 16  1  0
 14 17  1  0
 16 17  1  0
  7 18  1  0
 15 18  1  0
  6 19  1  0
  8 20  1  0
  2 21  1  0
 19 21  1  0
 20 21  1  0
 20 22  1  0
  1 23  1  0
 19 23  1  0
  8 24  1  0
 22 25  1  0
 23 25  1  0
 24 26  1  0
 22 27  1  0
 26 27  1  0
 27  3  1  0
  4 28  1  0
 26 28  1  0
 28  5  1  0
  2 29  1  0
 36 39  1  0
 38 39  1  0
 35 40  1  0
 38 40  1  0
 35 41  1  0
 39 41  1  0
 38 42  1  0
 37 43  1  0
 42 44  1  0
 43 45  1  0
 43 46  1  0
 45 46  1  0
 36 47  1  0
 44 47  1  0
 35 48  1  0
 37 49  1  0
 31 50  1  0
 48 50  1  0
 49 50  1  0
 49 51  1  0
 30 52  1  0
 48 52  1  0
 37 53  1  0
 51 54  1  0
 52 54  1  0
 53 55  1  0
 51 56  1  0
 55 56  1  0
 56 32  1  0
 33 57  1  0
 55 57  1  0
 57 34  1  0
 31 58  1  0
 65 68  1  0
 67 68  1  0
 64 69  1  0
 67 69  1  0
 64 70  1  0
 68 70  1  0
 67 71  1  0
 66 72  1  0
 71 73  1  0
 72 74  1  0
 72 75  1  0
 74 75  1  0
 65 76  1  0
 73 76  1  0
 64 77  1  0
 66 78  1  0
 60 79  1  0
 77 79  1  0
 78 79  1  0
 78 80  1  0
 59 81  1  0
 77 81  1  0
 66 82  1  0
 80 83  1  0
 81 83  1  0
 82 84  1  0
 80 85  1  0
 84 85  1  0
 85 61  1  0
 62 86  1  0
 84 86  1  0
 86 63  1  0
 60 87  1  0
 94 97  1  0
 96 97  1  0
 93 98  1  0
 96 98  1  0
 93 99  1  0
 97 99  1  0
 96100  1  0
 95101  1  0
100102  1  0
101103  1  0
101104  1  0
103104  1  0
 94105  1  0
102105  1  0
 93106  1  0
 95107  1  0
 89108  1  0
106108  1  0
107108  1  0
107109  1  0
 88110  1  0
106110  1  0
 95111  1  0
109112  1  0
110112  1  0
111113  1  0
109114  1  0
113114  1  0
114 90  1  0
 91115  1  0
113115  1  0
115 92  1  0
 89116  1  0
123126  1  0
125126  1  0
122127  1  0
125127  1  0
122128  1  0
126128  1  0
125129  1  0
124130  1  0
129131  1  0
130132  1  0
130133  1  0
132133  1  0
123134  1  0
131134  1  0
122135  1  0
124136  1  0
118137  1  0
135137  1  0
136137  1  0
136138  1  0
117139  1  0
135139  1  0
124140  1  0
138141  1  0
139141  1  0
140142  1  0
138143  1  0
142143  1  0
143119  1  0
120144  1  0
142144  1  0
144121  1  0
118145  1  0
152155  1  0
154155  1  0
151156  1  0
154156  1  0
151157  1  0
155157  1  0
154158  1  0
153159  1  0
158160  1  0
159161  1  0
159162  1  0
161162  1  0
152163  1  0
160163  1  0
151164  1  0
153165  1  0
147166  1  0
164166  1  0
165166  1  0
165167  1  0
146168  1  0
164168  1  0
153169  1  0
167170  1  0
168170  1  0
169171  1  0
167172  1  0
171172  1  0
172148  1  0
149173  1  0
171173  1  0
173150  1  0
147174  1  0
  3175  1  0
  4176  1  0
  5177  1  0
  7178  1  0
  9179  1  1
 10180  1  1
 11181  1  0
 11182  1  0
 12183  1  0
 12184  1  0
 13185  1  0
 13186  1  0
 14187  1  0
 15188  1  0
 15189  1  0
 16190  1  0
 16191  1  0
 17192  1  0
 17193  1  0
 18194  1  0
 18195  1  0
 19196  1  6
 20197  1  1
 21198  1  1
 22199  1  0
 23200  1  0
 24201  1  0
 24202  1  0
 25203  1  0
 25204  1  0
 26205  1  1
 27206  1  0
 28207  1  0
 29208  1  0
 29209  1  0
 29210  1  0
 32211  1  0
 33212  1  0
 34213  1  0
 36214  1  0
 38215  1  1
 39216  1  1
 40217  1  0
 40218  1  0
 41219  1  0
 41220  1  0
 42221  1  0
 42222  1  0
 43223  1  0
 44224  1  0
 44225  1  0
 45226  1  0
 45227  1  0
 46228  1  0
 46229  1  0
 47230  1  0
 47231  1  0
 48232  1  1
 49233  1  0
 50234  1  1
 51235  1  1
 52236  1  0
 53237  1  0
 53238  1  0
 54239  1  0
 54240  1  0
 55241  1  1
 56242  1  0
 57243  1  0
 58244  1  0
 58245  1  0
 58246  1  0
 61247  1  0
 62248  1  0
 63249  1  0
 65250  1  0
 67251  1  1
 68252  1  1
 69253  1  0
 69254  1  0
 70255  1  0
 70256  1  0
 71257  1  0
 71258  1  0
 72259  1  0
 73260  1  0
 73261  1  0
 74262  1  0
 74263  1  0
 75264  1  0
 75265  1  0
 76266  1  0
 76267  1  0
 77268  1  6
 78269  1  1
 79270  1  0
 80271  1  1
 81272  1  0
 82273  1  0
 82274  1  0
 83275  1  0
 83276  1  0
 84277  1  0
 85278  1  0
 86279  1  0
 87280  1  0
 87281  1  0
 87282  1  0
 90283  1  0
 91284  1  0
 92285  1  0
 94286  1  0
 96287  1  1
 97288  1  1
 98289  1  0
 98290  1  0
 99291  1  0
 99292  1  0
100293  1  0
100294  1  0
101295  1  0
102296  1  0
102297  1  0
103298  1  0
103299  1  0
104300  1  0
104301  1  0
105302  1  0
105303  1  0
106304  1  6
107305  1  6
108306  1  1
109307  1  0
110308  1  6
111309  1  0
111310  1  0
112311  1  0
112312  1  0
113313  1  1
114314  1  0
115315  1  0
116316  1  0
116317  1  0
116318  1  0
119319  1  0
120320  1  0
121321  1  0
123322  1  0
125323  1  6
126324  1  6
127325  1  0
127326  1  0
128327  1  0
128328  1  0
129329  1  0
129330  1  0
130331  1  0
131332  1  0
131333  1  0
132334  1  0
132335  1  0
133336  1  0
133337  1  0
134338  1  0
134339  1  0
135340  1  1
136341  1  0
137342  1  0
138343  1  1
139344  1  0
140345  1  0
140346  1  0
141347  1  0
141348  1  0
142349  1  1
143350  1  0
144351  1  0
145352  1  0
145353  1  0
145354  1  0
148355  1  0
149356  1  0
150357  1  0
152358  1  0
154359  1  6
155360  1  6
156361  1  0
156362  1  0
157363  1  0
157364  1  0
158365  1  0
158366  1  0
159367  1  0
160368  1  0
160369  1  0
161370  1  0
161371  1  0
162372  1  0
162373  1  0
163374  1  0
163375  1  0
164376  1  0
165377  1  1
166378  1  6
167379  1  0
168380  1  0
169381  1  0
169382  1  0
170383  1  0
170384  1  0
171385  1  0
172386  1  6
173387  1  0
174388  1  0
174389  1  0
174390  1  0
M  END
>  <PDBID>  (1) 
5CDQ

>  <PDB ID>  (1) 
5CDQ

>  <Generic Name>  (1) 
Moxifloxacin

>  <Brand Name>  (1) 
Act Moxifloxacin#Apo-moxifloxacin#Auro-moxifloxacin#Avelox#Avelox Abc Pack#Avelox I.V.#Bio-moxifloxacin#Dom-moxifloxacin#Ipg-moxifloxacin#Jamp-moxifloxacin#Jamp-moxifloxacin Tablets#Mar-moxifloxacin#Med-moxifloxacin#Moxeza#Moxifloxacin#Moxifloxacin Hydrochloride#Moxifloxacin Injection#Mylan-moxifloxacin#Mylan-moxifloxacin HCl Ophthalmic Solution#PHL-moxifloxacin#PMS-moxifloxacin#Priva-moxifloxacin#Riva-moxifloxacin#Sandoz Moxifloxacin#Teva-moxifloxacin#Torrent-moxifloxacin#Vigamox

>  <DrugBank ID>  (1) 
DB00218

>  <ATC Codes>  (1) 
J01MA14#S01AE07

>  <Ligand ID>  (1) 
MFX

>  <Target Name>  (1) 
DNA gyrase subunit A

>  <UniProt ID>  (1) 
P43700

>  <PDB ID.1>  (1) 
5CDQ

>  <Seq. Identity>  (1) 
53%

$$$$
