PDB_DB01128_04
     RDKit          3D

 63 64  0  0  0  0  0  0  0  0999 V2000
    4.4970    0.9697    1.1059 C   0  0  0  0  0  0  0  0  0  0  0  0
    5.2779    2.1538    0.5208 C   0  0  0  0  0  0  0  0  0  0  0  0
    6.6879    1.6958    0.2258 C   0  0  0  0  0  0  0  0  0  0  0  0
    7.3230    2.6968   -0.5006 F   0  0  0  0  0  0  0  0  0  0  0  0
    6.7025    0.3950   -0.5651 C   0  0  0  0  0  0  0  0  0  0  0  0
    5.3081    0.0840   -1.0478 C   0  0  0  0  0  0  0  0  0  0  0  0
    4.3654   -0.1570    0.1457 C   0  0  0  0  0  0  0  0  0  0  0  0
    2.7843   -0.3891   -0.4921 S   0  0  0  0  0  0  0  0  0  0  0  0
    2.9314   -1.4539   -1.6791 O   0  0  0  0  0  0  0  0  0  0  0  0
    2.2461    1.0507   -1.0597 O   0  0  0  0  0  0  0  0  0  0  0  0
    1.7370   -0.9657    0.7242 C   0  0  0  0  0  0  0  0  0  0  0  0
    0.3416   -1.1287    0.1813 C   0  0  1  0  0  0  0  0  0  0  0  0
   -0.1398    0.0910   -0.2346 O   0  0  0  0  0  0  0  0  0  0  0  0
    0.4532   -1.9942   -1.0929 C   0  0  0  0  0  0  0  0  0  0  0  0
   -0.6216   -1.8186    1.0764 C   0  0  1  0  0  0  0  0  0  0  0  0
   -0.8590   -1.0552    2.2363 O   0  0  0  0  0  0  0  0  0  0  0  0
   -1.8212   -2.1104    0.4456 N   0  0  0  0  0  0  0  0  0  0  0  0
   -2.7212   -1.1534   -0.0011 C   0  0  2  0  0  0  0  0  0  0  0  0
   -3.3286   -0.3988    1.1572 C   0  0  0  0  0  0  0  0  0  0  0  0
   -3.9276   -1.7640   -0.7394 C   0  0  0  0  0  0  0  0  0  0  0  0
   -4.5576   -0.5789   -1.4546 C   0  0  0  0  0  0  0  0  0  0  0  0
   -5.0900    0.4281   -0.4686 C   0  0  0  0  0  0  0  0  0  0  0  0
   -4.6806    1.8049   -0.9299 C   0  0  0  0  0  0  0  0  0  0  0  0
   -5.2374    2.0383   -2.2558 N   0  0  0  0  0  0  0  0  0  0  0  0
   -4.7000    0.1237    0.9456 C   0  0  0  0  0  0  0  0  0  0  0  0
   -4.8989    1.2912    1.8860 C   0  0  0  0  0  0  0  0  0  0  0  0
   -4.0015    2.3141    1.6872 F   0  0  0  0  0  0  0  0  0  0  0  0
   -6.2095    1.7424    1.8547 F   0  0  0  0  0  0  0  0  0  0  0  0
   -4.6963    0.8142    3.1679 F   0  0  0  0  0  0  0  0  0  0  0  0
    4.9921    0.7061    2.0652 H   0  0  0  0  0  0  0  0  0  0  0  0
    3.4803    1.3722    1.3085 H   0  0  0  0  0  0  0  0  0  0  0  0
    4.7656    2.5167   -0.3884 H   0  0  0  0  0  0  0  0  0  0  0  0
    5.3338    2.9229    1.3222 H   0  0  0  0  0  0  0  0  0  0  0  0
    7.2409    1.5999    1.1772 H   0  0  0  0  0  0  0  0  0  0  0  0
    7.0372   -0.4419    0.0893 H   0  0  0  0  0  0  0  0  0  0  0  0
    7.3472    0.5353   -1.4362 H   0  0  0  0  0  0  0  0  0  0  0  0
    5.3534   -0.8480   -1.6371 H   0  0  0  0  0  0  0  0  0  0  0  0
    4.9070    0.9178   -1.6383 H   0  0  0  0  0  0  0  0  0  0  0  0
    4.7478   -1.0997    0.6103 H   0  0  0  0  0  0  0  0  0  0  0  0
    3.4832   -2.2426   -1.4213 H   0  0  0  0  0  0  0  0  0  0  0  0
    2.4763    1.8264   -0.4990 H   0  0  0  0  0  0  0  0  0  0  0  0
    1.7124   -0.2415    1.5526 H   0  0  0  0  0  0  0  0  0  0  0  0
    2.0451   -1.9276    1.1516 H   0  0  0  0  0  0  0  0  0  0  0  0
    0.2909    0.8012    0.3100 H   0  0  0  0  0  0  0  0  0  0  0  0
    0.6741   -1.3392   -1.9319 H   0  0  0  0  0  0  0  0  0  0  0  0
   -0.5325   -2.4540   -1.2732 H   0  0  0  0  0  0  0  0  0  0  0  0
    1.1855   -2.7921   -0.9476 H   0  0  0  0  0  0  0  0  0  0  0  0
   -0.1488   -2.7741    1.4381 H   0  0  0  0  0  0  0  0  0  0  0  0
   -0.2757   -0.2556    2.1961 H   0  0  0  0  0  0  0  0  0  0  0  0
   -2.0541   -3.1134    0.2799 H   0  0  0  0  0  0  0  0  0  0  0  0
   -2.2447   -0.4512   -0.7274 H   0  0  0  0  0  0  0  0  0  0  0  0
   -3.3318   -1.1545    2.0090 H   0  0  0  0  0  0  0  0  0  0  0  0
   -2.5833    0.3587    1.5202 H   0  0  0  0  0  0  0  0  0  0  0  0
   -3.6365   -2.4795   -1.5048 H   0  0  0  0  0  0  0  0  0  0  0  0
   -4.5722   -2.2175    0.0058 H   0  0  0  0  0  0  0  0  0  0  0  0
   -5.3287   -0.9934   -2.1218 H   0  0  0  0  0  0  0  0  0  0  0  0
   -3.7622   -0.1593   -2.0980 H   0  0  0  0  0  0  0  0  0  0  0  0
   -6.1927    0.3989   -0.5314 H   0  0  0  0  0  0  0  0  0  0  0  0
   -5.1210    2.6034   -0.2913 H   0  0  0  0  0  0  0  0  0  0  0  0
   -3.5837    1.8987   -1.0230 H   0  0  0  0  0  0  0  0  0  0  0  0
   -6.0191    1.4227   -2.5016 H   0  0  0  0  0  0  0  0  0  0  0  0
   -5.4417    3.0504   -2.4027 H   0  0  0  0  0  0  0  0  0  0  0  0
   -5.4085   -0.6719    1.3457 H   0  0  0  0  0  0  0  0  0  0  0  0
  1  2  1  0
  2  3  1  0
  3  4  1  0
  3  5  1  0
  5  6  1  0
  1  7  1  0
  6  7  1  0
  7  8  1  0
  8  9  1  0
  8 10  1  0
  8 11  1  0
 11 12  1  0
 12 13  1  6
 12 14  1  0
 12 15  1  0
 15 16  1  0
 15 17  1  0
 17 18  1  0
 18 19  1  0
 18 20  1  0
 20 21  1  0
 21 22  1  0
 22 23  1  0
 23 24  1  0
 19 25  1  0
 22 25  1  0
 25 26  1  0
 26 27  1  0
 26 28  1  0
 26 29  1  0
  1 30  1  0
  1 31  1  0
  2 32  1  0
  2 33  1  0
  3 34  1  0
  5 35  1  0
  5 36  1  0
  6 37  1  0
  6 38  1  0
  7 39  1  0
  9 40  1  0
 10 41  1  0
 11 42  1  0
 11 43  1  0
 13 44  1  0
 14 45  1  0
 14 46  1  0
 14 47  1  0
 15 48  1  1
 16 49  1  0
 17 50  1  0
 18 51  1  6
 19 52  1  0
 19 53  1  0
 20 54  1  0
 20 55  1  0
 21 56  1  0
 21 57  1  0
 22 58  1  0
 23 59  1  0
 23 60  1  0
 24 61  1  0
 24 62  1  0
 25 63  1  0
M  END
>  <PDBID>  (1) 
1Z95

>  <PDB ID>  (1) 
1Z95

>  <Generic Name>  (1) 
Bicalutamide

>  <Brand Name>  (1) 
Accel-bicalutamide Tablets USP#Ach-bicalutamide#Act Bicalutamide#Ag-bicalutamide#Apo-bicalutamide#Ava-bicalutamide#Bicalutamide#Bicalutamide Tablets#Casodex#Dom-bicalutamide#Jamp-bicalutamide#Med-bicalutamide#Mylan-bicalutamide#Ntp-bicalutamide#Nu-bicalutamide#PHL-bicalutamide#PMS-bicalutamide#Pro-bicalutamide - 50#Ran-bicalutamide#Ratio-bicalutamide#Sandoz Bicalutamide#Teva-bicalutamide#Van-bicalutamide

>  <DrugBank ID>  (1) 
DB01128

>  <ATC Codes>  (1) 
L02BB03

>  <Ligand ID>  (1) 
0U9,198

>  <Target Name>  (1) 
Androgen receptor

>  <UniProt ID>  (1) 
P10275

>  <PDB ID.1>  (1) 
1Z95

>  <Seq. Identity>  (1) 
100%

$$$$
