PDB_DB00320_02
     RDKit          3D

100107  0  0  0  0  0  0  0  0999 V2000
    3.1819   -0.1561   -0.2988 C   0  0  0  0  0  0  0  0  0  0  0  0
    4.5323    0.1437    0.2340 C   0  0  2  0  0  0  0  0  0  0  0  0
    5.4417    0.9505   -0.6165 C   0  0  2  0  0  0  0  0  0  0  0  0
    6.6550    1.2576    0.2747 C   0  0  2  0  0  0  0  0  0  0  0  0
    4.8200    2.3069   -0.9178 C   0  0  0  0  0  0  0  0  0  0  0  0
    5.8297    3.2998   -1.4477 C   0  0  0  0  0  0  0  0  0  0  0  0
    7.1870    2.6354   -1.7050 C   0  0  0  0  0  0  0  0  0  0  0  0
    7.6617    2.1321   -0.3750 C   0  0  0  0  0  0  0  0  0  0  0  0
    8.9015    1.3941   -0.4453 N   0  0  0  0  0  0  0  0  0  0  0  0
    8.6314    0.0346   -0.0977 C   0  0  0  0  0  0  0  0  0  0  0  0
    7.3585    0.0445    0.7583 C   0  0  0  0  0  0  0  0  0  0  0  0
    6.6232   -1.2300    0.6511 C   0  0  0  0  0  0  0  0  0  0  0  0
    5.1584   -1.1753    0.6158 C   0  0  1  0  0  0  0  0  0  0  0  0
    4.4845   -1.5520    1.8221 N   0  0  0  0  0  0  0  0  0  0  0  0
    4.7302   -0.7122    2.9500 C   0  0  0  0  0  0  0  0  0  0  0  0
    3.1180   -1.8064    1.6029 C   0  0  0  0  0  0  0  0  0  0  0  0
    2.3407   -0.8303    0.7555 C   0  0  2  0  0  0  0  0  0  0  0  0
    1.2501   -1.6933    0.1507 C   0  0  0  0  0  0  0  0  0  0  0  0
    0.5432   -2.2458    1.2255 O   0  0  0  0  0  0  0  0  0  0  0  0
    0.3819   -1.0832   -0.7792 N   0  0  0  0  0  0  0  0  0  0  0  0
   -0.9977   -1.5869   -0.6705 C   0  0  2  0  0  0  0  0  0  0  0  0
   -1.0391   -3.0748   -0.8714 C   0  0  0  0  0  0  0  0  0  0  0  0
   -1.7594   -1.0703   -1.7443 O   0  0  0  0  0  0  0  0  0  0  0  0
   -1.6461   -1.0657    0.5654 C   0  0  0  0  0  0  0  0  0  0  0  0
   -2.0480   -2.0376    1.4562 O   0  0  0  0  0  0  0  0  0  0  0  0
   -2.7159   -0.2661    0.0478 N   0  0  0  0  0  0  0  0  0  0  0  0
   -3.0247   -0.7906   -1.2360 C   0  0  1  0  0  0  0  0  0  0  0  0
   -3.5968    0.1182   -2.1257 O   0  0  0  0  0  0  0  0  0  0  0  0
   -3.9426   -1.9478   -1.1147 C   0  0  2  0  0  0  0  0  0  0  0  0
   -4.4404   -2.5606   -2.3664 C   0  0  0  0  0  0  0  0  0  0  0  0
   -5.7624   -3.1867   -1.9100 C   0  0  0  0  0  0  0  0  0  0  0  0
   -6.1784   -2.4411   -0.6901 C   0  0  0  0  0  0  0  0  0  0  0  0
   -5.1922   -1.3914   -0.5440 N   0  0  0  0  0  0  0  0  0  0  0  0
   -4.8468   -1.1674    0.8462 C   0  0  0  0  0  0  0  0  0  0  0  0
   -5.8793   -1.0965    1.7261 O   0  0  0  0  0  0  0  0  0  0  0  0
   -3.8530   -0.0783    0.9393 C   0  0  2  0  0  0  0  0  0  0  0  0
   -4.3547    1.2792    0.6600 C   0  0  0  0  0  0  0  0  0  0  0  0
   -5.5285    1.8711    1.3291 C   0  0  0  0  0  0  0  0  0  0  0  0
   -5.5528    3.3484    0.8344 C   0  0  0  0  0  0  0  0  0  0  0  0
   -5.8677    3.4799   -0.6211 C   0  0  0  0  0  0  0  0  0  0  0  0
   -7.2917    3.0027   -0.9136 C   0  0  0  0  0  0  0  0  0  0  0  0
   -7.8138    2.4792    0.3886 C   0  0  0  0  0  0  0  0  0  0  0  0
   -6.8847    1.3480    0.8832 C   0  0  0  0  0  0  0  0  0  0  0  0
    2.6991    0.8336   -0.5575 H   0  0  0  0  0  0  0  0  0  0  0  0
    3.2308   -0.7143   -1.2368 H   0  0  0  0  0  0  0  0  0  0  0  0
    4.3824    0.7359    1.1862 H   0  0  0  0  0  0  0  0  0  0  0  0
    5.7536    0.4722   -1.5549 H   0  0  0  0  0  0  0  0  0  0  0  0
    6.2288    1.7933    1.1620 H   0  0  0  0  0  0  0  0  0  0  0  0
    4.4614    2.6897    0.0827 H   0  0  0  0  0  0  0  0  0  0  0  0
    3.9771    2.2009   -1.6052 H   0  0  0  0  0  0  0  0  0  0  0  0
    5.4800    3.8424   -2.3281 H   0  0  0  0  0  0  0  0  0  0  0  0
    6.0578    4.0899   -0.6727 H   0  0  0  0  0  0  0  0  0  0  0  0
    7.8742    3.4602   -2.0065 H   0  0  0  0  0  0  0  0  0  0  0  0
    7.1380    1.8630   -2.4794 H   0  0  0  0  0  0  0  0  0  0  0  0
    7.8803    3.0377    0.2540 H   0  0  0  0  0  0  0  0  0  0  0  0
    9.3686    1.4234   -1.3582 H   0  0  0  0  0  0  0  0  0  0  0  0
    8.5436   -0.6215   -0.9718 H   0  0  0  0  0  0  0  0  0  0  0  0
    9.4724   -0.3870    0.5170 H   0  0  0  0  0  0  0  0  0  0  0  0
    7.7327    0.2405    1.7991 H   0  0  0  0  0  0  0  0  0  0  0  0
    6.9260   -1.8683    1.5368 H   0  0  0  0  0  0  0  0  0  0  0  0
    7.0603   -1.8002   -0.2226 H   0  0  0  0  0  0  0  0  0  0  0  0
    4.8150   -1.9160   -0.1681 H   0  0  0  0  0  0  0  0  0  0  0  0
    4.6348   -1.3661    3.8669 H   0  0  0  0  0  0  0  0  0  0  0  0
    3.9112    0.0529    3.0928 H   0  0  0  0  0  0  0  0  0  0  0  0
    5.7290   -0.2800    2.9986 H   0  0  0  0  0  0  0  0  0  0  0  0
    3.0454   -2.8574    1.1865 H   0  0  0  0  0  0  0  0  0  0  0  0
    2.6174   -1.8650    2.5914 H   0  0  0  0  0  0  0  0  0  0  0  0
    1.9158   -0.0397    1.4041 H   0  0  0  0  0  0  0  0  0  0  0  0
    1.8613   -2.5359   -0.3464 H   0  0  0  0  0  0  0  0  0  0  0  0
    0.7076   -1.7114    2.0368 H   0  0  0  0  0  0  0  0  0  0  0  0
    0.3248   -0.0362   -0.5941 H   0  0  0  0  0  0  0  0  0  0  0  0
   -0.0147   -3.4794   -1.1417 H   0  0  0  0  0  0  0  0  0  0  0  0
   -1.6752   -3.4098   -1.7115 H   0  0  0  0  0  0  0  0  0  0  0  0
   -1.4150   -3.5748    0.0442 H   0  0  0  0  0  0  0  0  0  0  0  0
   -0.9899   -0.3450    1.1432 H   0  0  0  0  0  0  0  0  0  0  0  0
   -2.0855   -1.6766    2.3576 H   0  0  0  0  0  0  0  0  0  0  0  0
   -3.1991    0.0869   -3.0160 H   0  0  0  0  0  0  0  0  0  0  0  0
   -3.6141   -2.7044   -0.3512 H   0  0  0  0  0  0  0  0  0  0  0  0
   -3.8175   -3.4312   -2.7198 H   0  0  0  0  0  0  0  0  0  0  0  0
   -4.5783   -1.8067   -3.1372 H   0  0  0  0  0  0  0  0  0  0  0  0
   -6.4683   -3.1104   -2.7590 H   0  0  0  0  0  0  0  0  0  0  0  0
   -5.6330   -4.2510   -1.6281 H   0  0  0  0  0  0  0  0  0  0  0  0
   -7.1645   -1.9723   -0.8754 H   0  0  0  0  0  0  0  0  0  0  0  0
   -6.2465   -3.0627    0.2257 H   0  0  0  0  0  0  0  0  0  0  0  0
   -4.3450   -2.1758    1.1296 H   0  0  0  0  0  0  0  0  0  0  0  0
   -6.1745   -1.9441    2.1142 H   0  0  0  0  0  0  0  0  0  0  0  0
   -3.3445   -0.1102    1.9754 H   0  0  0  0  0  0  0  0  0  0  0  0
   -4.6015    1.3240   -0.4651 H   0  0  0  0  0  0  0  0  0  0  0  0
   -3.4626    2.0091    0.6862 H   0  0  0  0  0  0  0  0  0  0  0  0
   -5.4161    1.9224    2.4118 H   0  0  0  0  0  0  0  0  0  0  0  0
   -4.5150    3.7709    0.9783 H   0  0  0  0  0  0  0  0  0  0  0  0
   -6.2075    3.9635    1.4514 H   0  0  0  0  0  0  0  0  0  0  0  0
   -5.9192    4.5995   -0.8105 H   0  0  0  0  0  0  0  0  0  0  0  0
   -5.1804    3.0026   -1.3076 H   0  0  0  0  0  0  0  0  0  0  0  0
   -7.2827    2.2007   -1.6513 H   0  0  0  0  0  0  0  0  0  0  0  0
   -7.9542    3.8116   -1.2606 H   0  0  0  0  0  0  0  0  0  0  0  0
   -8.0476    3.2061    1.1543 H   0  0  0  0  0  0  0  0  0  0  0  0
   -8.7681    1.9291    0.1383 H   0  0  0  0  0  0  0  0  0  0  0  0
   -7.4826    0.9349    1.7384 H   0  0  0  0  0  0  0  0  0  0  0  0
   -6.8402    0.6770    0.0107 H   0  0  0  0  0  0  0  0  0  0  0  0
  1  2  1  0
  2  3  1  0
  3  4  1  0
  3  5  1  0
  5  6  1  0
  6  7  1  0
  4  8  1  0
  7  8  1  0
  8  9  1  0
  9 10  1  0
  4 11  1  0
 10 11  1  0
 11 12  1  0
  2 13  1  0
 12 13  1  0
 13 14  1  0
 14 15  1  0
 14 16  1  0
  1 17  1  0
 16 17  1  0
 17 18  1  0
 18 19  1  0
 18 20  1  0
 21 20  1  6
 21 22  1  0
 21 23  1  0
 21 24  1  0
 24 25  1  0
 24 26  1  0
 23 27  1  0
 26 27  1  0
 27 28  1  6
 27 29  1  0
 29 30  1  0
 30 31  1  0
 31 32  1  0
 29 33  1  0
 32 33  1  0
 33 34  1  0
 34 35  1  0
 26 36  1  0
 34 36  1  0
 36 37  1  0
 37 38  1  0
 38 39  1  0
 39 40  1  0
 40 41  1  0
 41 42  1  0
 38 43  1  0
 42 43  1  0
  1 44  1  0
  1 45  1  0
  2 46  1  1
  3 47  1  6
  4 48  1  1
  5 49  1  0
  5 50  1  0
  6 51  1  0
  6 52  1  0
  7 53  1  0
  7 54  1  0
  8 55  1  0
  9 56  1  0
 10 57  1  0
 10 58  1  0
 11 59  1  0
 12 60  1  0
 12 61  1  0
 13 62  1  6
 15 63  1  0
 15 64  1  0
 15 65  1  0
 16 66  1  0
 16 67  1  0
 17 68  1  1
 18 69  1  0
 19 70  1  0
 20 71  1  0
 22 72  1  0
 22 73  1  0
 22 74  1  0
 24 75  1  0
 25 76  1  0
 28 77  1  0
 29 78  1  1
 30 79  1  0
 30 80  1  0
 31 81  1  0
 31 82  1  0
 32 83  1  0
 32 84  1  0
 34 85  1  0
 35 86  1  0
 36 87  1  1
 37 88  1  0
 37 89  1  0
 38 90  1  0
 39 91  1  0
 39 92  1  0
 40 93  1  0
 40 94  1  0
 41 95  1  0
 41 96  1  0
 42 97  1  0
 42 98  1  0
 43 99  1  0
 43100  1  0
M  END
>  <PDBID>  (1) 
4IAQ

>  <PDB ID>  (1) 
4IAQ

>  <Generic Name>  (1) 
Dihydroergotamine

>  <Brand Name>  (1) 
D.H.E. 45#Dihydroergotamine (dhe), 1mg/ml#Dihydroergotamine Mesylate#Dihydroergotamine Mesylate Injection USP#Migranal#Migranal Nasal Spray 4mg/ml#PMS-dihydroergotamine#Dihydergot#Ergont#Ergotonin#Ikaran#Orstanorm#Verladyn

>  <DrugBank ID>  (1) 
DB00320

>  <ATC Codes>  (1) 
N02CA01#N02CA51

>  <Ligand ID>  (1) 
2GM

>  <Target Name>  (1) 
5-hydroxytryptamine receptor 1D

>  <UniProt ID>  (1) 
P28221

>  <PDB ID.1>  (1) 
4IAQ

>  <Seq. Identity>  (1) 
55%

$$$$
