PDB_DB01104_09
     RDKit          3D

 49 51  0  0  0  0  0  0  0  0999 V2000
    4.2440    1.0775   -1.4013 Cl  0  0  0  0  0  0  0  0  0  0  0  0
    4.5068    0.4092    0.2251 C   0  0  0  0  0  0  0  0  0  0  0  0
    4.0103   -1.0387    0.2912 C   0  0  0  0  0  0  0  0  0  0  0  0
    5.0684   -2.1440   -0.5784 Cl  0  0  0  0  0  0  0  0  0  0  0  0
    3.6370    1.1012    1.2464 C   0  0  0  0  0  0  0  0  0  0  0  0
    2.1920    1.1167    0.8540 C   0  0  0  0  0  0  0  0  0  0  0  0
    1.6361   -0.1181    0.2560 C   0  0  0  0  0  0  0  0  0  0  0  0
    2.6788   -1.0334   -0.3659 C   0  0  0  0  0  0  0  0  0  0  0  0
    0.5529    0.0940   -0.7525 C   0  0  1  0  0  0  0  0  0  0  0  0
   -0.6682   -0.7822   -0.4979 C   0  0  0  0  0  0  0  0  0  0  0  0
   -0.3562   -2.2276   -0.3187 C   0  0  0  0  0  0  0  0  0  0  0  0
   -1.6580   -2.9907   -0.2464 C   0  0  0  0  0  0  0  0  0  0  0  0
   -2.8631   -2.1119   -0.4122 C   0  0  0  0  0  0  0  0  0  0  0  0
   -2.8165   -1.0354    0.6318 C   0  0  0  0  0  0  0  0  0  0  0  0
   -1.5397   -0.2388    0.6092 C   0  0  0  0  0  0  0  0  0  0  0  0
   -1.9006    1.1916    0.3484 C   0  0  1  0  0  0  0  0  0  0  0  0
   -2.7017    1.7049    1.4579 N   0  0  0  0  0  0  0  0  0  0  0  0
   -3.7847    2.5132    0.9063 C   0  0  0  0  0  0  0  0  0  0  0  0
   -0.7501    2.0872    0.0475 C   0  0  0  0  0  0  0  0  0  0  0  0
    0.1081    1.4714   -1.0117 C   0  0  0  0  0  0  0  0  0  0  0  0
    5.5521    0.5117    0.5249 H   0  0  0  0  0  0  0  0  0  0  0  0
    3.9878   -1.2981    1.3622 H   0  0  0  0  0  0  0  0  0  0  0  0
    3.8060    0.5769    2.2186 H   0  0  0  0  0  0  0  0  0  0  0  0
    4.0189    2.1198    1.3642 H   0  0  0  0  0  0  0  0  0  0  0  0
    1.6521    1.3172    1.8415 H   0  0  0  0  0  0  0  0  0  0  0  0
    2.0466    2.0499    0.2784 H   0  0  0  0  0  0  0  0  0  0  0  0
    1.1848   -0.7315    1.0648 H   0  0  0  0  0  0  0  0  0  0  0  0
    2.3319   -2.0751   -0.4151 H   0  0  0  0  0  0  0  0  0  0  0  0
    2.8251   -0.6788   -1.4189 H   0  0  0  0  0  0  0  0  0  0  0  0
    0.9064   -0.2925   -1.7716 H   0  0  0  0  0  0  0  0  0  0  0  0
   -1.2850   -0.6925   -1.4290 H   0  0  0  0  0  0  0  0  0  0  0  0
    0.1988   -2.4589    0.6022 H   0  0  0  0  0  0  0  0  0  0  0  0
    0.1513   -2.5773   -1.2474 H   0  0  0  0  0  0  0  0  0  0  0  0
   -1.7275   -3.7941   -1.0197 H   0  0  0  0  0  0  0  0  0  0  0  0
   -1.7836   -3.5252    0.7297 H   0  0  0  0  0  0  0  0  0  0  0  0
   -3.7539   -2.7474   -0.1704 H   0  0  0  0  0  0  0  0  0  0  0  0
   -3.0239   -1.7482   -1.4349 H   0  0  0  0  0  0  0  0  0  0  0  0
   -2.9957   -1.5260    1.6218 H   0  0  0  0  0  0  0  0  0  0  0  0
   -3.7208   -0.3955    0.4678 H   0  0  0  0  0  0  0  0  0  0  0  0
   -1.0605   -0.3696    1.6173 H   0  0  0  0  0  0  0  0  0  0  0  0
   -2.5640    1.1880   -0.5643 H   0  0  0  0  0  0  0  0  0  0  0  0
   -3.1496    0.8953    1.9691 H   0  0  0  0  0  0  0  0  0  0  0  0
   -4.0028    3.3839    1.5728 H   0  0  0  0  0  0  0  0  0  0  0  0
   -3.4382    2.9151   -0.0827 H   0  0  0  0  0  0  0  0  0  0  0  0
   -4.6690    1.8921    0.7053 H   0  0  0  0  0  0  0  0  0  0  0  0
   -1.1992    3.0076   -0.4266 H   0  0  0  0  0  0  0  0  0  0  0  0
   -0.2201    2.4580    0.9258 H   0  0  0  0  0  0  0  0  0  0  0  0
    0.9133    2.1522   -1.3852 H   0  0  0  0  0  0  0  0  0  0  0  0
   -0.5770    1.3973   -1.9134 H   0  0  0  0  0  0  0  0  0  0  0  0
  1  2  1  0
  2  3  1  0
  3  4  1  0
  2  5  1  0
  5  6  1  0
  6  7  1  0
  3  8  1  0
  7  8  1  0
  7  9  1  0
  9 10  1  0
 10 11  1  0
 11 12  1  0
 12 13  1  0
 13 14  1  0
 10 15  1  0
 14 15  1  0
 15 16  1  0
 16 17  1  0
 17 18  1  0
 16 19  1  0
  9 20  1  0
 19 20  1  0
  2 21  1  0
  3 22  1  0
  5 23  1  0
  5 24  1  0
  6 25  1  0
  6 26  1  0
  7 27  1  0
  8 28  1  0
  8 29  1  0
  9 30  1  6
 10 31  1  0
 11 32  1  0
 11 33  1  0
 12 34  1  0
 12 35  1  0
 13 36  1  0
 13 37  1  0
 14 38  1  0
 14 39  1  0
 15 40  1  0
 16 41  1  6
 17 42  1  0
 18 43  1  0
 18 44  1  0
 18 45  1  0
 19 46  1  0
 19 47  1  0
 20 48  1  0
 20 49  1  0
M  END
>  <PDBID>  (1) 
6AWO

>  <PDB ID>  (1) 
6AWO

>  <Generic Name>  (1) 
Sertraline

>  <Brand Name>  (1) 
Act Sertraline#Apo-sertraline#Auro-sertraline#Bio-sertraline#Dom-sertraline#Gd-sertraline#Ipg-sertraline#Jamp-sertraline#Mar-sertraline#Mint-sertraline#Mylan-sertraline#Nu-sertraline Capsules#PHL-sertraline#PMS-sertraline#Priva-sertraline#Q-sertraline#Ran-sertraline#Ratio-sertraline#Riva-sertraline#Sandoz Sertraline#Sertraline#Sertraline Hydrochloride#Sertraline Hydrochloride Tablets#Sertraline-100#Sertraline-25#Sertraline-50#Teva-sertraline#Van-sertraline#Zoloft#Zoloft Cap 100mg#Zoloft Cap 50mg#Lustral

>  <DrugBank ID>  (1) 
DB01104

>  <ATC Codes>  (1) 
N06AB06

>  <Ligand ID>  (1) 
SRE

>  <Target Name>  (1) 
Sodium-dependent serotonin transporter

>  <UniProt ID>  (1) 
P31645

>  <PDB ID.1>  (1) 
6AWO

>  <Seq. Identity>  (1) 
99%

$$$$
