PDB_DB00730_01
     RDKit          3D

 33 35  0  0  0  0  0  0  0  0999 V2000
   -1.1051    0.5450   -0.6839 C   0  0  0  0  0  0  0  0  0  0  0  0
    0.2766    0.9095   -0.5734 N   0  0  0  0  0  0  0  0  0  0  0  0
    0.7514    0.0350    0.4738 C   0  0  0  0  0  0  0  0  0  0  0  0
    2.2527   -0.0437    0.5126 C   0  0  0  0  0  0  0  0  0  0  0  0
    2.8277   -0.5755   -0.8035 C   0  0  0  0  0  0  0  0  0  0  0  0
    4.5960   -0.1510   -0.4897 S   0  0  0  0  0  0  0  0  0  0  0  0
    4.2792    0.9211    0.9749 C   0  0  0  0  0  0  0  0  0  0  0  0
    2.8668    1.2439    0.7050 N   0  0  0  0  0  0  0  0  0  0  0  0
    0.1186   -1.2182    0.2246 N   0  0  0  0  0  0  0  0  0  0  0  0
   -1.0210   -0.9824   -0.6425 C   0  0  0  0  0  0  0  0  0  0  0  0
   -2.2939   -1.5612   -0.1253 C   0  0  0  0  0  0  0  0  0  0  0  0
   -3.4960   -0.6859   -0.3951 C   0  0  0  0  0  0  0  0  0  0  0  0
   -3.3834    0.6719    0.2179 C   0  0  0  0  0  0  0  0  0  0  0  0
   -1.9184    0.9449    0.5372 C   0  0  0  0  0  0  0  0  0  0  0  0
   -1.5843    0.8868   -1.6117 H   0  0  0  0  0  0  0  0  0  0  0  0
    0.4344    1.9176   -0.3657 H   0  0  0  0  0  0  0  0  0  0  0  0
    0.4377    0.4979    1.4371 H   0  0  0  0  0  0  0  0  0  0  0  0
    2.6100   -0.7193    1.3089 H   0  0  0  0  0  0  0  0  0  0  0  0
    2.5338    0.0400   -1.6621 H   0  0  0  0  0  0  0  0  0  0  0  0
    2.6865   -1.6457   -0.9138 H   0  0  0  0  0  0  0  0  0  0  0  0
    4.2977    0.3313    1.8906 H   0  0  0  0  0  0  0  0  0  0  0  0
    4.9098    1.8116    0.9619 H   0  0  0  0  0  0  0  0  0  0  0  0
    2.8713    1.7315   -0.2409 H   0  0  0  0  0  0  0  0  0  0  0  0
    0.7374   -1.9046   -0.2209 H   0  0  0  0  0  0  0  0  0  0  0  0
   -0.7981   -1.3360   -1.6902 H   0  0  0  0  0  0  0  0  0  0  0  0
   -2.2831   -1.8260    0.9402 H   0  0  0  0  0  0  0  0  0  0  0  0
   -2.4773   -2.5157   -0.6977 H   0  0  0  0  0  0  0  0  0  0  0  0
   -3.7070   -0.6407   -1.5035 H   0  0  0  0  0  0  0  0  0  0  0  0
   -4.3776   -1.1946    0.0473 H   0  0  0  0  0  0  0  0  0  0  0  0
   -3.9092    0.7101    1.2171 H   0  0  0  0  0  0  0  0  0  0  0  0
   -3.7163    1.4912   -0.4513 H   0  0  0  0  0  0  0  0  0  0  0  0
   -1.7397    2.0150    0.7446 H   0  0  0  0  0  0  0  0  0  0  0  0
   -1.6772    0.2963    1.4051 H   0  0  0  0  0  0  0  0  0  0  0  0
  1  2  1  0
  2  3  1  0
  3  4  1  0
  4  5  1  0
  5  6  1  0
  6  7  1  0
  4  8  1  0
  7  8  1  0
  3  9  1  0
  1 10  1  0
  9 10  1  0
 10 11  1  0
 11 12  1  0
 12 13  1  0
  1 14  1  0
 13 14  1  0
  1 15  1  0
  2 16  1  0
  3 17  1  0
  4 18  1  0
  5 19  1  0
  5 20  1  0
  7 21  1  0
  7 22  1  0
  8 23  1  0
  9 24  1  0
 10 25  1  0
 11 26  1  0
 11 27  1  0
 12 28  1  0
 12 29  1  0
 13 30  1  0
 13 31  1  0
 14 32  1  0
 14 33  1  0
M  END
>  <PDBID>  (1) 
3SFE

>  <PDB ID>  (1) 
3SFE

>  <Generic Name>  (1) 
Thiabendazole

>  <Brand Name>  (1) 
Mintezol Chewable Tab 500mg#Mintezol

>  <DrugBank ID>  (1) 
DB00730

>  <ATC Codes>  (1) 
D01AC06#P02CA02

>  <Ligand ID>  (1) 
TMG

>  <Target Name>  (1) 
Fumarate reductase flavoprotein subunit

>  <UniProt ID>  (1) 
P00363

>  <PDB ID.1>  (1) 
3SFE

>  <Seq. Identity>  (1) 
38%

$$$$
