PDB_DB04868_09
     RDKit          3D

 91 95  0  0  0  0  0  0  0  0999 V2000
    2.2254    1.4467    0.7828 O   0  0  0  0  0  0  0  0  0  0  0  0
    1.5923    0.3665    0.2379 C   0  0  1  0  0  0  0  0  0  0  0  0
    2.4800   -0.7734    0.2924 N   0  0  0  0  0  0  0  0  0  0  0  0
    3.5530   -0.7812   -0.6387 C   0  0  2  0  0  0  0  0  0  0  0  0
    4.8733   -1.2170   -0.0871 C   0  0  0  0  0  0  0  0  0  0  0  0
    5.7265   -0.1789    0.5363 C   0  0  0  0  0  0  0  0  0  0  0  0
    7.1267   -0.3214    0.2244 N   0  0  0  0  0  0  0  0  0  0  0  0
    7.9977    0.3224    1.1915 C   0  0  0  0  0  0  0  0  0  0  0  0
    9.3643   -0.1114    0.6637 C   0  0  0  0  0  0  0  0  0  0  0  0
    9.6733    0.7551   -0.5351 C   0  0  0  0  0  0  0  0  0  0  0  0
    9.1080   -1.4686    0.3014 N   0  0  0  0  0  0  0  0  0  0  0  0
    7.6456   -1.6425    0.1999 C   0  0  0  0  0  0  0  0  0  0  0  0
    5.3596    1.2438    0.2286 C   0  0  0  0  0  0  0  0  0  0  0  0
    3.7118    0.4134   -1.5054 C   0  0  0  0  0  0  0  0  0  0  0  0
    4.6824    1.4563   -1.0855 C   0  0  0  0  0  0  0  0  0  0  0  0
    5.7681    1.6625   -2.1649 C   0  0  0  0  0  0  0  0  0  0  0  0
    5.1338    1.8497   -3.3761 F   0  0  0  0  0  0  0  0  0  0  0  0
    6.5035    2.7922   -1.8962 F   0  0  0  0  0  0  0  0  0  0  0  0
    6.5488    0.5214   -2.2826 F   0  0  0  0  0  0  0  0  0  0  0  0
    0.3713    0.0507    1.1576 C   0  0  1  0  0  0  0  0  0  0  0  0
   -0.4542    1.3224    1.1687 C   0  0  0  0  0  0  0  0  0  0  0  0
   -1.0714    1.6501   -0.1422 C   0  0  0  0  0  0  0  0  0  0  0  0
   -1.8135    0.4433   -0.7452 C   0  0  0  0  0  0  0  0  0  0  0  0
   -3.0711    0.9801   -1.3181 C   0  0  0  0  0  0  0  0  0  0  0  0
   -1.8279   -0.6375    0.2333 C   0  0  2  0  0  0  0  0  0  0  0  0
   -0.3983   -1.0954    0.5426 C   0  0  0  0  0  0  0  0  0  0  0  0
   -2.6815   -1.7598    0.0963 N   0  0  0  0  0  0  0  0  0  0  0  0
   -3.8849   -1.7536    0.8892 C   0  0  0  0  0  0  0  0  0  0  0  0
   -4.5348   -3.0554    0.7936 N   0  0  0  0  0  0  0  0  0  0  0  0
   -5.6425   -3.1125   -0.0772 C   0  0  0  0  0  0  0  0  0  0  0  0
   -6.6006   -1.9753    0.0628 C   0  0  0  0  0  0  0  0  0  0  0  0
   -5.7904   -0.6846   -0.0974 C   0  0  0  0  0  0  0  0  0  0  0  0
   -4.7505   -0.6694    0.8269 N   0  0  0  0  0  0  0  0  0  0  0  0
   -6.6850    0.5218   -0.0978 C   0  0  0  0  0  0  0  0  0  0  0  0
   -7.5518    0.4342   -1.3519 C   0  0  0  0  0  0  0  0  0  0  0  0
   -9.0012    0.6293   -0.9994 C   0  0  0  0  0  0  0  0  0  0  0  0
   -9.0886    1.9042   -0.1886 C   0  0  0  0  0  0  0  0  0  0  0  0
   -8.3798    1.7612    1.0692 N   0  0  0  0  0  0  0  0  0  0  0  0
   -7.5904    0.5547    1.1168 C   0  0  0  0  0  0  0  0  0  0  0  0
    2.2409    1.3862    1.7616 H   0  0  0  0  0  0  0  0  0  0  0  0
    1.1613    0.4569   -0.7474 H   0  0  0  0  0  0  0  0  0  0  0  0
    2.7585   -1.0610    1.2642 H   0  0  0  0  0  0  0  0  0  0  0  0
    3.2729   -1.6305   -1.3672 H   0  0  0  0  0  0  0  0  0  0  0  0
    5.4411   -1.7439   -0.9254 H   0  0  0  0  0  0  0  0  0  0  0  0
    4.6829   -2.0770    0.6223 H   0  0  0  0  0  0  0  0  0  0  0  0
    5.6639   -0.3137    1.6604 H   0  0  0  0  0  0  0  0  0  0  0  0
    7.8653   -0.1396    2.1982 H   0  0  0  0  0  0  0  0  0  0  0  0
    7.9488    1.4057    1.2059 H   0  0  0  0  0  0  0  0  0  0  0  0
   10.1329   -0.0121    1.4566 H   0  0  0  0  0  0  0  0  0  0  0  0
    9.2611    1.7993   -0.3927 H   0  0  0  0  0  0  0  0  0  0  0  0
    9.1102    0.3563   -1.4042 H   0  0  0  0  0  0  0  0  0  0  0  0
   10.7535    0.7756   -0.7968 H   0  0  0  0  0  0  0  0  0  0  0  0
    9.5336   -2.0955    1.0011 H   0  0  0  0  0  0  0  0  0  0  0  0
    7.5143   -2.1894   -0.7621 H   0  0  0  0  0  0  0  0  0  0  0  0
    7.3738   -2.2600    1.0886 H   0  0  0  0  0  0  0  0  0  0  0  0
    4.8412    1.7435    1.0801 H   0  0  0  0  0  0  0  0  0  0  0  0
    6.3217    1.8417    0.1523 H   0  0  0  0  0  0  0  0  0  0  0  0
    4.0717    0.0410   -2.5148 H   0  0  0  0  0  0  0  0  0  0  0  0
    2.7606    0.9272   -1.7692 H   0  0  0  0  0  0  0  0  0  0  0  0
    4.2011    2.4808   -1.0281 H   0  0  0  0  0  0  0  0  0  0  0  0
    0.7740   -0.1457    2.1441 H   0  0  0  0  0  0  0  0  0  0  0  0
   -1.1458    1.3829    2.0310 H   0  0  0  0  0  0  0  0  0  0  0  0
    0.3006    2.1473    1.3757 H   0  0  0  0  0  0  0  0  0  0  0  0
   -1.7084    2.5231   -0.0530 H   0  0  0  0  0  0  0  0  0  0  0  0
   -0.2722    1.9261   -0.8788 H   0  0  0  0  0  0  0  0  0  0  0  0
   -1.2052    0.0854   -1.6490 H   0  0  0  0  0  0  0  0  0  0  0  0
   -2.7330    1.8648   -1.9820 H   0  0  0  0  0  0  0  0  0  0  0  0
   -3.5721    0.3070   -2.0170 H   0  0  0  0  0  0  0  0  0  0  0  0
   -3.6782    1.4629   -0.5555 H   0  0  0  0  0  0  0  0  0  0  0  0
   -2.1995   -0.1297    1.2201 H   0  0  0  0  0  0  0  0  0  0  0  0
   -0.5108   -1.8910    1.3337 H   0  0  0  0  0  0  0  0  0  0  0  0
    0.0386   -1.4518   -0.3932 H   0  0  0  0  0  0  0  0  0  0  0  0
   -2.9291   -1.9458   -0.9415 H   0  0  0  0  0  0  0  0  0  0  0  0
   -3.4764   -1.7749    1.9723 H   0  0  0  0  0  0  0  0  0  0  0  0
   -4.5299   -3.6141    1.6396 H   0  0  0  0  0  0  0  0  0  0  0  0
   -6.2175   -4.0513    0.1651 H   0  0  0  0  0  0  0  0  0  0  0  0
   -5.3845   -3.2201   -1.1693 H   0  0  0  0  0  0  0  0  0  0  0  0
   -6.9780   -1.9315    1.1212 H   0  0  0  0  0  0  0  0  0  0  0  0
   -7.3967   -2.0847   -0.6644 H   0  0  0  0  0  0  0  0  0  0  0  0
   -5.4197   -0.7538   -1.1745 H   0  0  0  0  0  0  0  0  0  0  0  0
   -4.4105    0.1754    1.2531 H   0  0  0  0  0  0  0  0  0  0  0  0
   -6.1051    1.4268   -0.1447 H   0  0  0  0  0  0  0  0  0  0  0  0
   -7.3936   -0.4991   -1.8958 H   0  0  0  0  0  0  0  0  0  0  0  0
   -7.2743    1.2729   -2.0562 H   0  0  0  0  0  0  0  0  0  0  0  0
   -9.4370   -0.2328   -0.4542 H   0  0  0  0  0  0  0  0  0  0  0  0
   -9.5888    0.7780   -1.9313 H   0  0  0  0  0  0  0  0  0  0  0  0
   -8.6150    2.7146   -0.7881 H   0  0  0  0  0  0  0  0  0  0  0  0
  -10.1503    2.1779   -0.0641 H   0  0  0  0  0  0  0  0  0  0  0  0
   -9.1322    1.7220    1.8137 H   0  0  0  0  0  0  0  0  0  0  0  0
   -6.9604    0.5807    2.0204 H   0  0  0  0  0  0  0  0  0  0  0  0
   -8.2274   -0.3568    1.1783 H   0  0  0  0  0  0  0  0  0  0  0  0
  1  2  1  0
  2  3  1  0
  3  4  1  0
  4  5  1  0
  5  6  1  0
  6  7  1  0
  7  8  1  0
  8  9  1  0
  9 10  1  0
  9 11  1  0
  7 12  1  0
 11 12  1  0
  6 13  1  0
  4 14  1  0
 13 15  1  0
 14 15  1  0
 15 16  1  0
 16 17  1  0
 16 18  1  0
 16 19  1  0
  2 20  1  0
 20 21  1  0
 21 22  1  0
 22 23  1  0
 23 24  1  0
 23 25  1  0
 20 26  1  0
 25 26  1  0
 25 27  1  0
 27 28  1  0
 28 29  1  0
 29 30  1  0
 30 31  1  0
 31 32  1  0
 28 33  1  0
 32 33  1  0
 32 34  1  0
 34 35  1  0
 35 36  1  0
 36 37  1  0
 37 38  1  0
 34 39  1  0
 38 39  1  0
  1 40  1  0
  2 41  1  6
  3 42  1  0
  4 43  1  6
  5 44  1  0
  5 45  1  0
  6 46  1  0
  8 47  1  0
  8 48  1  0
  9 49  1  0
 10 50  1  0
 10 51  1  0
 10 52  1  0
 11 53  1  0
 12 54  1  0
 12 55  1  0
 13 56  1  0
 13 57  1  0
 14 58  1  0
 14 59  1  0
 15 60  1  0
 20 61  1  1
 21 62  1  0
 21 63  1  0
 22 64  1  0
 22 65  1  0
 23 66  1  0
 24 67  1  0
 24 68  1  0
 24 69  1  0
 25 70  1  1
 26 71  1  0
 26 72  1  0
 27 73  1  0
 28 74  1  0
 29 75  1  0
 30 76  1  0
 30 77  1  0
 31 78  1  0
 31 79  1  0
 32 80  1  0
 33 81  1  0
 34 82  1  0
 35 83  1  0
 35 84  1  0
 36 85  1  0
 36 86  1  0
 37 87  1  0
 37 88  1  0
 38 89  1  0
 39 90  1  0
 39 91  1  0
M  END
>  <PDBID>  (1) 
5MO4

>  <PDB ID>  (1) 
5MO4

>  <Generic Name>  (1) 
Nilotinib

>  <Brand Name>  (1) 
Tasigna

>  <DrugBank ID>  (1) 
DB04868

>  <ATC Codes>  (1) 
L01XE08

>  <Ligand ID>  (1) 
NIL

>  <Target Name>  (1) 
Tyrosine-protein kinase ABL1

>  <UniProt ID>  (1) 
P00519

>  <PDB ID.1>  (1) 
5MO4

>  <Seq. Identity>  (1) 
97%

$$$$
