PDB_DB00482_04
     RDKit          3D

116120  0  0  0  0  0  0  0  0999 V2000
    4.9967   -0.8539    0.2612 S   0  0  0  0  0  0  0  0  0  0  0  0
    3.4299   -1.5603   -0.0508 C   0  0  0  0  0  0  0  0  0  0  0  0
    2.9951   -1.1051   -1.4122 C   0  0  0  0  0  0  0  0  0  0  0  0
    1.4898   -0.7893   -1.3829 C   0  0  0  0  0  0  0  0  0  0  0  0
    1.2971    0.3298   -0.3927 C   0  0  0  0  0  0  0  0  0  0  0  0
    1.4805   -0.2938    0.9891 C   0  0  0  0  0  0  0  0  0  0  0  0
    2.4517   -1.4025    1.0324 C   0  0  0  0  0  0  0  0  0  0  0  0
    0.2808    1.2032   -0.5726 N   0  0  0  0  0  0  0  0  0  0  0  0
   -1.0613    1.1396   -0.6138 C   0  0  0  0  0  0  0  0  0  0  0  0
   -1.8672    0.0632    0.0459 C   0  0  0  0  0  0  0  0  0  0  0  0
   -3.3437    0.4152   -0.2559 C   0  0  0  0  0  0  0  0  0  0  0  0
   -4.1997   -0.3007    0.7400 C   0  0  0  0  0  0  0  0  0  0  0  0
   -3.9280   -1.7787    0.6090 C   0  0  0  0  0  0  0  0  0  0  0  0
   -5.2682   -2.4520    0.3197 C   0  0  0  0  0  0  0  0  0  0  0  0
   -3.0202   -2.1058   -0.5285 C   0  0  0  0  0  0  0  0  0  0  0  0
   -1.7115   -1.3145   -0.4758 C   0  0  0  0  0  0  0  0  0  0  0  0
   -1.4562    2.4126    0.1838 C   0  0  0  0  0  0  0  0  0  0  0  0
   -0.1387    3.1590    0.3773 C   0  0  0  0  0  0  0  0  0  0  0  0
   -0.3622    4.6312    0.1358 C   0  0  0  0  0  0  0  0  0  0  0  0
   -0.8166    4.8105   -1.1541 F   0  0  0  0  0  0  0  0  0  0  0  0
    0.7937    5.3337    0.3457 F   0  0  0  0  0  0  0  0  0  0  0  0
   -1.2953    5.0570    1.0717 F   0  0  0  0  0  0  0  0  0  0  0  0
    0.6676    2.5308   -0.6123 N   0  0  0  0  0  0  0  0  0  0  0  0
    4.9049    0.7393    0.4612 N   0  0  0  0  0  0  0  0  0  0  0  0
    5.4787   -1.4841    1.7801 O   0  0  0  0  0  0  0  0  0  0  0  0
    6.0446   -1.2909   -0.7895 O   0  0  0  0  0  0  0  0  0  0  0  0
    4.9967   -0.8539    0.2612 S   0  0  0  0  0  0  0  0  0  0  0  0
    3.4299   -1.5603   -0.0508 C   0  0  0  0  0  0  0  0  0  0  0  0
    2.9951   -1.1051   -1.4122 C   0  0  0  0  0  0  0  0  0  0  0  0
    1.4898   -0.7893   -1.3829 C   0  0  0  0  0  0  0  0  0  0  0  0
    1.2971    0.3298   -0.3927 C   0  0  0  0  0  0  0  0  0  0  0  0
    1.4805   -0.2938    0.9891 C   0  0  0  0  0  0  0  0  0  0  0  0
    2.4517   -1.4025    1.0324 C   0  0  0  0  0  0  0  0  0  0  0  0
    0.2808    1.2032   -0.5726 N   0  0  0  0  0  0  0  0  0  0  0  0
   -1.0613    1.1396   -0.6138 C   0  0  0  0  0  0  0  0  0  0  0  0
   -1.8672    0.0632    0.0459 C   0  0  0  0  0  0  0  0  0  0  0  0
   -3.3437    0.4152   -0.2559 C   0  0  0  0  0  0  0  0  0  0  0  0
   -4.1997   -0.3007    0.7400 C   0  0  0  0  0  0  0  0  0  0  0  0
   -3.9280   -1.7787    0.6090 C   0  0  0  0  0  0  0  0  0  0  0  0
   -5.2682   -2.4520    0.3197 C   0  0  0  0  0  0  0  0  0  0  0  0
   -3.0202   -2.1058   -0.5285 C   0  0  0  0  0  0  0  0  0  0  0  0
   -1.7115   -1.3145   -0.4758 C   0  0  0  0  0  0  0  0  0  0  0  0
   -1.4562    2.4126    0.1838 C   0  0  0  0  0  0  0  0  0  0  0  0
   -0.1387    3.1590    0.3773 C   0  0  0  0  0  0  0  0  0  0  0  0
   -0.3622    4.6312    0.1358 C   0  0  0  0  0  0  0  0  0  0  0  0
   -0.8166    4.8105   -1.1541 F   0  0  0  0  0  0  0  0  0  0  0  0
    0.7937    5.3337    0.3457 F   0  0  0  0  0  0  0  0  0  0  0  0
   -1.2953    5.0570    1.0717 F   0  0  0  0  0  0  0  0  0  0  0  0
    0.6676    2.5308   -0.6123 N   0  0  0  0  0  0  0  0  0  0  0  0
    4.9049    0.7393    0.4612 N   0  0  0  0  0  0  0  0  0  0  0  0
    5.4787   -1.4841    1.7801 O   0  0  0  0  0  0  0  0  0  0  0  0
    6.0446   -1.2909   -0.7895 O   0  0  0  0  0  0  0  0  0  0  0  0
    3.6375   -2.6699   -0.1671 H   0  0  0  0  0  0  0  0  0  0  0  0
    3.5243   -0.1995   -1.7696 H   0  0  0  0  0  0  0  0  0  0  0  0
    3.1138   -1.8770   -2.2011 H   0  0  0  0  0  0  0  0  0  0  0  0
    1.1135   -0.5905   -2.3827 H   0  0  0  0  0  0  0  0  0  0  0  0
    1.0668   -1.7709   -1.0197 H   0  0  0  0  0  0  0  0  0  0  0  0
    2.2874    0.9177   -0.4771 H   0  0  0  0  0  0  0  0  0  0  0  0
    1.7913    0.5690    1.6534 H   0  0  0  0  0  0  0  0  0  0  0  0
    0.5065   -0.6107    1.4413 H   0  0  0  0  0  0  0  0  0  0  0  0
    3.0278   -1.3017    2.0015 H   0  0  0  0  0  0  0  0  0  0  0  0
    1.8809   -2.3669    1.1892 H   0  0  0  0  0  0  0  0  0  0  0  0
   -1.5217    1.3194   -1.6382 H   0  0  0  0  0  0  0  0  0  0  0  0
   -1.7308    0.0837    1.1312 H   0  0  0  0  0  0  0  0  0  0  0  0
   -3.5723    0.0652   -1.2840 H   0  0  0  0  0  0  0  0  0  0  0  0
   -3.4878    1.5072   -0.2571 H   0  0  0  0  0  0  0  0  0  0  0  0
   -3.9447    0.0721    1.7665 H   0  0  0  0  0  0  0  0  0  0  0  0
   -5.2716   -0.0419    0.5285 H   0  0  0  0  0  0  0  0  0  0  0  0
   -3.5554   -2.1877    1.5749 H   0  0  0  0  0  0  0  0  0  0  0  0
   -5.9315   -2.3130    1.1908 H   0  0  0  0  0  0  0  0  0  0  0  0
   -5.1114   -3.5079    0.0452 H   0  0  0  0  0  0  0  0  0  0  0  0
   -5.6959   -1.9561   -0.5970 H   0  0  0  0  0  0  0  0  0  0  0  0
   -2.8043   -3.2052   -0.4705 H   0  0  0  0  0  0  0  0  0  0  0  0
   -3.5412   -1.9602   -1.4928 H   0  0  0  0  0  0  0  0  0  0  0  0
   -1.0277   -1.9143    0.1614 H   0  0  0  0  0  0  0  0  0  0  0  0
   -1.3541   -1.3210   -1.5489 H   0  0  0  0  0  0  0  0  0  0  0  0
   -1.7934    2.1612    1.2057 H   0  0  0  0  0  0  0  0  0  0  0  0
   -2.1260    3.0582   -0.3717 H   0  0  0  0  0  0  0  0  0  0  0  0
    0.3053    2.9672    1.3709 H   0  0  0  0  0  0  0  0  0  0  0  0
    0.5256    2.9632   -1.5521 H   0  0  0  0  0  0  0  0  0  0  0  0
    5.7961    1.2289    0.2243 H   0  0  0  0  0  0  0  0  0  0  0  0
    4.6986    1.0080    1.4647 H   0  0  0  0  0  0  0  0  0  0  0  0
    5.2552   -2.4575    1.7848 H   0  0  0  0  0  0  0  0  0  0  0  0
    6.0973   -0.7627   -1.6166 H   0  0  0  0  0  0  0  0  0  0  0  0
    3.6375   -2.6699   -0.1671 H   0  0  0  0  0  0  0  0  0  0  0  0
    3.5243   -0.1995   -1.7696 H   0  0  0  0  0  0  0  0  0  0  0  0
    3.1138   -1.8770   -2.2011 H   0  0  0  0  0  0  0  0  0  0  0  0
    1.1135   -0.5905   -2.3827 H   0  0  0  0  0  0  0  0  0  0  0  0
    1.0668   -1.7709   -1.0197 H   0  0  0  0  0  0  0  0  0  0  0  0
    2.2874    0.9177   -0.4771 H   0  0  0  0  0  0  0  0  0  0  0  0
    1.7913    0.5690    1.6534 H   0  0  0  0  0  0  0  0  0  0  0  0
    0.5065   -0.6107    1.4413 H   0  0  0  0  0  0  0  0  0  0  0  0
    3.0278   -1.3017    2.0015 H   0  0  0  0  0  0  0  0  0  0  0  0
    1.8809   -2.3669    1.1892 H   0  0  0  0  0  0  0  0  0  0  0  0
   -1.5217    1.3194   -1.6382 H   0  0  0  0  0  0  0  0  0  0  0  0
   -1.7308    0.0837    1.1312 H   0  0  0  0  0  0  0  0  0  0  0  0
   -3.5723    0.0652   -1.2840 H   0  0  0  0  0  0  0  0  0  0  0  0
   -3.4878    1.5072   -0.2571 H   0  0  0  0  0  0  0  0  0  0  0  0
   -3.9447    0.0721    1.7665 H   0  0  0  0  0  0  0  0  0  0  0  0
   -5.2716   -0.0419    0.5285 H   0  0  0  0  0  0  0  0  0  0  0  0
   -3.5554   -2.1877    1.5749 H   0  0  0  0  0  0  0  0  0  0  0  0
   -5.9315   -2.3130    1.1908 H   0  0  0  0  0  0  0  0  0  0  0  0
   -5.1114   -3.5079    0.0452 H   0  0  0  0  0  0  0  0  0  0  0  0
   -5.6959   -1.9561   -0.5970 H   0  0  0  0  0  0  0  0  0  0  0  0
   -2.8043   -3.2052   -0.4705 H   0  0  0  0  0  0  0  0  0  0  0  0
   -3.5412   -1.9602   -1.4928 H   0  0  0  0  0  0  0  0  0  0  0  0
   -1.0277   -1.9143    0.1614 H   0  0  0  0  0  0  0  0  0  0  0  0
   -1.3541   -1.3210   -1.5489 H   0  0  0  0  0  0  0  0  0  0  0  0
   -1.7934    2.1612    1.2057 H   0  0  0  0  0  0  0  0  0  0  0  0
   -2.1260    3.0582   -0.3717 H   0  0  0  0  0  0  0  0  0  0  0  0
    0.3053    2.9672    1.3709 H   0  0  0  0  0  0  0  0  0  0  0  0
    0.5256    2.9632   -1.5521 H   0  0  0  0  0  0  0  0  0  0  0  0
    5.7961    1.2289    0.2243 H   0  0  0  0  0  0  0  0  0  0  0  0
    4.6986    1.0080    1.4647 H   0  0  0  0  0  0  0  0  0  0  0  0
    5.2552   -2.4575    1.7848 H   0  0  0  0  0  0  0  0  0  0  0  0
    6.0973   -0.7627   -1.6166 H   0  0  0  0  0  0  0  0  0  0  0  0
  1  2  1  0
  2  3  1  0
  3  4  1  0
  4  5  1  0
  5  6  1  0
  2  7  1  0
  6  7  1  0
  5  8  1  0
  8  9  1  0
  9 10  1  0
 10 11  1  0
 11 12  1  0
 12 13  1  0
 13 14  1  0
 13 15  1  0
 10 16  1  0
 15 16  1  0
  9 17  1  0
 17 18  1  0
 18 19  1  0
 19 20  1  0
 19 21  1  0
 19 22  1  0
  8 23  1  0
 18 23  1  0
  1 24  1  0
  1 25  1  0
  1 26  1  0
 27 28  1  0
 28 29  1  0
 29 30  1  0
 30 31  1  0
 31 32  1  0
 28 33  1  0
 32 33  1  0
 31 34  1  0
 34 35  1  0
 35 36  1  0
 36 37  1  0
 37 38  1  0
 38 39  1  0
 39 40  1  0
 39 41  1  0
 36 42  1  0
 41 42  1  0
 35 43  1  0
 43 44  1  0
 44 45  1  0
 45 46  1  0
 45 47  1  0
 45 48  1  0
 34 49  1  0
 44 49  1  0
 27 50  1  0
 27 51  1  0
 27 52  1  0
  2 53  1  0
  3 54  1  0
  3 55  1  0
  4 56  1  0
  4 57  1  0
  5 58  1  0
  6 59  1  0
  6 60  1  0
  7 61  1  0
  7 62  1  0
  9 63  1  0
 10 64  1  0
 11 65  1  0
 11 66  1  0
 12 67  1  0
 12 68  1  0
 13 69  1  0
 14 70  1  0
 14 71  1  0
 14 72  1  0
 15 73  1  0
 15 74  1  0
 16 75  1  0
 16 76  1  0
 17 77  1  0
 17 78  1  0
 18 79  1  0
 23 80  1  0
 24 81  1  0
 24 82  1  0
 25 83  1  0
 26 84  1  0
 28 85  1  0
 29 86  1  0
 29 87  1  0
 30 88  1  0
 30 89  1  0
 31 90  1  0
 32 91  1  0
 32 92  1  0
 33 93  1  0
 33 94  1  0
 35 95  1  0
 36 96  1  0
 37 97  1  0
 37 98  1  0
 38 99  1  0
 38100  1  0
 39101  1  0
 40102  1  0
 40103  1  0
 40104  1  0
 41105  1  0
 41106  1  0
 42107  1  0
 42108  1  0
 43109  1  0
 43110  1  0
 44111  1  0
 49112  1  0
 50113  1  0
 50114  1  0
 51115  1  0
 52116  1  0
M  END
>  <PDBID>  (1) 
5JW1

>  <PDB ID>  (1) 
5JW1

>  <Generic Name>  (1) 
Celecoxib

>  <Brand Name>  (1) 
Accel-celecoxib#Act Celecoxib#Ag-celecoxib#Apo-celecoxib#Auro-celecoxib#Bio-celecoxib#Celebrex#Celecoxib#Celecoxib 100 mg#Celecoxib 200 mg#Celecoxib 400 mg#Celecoxib 50 mg#Dom-celecoxib#Gd-celecoxib#Ipg-celecoxib#Jamp-celecoxib#Lupin-celecoxib#Mar-celecoxib#Mint-celecoxib#Mylan-celecoxib#PMS-celecoxib#Priva-celecoxib#Ran-celecoxib#Rbx-celecoxib#Riva-celecox#Riva-celecoxib#Sandoz Celecoxib#Sdz Celecoxib#Teva-celecoxib#Articox#Articoxib#Artiflex#Artilog#Artix#Artrixib#Blockten#Caditar#Cefinix#Celact#Celebra#Onsenal#Valdyne

>  <DrugBank ID>  (1) 
DB00482

>  <ATC Codes>  (1) 
L01XX33#M01AH01

>  <Ligand ID>  (1) 
CEL

>  <Target Name>  (1) 
Prostaglandin G/H synthase 2

>  <UniProt ID>  (1) 
P35354

>  <PDB ID.1>  (1) 
5JW1

>  <Seq. Identity>  (1) 
85%

$$$$
