PDB_DB01336_08
     RDKit          3D

  0  0  0  0  0  0  0  0  0  0999 V3000
M  V30 BEGIN CTAB
M  V30 COUNTS 960 1008 0 0 0
M  V30 BEGIN ATOM
M  V30 1 N -5.04444 -2.71439 0.222087 0 CHG=1
M  V30 2 C -6.17917 -2.22933 0.948816 0
M  V30 3 C -6.18629 -0.7755 1.25236 0
M  V30 4 C -5.50065 -0.0695665 0.110944 0
M  V30 5 C -4.02637 -0.459694 0.210824 0
M  V30 6 C -3.82922 -1.90768 0.444855 0 CFG=2
M  V30 7 C -5.57083 1.40451 0.161836 0
M  V30 8 C -4.26193 2.13416 0.248249 0
M  V30 9 C -3.22942 1.60739 -0.749806 0
M  V30 10 C -3.42392 0.122231 -1.02948 0
M  V30 11 O -1.99317 1.87254 -0.178433 0
M  V30 12 C -0.99173 2.18671 -1.09867 0
M  V30 13 C -0.967754 3.65718 -1.3346 0
M  V30 14 C -0.202246 4.45133 -0.319948 0
M  V30 15 C 1.02326 3.77899 0.230083 0
M  V30 16 C 1.42296 2.59858 -0.65517 0
M  V30 17 C 0.334652 1.57378 -0.702833 0
M  V30 18 C 2.80966 2.20746 -0.67245 0
M  V30 19 C 3.5584 1.41642 0.312731 0 CFG=1
M  V30 20 N 3.5874 1.71751 1.69114 0 CHG=1
M  V30 21 C 4.80558 1.16655 2.30884 0
M  V30 22 C 5.8514 0.723878 1.34679 0
M  V30 23 C 5.28886 -0.37887 0.544634 0 CFG=1
M  V30 24 C 3.99677 0.0541271 -0.133032 0
M  V30 25 C 6.17188 -0.957368 -0.50712 0
M  V30 26 C 5.29119 -1.76423 -1.41336 0
M  V30 27 C 4.00549 -2.24459 -0.751566 0
M  V30 28 C 3.14974 -1.11337 -0.20686 0
M  V30 29 O 2.54695 -1.60621 0.934022 0
M  V30 30 C 1.18075 -1.86551 0.671494 0
M  V30 31 C 0.312107 -1.65983 1.89358 0
M  V30 32 C -1.1251 -1.5221 1.38471 0
M  V30 33 C -1.32799 -2.32903 0.155677 0
M  V30 34 C -0.542881 -3.62919 0.411472 0
M  V30 35 C 0.926131 -3.30134 0.283034 0
M  V30 36 C -2.72167 -2.57172 -0.266596 0
M  V30 37 O -4.54247 3.46344 -0.058568 0
M  V30 38 C -4.20456 4.27089 0.997548 0
M  V30 39 O -0.652567 4.00505 -2.6453 0
M  V30 40 O 5.12669 -1.27811 -2.68509 0
M  V30 41 C 5.66497 -2.04026 -3.69251 0
M  V30 42 O 4.4502 -3.13687 0.21772 0
M  V30 43 C -4.7391 -4.04657 0.777259 0
M  V30 44 C 3.74408 3.18043 1.83997 0
M  V30 45 C 2.54568 1.33369 2.55314 0
M  V30 46 C 4.257 -4.42655 -0.178113 0
M  V30 47 C -5.3628 -2.90299 -1.14688 0
M  V30 48 C -1.69602 4.60398 -3.30072 0
M  V30 49 N -4.76458 -2.56839 -1.07584 0 CHG=1
M  V30 50 C -6.11627 -2.13611 -1.08972 0
M  V30 51 C -6.43642 -0.811524 -0.526982 0
M  V30 52 C -5.55733 -0.312489 0.567506 0 CFG=1
M  V30 53 C -4.06506 -0.603279 0.263836 0 CFG=1
M  V30 54 C -4.00841 -2.07207 0.0782568 0 CFG=2
M  V30 55 C -5.69261 1.16319 0.696342 0
M  V30 56 C -4.37388 1.87216 0.886194 0 CFG=1
M  V30 57 C -3.44531 1.67298 -0.293482 0
M  V30 58 C -3.72126 0.291904 -0.854732 0
M  V30 59 O -2.17524 1.70516 0.201987 0
M  V30 60 C -1.20954 2.22623 -0.693867 0
M  V30 61 C -1.12248 3.67591 -0.423873 0
M  V30 62 C 0.287364 4.18097 -0.192803 0
M  V30 63 C 1.14111 3.46607 -1.2104 0
M  V30 64 C 1.33475 2.01145 -0.865705 0 CFG=2
M  V30 65 C -0.0116712 1.38312 -0.617618 0
M  V30 66 C 2.18243 1.76438 0.369864 0
M  V30 67 C 3.55788 1.29558 0.146823 0 CFG=1
M  V30 68 N 4.4496 2.37599 0.656443 0 CHG=1
M  V30 69 C 5.81603 1.96781 0.772815 0
M  V30 70 C 6.09694 1.05167 -0.410142 0
M  V30 71 C 5.37717 -0.210344 -0.119626 0 CFG=1
M  V30 72 C 4.06579 0.0454875 0.70553 0 CFG=2
M  V30 73 C 4.92431 -0.872298 -1.38153 0
M  V30 74 C 4.65998 -2.2997 -0.980569 0 CFG=1
M  V30 75 C 4.05167 -2.44548 0.384768 0
M  V30 76 C 3.34131 -1.19199 0.878909 0 CFG=2
M  V30 77 O 2.02085 -1.31373 0.477609 0
M  V30 78 C 1.33946 -2.2806 1.21758 0
M  V30 79 C 0.364002 -1.73846 2.20435 0
M  V30 80 C -1.07067 -1.90342 1.90586 0
M  V30 81 C -1.48385 -1.98733 0.47001 0
M  V30 82 C -0.405348 -2.51247 -0.452422 0
M  V30 83 C 0.599332 -3.28388 0.370282 0
M  V30 84 C -2.7384 -2.79184 0.271885 0
M  V30 85 O -4.66629 3.22563 0.985542 0
M  V30 86 C -4.31116 3.68078 2.23686 0
M  V30 87 O -1.57767 4.41688 -1.54266 0
M  V30 88 O 3.83269 -2.85347 -1.97321 0
M  V30 89 C 4.50886 -3.84391 -2.65228 0
M  V30 90 O 5.08523 -2.83331 1.23881 0
M  V30 91 C -4.79317 -4.03092 -0.859805 0
M  V30 92 C 4.42304 3.54073 -0.161744 0
M  V30 93 C 3.99814 2.76378 2.00043 0
M  V30 94 C 4.96601 -4.12282 1.69296 0
M  V30 95 C -4.10949 -2.36294 -2.32386 0
M  V30 96 C -2.56459 5.31684 -1.23217 0
M  V30 97 N -4.82855 -2.73906 -0.469566 0 CHG=1
M  V30 98 C -6.02935 -2.55823 0.286469 0
M  V30 99 C -6.16352 -1.25187 0.977283 0
M  V30 100 C -5.54621 -0.205175 0.0885779 0
M  V30 101 C -4.03215 -0.488878 0.146619 0
M  V30 102 C -3.70081 -1.92657 0.0297289 0 CFG=2
M  V30 103 C -5.72972 1.18788 0.565293 0
M  V30 104 C -4.47525 1.96691 0.828267 0
M  V30 105 C -3.43745 1.80171 -0.279812 0
M  V30 106 C -3.47967 0.42087 -0.901363 0
M  V30 107 O -2.21189 2.05298 0.314301 0
M  V30 108 C -1.18278 2.346 -0.540481 0
M  V30 109 C -1.13734 3.76256 -1.01003 0
M  V30 110 C -0.116459 4.62453 -0.32769 0
M  V30 111 C 1.22949 4.01613 -0.123602 0
M  V30 112 C 1.27087 2.56702 -0.637814 0
M  V30 113 C 0.167675 1.87673 0.0396396 0
M  V30 114 C 2.55845 1.99097 -0.921425 0
M  V30 115 C 3.57859 1.44281 -0.0327068 0 CFG=1
M  V30 116 N 3.92087 2.05231 1.20624 0 CHG=1
M  V30 117 C 5.20054 1.5252 1.71089 0
M  V30 118 C 6.09122 1.004 0.627552 0
M  V30 119 C 5.3988 -0.233811 0.179386 0
M  V30 120 C 3.93547 -0.00664503 -0.219063 0 CFG=1
M  V30 121 C 6.00389 -0.995097 -0.929564 0
M  V30 122 C 5.04116 -2.13737 -1.1838 0
M  V30 123 C 4.06764 -2.37327 -0.0508019 0
M  V30 124 C 3.2443 -1.13404 0.329572 0 CFG=2
M  V30 125 O 1.91353 -1.35267 0.0694441 0
M  V30 126 C 1.36847 -2.13807 1.05492 0
M  V30 127 C 0.25397 -1.47205 1.83939 0
M  V30 128 C -1.07965 -1.50231 1.19732 0
M  V30 129 C -1.1511 -2.03576 -0.176629 0
M  V30 130 C -0.281723 -3.27296 -0.40226 0
M  V30 131 C 0.779011 -3.44519 0.618296 0
M  V30 132 C -2.48309 -2.29694 -0.735444 0
M  V30 133 O -4.84064 3.31012 0.83504 0
M  V30 134 C -4.51946 3.87082 2.06466 0
M  V30 135 O -1.02431 3.91033 -2.38917 0
M  V30 136 O 4.42191 -2.07435 -2.42268 0
M  V30 137 C 4.80503 -3.13468 -3.20155 0
M  V30 138 O 4.61912 -3.01141 1.01771 0
M  V30 139 C -4.4451 -4.15075 -0.262229 0
M  V30 140 C 4.24009 3.47478 0.961594 0
M  V30 141 C 3.01743 1.92744 2.2919 0
M  V30 142 C 4.27781 -4.2889 1.29499 0
M  V30 143 C -5.07373 -2.58351 -1.85787 0
M  V30 144 C -2.10154 4.56988 -2.93512 0
M  V30 145 N -4.97136 -2.55196 0.855018 0 CHG=1
M  V30 146 C -6.04034 -1.92756 1.55611 0
M  V30 147 C -5.9588 -0.425532 1.64412 0
M  V30 148 C -5.43813 0.0181874 0.308585 0
M  V30 149 C -3.95341 -0.356659 0.300954 0
M  V30 150 C -3.74879 -1.72784 0.765336 0 CFG=2
M  V30 151 C -5.59209 1.43706 -0.0218495 0
M  V30 152 C -4.33079 2.24161 -0.158508 0
M  V30 153 C -3.28202 1.56264 -1.01849 0
M  V30 154 C -3.50049 0.0372414 -1.04827 0
M  V30 155 O -2.07298 1.82013 -0.393988 0
M  V30 156 C -1.02161 2.09059 -1.27229 0 CFG=1
M  V30 157 C -0.979594 3.56051 -1.53519 0 CFG=1
M  V30 158 C -0.249282 4.35769 -0.490698 0
M  V30 159 C 0.905869 3.63897 0.15728 0
M  V30 160 C 1.36955 2.46141 -0.681004 0
M  V30 161 C 0.273446 1.48014 -0.77624 0
M  V30 162 C 2.76436 2.10109 -0.604325 0
M  V30 163 C 3.49103 1.34436 0.406211 0 CFG=1
M  V30 164 N 3.37999 1.60344 1.7998 0 CHG=1
M  V30 165 C 4.53761 1.06385 2.52091 0
M  V30 166 C 5.66691 0.607552 1.68284 0
M  V30 167 C 5.18621 -0.476995 0.807565 0
M  V30 168 C 4.04189 0.00955718 -0.0281778 0
M  V30 169 C 6.19248 -1.12011 -0.08644 0
M  V30 170 C 5.56057 -1.67692 -1.31789 0
M  V30 171 C 4.11419 -2.09627 -1.17088 0
M  V30 172 C 3.23525 -1.14154 -0.376522 0
M  V30 173 O 2.69916 -1.9247 0.649893 0
M  V30 174 C 1.33972 -2.08733 0.562705 0
M  V30 175 C 0.611113 -2.12099 1.88872 0
M  V30 176 C -0.869869 -1.7519 1.67614 0
M  V30 177 C -1.29936 -2.32254 0.382898 0
M  V30 178 C -0.539 -3.65635 0.260791 0
M  V30 179 C 0.899047 -3.34844 -0.164451 0
M  V30 180 C -2.71746 -2.55362 0.112302 0
M  V30 181 O -4.70616 3.47321 -0.682654 0
M  V30 182 C -4.48954 4.46025 0.266943 0
M  V30 183 O -0.559746 3.86239 -2.8251 0
M  V30 184 O 5.80905 -0.950045 -2.4808 0
M  V30 185 C 6.59481 -1.59017 -3.39757 0
M  V30 186 O 4.06904 -3.40018 -0.763204 0
M  V30 187 C -4.62054 -3.7483 1.64482 0
M  V30 188 C 3.50118 3.06936 1.99033 0
M  V30 189 C 2.25279 1.20348 2.53144 0
M  V30 190 C 3.73415 -4.32117 -1.73188 0
M  V30 191 C -5.3987 -3.03536 -0.422869 0
M  V30 192 C -1.59544 4.46573 -3.52415 0
M  V30 193 N -4.72956 -2.39397 -0.865839 0 CHG=1
M  V30 194 C -6.1157 -2.1161 -0.667037 0
M  V30 195 C -6.4417 -0.774289 -0.144925 0
M  V30 196 C -5.5064 -0.23968 0.879952 0 CFG=1
M  V30 197 C -4.02741 -0.437345 0.459125 0
M  V30 198 C -3.86819 -1.88037 0.215348 0 CFG=2
M  V30 199 C -5.68072 1.25495 1.02498 0
M  V30 200 C -4.38841 1.97498 1.22807 0
M  V30 201 C -3.48243 1.85772 -0.0114605 0
M  V30 202 C -3.82096 0.520428 -0.62826 0
M  V30 203 O -2.19544 2.02284 0.393784 0
M  V30 204 C -1.24677 2.13969 -0.58073 0 CFG=1
M  V30 205 C -1.27304 3.49638 -1.22982 0
M  V30 206 C 0.199162 3.74701 -1.66301 0
M  V30 207 C 0.678424 2.41366 -2.18 0
M  V30 208 C 1.16233 1.55431 -0.971054 0 CFG=2
M  V30 209 C 0.140096 1.88457 0.0549849 0
M  V30 210 C 2.54488 1.95287 -0.791686 0
M  V30 211 C 3.52414 1.35518 0.131191 0 CFG=1
M  V30 212 N 3.732 1.98381 1.41926 0 CHG=1
M  V30 213 C 5.12121 1.8337 1.88281 0
M  V30 214 C 6.01629 1.15809 0.87846 0
M  V30 215 C 5.41262 -0.120178 0.475375 0 CFG=1
M  V30 216 C 3.98471 -0.00463112 -0.0588918 0
M  V30 217 C 6.14706 -0.901612 -0.584531 0
M  V30 218 C 5.29998 -2.03799 -1.03115 0 CFG=1
M  V30 219 C 4.14021 -2.3943 -0.143336 0
M  V30 220 C 3.3523 -1.23829 0.422947 0 CFG=2
M  V30 221 O 2.03377 -1.42972 0.237371 0
M  V30 222 C 1.46775 -2.29372 1.16859 0
M  V30 223 C 0.560053 -1.5187 2.06366 0
M  V30 224 C -0.881718 -1.50587 1.76845 0
M  V30 225 C -1.31266 -1.72625 0.350829 0
M  V30 226 C -0.234887 -2.47141 -0.456755 0
M  V30 227 C 0.605458 -3.34471 0.487173 0
M  V30 228 C -2.54944 -2.52414 0.202557 0
M  V30 229 O -4.67652 3.33161 1.37268 0
M  V30 230 C -4.23108 3.84847 2.56888 0
M  V30 231 O -1.95439 3.53824 -2.44391 0
M  V30 232 O 4.93378 -1.87059 -2.35168 0
M  V30 233 C 5.48959 -2.84951 -3.1959 0
M  V30 234 O 4.57946 -3.26789 0.874611 0
M  V30 235 C -4.5963 -3.86051 -0.739104 0
M  V30 236 C 3.57522 3.44894 1.25204 0
M  V30 237 C 2.90118 1.61912 2.48965 0
M  V30 238 C 4.18896 -4.563 0.734495 0
M  V30 239 C -4.27811 -2.06434 -2.17504 0
M  V30 240 C -2.77126 4.65524 -2.51479 0
M  V30 241 N -4.95065 -2.40215 -0.173999 0 CHG=1
M  V30 242 C -6.20832 -1.87763 0.30698 0
M  V30 243 C -6.07987 -0.795662 1.32825 0
M  V30 244 C -5.07165 0.183957 0.829636 0 CFG=2
M  V30 245 C -3.67842 -0.438511 0.616983 0
M  V30 246 C -3.83228 -1.89147 0.653889 0 CFG=2
M  V30 247 C -4.85333 1.38966 1.65505 0
M  V30 248 C -3.54477 2.02777 1.2819 0
M  V30 249 C -3.10838 1.76307 -0.128241 0
M  V30 250 C -3.1677 0.295265 -0.540316 0
M  V30 251 O -1.77375 2.14832 -0.213575 0
M  V30 252 C -1.27631 2.1854 -1.50865 0
M  V30 253 C -1.28183 3.60824 -1.98801 0 CFG=1
M  V30 254 C -0.0572606 4.39273 -1.68764 0
M  V30 255 C 1.14179 3.59677 -2.06871 0
M  V30 256 C 1.2025 2.38028 -1.12033 0 CFG=1
M  V30 257 C 0.0481664 1.50123 -1.64529 0
M  V30 258 C 2.49073 1.69586 -1.18042 0
M  V30 259 C 3.29167 1.39022 0.0170529 0 CFG=1
M  V30 260 N 2.87797 1.90211 1.28181 0 CHG=1
M  V30 261 C 3.86278 1.6176 2.3081 0
M  V30 262 C 5.131 1.03186 1.80178 0
M  V30 263 C 4.76047 -0.278952 1.1797 0 CFG=1
M  V30 264 C 3.92033 0.0474743 -0.0455002 0
M  V30 265 C 5.88957 -1.11455 0.73282 0
M  V30 266 C 5.62416 -1.87199 -0.50297 0
M  V30 267 C 4.22191 -2.16264 -0.895178 0
M  V30 268 C 3.18106 -1.18187 -0.323516 0
M  V30 269 O 2.70377 -1.88933 0.808397 0
M  V30 270 C 1.35974 -2.13734 0.776622 0
M  V30 271 C 0.705949 -2.14669 2.13958 0
M  V30 272 C -0.750868 -1.73373 1.92308 0
M  V30 273 C -1.29363 -2.3582 0.646403 0
M  V30 274 C -0.495784 -3.68836 0.551349 0
M  V30 275 C 0.9283 -3.40849 0.0939363 0
M  V30 276 C -2.69611 -2.8049 0.722754 0
M  V30 277 O -3.72302 3.40706 1.39535 0
M  V30 278 C -2.84855 3.96396 2.35684 0
M  V30 279 O -1.52057 3.6543 -3.3591 0
M  V30 280 O 6.35591 -1.30372 -1.54714 0
M  V30 281 C 7.36347 -2.10699 -2.01632 0
M  V30 282 O 3.8695 -3.48631 -0.695978 0
M  V30 283 C -5.01528 -3.85595 0.0777135 0
M  V30 284 C 2.88628 3.38472 1.17272 0
M  V30 285 C 1.62292 1.46259 1.80599 0
M  V30 286 C 3.62908 -4.19037 -1.85649 0
M  V30 287 C -4.73212 -2.24674 -1.57317 0
M  V30 288 C -2.70716 4.32515 -3.65423 0
M  V30 289 N -4.6133 -2.55348 -0.255987 0 CHG=1
M  V30 290 C -5.45013 -2.52802 0.904947 0
M  V30 291 C -5.2168 -1.34357 1.81675 0
M  V30 292 C -5.1066 -0.149745 0.978252 0
M  V30 293 C -3.78905 -0.285307 0.193123 0
M  V30 294 C -3.43642 -1.69385 -0.069711 0 CFG=2
M  V30 295 C -5.07988 1.17348 1.61445 0
M  V30 296 C -4.66198 2.31373 0.774294 0
M  V30 297 C -3.75087 2.02748 -0.37626 0
M  V30 298 C -3.99546 0.624532 -0.954749 0
M  V30 299 O -2.45267 1.95956 0.135038 0
M  V30 300 C -1.50859 2.49287 -0.715691 0 CFG=1
M  V30 301 C -1.3334 3.9594 -0.444641 0
M  V30 302 C -0.359935 4.28995 0.644848 0
M  V30 303 C 0.184612 3.00882 1.21519 0
M  V30 304 C 0.886243 2.30873 0.0417531 0 CFG=2
M  V30 305 C -0.266053 1.69252 -0.732685 0
M  V30 306 C 1.86278 1.26577 0.533289 0
M  V30 307 C 3.20665 1.28597 -0.165594 0 CFG=1
M  V30 308 N 4.10383 2.21247 0.49428 0 CHG=1
M  V30 309 C 5.46836 2.14496 0.132323 0
M  V30 310 C 5.78683 1.13223 -0.968463 0
M  V30 311 C 5.26239 -0.159981 -0.320345 0
M  V30 312 C 3.75372 -0.0488379 -0.470928 0
M  V30 313 C 5.78081 -1.35645 -1.03844 0
M  V30 314 C 5.13003 -2.58461 -0.451532 0
M  V30 315 C 4.14504 -2.28019 0.641247 0 CFG=2
M  V30 316 C 3.09544 -1.2416 0.221237 0 CFG=2
M  V30 317 O 2.10161 -1.70954 -0.548282 0
M  V30 318 C 1.67917 -2.9601 -0.601145 0
M  V30 319 C 0.952037 -3.14107 -1.95462 0
M  V30 320 C -0.221907 -2.24256 -1.95162 0
M  V30 321 C -1.25969 -2.71328 -0.912613 0
M  V30 322 C -0.599415 -2.5681 0.421794 0
M  V30 323 C 0.67334 -3.38411 0.435154 0
M  V30 324 C -2.43252 -1.80115 -1.13906 0
M  V30 325 O -5.82002 2.90141 0.239163 0
M  V30 326 C -6.04193 4.17624 0.710193 0
M  V30 327 O -1.11759 4.69681 -1.60093 0
M  V30 328 O 6.10015 -3.408 0.0922519 0
M  V30 329 C 6.10609 -4.61993 -0.592342 0
M  V30 330 O 4.74471 -1.95689 1.85739 0
M  V30 331 C -4.11997 -3.94206 -0.34029 0
M  V30 332 C 4.01305 2.09681 1.94816 0
M  V30 333 C 3.72148 3.61493 0.211833 0
M  V30 334 C 4.50231 -2.85089 2.86528 0
M  V30 335 C -5.30586 -2.2938 -1.48024 0
M  V30 336 C -2.15036 5.57655 -1.89621 0
M  V30 337 N -5.03891 -2.50335 0.00363635 0 CHG=1
M  V30 338 C -6.25837 -2.08096 0.649548 0
M  V30 339 C -6.10022 -0.852331 1.49073 0
M  V30 340 C -5.29421 0.102792 0.657474 0
M  V30 341 C -3.84231 -0.387836 0.494105 0
M  V30 342 C -3.8536 -1.8301 0.599457 0 CFG=2
M  V30 343 C -5.35906 1.51518 1.11 0
M  V30 344 C -4.06279 2.18531 0.896512 0
M  V30 345 C -3.33681 1.82401 -0.386609 0
M  V30 346 C -3.37463 0.341641 -0.695801 0
M  V30 347 O -2.09115 2.3495 -0.207347 0
M  V30 348 C -1.18343 2.25734 -1.2252 0 CFG=1
M  V30 349 C -0.977965 3.69377 -1.73226 0 CFG=1
M  V30 350 C 0.494737 3.95574 -1.96849 0
M  V30 351 C 1.06293 2.66565 -2.53098 0
M  V30 352 C 1.29383 1.69086 -1.33753 0 CFG=2
M  V30 353 C 0.11304 1.88524 -0.477974 0
M  V30 354 C 2.62188 2.03221 -0.850973 0
M  V30 355 C 3.37783 1.34417 0.197643 0 CFG=1
M  V30 356 N 3.10681 1.74893 1.56588 0 CHG=1
M  V30 357 C 4.24225 1.48454 2.46155 0
M  V30 358 C 5.41597 0.879842 1.78091 0
M  V30 359 C 4.90521 -0.34722 1.0807 0
M  V30 360 C 3.96529 0.0313209 -0.0616435 0
M  V30 361 C 5.97878 -1.21883 0.546092 0
M  V30 362 C 5.68349 -1.89839 -0.729737 0
M  V30 363 C 4.26048 -2.13738 -1.0762 0
M  V30 364 C 3.25599 -1.19176 -0.390415 0
M  V30 365 O 2.75604 -1.96002 0.676082 0
M  V30 366 C 1.39606 -2.13148 0.62785 0
M  V30 367 C 0.70595 -2.25622 1.96134 0
M  V30 368 C -0.761666 -1.81837 1.80014 0
M  V30 369 C -1.30066 -2.25448 0.478603 0
M  V30 370 C -0.515642 -3.56448 0.178265 0
M  V30 371 C 0.907063 -3.25743 -0.229321 0
M  V30 372 C -2.6968 -2.68816 0.39927 0
M  V30 373 O -4.28451 3.56668 0.834385 0
M  V30 374 C -3.6372 4.27004 1.81946 0
M  V30 375 O -1.7351 3.90134 -2.88461 0
M  V30 376 O 6.35783 -1.23142 -1.75244 0
M  V30 377 C 7.37118 -2.00139 -2.31673 0
M  V30 378 O 3.92048 -3.46548 -0.853087 0
M  V30 379 C -4.90987 -3.9263 0.380675 0
M  V30 380 C 3.05984 3.23042 1.52066 0
M  V30 381 C 1.94507 1.32113 2.20412 0
M  V30 382 C 3.64129 -4.16461 -2.04046 0
M  V30 383 C -5.07041 -2.43888 -1.4141 0
M  V30 384 C -2.64389 4.94578 -2.72722 0
M  V30 385 H -7.10456 -2.44967 0.338626 0
M  V30 386 H -6.35219 -2.79433 1.90523 0
M  V30 387 H -5.56574 -0.624766 2.18269 0
M  V30 388 H -7.19858 -0.410287 1.43569 0
M  V30 389 H -5.95617 -0.437177 -0.829605 0
M  V30 390 H -3.67113 0.11708 1.11672 0
M  V30 391 H -3.65299 -2.07707 1.55284 0
M  V30 392 H -6.13868 1.80918 -0.710681 0
M  V30 393 H -6.16131 1.70077 1.05702 0
M  V30 394 H -3.84195 2.13606 1.27375 0
M  V30 395 H -3.39459 2.19291 -1.68458 0
M  V30 396 H -2.51749 -0.3568 -1.38223 0
M  V30 397 H -4.14378 0.083298 -1.90175 0
M  V30 398 H -1.3023 1.6998 -2.05612 0
M  V30 399 H -2.04158 3.99784 -1.21992 0
M  V30 400 H 0.0302727 5.43915 -0.820596 0
M  V30 401 H -0.87376 4.76307 0.535334 0
M  V30 402 H 1.85713 4.53001 0.113958 0
M  V30 403 H 0.828938 3.48714 1.25529 0
M  V30 404 H 1.2608 3.08996 -1.68573 0
M  V30 405 H 0.664715 0.803256 -1.44349 0
M  V30 406 H 0.277818 1.0832 0.273559 0
M  V30 407 H 2.94859 1.61044 -1.6427 0
M  V30 408 H 3.34962 3.17078 -0.99727 0
M  V30 409 H 4.62412 1.90773 0.135767 0
M  V30 410 H 4.56141 0.264792 2.94639 0
M  V30 411 H 5.2698 1.88452 3.01612 0
M  V30 412 H 6.6255 0.224076 2.02168 0
M  V30 413 H 6.43673 1.48954 0.844531 0
M  V30 414 H 5.06101 -1.20866 1.28049 0
M  V30 415 H 4.26271 0.251008 -1.23657 0
M  V30 416 H 6.58816 -0.1201 -1.11401 0
M  V30 417 H 6.97453 -1.52223 -0.0240928 0
M  V30 418 H 5.8704 -2.73063 -1.57368 0
M  V30 419 H 3.51827 -2.82939 -1.56028 0
M  V30 420 H 2.38277 -0.950628 -1.02869 0
M  V30 421 H 0.928857 -1.15186 -0.107197 0
M  V30 422 H 0.600577 -0.772578 2.48799 0
M  V30 423 H 0.386056 -2.52085 2.59663 0
M  V30 424 H -1.74379 -1.94414 2.20514 0
M  V30 425 H -1.2573 -0.439035 1.26243 0
M  V30 426 H -0.805677 -1.89381 -0.742099 0
M  V30 427 H -0.800919 -3.94291 1.46098 0
M  V30 428 H -0.863845 -4.43146 -0.259853 0
M  V30 429 H 1.23817 -3.5474 -0.728144 0
M  V30 430 H 1.43809 -3.92144 1.07392 0
M  V30 431 H -2.88822 -3.68889 -0.180753 0
M  V30 432 H -2.8911 -2.39895 -1.37313 0
M  V30 433 H -4.78174 3.98835 1.91616 0
M  V30 434 H -4.43724 5.32489 0.79695 0
M  V30 435 H -3.1368 4.20771 1.28871 0
M  V30 436 H 6.75638 -2.18231 -3.60793 0
M  V30 437 H 5.18077 -3.04858 -3.63121 0
M  V30 438 H 5.34686 -1.6055 -4.66137 0
M  V30 439 H -3.94797 -4.02035 1.52363 0
M  V30 440 H -5.65075 -4.44504 1.31224 0
M  V30 441 H -4.58341 -4.79538 -0.0427802 0
M  V30 442 H 4.64469 3.43397 2.47465 0
M  V30 443 H 2.90775 3.62342 2.42065 0
M  V30 444 H 3.94751 3.66461 0.881733 0
M  V30 445 H 2.68929 0.282654 2.95306 0
M  V30 446 H 2.61614 1.94522 3.50931 0
M  V30 447 H 1.52061 1.42569 2.25145 0
M  V30 448 H 4.83905 -4.56728 -1.12387 0
M  V30 449 H 3.24309 -4.79013 -0.240846 0
M  V30 450 H 4.79434 -5.0771 0.564203 0
M  V30 451 H -6.46951 -2.73195 -1.30428 0
M  V30 452 H -5.22195 -3.9697 -1.49539 0
M  V30 453 H -4.85604 -2.28458 -1.87677 0
M  V30 454 H -2.5931 3.96833 -3.3707 0
M  V30 455 H -2.0086 5.52311 -2.74462 0
M  V30 456 H -1.34625 4.95947 -4.28929 0
M  V30 457 H -6.4509 -2.13743 -2.17172 0
M  V30 458 H -6.79007 -2.90748 -0.614417 0
M  V30 459 H -6.57009 -0.0595793 -1.35428 0
M  V30 460 H -7.4774 -0.859668 -0.0798842 0
M  V30 461 H -5.80203 -0.880412 1.48876 0
M  V30 462 H -3.55958 -0.369901 1.22246 0
M  V30 463 H -4.66982 -2.45956 0.933792 0
M  V30 464 H -6.29703 1.60419 -0.145953 0
M  V30 465 H -6.29077 1.37908 1.61884 0
M  V30 466 H -3.94 1.53572 1.83058 0
M  V30 467 H -3.63141 2.43916 -1.0792 0
M  V30 468 H -2.95854 -0.056397 -1.57343 0
M  V30 469 H -4.62928 0.478556 -1.51899 0
M  V30 470 H -1.7184 2.09049 -1.69762 0
M  V30 471 H -1.726 4.04716 0.429335 0
M  V30 472 H 0.3299 5.26293 -0.446888 0
M  V30 473 H 0.606563 4.09345 0.840875 0
M  V30 474 H 0.487932 3.41669 -2.1466 0
M  V30 475 H 2.016 3.99852 -1.55454 0
M  V30 476 H 1.84948 1.59889 -1.78621 0
M  V30 477 H -0.104485 0.596185 -1.4141 0
M  V30 478 H -0.00677375 0.808129 0.334273 0
M  V30 479 H 2.1497 2.77265 0.895103 0
M  V30 480 H 1.61282 1.13896 1.1269 0
M  V30 481 H 3.74333 1.36581 -0.973324 0
M  V30 482 H 6.13067 1.57171 1.73408 0
M  V30 483 H 6.49171 2.8569 0.590651 0
M  V30 484 H 7.19119 0.894529 -0.498523 0
M  V30 485 H 5.73672 1.5841 -1.31405 0
M  V30 486 H 6.0377 -0.862618 0.464532 0
M  V30 487 H 4.55658 0.310182 1.70566 0
M  V30 488 H 3.97359 -0.474398 -1.79284 0
M  V30 489 H 5.73651 -0.862395 -2.13773 0
M  V30 490 H 5.62768 -2.82852 -1.03867 0
M  V30 491 H 3.38803 -3.32136 0.31819 0
M  V30 492 H 3.24758 -1.42783 1.99667 0
M  V30 493 H 2.08385 -2.90624 1.80663 0
M  V30 494 H 0.560037 -0.628563 2.29822 0
M  V30 495 H 0.616518 -2.1177 3.23436 0
M  V30 496 H -1.43769 -2.8439 2.4154 0
M  V30 497 H -1.63896 -1.08735 2.44891 0
M  V30 498 H -1.6235 -0.919439 0.163156 0
M  V30 499 H -0.883342 -3.26021 -1.12888 0
M  V30 500 H 0.067515 -1.71079 -1.03967 0
M  V30 501 H 1.20773 -3.94182 -0.239128 0
M  V30 502 H -0.0345592 -3.86902 1.1087 0
M  V30 503 H -2.73223 -3.53166 1.13201 0
M  V30 504 H -2.60182 -3.47941 -0.617568 0
M  V30 505 H -4.83409 3.1708 3.07383 0
M  V30 506 H -4.60402 4.76512 2.36059 0
M  V30 507 H -3.21681 3.66727 2.39129 0
M  V30 508 H 4.82734 -4.66808 -1.96519 0
M  V30 509 H 3.84469 -4.33527 -3.39647 0
M  V30 510 H 5.37636 -3.43437 -3.22684 0
M  V30 511 H -4.65019 -4.29223 0.205722 0
M  V30 512 H -5.79496 -4.42702 -1.13603 0
M  V30 513 H -4.07491 -4.54656 -1.5249 0
M  V30 514 H 5.41734 4.07629 -0.140302 0
M  V30 515 H 3.63705 4.23228 0.189153 0
M  V30 516 H 4.25378 3.23413 -1.2014 0
M  V30 517 H 4.85248 2.78056 2.7254 0
M  V30 518 H 3.58065 3.79095 2.00731 0
M  V30 519 H 3.28484 2.01856 2.40516 0
M  V30 520 H 5.76415 -4.44713 2.35988 0
M  V30 521 H 4.82591 -4.8114 0.810638 0
M  V30 522 H 4.02284 -4.20652 2.27114 0
M  V30 523 H -4.44553 -1.47996 -2.88413 0
M  V30 524 H -3.00723 -2.36776 -2.26915 0
M  V30 525 H -4.3714 -3.23798 -2.98899 0
M  V30 526 H -2.83719 5.83949 -2.19294 0
M  V30 527 H -3.4768 4.82112 -0.898879 0
M  V30 528 H -2.25219 6.10545 -0.495166 0
M  V30 529 H -6.90877 -2.66215 -0.414454 0
M  V30 530 H -6.20049 -3.36522 1.04961 0
M  V30 531 H -5.58276 -1.31187 1.93788 0
M  V30 532 H -7.20291 -1.03003 1.22291 0
M  V30 533 H -5.92679 -0.282015 -0.939466 0
M  V30 534 H -3.78365 -0.148469 1.19157 0
M  V30 535 H -3.57587 -2.37396 1.06592 0
M  V30 536 H -6.3722 1.78148 -0.118461 0
M  V30 537 H -6.28933 1.14714 1.53379 0
M  V30 538 H -4.03383 1.75548 1.82148 0
M  V30 539 H -3.68744 2.54885 -1.06457 0
M  V30 540 H -2.52542 0.111679 -1.32063 0
M  V30 541 H -4.17297 0.501988 -1.79403 0
M  V30 542 H -1.29988 1.71678 -1.45784 0
M  V30 543 H -2.12217 4.22911 -0.743727 0
M  V30 544 H -0.0170743 5.54571 -0.98008 0
M  V30 545 H -0.545087 5.05331 0.627443 0
M  V30 546 H 1.98766 4.56336 -0.71943 0
M  V30 547 H 1.41052 4.03805 0.972726 0
M  V30 548 H 0.830703 2.74857 -1.69188 0
M  V30 549 H 0.26288 0.781498 -0.0589092 0
M  V30 550 H 0.0607777 2.12729 1.13094 0
M  V30 551 H 2.3405 1.1128 -1.63319 0
M  V30 552 H 2.99204 2.71076 -1.71699 0
M  V30 553 H 4.54353 1.83692 -0.583118 0
M  V30 554 H 5.02216 0.691151 2.42209 0
M  V30 555 H 5.73685 2.30843 2.31007 0
M  V30 556 H 7.02691 0.670726 1.17948 0
M  V30 557 H 6.46819 1.69132 -0.105562 0
M  V30 558 H 5.48592 -0.91175 1.08561 0
M  V30 559 H 3.82626 -0.108359 -1.35506 0
M  V30 560 H 5.95707 -0.353732 -1.85721 0
M  V30 561 H 7.03743 -1.29639 -0.810886 0
M  V30 562 H 5.6749 -3.04818 -1.19689 0
M  V30 563 H 3.3496 -3.07828 -0.526092 0
M  V30 564 H 3.33583 -1.08113 1.45084 0
M  V30 565 H 2.16037 -2.39046 1.81737 0
M  V30 566 H 0.622284 -0.456541 2.09173 0
M  V30 567 H 0.244628 -1.99279 2.8471 0
M  V30 568 H -1.7808 -2.00745 1.9173 0
M  V30 569 H -1.4172 -0.423358 1.15321 0
M  V30 570 H -0.643177 -1.27246 -0.846482 0
M  V30 571 H -0.967439 -4.16906 -0.354445 0
M  V30 572 H 0.165614 -3.29616 -1.41072 0
M  V30 573 H 1.462 -4.22419 0.314898 0
M  V30 574 H 0.268578 -3.86143 1.54188 0
M  V30 575 H -2.60009 -3.40437 -0.958484 0
M  V30 576 H -2.60368 -1.86167 -1.77537 0
M  V30 577 H -5.09184 3.29663 2.83009 0
M  V30 578 H -4.78506 4.94728 2.09396 0
M  V30 579 H -3.44359 3.74636 2.31441 0
M  V30 580 H 4.54431 -4.11699 -2.75218 0
M  V30 581 H 4.28524 -3.10683 -4.18471 0
M  V30 582 H 5.91841 -3.15243 -3.33094 0
M  V30 583 H -3.69308 -4.26564 0.522027 0
M  V30 584 H -5.33411 -4.75328 0.0929881 0
M  V30 585 H -4.18432 -4.64018 -1.2332 0
M  V30 586 H 5.30535 3.72022 1.17119 0
M  V30 587 H 3.67842 4.12476 1.66139 0
M  V30 588 H 4.11475 3.71743 -0.107452 0
M  V30 589 H 3.46302 1.4692 3.22623 0
M  V30 590 H 2.72065 2.95638 2.65517 0
M  V30 591 H 2.10023 1.38473 2.11965 0
M  V30 592 H 4.49586 -5.01557 0.469638 0
M  V30 593 H 3.30509 -4.46302 1.79115 0
M  V30 594 H 5.02109 -4.6281 2.09138 0
M  V30 595 H -6.17592 -2.40245 -2.03087 0
M  V30 596 H -4.87664 -3.52178 -2.45785 0
M  V30 597 H -4.55019 -1.78835 -2.37304 0
M  V30 598 H -1.97197 4.67277 -4.03762 0
M  V30 599 H -3.04948 4.0389 -2.79497 0
M  V30 600 H -2.14428 5.62663 -2.55273 0
M  V30 601 H -7.01767 -2.15108 1.0327 0
M  V30 602 H -6.1883 -2.30114 2.58946 0
M  V30 603 H -5.28153 -0.158548 2.4806 0
M  V30 604 H -6.98297 -0.021077 1.76709 0
M  V30 605 H -5.93234 -0.595635 -0.469212 0
M  V30 606 H -3.50427 0.370385 1.04304 0
M  V30 607 H -3.44522 -1.6798 1.86045 0
M  V30 608 H -6.17243 1.58622 -0.979168 0
M  V30 609 H -6.20578 1.93467 0.762481 0
M  V30 610 H -3.96285 2.41636 0.872305 0
M  V30 611 H -3.37537 1.97053 -2.02748 0
M  V30 612 H -2.62651 -0.446604 -1.46345 0
M  V30 613 H -4.31206 -0.0894377 -1.82689 0
M  V30 614 H -1.2834 1.58941 -2.22709 0
M  V30 615 H -2.03491 3.90858 -1.47426 0
M  V30 616 H 0.0679721 5.30826 -1.01784 0
M  V30 617 H -0.951435 4.74374 0.309253 0
M  V30 618 H 1.75645 4.38469 0.12288 0
M  V30 619 H 0.608197 3.36534 1.16373 0
M  V30 620 H 1.26958 2.94339 -1.72915 0
M  V30 621 H 0.628286 0.677333 -1.49223 0
M  V30 622 H 0.0123606 0.943321 0.133614 0
M  V30 623 H 2.99625 1.53171 -1.57449 0
M  V30 624 H 3.2889 3.09242 -0.882617 0
M  V30 625 H 4.54341 1.89276 0.358435 0
M  V30 626 H 4.23693 0.187048 3.16944 0
M  V30 627 H 4.94704 1.80194 3.26972 0
M  V30 628 H 6.38021 0.11111 2.41596 0
M  V30 629 H 6.29342 1.38365 1.21666 0
M  V30 630 H 4.78584 -1.29224 1.48201 0
M  V30 631 H 4.50624 0.269014 -1.05114 0
M  V30 632 H 6.91598 -0.325055 -0.413039 0
M  V30 633 H 6.78595 -1.84549 0.493517 0
M  V30 634 H 6.12646 -2.64629 -1.49911 0
M  V30 635 H 3.77409 -2.11107 -2.25106 0
M  V30 636 H 2.38916 -0.855835 -1.0152 0
M  V30 637 H 0.999152 -1.19026 -0.0280863 0
M  V30 638 H 1.1132 -1.44201 2.59472 0
M  V30 639 H 0.695399 -3.13135 2.34127 0
M  V30 640 H -1.41615 -2.10472 2.56788 0
M  V30 641 H -0.870393 -0.642528 1.72916 0
M  V30 642 H -0.882029 -1.69646 -0.436059 0
M  V30 643 H -0.612771 -4.18663 1.20961 0
M  V30 644 H -1.03717 -4.30792 -0.499457 0
M  V30 645 H 0.794885 -3.14519 -1.27097 0
M  V30 646 H 1.48568 -4.22732 0.0811266 0
M  V30 647 H -2.94542 -3.6129 0.361813 0
M  V30 648 H -2.89729 -2.50899 -1.00477 0
M  V30 649 H -5.09366 4.23925 1.17661 0
M  V30 650 H -4.75727 5.45469 -0.154528 0
M  V30 651 H -3.43096 4.4853 0.58285 0
M  V30 652 H 7.57906 -1.8086 -2.93112 0
M  V30 653 H 6.13433 -2.60826 -3.56778 0
M  V30 654 H 6.65904 -1.09518 -4.37172 0
M  V30 655 H -3.71089 -3.58753 2.24448 0
M  V30 656 H -5.42932 -3.9776 2.36657 0
M  V30 657 H -4.56477 -4.66169 0.994496 0
M  V30 658 H 4.34134 3.32586 2.69267 0
M  V30 659 H 2.61223 3.49502 2.4747 0
M  V30 660 H 3.79883 3.55989 1.03863 0
M  V30 661 H 2.48215 0.381889 3.2841 0
M  V30 662 H 1.87829 2.0209 3.22879 0
M  V30 663 H 1.36907 0.855556 2.0218 0
M  V30 664 H 4.47461 -4.33081 -2.58727 0
M  V30 665 H 2.80801 -3.95342 -2.22509 0
M  V30 666 H 3.52117 -5.3214 -1.35142 0
M  V30 667 H -6.49432 -2.91794 -0.556812 0
M  V30 668 H -5.23358 -4.14844 -0.552976 0
M  V30 669 H -4.91136 -2.58916 -1.29122 0
M  V30 670 H -1.31843 4.72658 -4.55453 0
M  V30 671 H -2.47711 3.76311 -3.60142 0
M  V30 672 H -1.99315 5.3377 -2.95422 0
M  V30 673 H -6.61673 -2.23709 -1.65906 0
M  V30 674 H -6.59352 -2.909 -0.019819 0
M  V30 675 H -6.6313 -0.0764851 -1.00176 0
M  V30 676 H -7.45078 -0.848183 0.361078 0
M  V30 677 H -5.69451 -0.748248 1.8497 0
M  V30 678 H -3.50565 -0.194558 1.41327 0
M  V30 679 H -4.40571 -2.34988 1.11334 0
M  V30 680 H -6.21525 1.69904 0.160895 0
M  V30 681 H -6.30913 1.42419 1.90794 0
M  V30 682 H -3.86205 1.6706 2.14469 0
M  V30 683 H -3.8389 2.63675 -0.718929 0
M  V30 684 H -3.09591 0.264536 -1.40978 0
M  V30 685 H -4.76778 0.71017 -1.23286 0
M  V30 686 H -1.38405 1.34149 -1.33969 0
M  V30 687 H -1.56673 4.32125 -0.539307 0
M  V30 688 H 0.201308 4.50066 -2.47808 0
M  V30 689 H 0.759962 4.15842 -0.829332 0
M  V30 690 H -0.0973339 1.91988 -2.75253 0
M  V30 691 H 1.53297 2.61101 -2.8681 0
M  V30 692 H 1.01723 0.518073 -1.4017 0
M  V30 693 H -0.0195431 1.04115 0.74503 0
M  V30 694 H 0.44945 2.78064 0.619269 0
M  V30 695 H 2.96204 1.88946 -1.86121 0
M  V30 696 H 2.57031 3.07161 -0.618873 0
M  V30 697 H 4.46957 1.88953 -0.350279 0
M  V30 698 H 5.15793 1.25803 2.85465 0
M  V30 699 H 5.59843 2.80252 2.13107 0
M  V30 700 H 6.94191 0.888965 1.48203 0
M  V30 701 H 6.42666 1.81094 0.101109 0
M  V30 702 H 5.46272 -0.779938 1.39608 0
M  V30 703 H 4.00586 -0.131583 -1.2001 0
M  V30 704 H 6.38675 -0.178448 -1.39875 0
M  V30 705 H 7.12617 -1.20984 -0.161064 0
M  V30 706 H 5.96865 -2.95323 -1.01549 0
M  V30 707 H 3.48287 -3.01264 -0.782004 0
M  V30 708 H 3.53137 -1.29232 1.54208 0
M  V30 709 H 2.25853 -2.75529 1.78199 0
M  V30 710 H 0.672723 -1.97324 3.10078 0
M  V30 711 H 1.02228 -0.519504 2.20012 0
M  V30 712 H -1.44925 -2.23746 2.39237 0
M  V30 713 H -1.25181 -0.496623 2.12722 0
M  V30 714 H -1.34115 -0.732934 -0.141362 0
M  V30 715 H -0.674385 -3.15267 -1.19138 0
M  V30 716 H 0.453337 -1.80451 -0.969164 0
M  V30 717 H 1.16267 -4.0501 -0.124735 0
M  V30 718 H -0.0198744 -3.80295 1.27247 0
M  V30 719 H -2.43462 -3.37493 0.95152 0
M  V30 720 H -2.47876 -3.1055 -0.769119 0
M  V30 721 H -4.71965 3.30333 3.38735 0
M  V30 722 H -4.57872 4.90046 2.62517 0
M  V30 723 H -3.127 3.88479 2.65191 0
M  V30 724 H 6.60794 -2.73615 -3.08463 0
M  V30 725 H 5.24775 -3.86796 -2.86922 0
M  V30 726 H 5.27206 -2.63812 -4.24253 0
M  V30 727 H -4.20933 -4.17458 0.226987 0
M  V30 728 H -5.58753 -4.36546 -0.866978 0
M  V30 729 H -3.95508 -4.27798 -1.53736 0
M  V30 730 H 4.05718 3.87313 2.18121 0
M  V30 731 H 2.53225 3.75433 1.29927 0
M  V30 732 H 4.15946 3.82604 0.413388 0
M  V30 733 H 3.10958 0.607029 2.89495 0
M  V30 734 H 3.13675 2.28647 3.38043 0
M  V30 735 H 1.82434 1.7209 2.37113 0
M  V30 736 H 4.53427 -5.04642 -0.205308 0
M  V30 737 H 3.13277 -4.77563 0.961699 0
M  V30 738 H 4.75463 -5.13947 1.53541 0
M  V30 739 H -4.84513 -1.21092 -2.64795 0
M  V30 740 H -3.20113 -1.95871 -2.27714 0
M  V30 741 H -4.55159 -2.92679 -2.85762 0
M  V30 742 H -3.28755 4.60832 -3.51796 0
M  V30 743 H -3.56613 4.70528 -1.75868 0
M  V30 744 H -2.18468 5.60367 -2.48613 0
M  V30 745 H -6.6993 -1.40665 -0.596211 0
M  V30 746 H -6.92005 -2.65072 0.641878 0
M  V30 747 H -5.99097 -1.10387 2.36499 0
M  V30 748 H -7.06409 -0.231427 1.29182 0
M  V30 749 H -5.51136 0.545806 -0.149619 0
M  V30 750 H -3.03012 -0.173123 1.50898 0
M  V30 751 H -4.33704 -2.04192 1.67786 0
M  V30 752 H -5.71678 2.07593 1.52131 0
M  V30 753 H -4.85635 1.07065 2.73859 0
M  V30 754 H -2.73188 1.77083 2.01368 0
M  V30 755 H -3.68145 2.43021 -0.786976 0
M  V30 756 H -2.27548 -0.0311132 -1.03932 0
M  V30 757 H -3.97741 0.278157 -1.33589 0
M  V30 758 H -1.98749 1.63332 -2.15535 0
M  V30 759 H -2.14474 4.1411 -1.4994 0
M  V30 760 H -0.0825955 5.3143 -2.32322 0
M  V30 761 H 0.0253859 4.65771 -0.613273 0
M  V30 762 H 1.0281 3.17784 -3.08553 0
M  V30 763 H 2.09202 4.16556 -2.03821 0
M  V30 764 H 0.848466 2.76327 -0.174929 0
M  V30 765 H 0.243586 1.17604 -2.6865 0
M  V30 766 H 0.0894476 0.593683 -1.01312 0
M  V30 767 H 2.32228 0.716242 -1.73343 0
M  V30 768 H 3.1091 2.22479 -1.98049 0
M  V30 769 H 4.22734 2.07218 -0.104156 0
M  V30 770 H 3.46863 0.891181 3.08137 0
M  V30 771 H 4.13099 2.51755 2.92179 0
M  V30 772 H 5.74723 0.783589 2.71638 0
M  V30 773 H 5.7504 1.68162 1.19206 0
M  V30 774 H 4.16672 -0.844669 1.93767 0
M  V30 775 H 4.64521 0.134102 -0.933255 0
M  V30 776 H 6.76788 -0.408993 0.588728 0
M  V30 777 H 6.27125 -1.76124 1.58352 0
M  V30 778 H 6.11362 -2.88757 -0.34982 0
M  V30 779 H 4.17341 -2.01767 -1.99759 0
M  V30 780 H 2.31736 -1.14396 -0.993472 0
M  V30 781 H 0.88691 -1.31567 0.199157 0
M  V30 782 H 1.23962 -1.42363 2.77599 0
M  V30 783 H 0.796229 -3.12687 2.64435 0
M  V30 784 H -1.31817 -2.14803 2.75991 0
M  V30 785 H -0.731564 -0.636621 1.90182 0
M  V30 786 H -0.993401 -1.84982 -0.26985 0
M  V30 787 H -0.522556 -4.18355 1.518 0
M  V30 788 H -1.00261 -4.35721 -0.183996 0
M  V30 789 H 0.862701 -3.29974 -1.0049 0
M  V30 790 H 1.51393 -4.29058 0.422612 0
M  V30 791 H -2.71258 -3.55023 1.58417 0
M  V30 792 H -2.81665 -3.52346 -0.155219 0
M  V30 793 H -3.00392 3.53797 3.35233 0
M  V30 794 H -2.99566 5.05961 2.4254 0
M  V30 795 H -1.79419 3.79287 2.07803 0
M  V30 796 H 8.06849 -2.30973 -1.16225 0
M  V30 797 H 6.92137 -3.12003 -2.24377 0
M  V30 798 H 7.93084 -1.69153 -2.84595 0
M  V30 799 H -4.61501 -4.12183 1.05434 0
M  V30 800 H -6.08907 -4.18749 0.0744099 0
M  V30 801 H -4.5461 -4.42016 -0.763602 0
M  V30 802 H 3.74668 3.83073 1.71691 0
M  V30 803 H 1.98681 3.81669 1.64468 0
M  V30 804 H 3.03328 3.69846 0.118446 0
M  V30 805 H 1.72685 0.894542 2.78335 0
M  V30 806 H 1.04045 2.36997 2.16337 0
M  V30 807 H 1.01884 0.815653 1.17521 0
M  V30 808 H 4.50029 -4.24096 -2.53401 0
M  V30 809 H 2.7336 -3.78772 -2.36606 0
M  V30 810 H 3.39207 -5.23357 -1.56161 0
M  V30 811 H -5.44526 -1.48744 -2.00957 0
M  V30 812 H -3.67855 -2.03863 -1.85395 0
M  V30 813 H -4.99018 -3.18768 -2.14762 0
M  V30 814 H -2.87975 4.35146 -4.74767 0
M  V30 815 H -3.55037 3.86011 -3.13029 0
M  V30 816 H -2.6461 5.40833 -3.34296 0
M  V30 817 H -5.42285 -3.42844 1.51933 0
M  V30 818 H -6.51488 -2.42596 0.543947 0
M  V30 819 H -4.25298 -1.51942 2.35688 0
M  V30 820 H -6.02616 -1.33929 2.5659 0
M  V30 821 H -5.93482 -0.168787 0.222639 0
M  V30 822 H -3.0169 0.122987 0.916599 0
M  V30 823 H -2.97833 -2.12117 0.873897 0
M  V30 824 H -4.41278 1.11651 2.51776 0
M  V30 825 H -6.09525 1.40873 2.05143 0
M  V30 826 H -4.23268 3.09692 1.46696 0
M  V30 827 H -3.81159 2.79033 -1.17848 0
M  V30 828 H -3.42529 0.453697 -1.8525 0
M  V30 829 H -5.0763 0.676966 -1.29304 0
M  V30 830 H -1.95968 2.42734 -1.75165 0
M  V30 831 H -2.34111 4.31348 -0.0660822 0
M  V30 832 H -0.777856 4.95934 1.42446 0
M  V30 833 H 0.502326 4.81951 0.158112 0
M  V30 834 H -0.598722 2.36007 1.64752 0
M  V30 835 H 0.949164 3.26004 1.96536 0
M  V30 836 H 1.30475 3.07525 -0.601812 0
M  V30 837 H 0.112799 1.40346 -1.72094 0
M  V30 838 H -0.467892 0.724318 -0.184093 0
M  V30 839 H 1.95663 1.40966 1.62656 0
M  V30 840 H 1.33398 0.298396 0.397476 0
M  V30 841 H 2.97868 1.81922 -1.14289 0
M  V30 842 H 6.11265 1.81009 1.00071 0
M  V30 843 H 5.94014 3.0915 -0.20132 0
M  V30 844 H 5.23074 1.33976 -1.88985 0
M  V30 845 H 6.87489 1.11449 -1.07564 0
M  V30 846 H 5.63116 -0.171211 0.696644 0
M  V30 847 H 3.62939 -0.270751 -1.57952 0
M  V30 848 H 5.56598 -1.23248 -2.12517 0
M  V30 849 H 6.87914 -1.40046 -0.884784 0
M  V30 850 H 4.63491 -3.10393 -1.26529 0
M  V30 851 H 3.60774 -3.23447 0.856866 0
M  V30 852 H 2.77048 -0.833127 1.22714 0
M  V30 853 H 2.42556 -3.79113 -0.659453 0
M  V30 854 H 1.67242 -2.7795 -2.71651 0
M  V30 855 H 0.68228 -4.20574 -2.10159 0
M  V30 856 H -0.664799 -2.19171 -2.95768 0
M  V30 857 H 0.128377 -1.20897 -1.68449 0
M  V30 858 H -1.45911 -3.76364 -1.19186 0
M  V30 859 H -1.20833 -3.0062 1.26475 0
M  V30 860 H -0.329272 -1.5308 0.602967 0
M  V30 861 H 1.06052 -3.41744 1.45326 0
M  V30 862 H 0.367537 -4.43234 0.167979 0
M  V30 863 H -1.95029 -0.798438 -1.25142 0
M  V30 864 H -2.8466 -2.06861 -2.13853 0
M  V30 865 H -6.16014 4.16039 1.83219 0
M  V30 866 H -5.293 4.92076 0.38222 0
M  V30 867 H -7.02545 4.51905 0.329245 0
M  V30 868 H 6.32452 -4.49921 -1.67415 0
M  V30 869 H 6.72475 -5.39047 -0.111971 0
M  V30 870 H 5.05033 -5.00866 -0.549023 0
M  V30 871 H -3.29829 -4.10571 0.378524 0
M  V30 872 H -4.93855 -4.63009 -0.0383454 0
M  V30 873 H -3.86784 -4.18052 -1.37615 0
M  V30 874 H 3.85977 1.05089 2.26598 0
M  V30 875 H 3.2682 2.80315 2.3745 0
M  V30 876 H 4.99362 2.40607 2.39358 0
M  V30 877 H 2.94586 3.98357 0.872173 0
M  V30 878 H 4.61484 4.27824 0.43585 0
M  V30 879 H 3.56683 3.77108 -0.873447 0
M  V30 880 H 4.89492 -3.86431 2.5563 0
M  V30 881 H 5.11116 -2.57483 3.74993 0
M  V30 882 H 3.43741 -3.00268 3.10756 0
M  V30 883 H -5.42165 -3.21486 -2.1251 0
M  V30 884 H -4.81896 -1.5518 -2.13722 0
M  V30 885 H -6.37521 -2.0012 -1.26057 0
M  V30 886 H -3.12557 5.06444 -2.04834 0
M  V30 887 H -1.88594 6.29062 -2.67572 0
M  V30 888 H -2.29965 6.18995 -0.958484 0
M  V30 889 H -6.96506 -1.80381 -0.187066 0
M  V30 890 H -6.7709 -2.83888 1.23539 0
M  V30 891 H -5.74019 -1.0112 2.49722 0
M  V30 892 H -7.11964 -0.390775 1.58017 0
M  V30 893 H -5.77332 0.0652315 -0.36575 0
M  V30 894 H -3.29984 0.0533758 1.38391 0
M  V30 895 H -4.14303 -1.99572 1.70251 0
M  V30 896 H -6.20391 2.05757 0.590604 0
M  V30 897 H -5.62529 1.59014 2.19367 0
M  V30 898 H -3.38061 2.04609 1.78719 0
M  V30 899 H -3.82935 2.43671 -1.18607 0
M  V30 900 H -2.41997 0.0850711 -1.11836 0
M  V30 901 H -4.12287 0.244867 -1.5404 0
M  V30 902 H -1.40523 1.57333 -2.03787 0
M  V30 903 H -1.31224 4.43759 -0.981183 0
M  V30 904 H 0.635609 4.77448 -2.71138 0
M  V30 905 H 0.945043 4.26151 -1.02481 0
M  V30 906 H 0.291752 2.2624 -3.21384 0
M  V30 907 H 2.00841 2.88468 -3.0334 0
M  V30 908 H 1.1751 0.712282 -1.8481 0
M  V30 909 H -0.162138 0.878062 -0.0403701 0
M  V30 910 H 0.18468 2.65383 0.305734 0
M  V30 911 H 3.27639 2.05106 -1.7869 0
M  V30 912 H 2.59074 3.13917 -0.591368 0
M  V30 913 H 4.35982 1.98987 0.145752 0
M  V30 914 H 3.92838 0.741936 3.25839 0
M  V30 915 H 4.57749 2.36144 3.02623 0
M  V30 916 H 6.08489 0.493118 2.60809 0
M  V30 917 H 6.0413 1.5372 1.18781 0
M  V30 918 H 4.31197 -0.923683 1.83277 0
M  V30 919 H 4.68631 0.169172 -0.94478 0
M  V30 920 H 6.90017 -0.567559 0.447935 0
M  V30 921 H 6.27357 -1.93442 1.37253 0
M  V30 922 H 6.18696 -2.91218 -0.665361 0
M  V30 923 H 4.17961 -1.99821 -2.1822 0
M  V30 924 H 2.41455 -1.14499 -1.10512 0
M  V30 925 H 0.985661 -1.1939 0.148054 0
M  V30 926 H 1.2279 -1.65318 2.71354 0
M  V30 927 H 0.721303 -3.31043 2.34719 0
M  V30 928 H -1.38063 -2.22922 2.59937 0
M  V30 929 H -0.740006 -0.709588 1.92536 0
M  V30 930 H -0.936947 -1.61403 -0.375268 0
M  V30 931 H -0.600917 -4.18771 1.06635 0
M  V30 932 H -1.03099 -4.09311 -0.649921 0
M  V30 933 H 0.884927 -3.03365 -1.2951 0
M  V30 934 H 1.47512 -4.19074 0.0418253 0
M  V30 935 H -2.7599 -3.63756 1.02915 0
M  V30 936 H -2.77919 -3.12914 -0.64935 0
M  V30 937 H -3.92812 3.98497 2.85041 0
M  V30 938 H -3.91534 5.33702 1.70263 0
M  V30 939 H -2.54188 4.22104 1.64829 0
M  V30 940 H 8.08013 -2.22863 -1.46694 0
M  V30 941 H 7.00371 -2.99065 -2.66368 0
M  V30 942 H 7.95768 -1.46048 -3.05716 0
M  V30 943 H -4.70033 -4.05054 1.44728 0
M  V30 944 H -5.9125 -4.43431 0.23319 0
M  V30 945 H -4.24155 -4.4797 -0.307025 0
M  V30 946 H 3.2886 3.56401 2.5775 0
M  V30 947 H 2.07595 3.62796 1.31618 0
M  V30 948 H 3.88457 3.6265 0.907896 0
M  V30 949 H 2.14129 0.947062 3.25918 0
M  V30 950 H 1.21034 2.16111 2.4097 0
M  V30 951 H 1.35556 0.534876 1.75342 0
M  V30 952 H 4.53801 -4.15696 -2.69749 0
M  V30 953 H 2.73063 -3.84675 -2.54359 0
M  V30 954 H 3.50425 -5.22707 -1.72806 0
M  V30 955 H -5.92525 -1.83009 -1.82058 0
M  V30 956 H -5.25832 -3.45982 -1.86434 0
M  V30 957 H -4.10632 -2.12683 -1.80748 0
M  V30 958 H -3.19683 5.03535 -3.68794 0
M  V30 959 H -3.3766 4.77531 -1.9332 0
M  V30 960 H -2.02327 5.86359 -2.54692 0
M  V30 END ATOM
M  V30 BEGIN BOND
M  V30 1 1 1 2
M  V30 2 1 2 3
M  V30 3 1 3 4
M  V30 4 1 4 5
M  V30 5 1 1 6
M  V30 6 1 5 6
M  V30 7 1 4 7
M  V30 8 1 7 8
M  V30 9 1 8 9
M  V30 10 1 5 10
M  V30 11 1 9 10
M  V30 12 1 9 11
M  V30 13 1 11 12
M  V30 14 1 12 13
M  V30 15 1 13 14
M  V30 16 1 14 15
M  V30 17 1 15 16
M  V30 18 1 12 17
M  V30 19 1 16 17
M  V30 20 1 16 18
M  V30 21 1 18 19
M  V30 22 1 19 20
M  V30 23 1 20 21
M  V30 24 1 21 22
M  V30 25 1 22 23
M  V30 26 1 19 24
M  V30 27 1 23 24
M  V30 28 1 23 25
M  V30 29 1 25 26
M  V30 30 1 26 27
M  V30 31 1 24 28
M  V30 32 1 27 28
M  V30 33 1 28 29
M  V30 34 1 29 30
M  V30 35 1 30 31
M  V30 36 1 31 32
M  V30 37 1 32 33
M  V30 38 1 33 34
M  V30 39 1 30 35
M  V30 40 1 34 35
M  V30 41 1 6 36
M  V30 42 1 33 36
M  V30 43 1 8 37
M  V30 44 1 37 38
M  V30 45 1 13 39
M  V30 46 1 26 40
M  V30 47 1 40 41
M  V30 48 1 27 42
M  V30 49 1 1 43
M  V30 50 1 20 44
M  V30 51 1 20 45
M  V30 52 1 42 46
M  V30 53 1 1 47
M  V30 54 1 39 48
M  V30 55 1 49 50
M  V30 56 1 50 51
M  V30 57 1 51 52
M  V30 58 1 52 53
M  V30 59 1 49 54
M  V30 60 1 53 54
M  V30 61 1 52 55
M  V30 62 1 55 56
M  V30 63 1 56 57
M  V30 64 1 53 58
M  V30 65 1 57 58
M  V30 66 1 57 59
M  V30 67 1 59 60
M  V30 68 1 60 61
M  V30 69 1 61 62
M  V30 70 1 62 63
M  V30 71 1 63 64
M  V30 72 1 60 65
M  V30 73 1 64 65
M  V30 74 1 64 66
M  V30 75 1 66 67
M  V30 76 1 67 68
M  V30 77 1 68 69
M  V30 78 1 69 70
M  V30 79 1 70 71
M  V30 80 1 67 72
M  V30 81 1 71 72
M  V30 82 1 71 73
M  V30 83 1 73 74
M  V30 84 1 74 75
M  V30 85 1 72 76
M  V30 86 1 75 76
M  V30 87 1 76 77
M  V30 88 1 77 78
M  V30 89 1 78 79
M  V30 90 1 79 80
M  V30 91 1 80 81
M  V30 92 1 81 82
M  V30 93 1 78 83
M  V30 94 1 82 83
M  V30 95 1 54 84
M  V30 96 1 81 84
M  V30 97 1 56 85
M  V30 98 1 85 86
M  V30 99 1 61 87
M  V30 100 1 74 88
M  V30 101 1 88 89
M  V30 102 1 75 90
M  V30 103 1 49 91
M  V30 104 1 68 92
M  V30 105 1 68 93
M  V30 106 1 90 94
M  V30 107 1 49 95
M  V30 108 1 87 96
M  V30 109 1 97 98
M  V30 110 1 98 99
M  V30 111 1 99 100
M  V30 112 1 100 101
M  V30 113 1 97 102
M  V30 114 1 101 102
M  V30 115 1 100 103
M  V30 116 1 103 104
M  V30 117 1 104 105
M  V30 118 1 101 106
M  V30 119 1 105 106
M  V30 120 1 105 107
M  V30 121 1 107 108
M  V30 122 1 108 109
M  V30 123 1 109 110
M  V30 124 1 110 111
M  V30 125 1 111 112
M  V30 126 1 108 113
M  V30 127 1 112 113
M  V30 128 1 112 114
M  V30 129 1 114 115
M  V30 130 1 115 116
M  V30 131 1 116 117
M  V30 132 1 117 118
M  V30 133 1 118 119
M  V30 134 1 115 120
M  V30 135 1 119 120
M  V30 136 1 119 121
M  V30 137 1 121 122
M  V30 138 1 122 123
M  V30 139 1 120 124
M  V30 140 1 123 124
M  V30 141 1 124 125
M  V30 142 1 125 126
M  V30 143 1 126 127
M  V30 144 1 127 128
M  V30 145 1 128 129
M  V30 146 1 129 130
M  V30 147 1 126 131
M  V30 148 1 130 131
M  V30 149 1 102 132
M  V30 150 1 129 132
M  V30 151 1 104 133
M  V30 152 1 133 134
M  V30 153 1 109 135
M  V30 154 1 122 136
M  V30 155 1 136 137
M  V30 156 1 123 138
M  V30 157 1 97 139
M  V30 158 1 116 140
M  V30 159 1 116 141
M  V30 160 1 138 142
M  V30 161 1 97 143
M  V30 162 1 135 144
M  V30 163 1 145 146
M  V30 164 1 146 147
M  V30 165 1 147 148
M  V30 166 1 148 149
M  V30 167 1 145 150
M  V30 168 1 149 150
M  V30 169 1 148 151
M  V30 170 1 151 152
M  V30 171 1 152 153
M  V30 172 1 149 154
M  V30 173 1 153 154
M  V30 174 1 153 155
M  V30 175 1 155 156
M  V30 176 1 156 157
M  V30 177 1 157 158
M  V30 178 1 158 159
M  V30 179 1 159 160
M  V30 180 1 156 161
M  V30 181 1 160 161
M  V30 182 1 160 162
M  V30 183 1 162 163
M  V30 184 1 163 164
M  V30 185 1 164 165
M  V30 186 1 165 166
M  V30 187 1 166 167
M  V30 188 1 163 168
M  V30 189 1 167 168
M  V30 190 1 167 169
M  V30 191 1 169 170
M  V30 192 1 170 171
M  V30 193 1 168 172
M  V30 194 1 171 172
M  V30 195 1 172 173
M  V30 196 1 173 174
M  V30 197 1 174 175
M  V30 198 1 175 176
M  V30 199 1 176 177
M  V30 200 1 177 178
M  V30 201 1 174 179
M  V30 202 1 178 179
M  V30 203 1 150 180
M  V30 204 1 177 180
M  V30 205 1 152 181
M  V30 206 1 181 182
M  V30 207 1 157 183
M  V30 208 1 170 184
M  V30 209 1 184 185
M  V30 210 1 171 186
M  V30 211 1 145 187
M  V30 212 1 164 188
M  V30 213 1 164 189
M  V30 214 1 186 190
M  V30 215 1 145 191
M  V30 216 1 183 192
M  V30 217 1 193 194
M  V30 218 1 194 195
M  V30 219 1 195 196
M  V30 220 1 196 197
M  V30 221 1 193 198
M  V30 222 1 197 198
M  V30 223 1 196 199
M  V30 224 1 199 200
M  V30 225 1 200 201
M  V30 226 1 197 202
M  V30 227 1 201 202
M  V30 228 1 201 203
M  V30 229 1 203 204
M  V30 230 1 204 205
M  V30 231 1 205 206
M  V30 232 1 206 207
M  V30 233 1 207 208
M  V30 234 1 204 209
M  V30 235 1 208 209
M  V30 236 1 208 210
M  V30 237 1 210 211
M  V30 238 1 211 212
M  V30 239 1 212 213
M  V30 240 1 213 214
M  V30 241 1 214 215
M  V30 242 1 211 216
M  V30 243 1 215 216
M  V30 244 1 215 217
M  V30 245 1 217 218
M  V30 246 1 218 219
M  V30 247 1 216 220
M  V30 248 1 219 220
M  V30 249 1 220 221
M  V30 250 1 221 222
M  V30 251 1 222 223
M  V30 252 1 223 224
M  V30 253 1 224 225
M  V30 254 1 225 226
M  V30 255 1 222 227
M  V30 256 1 226 227
M  V30 257 1 198 228
M  V30 258 1 225 228
M  V30 259 1 200 229
M  V30 260 1 229 230
M  V30 261 1 205 231
M  V30 262 1 218 232
M  V30 263 1 232 233
M  V30 264 1 219 234
M  V30 265 1 193 235
M  V30 266 1 212 236
M  V30 267 1 212 237
M  V30 268 1 234 238
M  V30 269 1 193 239
M  V30 270 1 231 240
M  V30 271 1 241 242
M  V30 272 1 242 243
M  V30 273 1 243 244
M  V30 274 1 244 245
M  V30 275 1 241 246
M  V30 276 1 245 246
M  V30 277 1 244 247
M  V30 278 1 247 248
M  V30 279 1 248 249
M  V30 280 1 245 250
M  V30 281 1 249 250
M  V30 282 1 249 251
M  V30 283 1 251 252
M  V30 284 1 252 253
M  V30 285 1 253 254
M  V30 286 1 254 255
M  V30 287 1 255 256
M  V30 288 1 252 257
M  V30 289 1 256 257
M  V30 290 1 256 258
M  V30 291 1 258 259
M  V30 292 1 259 260
M  V30 293 1 260 261
M  V30 294 1 261 262
M  V30 295 1 262 263
M  V30 296 1 259 264
M  V30 297 1 263 264
M  V30 298 1 263 265
M  V30 299 1 265 266
M  V30 300 1 266 267
M  V30 301 1 264 268
M  V30 302 1 267 268
M  V30 303 1 268 269
M  V30 304 1 269 270
M  V30 305 1 270 271
M  V30 306 1 271 272
M  V30 307 1 272 273
M  V30 308 1 273 274
M  V30 309 1 270 275
M  V30 310 1 274 275
M  V30 311 1 246 276
M  V30 312 1 273 276
M  V30 313 1 248 277
M  V30 314 1 277 278
M  V30 315 1 253 279
M  V30 316 1 266 280
M  V30 317 1 280 281
M  V30 318 1 267 282
M  V30 319 1 241 283
M  V30 320 1 260 284
M  V30 321 1 260 285
M  V30 322 1 282 286
M  V30 323 1 241 287
M  V30 324 1 279 288
M  V30 325 1 289 290
M  V30 326 1 290 291
M  V30 327 1 291 292
M  V30 328 1 292 293
M  V30 329 1 289 294
M  V30 330 1 293 294
M  V30 331 1 292 295
M  V30 332 1 295 296
M  V30 333 1 296 297
M  V30 334 1 293 298
M  V30 335 1 297 298
M  V30 336 1 297 299
M  V30 337 1 299 300
M  V30 338 1 300 301
M  V30 339 1 301 302
M  V30 340 1 302 303
M  V30 341 1 303 304
M  V30 342 1 300 305
M  V30 343 1 304 305
M  V30 344 1 304 306
M  V30 345 1 306 307
M  V30 346 1 307 308
M  V30 347 1 308 309
M  V30 348 1 309 310
M  V30 349 1 310 311
M  V30 350 1 307 312
M  V30 351 1 311 312
M  V30 352 1 311 313
M  V30 353 1 313 314
M  V30 354 1 314 315
M  V30 355 1 312 316
M  V30 356 1 315 316
M  V30 357 1 316 317
M  V30 358 1 317 318
M  V30 359 1 318 319
M  V30 360 1 319 320
M  V30 361 1 320 321
M  V30 362 1 321 322
M  V30 363 1 318 323
M  V30 364 1 322 323
M  V30 365 1 294 324
M  V30 366 1 321 324
M  V30 367 1 296 325
M  V30 368 1 325 326
M  V30 369 1 301 327
M  V30 370 1 314 328
M  V30 371 1 328 329
M  V30 372 1 315 330
M  V30 373 1 289 331
M  V30 374 1 308 332
M  V30 375 1 308 333
M  V30 376 1 330 334
M  V30 377 1 289 335
M  V30 378 1 327 336
M  V30 379 1 337 338
M  V30 380 1 338 339
M  V30 381 1 339 340
M  V30 382 1 340 341
M  V30 383 1 337 342
M  V30 384 1 341 342
M  V30 385 1 340 343
M  V30 386 1 343 344
M  V30 387 1 344 345
M  V30 388 1 341 346
M  V30 389 1 345 346
M  V30 390 1 345 347
M  V30 391 1 347 348
M  V30 392 1 348 349
M  V30 393 1 349 350
M  V30 394 1 350 351
M  V30 395 1 351 352
M  V30 396 1 348 353
M  V30 397 1 352 353
M  V30 398 1 352 354
M  V30 399 1 354 355
M  V30 400 1 355 356
M  V30 401 1 356 357
M  V30 402 1 357 358
M  V30 403 1 358 359
M  V30 404 1 355 360
M  V30 405 1 359 360
M  V30 406 1 359 361
M  V30 407 1 361 362
M  V30 408 1 362 363
M  V30 409 1 360 364
M  V30 410 1 363 364
M  V30 411 1 364 365
M  V30 412 1 365 366
M  V30 413 1 366 367
M  V30 414 1 367 368
M  V30 415 1 368 369
M  V30 416 1 369 370
M  V30 417 1 366 371
M  V30 418 1 370 371
M  V30 419 1 342 372
M  V30 420 1 369 372
M  V30 421 1 344 373
M  V30 422 1 373 374
M  V30 423 1 349 375
M  V30 424 1 362 376
M  V30 425 1 376 377
M  V30 426 1 363 378
M  V30 427 1 337 379
M  V30 428 1 356 380
M  V30 429 1 356 381
M  V30 430 1 378 382
M  V30 431 1 337 383
M  V30 432 1 375 384
M  V30 433 1 2 385
M  V30 434 1 2 386
M  V30 435 1 3 387
M  V30 436 1 3 388
M  V30 437 1 4 389
M  V30 438 1 5 390
M  V30 439 1 6 391 CFG=1
M  V30 440 1 7 392
M  V30 441 1 7 393
M  V30 442 1 8 394
M  V30 443 1 9 395
M  V30 444 1 10 396
M  V30 445 1 10 397
M  V30 446 1 12 398
M  V30 447 1 13 399
M  V30 448 1 14 400
M  V30 449 1 14 401
M  V30 450 1 15 402
M  V30 451 1 15 403
M  V30 452 1 16 404
M  V30 453 1 17 405
M  V30 454 1 17 406
M  V30 455 1 18 407
M  V30 456 1 18 408
M  V30 457 1 19 409 CFG=3
M  V30 458 1 21 410
M  V30 459 1 21 411
M  V30 460 1 22 412
M  V30 461 1 22 413
M  V30 462 1 23 414 CFG=1
M  V30 463 1 24 415
M  V30 464 1 25 416
M  V30 465 1 25 417
M  V30 466 1 26 418
M  V30 467 1 27 419
M  V30 468 1 28 420
M  V30 469 1 30 421
M  V30 470 1 31 422
M  V30 471 1 31 423
M  V30 472 1 32 424
M  V30 473 1 32 425
M  V30 474 1 33 426
M  V30 475 1 34 427
M  V30 476 1 34 428
M  V30 477 1 35 429
M  V30 478 1 35 430
M  V30 479 1 36 431
M  V30 480 1 36 432
M  V30 481 1 38 433
M  V30 482 1 38 434
M  V30 483 1 38 435
M  V30 484 1 41 436
M  V30 485 1 41 437
M  V30 486 1 41 438
M  V30 487 1 43 439
M  V30 488 1 43 440
M  V30 489 1 43 441
M  V30 490 1 44 442
M  V30 491 1 44 443
M  V30 492 1 44 444
M  V30 493 1 45 445
M  V30 494 1 45 446
M  V30 495 1 45 447
M  V30 496 1 46 448
M  V30 497 1 46 449
M  V30 498 1 46 450
M  V30 499 1 47 451
M  V30 500 1 47 452
M  V30 501 1 47 453
M  V30 502 1 48 454
M  V30 503 1 48 455
M  V30 504 1 48 456
M  V30 505 1 50 457
M  V30 506 1 50 458
M  V30 507 1 51 459
M  V30 508 1 51 460
M  V30 509 1 52 461 CFG=1
M  V30 510 1 53 462 CFG=1
M  V30 511 1 54 463 CFG=1
M  V30 512 1 55 464
M  V30 513 1 55 465
M  V30 514 1 56 466 CFG=1
M  V30 515 1 57 467
M  V30 516 1 58 468
M  V30 517 1 58 469
M  V30 518 1 60 470
M  V30 519 1 61 471
M  V30 520 1 62 472
M  V30 521 1 62 473
M  V30 522 1 63 474
M  V30 523 1 63 475
M  V30 524 1 64 476 CFG=3
M  V30 525 1 65 477
M  V30 526 1 65 478
M  V30 527 1 66 479
M  V30 528 1 66 480
M  V30 529 1 67 481 CFG=3
M  V30 530 1 69 482
M  V30 531 1 69 483
M  V30 532 1 70 484
M  V30 533 1 70 485
M  V30 534 1 71 486 CFG=1
M  V30 535 1 72 487 CFG=1
M  V30 536 1 73 488
M  V30 537 1 73 489
M  V30 538 1 74 490 CFG=1
M  V30 539 1 75 491
M  V30 540 1 76 492 CFG=1
M  V30 541 1 78 493
M  V30 542 1 79 494
M  V30 543 1 79 495
M  V30 544 1 80 496
M  V30 545 1 80 497
M  V30 546 1 81 498
M  V30 547 1 82 499
M  V30 548 1 82 500
M  V30 549 1 83 501
M  V30 550 1 83 502
M  V30 551 1 84 503
M  V30 552 1 84 504
M  V30 553 1 86 505
M  V30 554 1 86 506
M  V30 555 1 86 507
M  V30 556 1 89 508
M  V30 557 1 89 509
M  V30 558 1 89 510
M  V30 559 1 91 511
M  V30 560 1 91 512
M  V30 561 1 91 513
M  V30 562 1 92 514
M  V30 563 1 92 515
M  V30 564 1 92 516
M  V30 565 1 93 517
M  V30 566 1 93 518
M  V30 567 1 93 519
M  V30 568 1 94 520
M  V30 569 1 94 521
M  V30 570 1 94 522
M  V30 571 1 95 523
M  V30 572 1 95 524
M  V30 573 1 95 525
M  V30 574 1 96 526
M  V30 575 1 96 527
M  V30 576 1 96 528
M  V30 577 1 98 529
M  V30 578 1 98 530
M  V30 579 1 99 531
M  V30 580 1 99 532
M  V30 581 1 100 533
M  V30 582 1 101 534
M  V30 583 1 102 535 CFG=1
M  V30 584 1 103 536
M  V30 585 1 103 537
M  V30 586 1 104 538
M  V30 587 1 105 539
M  V30 588 1 106 540
M  V30 589 1 106 541
M  V30 590 1 108 542
M  V30 591 1 109 543
M  V30 592 1 110 544
M  V30 593 1 110 545
M  V30 594 1 111 546
M  V30 595 1 111 547
M  V30 596 1 112 548
M  V30 597 1 113 549
M  V30 598 1 113 550
M  V30 599 1 114 551
M  V30 600 1 114 552
M  V30 601 1 115 553 CFG=3
M  V30 602 1 117 554
M  V30 603 1 117 555
M  V30 604 1 118 556
M  V30 605 1 118 557
M  V30 606 1 119 558
M  V30 607 1 120 559 CFG=3
M  V30 608 1 121 560
M  V30 609 1 121 561
M  V30 610 1 122 562
M  V30 611 1 123 563
M  V30 612 1 124 564 CFG=1
M  V30 613 1 126 565
M  V30 614 1 127 566
M  V30 615 1 127 567
M  V30 616 1 128 568
M  V30 617 1 128 569
M  V30 618 1 129 570
M  V30 619 1 130 571
M  V30 620 1 130 572
M  V30 621 1 131 573
M  V30 622 1 131 574
M  V30 623 1 132 575
M  V30 624 1 132 576
M  V30 625 1 134 577
M  V30 626 1 134 578
M  V30 627 1 134 579
M  V30 628 1 137 580
M  V30 629 1 137 581
M  V30 630 1 137 582
M  V30 631 1 139 583
M  V30 632 1 139 584
M  V30 633 1 139 585
M  V30 634 1 140 586
M  V30 635 1 140 587
M  V30 636 1 140 588
M  V30 637 1 141 589
M  V30 638 1 141 590
M  V30 639 1 141 591
M  V30 640 1 142 592
M  V30 641 1 142 593
M  V30 642 1 142 594
M  V30 643 1 143 595
M  V30 644 1 143 596
M  V30 645 1 143 597
M  V30 646 1 144 598
M  V30 647 1 144 599
M  V30 648 1 144 600
M  V30 649 1 146 601
M  V30 650 1 146 602
M  V30 651 1 147 603
M  V30 652 1 147 604
M  V30 653 1 148 605
M  V30 654 1 149 606
M  V30 655 1 150 607 CFG=1
M  V30 656 1 151 608
M  V30 657 1 151 609
M  V30 658 1 152 610
M  V30 659 1 153 611
M  V30 660 1 154 612
M  V30 661 1 154 613
M  V30 662 1 156 614 CFG=3
M  V30 663 1 157 615 CFG=3
M  V30 664 1 158 616
M  V30 665 1 158 617
M  V30 666 1 159 618
M  V30 667 1 159 619
M  V30 668 1 160 620
M  V30 669 1 161 621
M  V30 670 1 161 622
M  V30 671 1 162 623
M  V30 672 1 162 624
M  V30 673 1 163 625 CFG=3
M  V30 674 1 165 626
M  V30 675 1 165 627
M  V30 676 1 166 628
M  V30 677 1 166 629
M  V30 678 1 167 630
M  V30 679 1 168 631
M  V30 680 1 169 632
M  V30 681 1 169 633
M  V30 682 1 170 634
M  V30 683 1 171 635
M  V30 684 1 172 636
M  V30 685 1 174 637
M  V30 686 1 175 638
M  V30 687 1 175 639
M  V30 688 1 176 640
M  V30 689 1 176 641
M  V30 690 1 177 642
M  V30 691 1 178 643
M  V30 692 1 178 644
M  V30 693 1 179 645
M  V30 694 1 179 646
M  V30 695 1 180 647
M  V30 696 1 180 648
M  V30 697 1 182 649
M  V30 698 1 182 650
M  V30 699 1 182 651
M  V30 700 1 185 652
M  V30 701 1 185 653
M  V30 702 1 185 654
M  V30 703 1 187 655
M  V30 704 1 187 656
M  V30 705 1 187 657
M  V30 706 1 188 658
M  V30 707 1 188 659
M  V30 708 1 188 660
M  V30 709 1 189 661
M  V30 710 1 189 662
M  V30 711 1 189 663
M  V30 712 1 190 664
M  V30 713 1 190 665
M  V30 714 1 190 666
M  V30 715 1 191 667
M  V30 716 1 191 668
M  V30 717 1 191 669
M  V30 718 1 192 670
M  V30 719 1 192 671
M  V30 720 1 192 672
M  V30 721 1 194 673
M  V30 722 1 194 674
M  V30 723 1 195 675
M  V30 724 1 195 676
M  V30 725 1 196 677 CFG=1
M  V30 726 1 197 678
M  V30 727 1 198 679 CFG=1
M  V30 728 1 199 680
M  V30 729 1 199 681
M  V30 730 1 200 682
M  V30 731 1 201 683
M  V30 732 1 202 684
M  V30 733 1 202 685
M  V30 734 1 204 686 CFG=3
M  V30 735 1 205 687
M  V30 736 1 206 688
M  V30 737 1 206 689
M  V30 738 1 207 690
M  V30 739 1 207 691
M  V30 740 1 208 692 CFG=3
M  V30 741 1 209 693
M  V30 742 1 209 694
M  V30 743 1 210 695
M  V30 744 1 210 696
M  V30 745 1 211 697 CFG=3
M  V30 746 1 213 698
M  V30 747 1 213 699
M  V30 748 1 214 700
M  V30 749 1 214 701
M  V30 750 1 215 702 CFG=1
M  V30 751 1 216 703
M  V30 752 1 217 704
M  V30 753 1 217 705
M  V30 754 1 218 706 CFG=3
M  V30 755 1 219 707
M  V30 756 1 220 708 CFG=1
M  V30 757 1 222 709
M  V30 758 1 223 710
M  V30 759 1 223 711
M  V30 760 1 224 712
M  V30 761 1 224 713
M  V30 762 1 225 714
M  V30 763 1 226 715
M  V30 764 1 226 716
M  V30 765 1 227 717
M  V30 766 1 227 718
M  V30 767 1 228 719
M  V30 768 1 228 720
M  V30 769 1 230 721
M  V30 770 1 230 722
M  V30 771 1 230 723
M  V30 772 1 233 724
M  V30 773 1 233 725
M  V30 774 1 233 726
M  V30 775 1 235 727
M  V30 776 1 235 728
M  V30 777 1 235 729
M  V30 778 1 236 730
M  V30 779 1 236 731
M  V30 780 1 236 732
M  V30 781 1 237 733
M  V30 782 1 237 734
M  V30 783 1 237 735
M  V30 784 1 238 736
M  V30 785 1 238 737
M  V30 786 1 238 738
M  V30 787 1 239 739
M  V30 788 1 239 740
M  V30 789 1 239 741
M  V30 790 1 240 742
M  V30 791 1 240 743
M  V30 792 1 240 744
M  V30 793 1 242 745
M  V30 794 1 242 746
M  V30 795 1 243 747
M  V30 796 1 243 748
M  V30 797 1 244 749 CFG=3
M  V30 798 1 245 750
M  V30 799 1 246 751 CFG=1
M  V30 800 1 247 752
M  V30 801 1 247 753
M  V30 802 1 248 754
M  V30 803 1 249 755
M  V30 804 1 250 756
M  V30 805 1 250 757
M  V30 806 1 252 758
M  V30 807 1 253 759 CFG=1
M  V30 808 1 254 760
M  V30 809 1 254 761
M  V30 810 1 255 762
M  V30 811 1 255 763
M  V30 812 1 256 764 CFG=1
M  V30 813 1 257 765
M  V30 814 1 257 766
M  V30 815 1 258 767
M  V30 816 1 258 768
M  V30 817 1 259 769 CFG=3
M  V30 818 1 261 770
M  V30 819 1 261 771
M  V30 820 1 262 772
M  V30 821 1 262 773
M  V30 822 1 263 774 CFG=1
M  V30 823 1 264 775
M  V30 824 1 265 776
M  V30 825 1 265 777
M  V30 826 1 266 778
M  V30 827 1 267 779
M  V30 828 1 268 780
M  V30 829 1 270 781
M  V30 830 1 271 782
M  V30 831 1 271 783
M  V30 832 1 272 784
M  V30 833 1 272 785
M  V30 834 1 273 786
M  V30 835 1 274 787
M  V30 836 1 274 788
M  V30 837 1 275 789
M  V30 838 1 275 790
M  V30 839 1 276 791
M  V30 840 1 276 792
M  V30 841 1 278 793
M  V30 842 1 278 794
M  V30 843 1 278 795
M  V30 844 1 281 796
M  V30 845 1 281 797
M  V30 846 1 281 798
M  V30 847 1 283 799
M  V30 848 1 283 800
M  V30 849 1 283 801
M  V30 850 1 284 802
M  V30 851 1 284 803
M  V30 852 1 284 804
M  V30 853 1 285 805
M  V30 854 1 285 806
M  V30 855 1 285 807
M  V30 856 1 286 808
M  V30 857 1 286 809
M  V30 858 1 286 810
M  V30 859 1 287 811
M  V30 860 1 287 812
M  V30 861 1 287 813
M  V30 862 1 288 814
M  V30 863 1 288 815
M  V30 864 1 288 816
M  V30 865 1 290 817
M  V30 866 1 290 818
M  V30 867 1 291 819
M  V30 868 1 291 820
M  V30 869 1 292 821
M  V30 870 1 293 822
M  V30 871 1 294 823 CFG=1
M  V30 872 1 295 824
M  V30 873 1 295 825
M  V30 874 1 296 826
M  V30 875 1 297 827
M  V30 876 1 298 828
M  V30 877 1 298 829
M  V30 878 1 300 830 CFG=3
M  V30 879 1 301 831
M  V30 880 1 302 832
M  V30 881 1 302 833
M  V30 882 1 303 834
M  V30 883 1 303 835
M  V30 884 1 304 836 CFG=3
M  V30 885 1 305 837
M  V30 886 1 305 838
M  V30 887 1 306 839
M  V30 888 1 306 840
M  V30 889 1 307 841 CFG=3
M  V30 890 1 309 842
M  V30 891 1 309 843
M  V30 892 1 310 844
M  V30 893 1 310 845
M  V30 894 1 311 846
M  V30 895 1 312 847
M  V30 896 1 313 848
M  V30 897 1 313 849
M  V30 898 1 314 850
M  V30 899 1 315 851 CFG=1
M  V30 900 1 316 852 CFG=1
M  V30 901 1 318 853
M  V30 902 1 319 854
M  V30 903 1 319 855
M  V30 904 1 320 856
M  V30 905 1 320 857
M  V30 906 1 321 858
M  V30 907 1 322 859
M  V30 908 1 322 860
M  V30 909 1 323 861
M  V30 910 1 323 862
M  V30 911 1 324 863
M  V30 912 1 324 864
M  V30 913 1 326 865
M  V30 914 1 326 866
M  V30 915 1 326 867
M  V30 916 1 329 868
M  V30 917 1 329 869
M  V30 918 1 329 870
M  V30 919 1 331 871
M  V30 920 1 331 872
M  V30 921 1 331 873
M  V30 922 1 332 874
M  V30 923 1 332 875
M  V30 924 1 332 876
M  V30 925 1 333 877
M  V30 926 1 333 878
M  V30 927 1 333 879
M  V30 928 1 334 880
M  V30 929 1 334 881
M  V30 930 1 334 882
M  V30 931 1 335 883
M  V30 932 1 335 884
M  V30 933 1 335 885
M  V30 934 1 336 886
M  V30 935 1 336 887
M  V30 936 1 336 888
M  V30 937 1 338 889
M  V30 938 1 338 890
M  V30 939 1 339 891
M  V30 940 1 339 892
M  V30 941 1 340 893
M  V30 942 1 341 894
M  V30 943 1 342 895 CFG=1
M  V30 944 1 343 896
M  V30 945 1 343 897
M  V30 946 1 344 898
M  V30 947 1 345 899
M  V30 948 1 346 900
M  V30 949 1 346 901
M  V30 950 1 348 902 CFG=3
M  V30 951 1 349 903 CFG=1
M  V30 952 1 350 904
M  V30 953 1 350 905
M  V30 954 1 351 906
M  V30 955 1 351 907
M  V30 956 1 352 908 CFG=3
M  V30 957 1 353 909
M  V30 958 1 353 910
M  V30 959 1 354 911
M  V30 960 1 354 912
M  V30 961 1 355 913 CFG=3
M  V30 962 1 357 914
M  V30 963 1 357 915
M  V30 964 1 358 916
M  V30 965 1 358 917
M  V30 966 1 359 918
M  V30 967 1 360 919
M  V30 968 1 361 920
M  V30 969 1 361 921
M  V30 970 1 362 922
M  V30 971 1 363 923
M  V30 972 1 364 924
M  V30 973 1 366 925
M  V30 974 1 367 926
M  V30 975 1 367 927
M  V30 976 1 368 928
M  V30 977 1 368 929
M  V30 978 1 369 930
M  V30 979 1 370 931
M  V30 980 1 370 932
M  V30 981 1 371 933
M  V30 982 1 371 934
M  V30 983 1 372 935
M  V30 984 1 372 936
M  V30 985 1 374 937
M  V30 986 1 374 938
M  V30 987 1 374 939
M  V30 988 1 377 940
M  V30 989 1 377 941
M  V30 990 1 377 942
M  V30 991 1 379 943
M  V30 992 1 379 944
M  V30 993 1 379 945
M  V30 994 1 380 946
M  V30 995 1 380 947
M  V30 996 1 380 948
M  V30 997 1 381 949
M  V30 998 1 381 950
M  V30 999 1 381 951
M  V30 1000 1 382 952
M  V30 1001 1 382 953
M  V30 1002 1 382 954
M  V30 1003 1 383 955
M  V30 1004 1 383 956
M  V30 1005 1 383 957
M  V30 1006 1 384 958
M  V30 1007 1 384 959
M  V30 1008 1 384 960
M  V30 END BOND
M  V30 END CTAB
M  END
>  <PDBID>  (1) 
3PEO

>  <PDB ID>  (1) 
3PEO

>  <Generic Name>  (1) 
Metocurine

>  <Brand Name>  (1) 
nan

>  <DrugBank ID>  (1) 
DB01336

>  <ATC Codes>  (1) 
M03AA04

>  <Ligand ID>  (1) 
CU9

>  <Target Name>  (1) 
Neuronal acetylcholine receptor subunit alpha-2

>  <UniProt ID>  (1) 
Q15822

>  <PDB ID.1>  (1) 
3PEO

>  <Seq. Identity>  (1) 
30%

$$$$
