PDB_DB01064_06
     RDKit          3D

 76 76  0  0  0  0  0  0  0  0999 V2000
   -3.8181    1.1784    0.2355 C   0  0  0  0  0  0  0  0  0  0  0  0
   -3.3481   -0.2788    0.1384 C   0  0  0  0  0  0  0  0  0  0  0  0
   -4.5349   -1.1740    0.2303 C   0  0  0  0  0  0  0  0  0  0  0  0
   -2.5592   -0.5439   -1.0181 N   0  0  0  0  0  0  0  0  0  0  0  0
   -1.2080   -0.9320   -0.7781 C   0  0  0  0  0  0  0  0  0  0  0  0
   -0.4269    0.1836   -0.1166 C   0  0  2  0  0  0  0  0  0  0  0  0
   -0.4336    1.3069   -0.9560 O   0  0  0  0  0  0  0  0  0  0  0  0
    0.9958   -0.2458    0.1688 C   0  0  0  0  0  0  0  0  0  0  0  0
    1.7442    0.8660    0.8938 C   0  0  0  0  0  0  0  0  0  0  0  0
    1.7890   -0.3648   -1.1308 C   0  0  0  0  0  0  0  0  0  0  0  0
    3.2091   -0.6759   -0.9125 C   0  0  0  0  0  0  0  0  0  0  0  0
    3.8163   -0.3956    0.3977 C   0  0  0  0  0  0  0  0  0  0  0  0
    4.8980    0.5179    0.3249 O   0  0  0  0  0  0  0  0  0  0  0  0
    2.9295    0.1029    1.4785 C   0  0  0  0  0  0  0  0  0  0  0  0
    3.5518    0.9029    2.4021 O   0  0  0  0  0  0  0  0  0  0  0  0
   -3.8181    1.1784    0.2355 C   0  0  0  0  0  0  0  0  0  0  0  0
   -3.3481   -0.2788    0.1384 C   0  0  0  0  0  0  0  0  0  0  0  0
   -4.5349   -1.1740    0.2303 C   0  0  0  0  0  0  0  0  0  0  0  0
   -2.5592   -0.5439   -1.0181 N   0  0  0  0  0  0  0  0  0  0  0  0
   -1.2080   -0.9320   -0.7781 C   0  0  0  0  0  0  0  0  0  0  0  0
   -0.4269    0.1836   -0.1166 C   0  0  2  0  0  0  0  0  0  0  0  0
   -0.4336    1.3069   -0.9560 O   0  0  0  0  0  0  0  0  0  0  0  0
    0.9958   -0.2458    0.1688 C   0  0  0  0  0  0  0  0  0  0  0  0
    1.7442    0.8660    0.8938 C   0  0  0  0  0  0  0  0  0  0  0  0
    1.7890   -0.3648   -1.1308 C   0  0  0  0  0  0  0  0  0  0  0  0
    3.2091   -0.6759   -0.9125 C   0  0  0  0  0  0  0  0  0  0  0  0
    3.8163   -0.3956    0.3977 C   0  0  0  0  0  0  0  0  0  0  0  0
    4.8980    0.5179    0.3249 O   0  0  0  0  0  0  0  0  0  0  0  0
    2.9295    0.1029    1.4785 C   0  0  0  0  0  0  0  0  0  0  0  0
    3.5518    0.9029    2.4021 O   0  0  0  0  0  0  0  0  0  0  0  0
   -4.7393    1.2899   -0.4035 H   0  0  0  0  0  0  0  0  0  0  0  0
   -3.0585    1.8947   -0.0700 H   0  0  0  0  0  0  0  0  0  0  0  0
   -4.1675    1.3257    1.2690 H   0  0  0  0  0  0  0  0  0  0  0  0
   -2.7344   -0.4135    1.0765 H   0  0  0  0  0  0  0  0  0  0  0  0
   -4.3710   -2.1539   -0.2901 H   0  0  0  0  0  0  0  0  0  0  0  0
   -5.4799   -0.7502   -0.1143 H   0  0  0  0  0  0  0  0  0  0  0  0
   -4.7344   -1.4641    1.3138 H   0  0  0  0  0  0  0  0  0  0  0  0
   -2.6293    0.2194   -1.7292 H   0  0  0  0  0  0  0  0  0  0  0  0
   -0.6992   -1.2667   -1.7115 H   0  0  0  0  0  0  0  0  0  0  0  0
   -1.2511   -1.8075   -0.0540 H   0  0  0  0  0  0  0  0  0  0  0  0
   -0.9066    0.4375    0.8230 H   0  0  0  0  0  0  0  0  0  0  0  0
   -0.7077    2.1266   -0.4834 H   0  0  0  0  0  0  0  0  0  0  0  0
    1.0407   -1.2069    0.6792 H   0  0  0  0  0  0  0  0  0  0  0  0
    1.1726    1.3321    1.6935 H   0  0  0  0  0  0  0  0  0  0  0  0
    2.1242    1.6098    0.1783 H   0  0  0  0  0  0  0  0  0  0  0  0
    1.3191   -1.0489   -1.8579 H   0  0  0  0  0  0  0  0  0  0  0  0
    1.7184    0.6576   -1.6308 H   0  0  0  0  0  0  0  0  0  0  0  0
    3.8139   -0.0908   -1.6785 H   0  0  0  0  0  0  0  0  0  0  0  0
    3.3615   -1.7456   -1.2467 H   0  0  0  0  0  0  0  0  0  0  0  0
    4.3067   -1.3351    0.7517 H   0  0  0  0  0  0  0  0  0  0  0  0
    4.6111    1.2116   -0.3317 H   0  0  0  0  0  0  0  0  0  0  0  0
    2.4620   -0.7738    2.0193 H   0  0  0  0  0  0  0  0  0  0  0  0
    2.9439    1.5044    2.8617 H   0  0  0  0  0  0  0  0  0  0  0  0
   -4.7393    1.2899   -0.4035 H   0  0  0  0  0  0  0  0  0  0  0  0
   -3.0585    1.8947   -0.0700 H   0  0  0  0  0  0  0  0  0  0  0  0
   -4.1675    1.3257    1.2690 H   0  0  0  0  0  0  0  0  0  0  0  0
   -2.7344   -0.4135    1.0765 H   0  0  0  0  0  0  0  0  0  0  0  0
   -4.3710   -2.1539   -0.2901 H   0  0  0  0  0  0  0  0  0  0  0  0
   -5.4799   -0.7502   -0.1143 H   0  0  0  0  0  0  0  0  0  0  0  0
   -4.7344   -1.4641    1.3138 H   0  0  0  0  0  0  0  0  0  0  0  0
   -2.6293    0.2194   -1.7292 H   0  0  0  0  0  0  0  0  0  0  0  0
   -0.6992   -1.2667   -1.7115 H   0  0  0  0  0  0  0  0  0  0  0  0
   -1.2511   -1.8075   -0.0540 H   0  0  0  0  0  0  0  0  0  0  0  0
   -0.9066    0.4375    0.8230 H   0  0  0  0  0  0  0  0  0  0  0  0
   -0.7077    2.1266   -0.4834 H   0  0  0  0  0  0  0  0  0  0  0  0
    1.0407   -1.2069    0.6792 H   0  0  0  0  0  0  0  0  0  0  0  0
    1.1726    1.3321    1.6935 H   0  0  0  0  0  0  0  0  0  0  0  0
    2.1242    1.6098    0.1783 H   0  0  0  0  0  0  0  0  0  0  0  0
    1.3191   -1.0489   -1.8579 H   0  0  0  0  0  0  0  0  0  0  0  0
    1.7184    0.6576   -1.6308 H   0  0  0  0  0  0  0  0  0  0  0  0
    3.8139   -0.0908   -1.6785 H   0  0  0  0  0  0  0  0  0  0  0  0
    3.3615   -1.7456   -1.2467 H   0  0  0  0  0  0  0  0  0  0  0  0
    4.3067   -1.3351    0.7517 H   0  0  0  0  0  0  0  0  0  0  0  0
    4.6111    1.2116   -0.3317 H   0  0  0  0  0  0  0  0  0  0  0  0
    2.4620   -0.7738    2.0193 H   0  0  0  0  0  0  0  0  0  0  0  0
    2.9439    1.5044    2.8617 H   0  0  0  0  0  0  0  0  0  0  0  0
  1  2  1  0
  2  3  1  0
  2  4  1  0
  4  5  1  0
  5  6  1  0
  6  7  1  0
  6  8  1  0
  8  9  1  0
  8 10  1  0
 10 11  1  0
 11 12  1  0
 12 13  1  0
  9 14  1  0
 12 14  1  0
 14 15  1  0
 16 17  1  0
 17 18  1  0
 17 19  1  0
 19 20  1  0
 20 21  1  0
 21 22  1  0
 21 23  1  0
 23 24  1  0
 23 25  1  0
 25 26  1  0
 26 27  1  0
 27 28  1  0
 24 29  1  0
 27 29  1  0
 29 30  1  0
  1 31  1  0
  1 32  1  0
  1 33  1  0
  2 34  1  0
  3 35  1  0
  3 36  1  0
  3 37  1  0
  4 38  1  0
  5 39  1  0
  5 40  1  0
  6 41  1  1
  7 42  1  0
  8 43  1  0
  9 44  1  0
  9 45  1  0
 10 46  1  0
 10 47  1  0
 11 48  1  0
 11 49  1  0
 12 50  1  0
 13 51  1  0
 14 52  1  0
 15 53  1  0
 16 54  1  0
 16 55  1  0
 16 56  1  0
 17 57  1  0
 18 58  1  0
 18 59  1  0
 18 60  1  0
 19 61  1  0
 20 62  1  0
 20 63  1  0
 21 64  1  1
 22 65  1  0
 23 66  1  0
 24 67  1  0
 24 68  1  0
 25 69  1  0
 25 70  1  0
 26 71  1  0
 26 72  1  0
 27 73  1  0
 28 74  1  0
 29 75  1  0
 30 76  1  0
M  END
>  <PDBID>  (1) 
2Y03

>  <PDB ID>  (1) 
2Y03

>  <Generic Name>  (1) 
Isoprenaline

>  <Brand Name>  (1) 
Isoproterenol HCl Inj 1:5000#Isoproterenol Hydrochloride Injection USP#Isuprel#Isuprel Inj 0.2mg/ml#Isuprel Liq 0.2mg/ml#Isuprel Liq 0.5%#Isuprel Liq Inh 0.5%#Isuprel Mistometer 125mcg/aem#Isuprel Mistometer Aem 0.25%#Medihaler-Iso#Proternol L#Saventrine

>  <DrugBank ID>  (1) 
DB01064

>  <ATC Codes>  (1) 
R03AK02#R03CB01#R03CB51#R03AB02#C01CA02

>  <Ligand ID>  (1) 
5FW

>  <Target Name>  (1) 
Beta-1 adrenergic receptor

>  <UniProt ID>  (1) 
P08588

>  <PDB ID.1>  (1) 
2Y03

>  <Seq. Identity>  (1) 
63%

$$$$
