PDB_DB00412_09
     RDKit          3D

 60 62  0  0  0  0  0  0  0  0999 V2000
   -4.9940    1.3104    0.5163 S   0  0  0  0  0  0  0  0  0  0  0  0
   -7.5088    1.6823    1.3643 O   0  0  0  0  0  0  0  0  0  0  0  0
   -6.9495   -0.8504   -0.0507 O   0  0  0  0  0  0  0  0  0  0  0  0
    0.8724   -1.0882    1.2707 O   0  0  0  0  0  0  0  0  0  0  0  0
   -7.0748    1.3283   -0.9430 N   0  0  0  0  0  0  0  0  0  0  0  0
    3.3280    0.7604   -0.7230 N   0  0  0  0  0  0  0  0  0  0  0  0
    5.4793    1.6394   -0.1456 N   0  0  0  0  0  0  0  0  0  0  0  0
   -6.7070    1.9487    0.2871 C   0  0  0  0  0  0  0  0  0  0  0  0
   -6.5077    0.0190   -1.0409 C   0  0  0  0  0  0  0  0  0  0  0  0
   -4.9829    0.2257   -0.9378 C   0  0  2  0  0  0  0  0  0  0  0  0
   -4.2618   -1.0503   -0.7771 C   0  0  0  0  0  0  0  0  0  0  0  0
   -2.8068   -0.8348   -0.4473 C   0  0  0  0  0  0  0  0  0  0  0  0
   -2.1750   -2.2335   -0.3437 C   0  0  0  0  0  0  0  0  0  0  0  0
   -0.6470   -2.0585   -0.2900 C   0  0  0  0  0  0  0  0  0  0  0  0
   -0.3117   -0.8664    0.6028 C   0  0  0  0  0  0  0  0  0  0  0  0
   -1.4297   -0.7350    1.6414 C   0  0  0  0  0  0  0  0  0  0  0  0
   -2.6632   -0.2054    0.9278 C   0  0  0  0  0  0  0  0  0  0  0  0
    1.8689   -0.1799    1.0341 C   0  0  0  0  0  0  0  0  0  0  0  0
    2.2831   -0.1835   -0.4015 C   0  0  0  0  0  0  0  0  0  0  0  0
    2.8383    2.1263   -0.6111 C   0  0  0  0  0  0  0  0  0  0  0  0
    4.4880    0.6027    0.0791 C   0  0  0  0  0  0  0  0  0  0  0  0
    6.4890    1.2869   -1.0923 C   0  0  0  0  0  0  0  0  0  0  0  0
    7.2620    0.0413   -0.7654 C   0  0  0  0  0  0  0  0  0  0  0  0
    6.5387   -0.7844    0.2877 C   0  0  0  0  0  0  0  0  0  0  0  0
    5.0715   -0.7756   -0.1541 C   0  0  0  0  0  0  0  0  0  0  0  0
   -7.7027    2.5653    1.8176 H   0  0  0  0  0  0  0  0  0  0  0  0
   -6.6090   -0.6109    0.8482 H   0  0  0  0  0  0  0  0  0  0  0  0
   -8.0936    1.2494   -0.9972 H   0  0  0  0  0  0  0  0  0  0  0  0
    5.9073    1.9705    0.7251 H   0  0  0  0  0  0  0  0  0  0  0  0
   -6.6016    3.0535    0.0895 H   0  0  0  0  0  0  0  0  0  0  0  0
   -6.7204   -0.4004   -2.0207 H   0  0  0  0  0  0  0  0  0  0  0  0
   -4.6879    0.7983   -1.8530 H   0  0  0  0  0  0  0  0  0  0  0  0
   -4.6860   -1.6087    0.0994 H   0  0  0  0  0  0  0  0  0  0  0  0
   -4.3683   -1.6414   -1.7123 H   0  0  0  0  0  0  0  0  0  0  0  0
   -2.2569   -0.2609   -1.2140 H   0  0  0  0  0  0  0  0  0  0  0  0
   -2.4621   -2.7885   -1.2539 H   0  0  0  0  0  0  0  0  0  0  0  0
   -2.5730   -2.7293    0.5469 H   0  0  0  0  0  0  0  0  0  0  0  0
   -0.3129   -1.8532   -1.3274 H   0  0  0  0  0  0  0  0  0  0  0  0
   -0.2525   -2.9962    0.1300 H   0  0  0  0  0  0  0  0  0  0  0  0
   -0.2880    0.0228   -0.0245 H   0  0  0  0  0  0  0  0  0  0  0  0
   -1.5878   -1.7241    2.1009 H   0  0  0  0  0  0  0  0  0  0  0  0
   -1.0439   -0.0296    2.4028 H   0  0  0  0  0  0  0  0  0  0  0  0
   -3.5619   -0.4737    1.5097 H   0  0  0  0  0  0  0  0  0  0  0  0
   -2.5329    0.8813    0.7927 H   0  0  0  0  0  0  0  0  0  0  0  0
    1.5844    0.8362    1.3854 H   0  0  0  0  0  0  0  0  0  0  0  0
    2.7552   -0.5488    1.6378 H   0  0  0  0  0  0  0  0  0  0  0  0
    2.6252   -1.2418   -0.6214 H   0  0  0  0  0  0  0  0  0  0  0  0
    1.3833   -0.0044   -1.0519 H   0  0  0  0  0  0  0  0  0  0  0  0
    1.8924    2.2715   -1.1630 H   0  0  0  0  0  0  0  0  0  0  0  0
    2.7553    2.3690    0.4569 H   0  0  0  0  0  0  0  0  0  0  0  0
    3.5877    2.7916   -1.0744 H   0  0  0  0  0  0  0  0  0  0  0  0
    4.2221    0.6756    1.1476 H   0  0  0  0  0  0  0  0  0  0  0  0
    6.1425    1.2673   -2.1463 H   0  0  0  0  0  0  0  0  0  0  0  0
    7.2433    2.1298   -1.0625 H   0  0  0  0  0  0  0  0  0  0  0  0
    8.3172    0.2267   -0.4866 H   0  0  0  0  0  0  0  0  0  0  0  0
    7.2901   -0.6153   -1.6747 H   0  0  0  0  0  0  0  0  0  0  0  0
    6.6752   -0.3490    1.2869 H   0  0  0  0  0  0  0  0  0  0  0  0
    6.8828   -1.8211    0.2065 H   0  0  0  0  0  0  0  0  0  0  0  0
    4.5036   -1.5730    0.3542 H   0  0  0  0  0  0  0  0  0  0  0  0
    5.0744   -0.9640   -1.2460 H   0  0  0  0  0  0  0  0  0  0  0  0
  1  8  1  0
  2  8  1  0
  5  8  1  0
  3  9  1  0
  5  9  1  0
  1 10  1  0
  9 10  1  0
 10 11  1  0
 11 12  1  0
 12 13  1  0
 13 14  1  0
  4 15  1  0
 14 15  1  0
 15 16  1  0
 12 17  1  0
 16 17  1  0
  4 18  1  0
  6 19  1  0
 18 19  1  0
  6 20  1  0
  6 21  1  0
  7 21  1  0
  7 22  1  0
 22 23  1  0
 23 24  1  0
 21 25  1  0
 24 25  1  0
  2 26  1  0
  3 27  1  0
  5 28  1  0
  7 29  1  0
  8 30  1  0
  9 31  1  0
 10 32  1  6
 11 33  1  0
 11 34  1  0
 12 35  1  0
 13 36  1  0
 13 37  1  0
 14 38  1  0
 14 39  1  0
 15 40  1  0
 16 41  1  0
 16 42  1  0
 17 43  1  0
 17 44  1  0
 18 45  1  0
 18 46  1  0
 19 47  1  0
 19 48  1  0
 20 49  1  0
 20 50  1  0
 20 51  1  0
 21 52  1  0
 22 53  1  0
 22 54  1  0
 23 55  1  0
 23 56  1  0
 24 57  1  0
 24 58  1  0
 25 59  1  0
 25 60  1  0
M  END
>  <PDBID>  (1) 
3DZY

>  <PDB ID>  (1) 
3DZY

>  <Generic Name>  (1) 
Rosiglitazone

>  <Brand Name>  (1) 
Apo-rosiglitazone#Avandamet#Avandaryl#Avandia#Avandia 2mg#Avandia 4mg#Avandia 8mg#Dom-rosiglitazone#Mylan-rosiglitazone#PHL-rosiglitazone#PMS-rosiglitazone#PMS-rosiglitazone-metformin#Teva-rosiglitazone#Blutab#DH-Rosidia#Diaben#Diaglinex#Gaudil#Gliximina#Naidi#Rogelin#Roglit#Romerol#Rosit#Rosix#Rossini#Sensulin#Sheng Ao#Sheng Min

>  <DrugBank ID>  (1) 
DB00412

>  <ATC Codes>  (1) 
A10BD03#A10BG02#A10BD04

>  <Ligand ID>  (1) 
BRL,RGZ

>  <Target Name>  (1) 
Peroxisome proliferator-activated receptor gamma

>  <UniProt ID>  (1) 
P37231

>  <PDB ID.1>  (1) 
3DZY

>  <Seq. Identity>  (1) 
97%

$$$$
