PDB_DB09063_07
     RDKit          3D

 94 97  0  0  0  0  0  0  0  0999 V2000
   -4.0809   -3.6549   -0.7302 C   0  0  0  0  0  0  0  0  0  0  0  0
   -3.8555   -2.2392   -1.2902 C   0  0  0  0  0  0  0  0  0  0  0  0
   -4.9630   -2.0044   -2.2773 C   0  0  0  0  0  0  0  0  0  0  0  0
   -3.8575   -1.4007   -0.2172 O   0  0  0  0  0  0  0  0  0  0  0  0
   -2.6596   -0.7426    0.0382 C   0  0  0  0  0  0  0  0  0  0  0  0
   -2.9521    0.7270   -0.2221 C   0  0  0  0  0  0  0  0  0  0  0  0
   -4.0656    1.2394    0.6653 C   0  0  1  0  0  0  0  0  0  0  0  0
   -5.4222    1.0867    0.0695 C   0  0  0  0  0  0  0  0  0  0  0  0
   -6.4745    1.6372    1.0273 C   0  0  0  0  0  0  0  0  0  0  0  0
   -7.0928    2.9164    0.4949 C   0  0  0  0  0  0  0  0  0  0  0  0
   -7.7317    2.7728   -0.7733 N   0  0  0  0  0  0  0  0  0  0  0  0
   -6.9590    1.9887   -1.6775 C   0  0  0  0  0  0  0  0  0  0  0  0
   -5.5104    1.9599   -1.1663 C   0  0  0  0  0  0  0  0  0  0  0  0
   -3.9406    0.7531    2.0758 C   0  0  0  0  0  0  0  0  0  0  0  0
   -4.8895   -0.2816    2.5302 C   0  0  0  0  0  0  0  0  0  0  0  0
   -2.5188    0.3094    2.3083 C   0  0  0  0  0  0  0  0  0  0  0  0
   -2.1842   -0.8783    1.4314 C   0  0  0  0  0  0  0  0  0  0  0  0
   -0.8330   -1.2581    1.5358 N   0  0  0  0  0  0  0  0  0  0  0  0
    0.1949   -0.4200    1.0666 C   0  0  0  0  0  0  0  0  0  0  0  0
    0.2031   -0.2613   -0.3290 N   0  0  0  0  0  0  0  0  0  0  0  0
    0.9208   -1.2043   -1.1139 C   0  0  0  0  0  0  0  0  0  0  0  0
    1.5894   -2.2169   -0.2120 C   0  0  1  0  0  0  0  0  0  0  0  0
    2.4711   -3.3694   -1.1814 Cl  0  0  0  0  0  0  0  0  0  0  0  0
    2.3777   -1.4714    0.8100 C   0  0  0  0  0  0  0  0  0  0  0  0
    3.2662   -0.4829    0.3433 N   0  0  0  0  0  0  0  0  0  0  0  0
    4.3681   -0.8540   -0.4706 C   0  0  2  0  0  0  0  0  0  0  0  0
    5.3733   -1.7324    0.1659 C   0  0  0  0  0  0  0  0  0  0  0  0
    6.5388   -2.0273   -0.7000 C   0  0  0  0  0  0  0  0  0  0  0  0
    7.0143   -0.9605   -1.5926 C   0  0  0  0  0  0  0  0  0  0  0  0
    6.0573    0.1043   -1.9407 C   0  0  0  0  0  0  0  0  0  0  0  0
    5.0104    0.4473   -0.9317 C   0  0  2  0  0  0  0  0  0  0  0  0
    5.2527    1.4864    0.2699 S   0  0  0  0  0  0  0  0  0  0  0  0
    3.9906    1.6529    1.2253 O   0  0  0  0  0  0  0  0  0  0  0  0
    4.9426    3.1756   -0.6543 O   0  0  0  0  0  0  0  0  0  0  0  0
    6.6332    1.9203    0.9281 C   0  0  0  0  0  0  0  0  0  0  0  0
    7.7119    2.5823    0.0564 C   0  0  0  0  0  0  0  0  0  0  0  0
    7.3513    0.8340    1.6964 C   0  0  0  0  0  0  0  0  0  0  0  0
    1.4327   -0.8108    1.6944 N   0  0  0  0  0  0  0  0  0  0  0  0
   -3.1428   -4.1182   -0.4050 H   0  0  0  0  0  0  0  0  0  0  0  0
   -4.6654   -4.2519   -1.4323 H   0  0  0  0  0  0  0  0  0  0  0  0
   -4.7180   -3.5615    0.1985 H   0  0  0  0  0  0  0  0  0  0  0  0
   -2.8940   -2.3044   -1.8402 H   0  0  0  0  0  0  0  0  0  0  0  0
   -5.9281   -1.8076   -1.7392 H   0  0  0  0  0  0  0  0  0  0  0  0
   -5.1285   -2.9693   -2.8247 H   0  0  0  0  0  0  0  0  0  0  0  0
   -4.7441   -1.2548   -3.0412 H   0  0  0  0  0  0  0  0  0  0  0  0
   -1.9218   -1.0482   -0.7260 H   0  0  0  0  0  0  0  0  0  0  0  0
   -3.2312    0.7858   -1.2884 H   0  0  0  0  0  0  0  0  0  0  0  0
   -2.0377    1.3634   -0.1312 H   0  0  0  0  0  0  0  0  0  0  0  0
   -3.8795    2.3583    0.7026 H   0  0  0  0  0  0  0  0  0  0  0  0
   -5.6740    0.0618   -0.2586 H   0  0  0  0  0  0  0  0  0  0  0  0
   -7.2442    0.8776    1.1454 H   0  0  0  0  0  0  0  0  0  0  0  0
   -6.0247    1.9167    2.0003 H   0  0  0  0  0  0  0  0  0  0  0  0
   -7.8583    3.2111    1.2703 H   0  0  0  0  0  0  0  0  0  0  0  0
   -6.3516    3.7555    0.5239 H   0  0  0  0  0  0  0  0  0  0  0  0
   -7.8637    3.7293   -1.1710 H   0  0  0  0  0  0  0  0  0  0  0  0
   -6.9065    2.4959   -2.6599 H   0  0  0  0  0  0  0  0  0  0  0  0
   -7.3213    0.9487   -1.8012 H   0  0  0  0  0  0  0  0  0  0  0  0
   -4.9447    1.5121   -2.0339 H   0  0  0  0  0  0  0  0  0  0  0  0
   -5.2244    3.0022   -0.9902 H   0  0  0  0  0  0  0  0  0  0  0  0
   -4.0741    1.6283    2.7905 H   0  0  0  0  0  0  0  0  0  0  0  0
   -5.5692   -0.7034    1.7981 H   0  0  0  0  0  0  0  0  0  0  0  0
   -4.3477   -1.1576    2.9987 H   0  0  0  0  0  0  0  0  0  0  0  0
   -5.5523    0.0464    3.3912 H   0  0  0  0  0  0  0  0  0  0  0  0
   -1.8675    1.1669    2.1512 H   0  0  0  0  0  0  0  0  0  0  0  0
   -2.4830   -0.0678    3.3724 H   0  0  0  0  0  0  0  0  0  0  0  0
   -2.7825   -1.7329    1.8864 H   0  0  0  0  0  0  0  0  0  0  0  0
   -0.5558   -1.8118    2.3497 H   0  0  0  0  0  0  0  0  0  0  0  0
    0.0144    0.6318    1.4917 H   0  0  0  0  0  0  0  0  0  0  0  0
    0.2098    0.7157   -0.6858 H   0  0  0  0  0  0  0  0  0  0  0  0
    0.1814   -1.7709   -1.7403 H   0  0  0  0  0  0  0  0  0  0  0  0
    1.6506   -0.7702   -1.8097 H   0  0  0  0  0  0  0  0  0  0  0  0
    0.7732   -2.7647    0.3278 H   0  0  0  0  0  0  0  0  0  0  0  0
    2.8633   -2.2515    1.4580 H   0  0  0  0  0  0  0  0  0  0  0  0
    2.7185    0.2520   -0.1516 H   0  0  0  0  0  0  0  0  0  0  0  0
    3.9683   -1.3318   -1.4208 H   0  0  0  0  0  0  0  0  0  0  0  0
    4.9052   -2.7434    0.3923 H   0  0  0  0  0  0  0  0  0  0  0  0
    5.6052   -1.3414    1.1782 H   0  0  0  0  0  0  0  0  0  0  0  0
    6.3672   -2.9830   -1.2808 H   0  0  0  0  0  0  0  0  0  0  0  0
    7.3935   -2.3124   -0.0155 H   0  0  0  0  0  0  0  0  0  0  0  0
    7.3652   -1.4419   -2.5581 H   0  0  0  0  0  0  0  0  0  0  0  0
    7.9773   -0.4999   -1.2162 H   0  0  0  0  0  0  0  0  0  0  0  0
    5.5556   -0.2000   -2.9096 H   0  0  0  0  0  0  0  0  0  0  0  0
    6.6464    1.0166   -2.2494 H   0  0  0  0  0  0  0  0  0  0  0  0
    4.1459    0.8638   -1.5889 H   0  0  0  0  0  0  0  0  0  0  0  0
    4.0884    1.3346    2.1596 H   0  0  0  0  0  0  0  0  0  0  0  0
    5.5529    2.9217   -1.3947 H   0  0  0  0  0  0  0  0  0  0  0  0
    6.4610    2.7122    1.7382 H   0  0  0  0  0  0  0  0  0  0  0  0
    7.3127    3.4432   -0.5062 H   0  0  0  0  0  0  0  0  0  0  0  0
    8.5317    2.9894    0.7056 H   0  0  0  0  0  0  0  0  0  0  0  0
    8.2073    1.8195   -0.5839 H   0  0  0  0  0  0  0  0  0  0  0  0
    6.6389    0.4390    2.4799 H   0  0  0  0  0  0  0  0  0  0  0  0
    7.6165   -0.0223    1.0815 H   0  0  0  0  0  0  0  0  0  0  0  0
    8.2433    1.2158    2.2312 H   0  0  0  0  0  0  0  0  0  0  0  0
    1.2333   -1.3147    2.5626 H   0  0  0  0  0  0  0  0  0  0  0  0
  1  2  1  0
  2  3  1  0
  2  4  1  0
  4  5  1  0
  5  6  1  0
  6  7  1  0
  7  8  1  0
  8  9  1  0
  9 10  1  0
 10 11  1  0
 11 12  1  0
  8 13  1  0
 12 13  1  0
  7 14  1  0
 14 15  1  0
 14 16  1  0
  5 17  1  0
 16 17  1  0
 17 18  1  0
 18 19  1  0
 19 20  1  0
 20 21  1  0
 21 22  1  0
 22 23  1  0
 22 24  1  0
 24 25  1  0
 25 26  1  0
 26 27  1  0
 27 28  1  0
 28 29  1  0
 29 30  1  0
 26 31  1  0
 30 31  1  0
 31 32  1  0
 32 33  1  0
 32 34  1  0
 32 35  1  0
 35 36  1  0
 35 37  1  0
 19 38  1  0
 24 38  1  0
  1 39  1  0
  1 40  1  0
  1 41  1  0
  2 42  1  0
  3 43  1  0
  3 44  1  0
  3 45  1  0
  5 46  1  0
  6 47  1  0
  6 48  1  0
  7 49  1  1
  8 50  1  0
  9 51  1  0
  9 52  1  0
 10 53  1  0
 10 54  1  0
 11 55  1  0
 12 56  1  0
 12 57  1  0
 13 58  1  0
 13 59  1  0
 14 60  1  0
 15 61  1  0
 15 62  1  0
 15 63  1  0
 16 64  1  0
 16 65  1  0
 17 66  1  0
 18 67  1  0
 19 68  1  0
 20 69  1  0
 21 70  1  0
 21 71  1  0
 22 72  1  1
 24 73  1  0
 25 74  1  0
 26 75  1  6
 27 76  1  0
 27 77  1  0
 28 78  1  0
 28 79  1  0
 29 80  1  0
 29 81  1  0
 30 82  1  0
 30 83  1  0
 31 84  1  6
 33 85  1  0
 34 86  1  0
 35 87  1  0
 36 88  1  0
 36 89  1  0
 36 90  1  0
 37 91  1  0
 37 92  1  0
 37 93  1  0
 38 94  1  0
M  END
>  <PDBID>  (1) 
4MKC

>  <PDB ID>  (1) 
4MKC

>  <Generic Name>  (1) 
Ceritinib

>  <Brand Name>  (1) 
Zykadia

>  <DrugBank ID>  (1) 
DB09063

>  <ATC Codes>  (1) 
L01XE28

>  <Ligand ID>  (1) 
4MK

>  <Target Name>  (1) 
ALK tyrosine kinase receptor

>  <UniProt ID>  (1) 
Q9UM73

>  <PDB ID.1>  (1) 
4MKC

>  <Seq. Identity>  (1) 
99%

$$$$
