PDB_DB00421_06
     RDKit          3D

138146  0  0  0  0  0  0  0  0999 V2000
    3.4807   -0.4741    1.1177 C   0  0  0  0  0  0  0  0  0  0  0  0
    1.3083    1.3913   -1.2358 C   0  0  0  0  0  0  0  0  0  0  0  0
    1.9459    0.8024   -0.0476 C   0  0  1  0  0  0  0  0  0  0  0  0
   -2.0632    1.0217   -0.2321 C   0  0  1  0  0  0  0  0  0  0  0  0
    1.2217   -0.4908    0.3210 C   0  0  1  0  0  0  0  0  0  0  0  0
   -2.8380    1.5491   -1.4253 C   0  0  0  0  0  0  0  0  0  0  0  0
    0.0166    0.7642   -1.6765 C   0  0  0  0  0  0  0  0  0  0  0  0
    2.0846   -1.0124    1.4161 C   0  0  0  0  0  0  0  0  0  0  0  0
    3.3401    0.3108   -0.1847 C   0  0  2  0  0  0  0  0  0  0  0  0
    1.8837    1.7474    1.1314 C   0  0  0  0  0  0  0  0  0  0  0  0
   -1.7423    2.2368    0.6235 C   0  0  0  0  0  0  0  0  0  0  0  0
   -4.1198    2.2132   -1.0750 C   0  0  0  0  0  0  0  0  0  0  0  0
    3.5574   -0.6640   -1.3035 C   0  0  0  0  0  0  0  0  0  0  0  0
    5.0466   -0.5608   -1.4979 C   0  0  0  0  0  0  0  0  0  0  0  0
    5.3437    0.8351   -1.0443 C   0  0  0  0  0  0  0  0  0  0  0  0
   -1.3456   -3.7440    0.4287 C   0  0  0  0  0  0  0  0  0  0  0  0
   -0.7689   -5.1467    0.6069 C   0  0  0  0  0  0  0  0  0  0  0  0
   -4.8993    1.6245    0.0423 C   0  0  0  0  0  0  0  0  0  0  0  0
   -4.0982    0.9147    1.0830 C   0  0  0  0  0  0  0  0  0  0  0  0
   -2.9906    0.0641    0.4709 C   0  0  2  0  0  0  0  0  0  0  0  0
   -2.4035   -0.8495    1.4600 C   0  0  0  0  0  0  0  0  0  0  0  0
   -0.9288   -0.9646    1.5574 C   0  0  2  0  0  0  0  0  0  0  0  0
   -0.1408   -0.0413    0.6990 C   0  0  2  0  0  0  0  0  0  0  0  0
   -0.8601    0.2345   -0.6189 C   0  0  1  0  0  0  0  0  0  0  0  0
    5.4872    1.7238   -2.1010 O   0  0  0  0  0  0  0  0  0  0  0  0
    4.3085    1.2806   -0.2555 O   0  0  0  0  0  0  0  0  0  0  0  0
   -1.3458   -3.5092   -0.9541 O   0  0  0  0  0  0  0  0  0  0  0  0
   -5.5612    2.6783    0.6958 O   0  0  0  0  0  0  0  0  0  0  0  0
   -0.2930   -2.6367    1.3400 S   0  0  0  0  0  0  0  0  0  0  0  0
    3.4807   -0.4741    1.1177 C   0  0  0  0  0  0  0  0  0  0  0  0
    1.3083    1.3913   -1.2358 C   0  0  0  0  0  0  0  0  0  0  0  0
    1.9459    0.8024   -0.0476 C   0  0  1  0  0  0  0  0  0  0  0  0
   -2.0632    1.0217   -0.2321 C   0  0  1  0  0  0  0  0  0  0  0  0
    1.2217   -0.4908    0.3210 C   0  0  1  0  0  0  0  0  0  0  0  0
   -2.8380    1.5491   -1.4253 C   0  0  0  0  0  0  0  0  0  0  0  0
    0.0166    0.7642   -1.6765 C   0  0  0  0  0  0  0  0  0  0  0  0
    2.0846   -1.0124    1.4161 C   0  0  0  0  0  0  0  0  0  0  0  0
    3.3401    0.3108   -0.1847 C   0  0  2  0  0  0  0  0  0  0  0  0
    1.8837    1.7474    1.1314 C   0  0  0  0  0  0  0  0  0  0  0  0
   -1.7423    2.2368    0.6235 C   0  0  0  0  0  0  0  0  0  0  0  0
   -4.1198    2.2132   -1.0750 C   0  0  0  0  0  0  0  0  0  0  0  0
    3.5574   -0.6640   -1.3035 C   0  0  0  0  0  0  0  0  0  0  0  0
    5.0466   -0.5608   -1.4979 C   0  0  0  0  0  0  0  0  0  0  0  0
    5.3437    0.8351   -1.0443 C   0  0  0  0  0  0  0  0  0  0  0  0
   -1.3456   -3.7440    0.4287 C   0  0  0  0  0  0  0  0  0  0  0  0
   -0.7689   -5.1467    0.6069 C   0  0  0  0  0  0  0  0  0  0  0  0
   -4.8993    1.6245    0.0423 C   0  0  0  0  0  0  0  0  0  0  0  0
   -4.0982    0.9147    1.0830 C   0  0  0  0  0  0  0  0  0  0  0  0
   -2.9906    0.0641    0.4709 C   0  0  2  0  0  0  0  0  0  0  0  0
   -2.4035   -0.8495    1.4600 C   0  0  0  0  0  0  0  0  0  0  0  0
   -0.9288   -0.9646    1.5574 C   0  0  2  0  0  0  0  0  0  0  0  0
   -0.1408   -0.0413    0.6990 C   0  0  2  0  0  0  0  0  0  0  0  0
   -0.8601    0.2345   -0.6189 C   0  0  1  0  0  0  0  0  0  0  0  0
    5.4872    1.7238   -2.1010 O   0  0  0  0  0  0  0  0  0  0  0  0
    4.3085    1.2806   -0.2555 O   0  0  0  0  0  0  0  0  0  0  0  0
   -1.3458   -3.5092   -0.9541 O   0  0  0  0  0  0  0  0  0  0  0  0
   -5.5612    2.6783    0.6958 O   0  0  0  0  0  0  0  0  0  0  0  0
   -0.2930   -2.6367    1.3400 S   0  0  0  0  0  0  0  0  0  0  0  0
    4.2246   -1.2692    0.9796 H   0  0  0  0  0  0  0  0  0  0  0  0
    3.7822    0.2044    1.9541 H   0  0  0  0  0  0  0  0  0  0  0  0
    2.0421    1.3529   -2.0813 H   0  0  0  0  0  0  0  0  0  0  0  0
    1.1604    2.4865   -1.0553 H   0  0  0  0  0  0  0  0  0  0  0  0
    1.1997   -1.1733   -0.5404 H   0  0  0  0  0  0  0  0  0  0  0  0
   -2.2565    2.3173   -1.9966 H   0  0  0  0  0  0  0  0  0  0  0  0
   -3.0822    0.6605   -2.0589 H   0  0  0  0  0  0  0  0  0  0  0  0
    0.3222   -0.0651   -2.3687 H   0  0  0  0  0  0  0  0  0  0  0  0
   -0.4536    1.5083   -2.3620 H   0  0  0  0  0  0  0  0  0  0  0  0
    2.1922   -2.1269    1.3891 H   0  0  0  0  0  0  0  0  0  0  0  0
    1.7488   -0.7702    2.4344 H   0  0  0  0  0  0  0  0  0  0  0  0
    2.8829    2.2444    1.2167 H   0  0  0  0  0  0  0  0  0  0  0  0
    1.1534    2.5481    0.9462 H   0  0  0  0  0  0  0  0  0  0  0  0
    1.7192    1.2369    2.0925 H   0  0  0  0  0  0  0  0  0  0  0  0
   -1.7530    2.0179    1.7014 H   0  0  0  0  0  0  0  0  0  0  0  0
   -2.4917    3.0553    0.4744 H   0  0  0  0  0  0  0  0  0  0  0  0
   -0.7707    2.6668    0.3431 H   0  0  0  0  0  0  0  0  0  0  0  0
   -4.7719    2.1661   -1.9856 H   0  0  0  0  0  0  0  0  0  0  0  0
   -3.9597    3.3099   -0.9131 H   0  0  0  0  0  0  0  0  0  0  0  0
    2.9724   -0.4543   -2.2097 H   0  0  0  0  0  0  0  0  0  0  0  0
    3.3253   -1.7062   -1.0004 H   0  0  0  0  0  0  0  0  0  0  0  0
    5.6003   -1.2564   -0.8286 H   0  0  0  0  0  0  0  0  0  0  0  0
    5.3580   -0.6730   -2.5487 H   0  0  0  0  0  0  0  0  0  0  0  0
    6.2838    0.8814   -0.4535 H   0  0  0  0  0  0  0  0  0  0  0  0
   -2.3862   -3.8126    0.7729 H   0  0  0  0  0  0  0  0  0  0  0  0
    0.3207   -5.0969    0.8590 H   0  0  0  0  0  0  0  0  0  0  0  0
   -1.2413   -5.6794    1.4555 H   0  0  0  0  0  0  0  0  0  0  0  0
   -0.8143   -5.7305   -0.3421 H   0  0  0  0  0  0  0  0  0  0  0  0
   -5.7034    0.9454   -0.3249 H   0  0  0  0  0  0  0  0  0  0  0  0
   -3.7322    1.5832    1.8739 H   0  0  0  0  0  0  0  0  0  0  0  0
   -4.7834    0.1864    1.5865 H   0  0  0  0  0  0  0  0  0  0  0  0
   -3.5016   -0.5029   -0.3505 H   0  0  0  0  0  0  0  0  0  0  0  0
   -2.8649   -0.6178    2.4565 H   0  0  0  0  0  0  0  0  0  0  0  0
   -2.7850   -1.8839    1.2513 H   0  0  0  0  0  0  0  0  0  0  0  0
   -0.6438   -0.7095    2.6139 H   0  0  0  0  0  0  0  0  0  0  0  0
   -0.0958    0.9521    1.2125 H   0  0  0  0  0  0  0  0  0  0  0  0
   -1.2340   -0.7723   -0.9411 H   0  0  0  0  0  0  0  0  0  0  0  0
    6.4189    1.8791   -2.3655 H   0  0  0  0  0  0  0  0  0  0  0  0
   -1.1551   -4.3131   -1.4810 H   0  0  0  0  0  0  0  0  0  0  0  0
   -4.8528    3.1126    1.2531 H   0  0  0  0  0  0  0  0  0  0  0  0
    4.2246   -1.2692    0.9796 H   0  0  0  0  0  0  0  0  0  0  0  0
    3.7822    0.2044    1.9541 H   0  0  0  0  0  0  0  0  0  0  0  0
    2.0421    1.3529   -2.0813 H   0  0  0  0  0  0  0  0  0  0  0  0
    1.1604    2.4865   -1.0553 H   0  0  0  0  0  0  0  0  0  0  0  0
    1.1997   -1.1733   -0.5404 H   0  0  0  0  0  0  0  0  0  0  0  0
   -2.2565    2.3173   -1.9966 H   0  0  0  0  0  0  0  0  0  0  0  0
   -3.0822    0.6605   -2.0589 H   0  0  0  0  0  0  0  0  0  0  0  0
    0.3222   -0.0651   -2.3687 H   0  0  0  0  0  0  0  0  0  0  0  0
   -0.4536    1.5083   -2.3620 H   0  0  0  0  0  0  0  0  0  0  0  0
    2.1922   -2.1269    1.3891 H   0  0  0  0  0  0  0  0  0  0  0  0
    1.7488   -0.7702    2.4344 H   0  0  0  0  0  0  0  0  0  0  0  0
    2.8829    2.2444    1.2167 H   0  0  0  0  0  0  0  0  0  0  0  0
    1.1534    2.5481    0.9462 H   0  0  0  0  0  0  0  0  0  0  0  0
    1.7192    1.2369    2.0925 H   0  0  0  0  0  0  0  0  0  0  0  0
   -1.7530    2.0179    1.7014 H   0  0  0  0  0  0  0  0  0  0  0  0
   -2.4917    3.0553    0.4744 H   0  0  0  0  0  0  0  0  0  0  0  0
   -0.7707    2.6668    0.3431 H   0  0  0  0  0  0  0  0  0  0  0  0
   -4.7719    2.1661   -1.9856 H   0  0  0  0  0  0  0  0  0  0  0  0
   -3.9597    3.3099   -0.9131 H   0  0  0  0  0  0  0  0  0  0  0  0
    2.9724   -0.4543   -2.2097 H   0  0  0  0  0  0  0  0  0  0  0  0
    3.3253   -1.7062   -1.0004 H   0  0  0  0  0  0  0  0  0  0  0  0
    5.6003   -1.2564   -0.8286 H   0  0  0  0  0  0  0  0  0  0  0  0
    5.3580   -0.6730   -2.5487 H   0  0  0  0  0  0  0  0  0  0  0  0
    6.2838    0.8814   -0.4535 H   0  0  0  0  0  0  0  0  0  0  0  0
   -2.3862   -3.8126    0.7729 H   0  0  0  0  0  0  0  0  0  0  0  0
    0.3207   -5.0969    0.8590 H   0  0  0  0  0  0  0  0  0  0  0  0
   -1.2413   -5.6794    1.4555 H   0  0  0  0  0  0  0  0  0  0  0  0
   -0.8143   -5.7305   -0.3421 H   0  0  0  0  0  0  0  0  0  0  0  0
   -5.7034    0.9454   -0.3249 H   0  0  0  0  0  0  0  0  0  0  0  0
   -3.7322    1.5832    1.8739 H   0  0  0  0  0  0  0  0  0  0  0  0
   -4.7834    0.1864    1.5865 H   0  0  0  0  0  0  0  0  0  0  0  0
   -3.5016   -0.5029   -0.3505 H   0  0  0  0  0  0  0  0  0  0  0  0
   -2.8649   -0.6178    2.4565 H   0  0  0  0  0  0  0  0  0  0  0  0
   -2.7850   -1.8839    1.2513 H   0  0  0  0  0  0  0  0  0  0  0  0
   -0.6438   -0.7095    2.6139 H   0  0  0  0  0  0  0  0  0  0  0  0
   -0.0958    0.9521    1.2125 H   0  0  0  0  0  0  0  0  0  0  0  0
   -1.2340   -0.7723   -0.9411 H   0  0  0  0  0  0  0  0  0  0  0  0
    6.4189    1.8791   -2.3655 H   0  0  0  0  0  0  0  0  0  0  0  0
   -1.1551   -4.3131   -1.4810 H   0  0  0  0  0  0  0  0  0  0  0  0
   -4.8528    3.1126    1.2531 H   0  0  0  0  0  0  0  0  0  0  0  0
  2  3  1  0
  3  5  1  0
  4  6  1  0
  2  7  1  0
  1  8  1  0
  5  8  1  0
  1  9  1  0
  3  9  1  0
  3 10  1  1
  4 11  1  1
  6 12  1  0
  9 13  1  0
 13 14  1  0
 14 15  1  0
 16 17  1  0
 12 18  1  0
 18 19  1  0
  4 20  1  0
 19 20  1  0
 20 21  1  0
 21 22  1  0
  5 23  1  0
 22 23  1  0
  4 24  1  0
  7 24  1  0
 23 24  1  0
 15 25  1  0
  9 26  1  1
 15 26  1  0
 16 27  1  0
 18 28  1  0
 16 29  1  0
 22 29  1  0
 31 32  1  0
 32 34  1  0
 33 35  1  0
 31 36  1  0
 30 37  1  0
 34 37  1  0
 30 38  1  0
 32 38  1  0
 32 39  1  1
 33 40  1  1
 35 41  1  0
 38 42  1  0
 42 43  1  0
 43 44  1  0
 45 46  1  0
 41 47  1  0
 47 48  1  0
 33 49  1  0
 48 49  1  0
 49 50  1  0
 50 51  1  0
 34 52  1  0
 51 52  1  0
 33 53  1  0
 36 53  1  0
 52 53  1  0
 44 54  1  0
 38 55  1  1
 44 55  1  0
 45 56  1  0
 47 57  1  0
 45 58  1  0
 51 58  1  0
  1 59  1  0
  1 60  1  0
  2 61  1  0
  2 62  1  0
  5 63  1  6
  6 64  1  0
  6 65  1  0
  7 66  1  0
  7 67  1  0
  8 68  1  0
  8 69  1  0
 10 70  1  0
 10 71  1  0
 10 72  1  0
 11 73  1  0
 11 74  1  0
 11 75  1  0
 12 76  1  0
 12 77  1  0
 13 78  1  0
 13 79  1  0
 14 80  1  0
 14 81  1  0
 15 82  1  0
 16 83  1  0
 17 84  1  0
 17 85  1  0
 17 86  1  0
 18 87  1  0
 19 88  1  0
 19 89  1  0
 20 90  1  6
 21 91  1  0
 21 92  1  0
 22 93  1  1
 23 94  1  1
 24 95  1  6
 25 96  1  0
 27 97  1  0
 28 98  1  0
 30 99  1  0
 30100  1  0
 31101  1  0
 31102  1  0
 34103  1  6
 35104  1  0
 35105  1  0
 36106  1  0
 36107  1  0
 37108  1  0
 37109  1  0
 39110  1  0
 39111  1  0
 39112  1  0
 40113  1  0
 40114  1  0
 40115  1  0
 41116  1  0
 41117  1  0
 42118  1  0
 42119  1  0
 43120  1  0
 43121  1  0
 44122  1  0
 45123  1  0
 46124  1  0
 46125  1  0
 46126  1  0
 47127  1  0
 48128  1  0
 48129  1  0
 49130  1  6
 50131  1  0
 50132  1  0
 51133  1  1
 52134  1  1
 53135  1  6
 54136  1  0
 56137  1  0
 57138  1  0
M  END
>  <PDBID>  (1) 
2AB2

>  <PDB ID>  (1) 
2AB2

>  <Generic Name>  (1) 
Spironolactone

>  <Brand Name>  (1) 
Aldactazide#Aldactazide 25#Aldactazide 50#Aldactone#Aldactone 100 mg#Aldactone 25 mg#Apo-spirozide Tab#Ntp-spironolactone#Spironolactone#Spironolactone and Hydrochlorothiazide#Teva-spironolactone#Teva-spironolactone/hctz#Osyrol#Spiresis#Spiretic#Spiroctan#Uractone#Verospiron#Xenalon

>  <DrugBank ID>  (1) 
DB00421

>  <ATC Codes>  (1) 
C03DA01

>  <Ligand ID>  (1) 
SNL

>  <Target Name>  (1) 
Mineralocorticoid receptor

>  <UniProt ID>  (1) 
P08235

>  <PDB ID.1>  (1) 
2AB2

>  <Seq. Identity>  (1) 
99%

$$$$
