PDB_DB01536_05
     RDKit          3D

 53 56  0  0  0  0  0  0  0  0999 V2000
    2.2977    1.5741    0.5135 C   0  0  0  0  0  0  0  0  0  0  0  0
    1.5393    0.4834   -0.1931 C   0  0  1  0  0  0  0  0  0  0  0  0
   -0.5562    1.8119    0.2506 C   0  0  0  0  0  0  0  0  0  0  0  0
   -1.8829    1.6232    0.9899 C   0  0  0  0  0  0  0  0  0  0  0  0
   -2.6718    0.6165    0.2258 C   0  0  1  0  0  0  0  0  0  0  0  0
   -1.9263   -0.7237    0.1566 C   0  0  1  0  0  0  0  0  0  0  0  0
   -2.9382   -1.6229   -0.4088 C   0  0  0  0  0  0  0  0  0  0  0  0
   -4.2618   -1.0900    0.1178 C   0  0  0  0  0  0  0  0  0  0  0  0
   -3.9117    0.1394    0.9515 C   0  0  0  0  0  0  0  0  0  0  0  0
   -3.0942    1.0778   -1.1386 C   0  0  0  0  0  0  0  0  0  0  0  0
    1.7533    0.6507   -1.6701 C   0  0  0  0  0  0  0  0  0  0  0  0
    3.8008    1.4296    0.3593 C   0  0  0  0  0  0  0  0  0  0  0  0
    4.2018    0.1118    0.9372 C   0  0  0  0  0  0  0  0  0  0  0  0
    3.5602   -0.9726    0.0601 C   0  0  0  0  0  0  0  0  0  0  0  0
    2.0759   -0.8739    0.2864 C   0  0  0  0  0  0  0  0  0  0  0  0
    1.2923   -2.0176   -0.2319 C   0  0  0  0  0  0  0  0  0  0  0  0
    0.0786   -1.6955   -1.0064 C   0  0  0  0  0  0  0  0  0  0  0  0
   -0.6862   -0.5030   -0.6178 C   0  0  2  0  0  0  0  0  0  0  0  0
    0.1210    0.4931    0.2271 C   0  0  1  0  0  0  0  0  0  0  0  0
    5.5539   -0.0683    1.0760 O   0  0  0  0  0  0  0  0  0  0  0  0
   -3.5721   -0.3387    2.2194 O   0  0  0  0  0  0  0  0  0  0  0  0
    2.0370    2.5319   -0.0243 H   0  0  0  0  0  0  0  0  0  0  0  0
    1.9886    1.6675    1.5567 H   0  0  0  0  0  0  0  0  0  0  0  0
   -0.6836    2.2874   -0.7246 H   0  0  0  0  0  0  0  0  0  0  0  0
    0.0775    2.5092    0.8598 H   0  0  0  0  0  0  0  0  0  0  0  0
   -1.6277    1.2009    1.9697 H   0  0  0  0  0  0  0  0  0  0  0  0
   -2.4534    2.5555    1.0439 H   0  0  0  0  0  0  0  0  0  0  0  0
   -1.6635   -0.9855    1.1955 H   0  0  0  0  0  0  0  0  0  0  0  0
   -2.8087   -2.6433    0.0537 H   0  0  0  0  0  0  0  0  0  0  0  0
   -2.9322   -1.7389   -1.5001 H   0  0  0  0  0  0  0  0  0  0  0  0
   -4.8129   -1.8381    0.7026 H   0  0  0  0  0  0  0  0  0  0  0  0
   -4.8345   -0.7236   -0.7592 H   0  0  0  0  0  0  0  0  0  0  0  0
   -4.7196    0.8732    0.9707 H   0  0  0  0  0  0  0  0  0  0  0  0
   -3.0711    0.2643   -1.8943 H   0  0  0  0  0  0  0  0  0  0  0  0
   -4.1743    1.3993   -1.0976 H   0  0  0  0  0  0  0  0  0  0  0  0
   -2.5463    1.9747   -1.4944 H   0  0  0  0  0  0  0  0  0  0  0  0
    2.2966   -0.2060   -2.1288 H   0  0  0  0  0  0  0  0  0  0  0  0
    0.8102    0.8144   -2.2371 H   0  0  0  0  0  0  0  0  0  0  0  0
    2.3834    1.5580   -1.9050 H   0  0  0  0  0  0  0  0  0  0  0  0
    4.2609    2.2936    0.8784 H   0  0  0  0  0  0  0  0  0  0  0  0
    4.0379    1.4146   -0.7207 H   0  0  0  0  0  0  0  0  0  0  0  0
    3.7135    0.0092    1.9431 H   0  0  0  0  0  0  0  0  0  0  0  0
    3.8945   -1.9317    0.4873 H   0  0  0  0  0  0  0  0  0  0  0  0
    3.8601   -0.8529   -0.9895 H   0  0  0  0  0  0  0  0  0  0  0  0
    1.9363   -0.8403    1.4080 H   0  0  0  0  0  0  0  0  0  0  0  0
    1.9827   -2.6365   -0.8784 H   0  0  0  0  0  0  0  0  0  0  0  0
    1.0096   -2.7293    0.5990 H   0  0  0  0  0  0  0  0  0  0  0  0
    0.3656   -1.6475   -2.0984 H   0  0  0  0  0  0  0  0  0  0  0  0
   -0.6125   -2.5885   -0.9600 H   0  0  0  0  0  0  0  0  0  0  0  0
   -0.9635    0.0860   -1.5420 H   0  0  0  0  0  0  0  0  0  0  0  0
    0.0720    0.0725    1.2735 H   0  0  0  0  0  0  0  0  0  0  0  0
    5.8091   -0.9387    0.6845 H   0  0  0  0  0  0  0  0  0  0  0  0
   -3.4053   -1.3168    2.2235 H   0  0  0  0  0  0  0  0  0  0  0  0
  1  2  1  0
  3  4  1  0
  4  5  1  0
  5  6  1  0
  6  7  1  0
  7  8  1  0
  5  9  1  0
  8  9  1  0
  5 10  1  6
  2 11  1  6
  1 12  1  0
 12 13  1  0
 13 14  1  0
  2 15  1  0
 14 15  1  0
 15 16  1  0
 16 17  1  0
  6 18  1  0
 17 18  1  0
  2 19  1  0
  3 19  1  0
 18 19  1  0
 13 20  1  0
  9 21  1  0
  1 22  1  0
  1 23  1  0
  3 24  1  0
  3 25  1  0
  4 26  1  0
  4 27  1  0
  6 28  1  1
  7 29  1  0
  7 30  1  0
  8 31  1  0
  8 32  1  0
  9 33  1  0
 10 34  1  0
 10 35  1  0
 10 36  1  0
 11 37  1  0
 11 38  1  0
 11 39  1  0
 12 40  1  0
 12 41  1  0
 13 42  1  0
 14 43  1  0
 14 44  1  0
 15 45  1  0
 16 46  1  0
 16 47  1  0
 17 48  1  0
 17 49  1  0
 18 50  1  6
 19 51  1  1
 20 52  1  0
 21 53  1  0
M  END
>  <PDBID>  (1) 
1QYX

>  <PDB ID>  (1) 
1QYX

>  <Generic Name>  (1) 
4-Androstenedione

>  <Brand Name>  (1) 
nan

>  <DrugBank ID>  (1) 
DB01536

>  <ATC Codes>  (1) 
nan

>  <Ligand ID>  (1) 
ASD

>  <Target Name>  (1) 
Estradiol 17-beta-dehydrogenase 1

>  <UniProt ID>  (1) 
P14061

>  <PDB ID.1>  (1) 
1QYX

>  <Seq. Identity>  (1) 
89%

$$$$
