PDB_DB01044_06
     RDKit          3D

122128  0  0  0  0  0  0  0  0999 V2000
    5.7265    1.6418    0.7881 C   0  0  0  0  0  0  0  0  0  0  0  0
    4.8138    0.4886    0.3369 C   0  0  1  0  0  0  0  0  0  0  0  0
    3.3847    0.8556    0.6563 C   0  0  0  0  0  0  0  0  0  0  0  0
    2.4057    0.0674   -0.0776 N   0  0  0  0  0  0  0  0  0  0  0  0
    3.1109   -1.0090   -0.6703 C   0  0  0  0  0  0  0  0  0  0  0  0
    4.0240   -0.3865   -1.7535 C   0  0  0  0  0  0  0  0  0  0  0  0
    5.0439    0.3497   -1.0819 N   0  0  0  0  0  0  0  0  0  0  0  0
    1.2514   -0.2202    0.7055 C   0  0  0  0  0  0  0  0  0  0  0  0
    0.6170    1.1100    1.0649 C   0  0  0  0  0  0  0  0  0  0  0  0
    0.2503    1.6718   -0.3095 C   0  0  0  0  0  0  0  0  0  0  0  0
   -1.0998    0.9815   -0.5823 C   0  0  0  0  0  0  0  0  0  0  0  0
   -1.1254   -0.4506   -0.2393 C   0  0  0  0  0  0  0  0  0  0  0  0
    0.2481   -1.0770    0.0257 C   0  0  0  0  0  0  0  0  0  0  0  0
   -0.0126   -2.2169    0.8342 O   0  0  0  0  0  0  0  0  0  0  0  0
    0.4899   -3.3843    0.2780 C   0  0  0  0  0  0  0  0  0  0  0  0
   -2.1179   -0.9312    0.6419 N   0  0  0  0  0  0  0  0  0  0  0  0
   -3.0110    0.0107    1.2391 C   0  0  0  0  0  0  0  0  0  0  0  0
   -3.3640    1.1866    0.3765 C   0  0  0  0  0  0  0  0  0  0  0  0
   -2.0736    1.8883    0.1256 C   0  0  0  0  0  0  0  0  0  0  0  0
   -2.3270    3.0495   -0.5966 O   0  0  0  0  0  0  0  0  0  0  0  0
   -4.3282    2.0624    1.1299 C   0  0  0  0  0  0  0  0  0  0  0  0
   -5.4567    1.2946    1.4130 O   0  0  0  0  0  0  0  0  0  0  0  0
   -4.6357    3.2200    0.4179 O   0  0  0  0  0  0  0  0  0  0  0  0
   -2.9069   -2.0501    0.2342 C   0  0  0  0  0  0  0  0  0  0  0  0
   -3.8248   -2.0198   -0.9423 C   0  0  0  0  0  0  0  0  0  0  0  0
   -2.6535   -2.9546   -0.8732 C   0  0  0  0  0  0  0  0  0  0  0  0
    1.4103    1.9476    1.7709 F   0  0  0  0  0  0  0  0  0  0  0  0
    6.7696    1.2895    0.5413 H   0  0  0  0  0  0  0  0  0  0  0  0
    5.5663    2.5381    0.1574 H   0  0  0  0  0  0  0  0  0  0  0  0
    5.6416    1.8125    1.8641 H   0  0  0  0  0  0  0  0  0  0  0  0
    5.1889   -0.3883    0.9033 H   0  0  0  0  0  0  0  0  0  0  0  0
    3.2825    0.6494    1.7640 H   0  0  0  0  0  0  0  0  0  0  0  0
    3.2627    1.9259    0.4195 H   0  0  0  0  0  0  0  0  0  0  0  0
    3.7728   -1.5341    0.0751 H   0  0  0  0  0  0  0  0  0  0  0  0
    2.5652   -1.7771   -1.1993 H   0  0  0  0  0  0  0  0  0  0  0  0
    3.3740    0.3280   -2.2995 H   0  0  0  0  0  0  0  0  0  0  0  0
    4.4012   -1.1793   -2.4267 H   0  0  0  0  0  0  0  0  0  0  0  0
    5.9483   -0.1563   -1.1987 H   0  0  0  0  0  0  0  0  0  0  0  0
    0.1396    2.7533   -0.2557 H   0  0  0  0  0  0  0  0  0  0  0  0
    0.2069   -4.2274    0.9502 H   0  0  0  0  0  0  0  0  0  0  0  0
    0.1392   -3.4763   -0.7502 H   0  0  0  0  0  0  0  0  0  0  0  0
    1.6084   -3.2985    0.3328 H   0  0  0  0  0  0  0  0  0  0  0  0
   -2.5239    0.4035    2.1550 H   0  0  0  0  0  0  0  0  0  0  0  0
   -3.4095   -2.5281    1.1415 H   0  0  0  0  0  0  0  0  0  0  0  0
   -3.8526   -1.2140   -1.6779 H   0  0  0  0  0  0  0  0  0  0  0  0
   -4.8115   -2.5675   -0.8921 H   0  0  0  0  0  0  0  0  0  0  0  0
   -2.8418   -4.0596   -0.6985 H   0  0  0  0  0  0  0  0  0  0  0  0
   -1.9492   -2.8212   -1.6969 H   0  0  0  0  0  0  0  0  0  0  0  0
    5.7265    1.6418    0.7881 C   0  0  0  0  0  0  0  0  0  0  0  0
    4.8138    0.4886    0.3369 C   0  0  1  0  0  0  0  0  0  0  0  0
    3.3847    0.8556    0.6563 C   0  0  0  0  0  0  0  0  0  0  0  0
    2.4057    0.0674   -0.0776 N   0  0  0  0  0  0  0  0  0  0  0  0
    3.1109   -1.0090   -0.6703 C   0  0  0  0  0  0  0  0  0  0  0  0
    4.0240   -0.3865   -1.7535 C   0  0  0  0  0  0  0  0  0  0  0  0
    5.0439    0.3497   -1.0819 N   0  0  0  0  0  0  0  0  0  0  0  0
    1.2514   -0.2202    0.7055 C   0  0  0  0  0  0  0  0  0  0  0  0
    0.6170    1.1100    1.0649 C   0  0  0  0  0  0  0  0  0  0  0  0
    0.2503    1.6718   -0.3095 C   0  0  0  0  0  0  0  0  0  0  0  0
   -1.0998    0.9815   -0.5823 C   0  0  0  0  0  0  0  0  0  0  0  0
   -1.1254   -0.4506   -0.2393 C   0  0  0  0  0  0  0  0  0  0  0  0
    0.2481   -1.0770    0.0257 C   0  0  0  0  0  0  0  0  0  0  0  0
   -0.0126   -2.2169    0.8342 O   0  0  0  0  0  0  0  0  0  0  0  0
    0.4899   -3.3843    0.2780 C   0  0  0  0  0  0  0  0  0  0  0  0
   -2.1179   -0.9312    0.6419 N   0  0  0  0  0  0  0  0  0  0  0  0
   -3.0110    0.0107    1.2391 C   0  0  0  0  0  0  0  0  0  0  0  0
   -3.3640    1.1866    0.3765 C   0  0  0  0  0  0  0  0  0  0  0  0
   -2.0736    1.8883    0.1256 C   0  0  0  0  0  0  0  0  0  0  0  0
   -2.3270    3.0495   -0.5966 O   0  0  0  0  0  0  0  0  0  0  0  0
   -4.3282    2.0624    1.1299 C   0  0  0  0  0  0  0  0  0  0  0  0
   -5.4567    1.2946    1.4130 O   0  0  0  0  0  0  0  0  0  0  0  0
   -4.6357    3.2200    0.4179 O   0  0  0  0  0  0  0  0  0  0  0  0
   -2.9069   -2.0501    0.2342 C   0  0  0  0  0  0  0  0  0  0  0  0
   -3.8248   -2.0198   -0.9423 C   0  0  0  0  0  0  0  0  0  0  0  0
   -2.6535   -2.9546   -0.8732 C   0  0  0  0  0  0  0  0  0  0  0  0
    1.4103    1.9476    1.7709 F   0  0  0  0  0  0  0  0  0  0  0  0
    6.7696    1.2895    0.5413 H   0  0  0  0  0  0  0  0  0  0  0  0
    5.5663    2.5381    0.1574 H   0  0  0  0  0  0  0  0  0  0  0  0
    5.6416    1.8125    1.8641 H   0  0  0  0  0  0  0  0  0  0  0  0
    5.1889   -0.3883    0.9033 H   0  0  0  0  0  0  0  0  0  0  0  0
    3.2825    0.6494    1.7640 H   0  0  0  0  0  0  0  0  0  0  0  0
    3.2627    1.9259    0.4195 H   0  0  0  0  0  0  0  0  0  0  0  0
    3.7728   -1.5341    0.0751 H   0  0  0  0  0  0  0  0  0  0  0  0
    2.5652   -1.7771   -1.1993 H   0  0  0  0  0  0  0  0  0  0  0  0
    3.3740    0.3280   -2.2995 H   0  0  0  0  0  0  0  0  0  0  0  0
    4.4012   -1.1793   -2.4267 H   0  0  0  0  0  0  0  0  0  0  0  0
    5.9483   -0.1563   -1.1987 H   0  0  0  0  0  0  0  0  0  0  0  0
    0.1396    2.7533   -0.2557 H   0  0  0  0  0  0  0  0  0  0  0  0
    0.2069   -4.2274    0.9502 H   0  0  0  0  0  0  0  0  0  0  0  0
    0.1392   -3.4763   -0.7502 H   0  0  0  0  0  0  0  0  0  0  0  0
    1.6084   -3.2985    0.3328 H   0  0  0  0  0  0  0  0  0  0  0  0
   -2.5239    0.4035    2.1550 H   0  0  0  0  0  0  0  0  0  0  0  0
   -3.4095   -2.5281    1.1415 H   0  0  0  0  0  0  0  0  0  0  0  0
   -3.8526   -1.2140   -1.6779 H   0  0  0  0  0  0  0  0  0  0  0  0
   -4.8115   -2.5675   -0.8921 H   0  0  0  0  0  0  0  0  0  0  0  0
   -2.8418   -4.0596   -0.6985 H   0  0  0  0  0  0  0  0  0  0  0  0
   -1.9492   -2.8212   -1.6969 H   0  0  0  0  0  0  0  0  0  0  0  0
    1.5679   -0.6755    1.6805 H   0  0  0  0  0  0  0  0  0  0  0  0
   -0.2533    0.8737    1.6883 H   0  0  0  0  0  0  0  0  0  0  0  0
    0.9749    1.3756   -1.0741 H   0  0  0  0  0  0  0  0  0  0  0  0
   -1.2678    1.2014   -1.6823 H   0  0  0  0  0  0  0  0  0  0  0  0
   -1.4156   -0.9622   -1.2218 H   0  0  0  0  0  0  0  0  0  0  0  0
    0.7159   -1.4873   -0.8894 H   0  0  0  0  0  0  0  0  0  0  0  0
   -3.9209   -0.5087    1.6050 H   0  0  0  0  0  0  0  0  0  0  0  0
   -3.7783    0.9139   -0.6150 H   0  0  0  0  0  0  0  0  0  0  0  0
   -1.6360    2.2464    1.1009 H   0  0  0  0  0  0  0  0  0  0  0  0
   -2.5574    2.8283   -1.5342 H   0  0  0  0  0  0  0  0  0  0  0  0
   -3.9006    2.3568    2.0959 H   0  0  0  0  0  0  0  0  0  0  0  0
   -6.0190    1.1800    0.5888 H   0  0  0  0  0  0  0  0  0  0  0  0
   -4.8280    3.0594   -0.5359 H   0  0  0  0  0  0  0  0  0  0  0  0
    1.5679   -0.6755    1.6805 H   0  0  0  0  0  0  0  0  0  0  0  0
   -0.2533    0.8737    1.6883 H   0  0  0  0  0  0  0  0  0  0  0  0
    0.9749    1.3756   -1.0741 H   0  0  0  0  0  0  0  0  0  0  0  0
   -1.2678    1.2014   -1.6823 H   0  0  0  0  0  0  0  0  0  0  0  0
   -1.4156   -0.9622   -1.2218 H   0  0  0  0  0  0  0  0  0  0  0  0
    0.7159   -1.4873   -0.8894 H   0  0  0  0  0  0  0  0  0  0  0  0
   -3.9209   -0.5087    1.6050 H   0  0  0  0  0  0  0  0  0  0  0  0
   -3.7783    0.9139   -0.6150 H   0  0  0  0  0  0  0  0  0  0  0  0
   -1.6360    2.2464    1.1009 H   0  0  0  0  0  0  0  0  0  0  0  0
   -2.5574    2.8283   -1.5342 H   0  0  0  0  0  0  0  0  0  0  0  0
   -3.9006    2.3568    2.0959 H   0  0  0  0  0  0  0  0  0  0  0  0
   -6.0190    1.1800    0.5888 H   0  0  0  0  0  0  0  0  0  0  0  0
   -4.8280    3.0594   -0.5359 H   0  0  0  0  0  0  0  0  0  0  0  0
  1  2  1  0
  2  3  1  0
  3  4  1  0
  4  5  1  0
  5  6  1  0
  2  7  1  0
  6  7  1  0
  4  8  1  0
  8  9  1  0
  9 10  1  0
 10 11  1  0
 11 12  1  0
  8 13  1  0
 12 13  1  0
 13 14  1  0
 14 15  1  0
 12 16  1  0
 16 17  1  0
 17 18  1  0
 11 19  1  0
 18 19  1  0
 19 20  1  0
 18 21  1  0
 21 22  1  0
 21 23  1  0
 16 24  1  0
 24 25  1  0
 24 26  1  0
 25 26  1  0
  9 27  1  0
  1 28  1  0
  1 29  1  0
  1 30  1  0
  2 31  1  1
  3 32  1  0
  3 33  1  0
  5 34  1  0
  5 35  1  0
  6 36  1  0
  6 37  1  0
  7 38  1  0
 10 39  1  0
 15 40  1  0
 15 41  1  0
 15 42  1  0
 17 43  1  0
 24 44  1  0
 25 45  1  0
 25 46  1  0
 26 47  1  0
 26 48  1  0
 49 50  1  0
 50 51  1  0
 51 52  1  0
 52 53  1  0
 53 54  1  0
 50 55  1  0
 54 55  1  0
 52 56  1  0
 56 57  1  0
 57 58  1  0
 58 59  1  0
 59 60  1  0
 56 61  1  0
 60 61  1  0
 61 62  1  0
 62 63  1  0
 60 64  1  0
 64 65  1  0
 65 66  1  0
 59 67  1  0
 66 67  1  0
 67 68  1  0
 66 69  1  0
 69 70  1  0
 69 71  1  0
 64 72  1  0
 72 73  1  0
 72 74  1  0
 73 74  1  0
 57 75  1  0
 49 76  1  0
 49 77  1  0
 49 78  1  0
 50 79  1  1
 51 80  1  0
 51 81  1  0
 53 82  1  0
 53 83  1  0
 54 84  1  0
 54 85  1  0
 55 86  1  0
 58 87  1  0
 63 88  1  0
 63 89  1  0
 63 90  1  0
 65 91  1  0
 72 92  1  0
 73 93  1  0
 73 94  1  0
 74 95  1  0
 74 96  1  0
  8 97  1  0
  9 98  1  0
 10 99  1  0
 11100  1  0
 12101  1  0
 13102  1  0
 17103  1  0
 18104  1  0
 19105  1  0
 20106  1  0
 21107  1  0
 22108  1  0
 23109  1  0
 56110  1  0
 57111  1  0
 58112  1  0
 59113  1  0
 60114  1  0
 61115  1  0
 65116  1  0
 66117  1  0
 67118  1  0
 68119  1  0
 69120  1  0
 70121  1  0
 71122  1  0
M  END
>  <PDBID>  (1) 
5BTF

>  <PDB ID>  (1) 
5BTF

>  <Generic Name>  (1) 
Gatifloxacin

>  <Brand Name>  (1) 
Apo-gatifloxacin#Gatifloxacin#Tequin#Tequin IV#Zymar#Zymaxid

>  <DrugBank ID>  (1) 
DB01044

>  <ATC Codes>  (1) 
S01AE06#J01MA16

>  <Ligand ID>  (1) 
GFN

>  <Target Name>  (1) 
DNA gyrase subunit A

>  <UniProt ID>  (1) 
P72524

>  <PDB ID.1>  (1) 
5BTF

>  <Seq. Identity>  (1) 
53%

$$$$
