PDB_DB00238_00
     RDKit          3D

 48 51  0  0  0  0  0  0  0  0999 V2000
    0.4766    1.0081   -0.6151 N   0  0  0  0  0  0  0  0  0  0  0  0
    0.7696    2.4084   -0.7543 C   0  0  0  0  0  0  0  0  0  0  0  0
   -0.0354    3.2485   -1.7154 C   0  0  0  0  0  0  0  0  0  0  0  0
   -0.0605    3.4687   -0.1915 C   0  0  0  0  0  0  0  0  0  0  0  0
   -1.0752    1.1437    1.2356 N   0  0  0  0  0  0  0  0  0  0  0  0
   -2.4134    0.7418    1.6018 C   0  0  0  0  0  0  0  0  0  0  0  0
   -3.3055    0.4731    0.4304 C   0  0  0  0  0  0  0  0  0  0  0  0
   -2.7961   -0.6411   -0.4552 C   0  0  0  0  0  0  0  0  0  0  0  0
   -3.4434   -1.9549   -0.2079 C   0  0  0  0  0  0  0  0  0  0  0  0
   -0.8058    0.7465   -0.1353 C   0  0  2  0  0  0  0  0  0  0  0  0
   -1.2881   -0.6610   -0.2894 C   0  0  2  0  0  0  0  0  0  0  0  0
   -0.6107   -1.4147   -1.2941 N   0  0  0  0  0  0  0  0  0  0  0  0
    0.5789   -1.9798   -0.6984 C   0  0  0  0  0  0  0  0  0  0  0  0
    0.8646   -3.1523   -1.3977 O   0  0  0  0  0  0  0  0  0  0  0  0
    1.7652   -1.0966   -0.7659 C   0  0  1  0  0  0  0  0  0  0  0  0
    1.5843    0.2761   -0.1929 C   0  0  2  0  0  0  0  0  0  0  0  0
    2.8760   -1.7700    0.0525 C   0  0  0  0  0  0  0  0  0  0  0  0
    3.8589   -0.7473    0.5821 C   0  0  0  0  0  0  0  0  0  0  0  0
    3.1849    0.2062    1.5586 C   0  0  0  0  0  0  0  0  0  0  0  0
    1.7677    0.1768    1.2427 N   0  0  0  0  0  0  0  0  0  0  0  0
    1.8684    2.6191   -0.8261 H   0  0  0  0  0  0  0  0  0  0  0  0
   -0.9621    2.8560   -2.1442 H   0  0  0  0  0  0  0  0  0  0  0  0
    0.4651    4.0147   -2.3348 H   0  0  0  0  0  0  0  0  0  0  0  0
   -1.0285    3.3297    0.2974 H   0  0  0  0  0  0  0  0  0  0  0  0
    0.4413    4.4260    0.1358 H   0  0  0  0  0  0  0  0  0  0  0  0
   -0.4323    0.7514    1.9257 H   0  0  0  0  0  0  0  0  0  0  0  0
   -2.4035   -0.1426    2.3003 H   0  0  0  0  0  0  0  0  0  0  0  0
   -2.8715    1.5625    2.1883 H   0  0  0  0  0  0  0  0  0  0  0  0
   -4.2903    0.1694    0.8211 H   0  0  0  0  0  0  0  0  0  0  0  0
   -3.4590    1.4141   -0.1269 H   0  0  0  0  0  0  0  0  0  0  0  0
   -3.0158   -0.3114   -1.5117 H   0  0  0  0  0  0  0  0  0  0  0  0
   -4.1437   -1.9240    0.6607 H   0  0  0  0  0  0  0  0  0  0  0  0
   -2.7059   -2.7845   -0.1224 H   0  0  0  0  0  0  0  0  0  0  0  0
   -4.0940   -2.2446   -1.0842 H   0  0  0  0  0  0  0  0  0  0  0  0
   -1.5160    1.3845   -0.7504 H   0  0  0  0  0  0  0  0  0  0  0  0
   -1.1085   -1.1851    0.6953 H   0  0  0  0  0  0  0  0  0  0  0  0
   -1.2404   -2.1548   -1.6719 H   0  0  0  0  0  0  0  0  0  0  0  0
    0.3136   -2.2499    0.3475 H   0  0  0  0  0  0  0  0  0  0  0  0
    0.3859   -3.9334   -0.9977 H   0  0  0  0  0  0  0  0  0  0  0  0
    2.1545   -1.0220   -1.7868 H   0  0  0  0  0  0  0  0  0  0  0  0
    2.4961    0.8478   -0.5594 H   0  0  0  0  0  0  0  0  0  0  0  0
    2.4416   -2.3781    0.8806 H   0  0  0  0  0  0  0  0  0  0  0  0
    3.4548   -2.4644   -0.5908 H   0  0  0  0  0  0  0  0  0  0  0  0
    4.2702   -0.2177   -0.2935 H   0  0  0  0  0  0  0  0  0  0  0  0
    4.6701   -1.3008    1.0660 H   0  0  0  0  0  0  0  0  0  0  0  0
    3.4002   -0.0108    2.6002 H   0  0  0  0  0  0  0  0  0  0  0  0
    3.6034    1.2239    1.3057 H   0  0  0  0  0  0  0  0  0  0  0  0
    1.4138   -0.7553    1.5856 H   0  0  0  0  0  0  0  0  0  0  0  0
  1  2  1  0
  2  3  1  0
  2  4  1  0
  3  4  1  0
  5  6  1  0
  6  7  1  0
  7  8  1  0
  8  9  1  0
  1 10  1  0
  5 10  1  0
  8 11  1  0
 10 11  1  0
 11 12  1  0
 12 13  1  0
 13 14  1  0
 13 15  1  0
  1 16  1  0
 15 16  1  0
 15 17  1  0
 17 18  1  0
 18 19  1  0
 16 20  1  0
 19 20  1  0
  2 21  1  0
  3 22  1  0
  3 23  1  0
  4 24  1  0
  4 25  1  0
  5 26  1  0
  6 27  1  0
  6 28  1  0
  7 29  1  0
  7 30  1  0
  8 31  1  0
  9 32  1  0
  9 33  1  0
  9 34  1  0
 10 35  1  6
 11 36  1  1
 12 37  1  0
 13 38  1  0
 14 39  1  0
 15 40  1  6
 16 41  1  6
 17 42  1  0
 17 43  1  0
 18 44  1  0
 18 45  1  0
 19 46  1  0
 19 47  1  0
 20 48  1  0
M  END
>  <PDBID>  (1) 
2HND

>  <PDB ID>  (1) 
2HND

>  <Generic Name>  (1) 
Nevirapine

>  <Brand Name>  (1) 
Apo-nevirapine#Apo-nevirapine XR#Apo-zidovudine-lamivudine-nevirapine#Auro-nevirapine#Mylan-nevirapine#Nevirapine#Nevirapine Extended Release#PMS-nevirapine#Teva-nevirapine#Viramune#Viramune XR

>  <DrugBank ID>  (1) 
DB00238

>  <ATC Codes>  (1) 
J05AR05#J05AG01#J05AR07

>  <Ligand ID>  (1) 
NVP

>  <Target Name>  (1) 
Reverse transcriptase/RNaseH

>  <UniProt ID>  (1) 
Q72547

>  <PDB ID.1>  (1) 
2HND

>  <Seq. Identity>  (1) 
96%

$$$$
