PDB_DB04787_06
     RDKit          3D

104108  0  0  0  0  0  0  0  0999 V2000
    2.4596   -1.4367   -2.0582 C   0  0  0  0  0  0  0  0  0  0  0  0
    3.0772   -1.0729   -0.7017 C   0  0  0  0  0  0  0  0  0  0  0  0
    2.0097   -0.7754    0.3152 C   0  0  2  0  0  0  0  0  0  0  0  0
    0.6574   -0.5184   -0.3635 C   0  0  0  0  0  0  0  0  0  0  0  0
   -0.3254   -0.2419    0.7129 C   0  0  1  0  0  0  0  0  0  0  0  0
    0.0590    1.0405    1.4151 C   0  0  0  0  0  0  0  0  0  0  0  0
    1.3399    0.7083    2.1847 C   0  0  0  0  0  0  0  0  0  0  0  0
    2.4289    0.3613    1.1910 C   0  0  0  0  0  0  0  0  0  0  0  0
    2.8783    1.5058    0.4612 N   0  0  0  0  0  0  0  0  0  0  0  0
    3.5256    1.1999   -0.7749 C   0  0  0  0  0  0  0  0  0  0  0  0
    4.9936    2.3010   -0.8808 S   0  0  0  0  0  0  0  0  0  0  0  0
    4.0167   -0.0921   -0.8436 O   0  0  0  0  0  0  0  0  0  0  0  0
   -1.7588   -0.2727    0.3314 C   0  0  2  0  0  0  0  0  0  0  0  0
   -2.1122   -1.6742   -0.1954 C   0  0  0  0  0  0  0  0  0  0  0  0
   -3.5285   -1.4180   -0.6671 C   0  0  0  0  0  0  0  0  0  0  0  0
   -3.4536    0.0186   -1.1412 C   0  0  0  0  0  0  0  0  0  0  0  0
   -2.1657    0.5265   -0.7643 N   0  0  0  0  0  0  0  0  0  0  0  0
   -2.0919    1.9385   -0.6069 C   0  0  0  0  0  0  0  0  0  0  0  0
   -4.6168    0.7487   -0.5425 C   0  0  0  0  0  0  0  0  0  0  0  0
   -4.5784    0.7153    0.9221 N   0  0  0  0  0  0  0  0  0  0  0  0
    3.8011   -2.3295   -0.2334 C   0  0  0  0  0  0  0  0  0  0  0  0
    2.6365   -1.2457   -2.0539 C   0  0  0  0  0  0  0  0  0  0  0  0
    3.0936   -1.0919   -0.6328 C   0  0  0  0  0  0  0  0  0  0  0  0
    1.9873   -0.8191    0.3353 C   0  0  0  0  0  0  0  0  0  0  0  0
    0.6661   -0.4947   -0.3776 C   0  0  0  0  0  0  0  0  0  0  0  0
   -0.3431   -0.2519    0.6908 C   0  0  1  0  0  0  0  0  0  0  0  0
   -0.0035    0.9986    1.4747 C   0  0  0  0  0  0  0  0  0  0  0  0
    1.3210    0.7420    2.1973 C   0  0  0  0  0  0  0  0  0  0  0  0
    2.3649    0.3826    1.1594 C   0  0  0  0  0  0  0  0  0  0  0  0
    2.7220    1.5209    0.3738 N   0  0  0  0  0  0  0  0  0  0  0  0
    3.6744    1.1506   -0.6446 C   0  0  0  0  0  0  0  0  0  0  0  0
    5.1322    2.2270   -0.4220 S   0  0  0  0  0  0  0  0  0  0  0  0
    4.1077   -0.1498   -0.5473 O   0  0  0  0  0  0  0  0  0  0  0  0
   -1.7676   -0.2985    0.2934 C   0  0  2  0  0  0  0  0  0  0  0  0
   -2.1178   -1.6922   -0.2606 C   0  0  0  0  0  0  0  0  0  0  0  0
   -3.5818   -1.4203   -0.6334 C   0  0  0  0  0  0  0  0  0  0  0  0
   -3.4960    0.0135   -1.1282 C   0  0  0  0  0  0  0  0  0  0  0  0
   -2.1887    0.5072   -0.7917 N   0  0  0  0  0  0  0  0  0  0  0  0
   -2.1030    1.9192   -0.6374 C   0  0  0  0  0  0  0  0  0  0  0  0
   -4.6289    0.7609   -0.4700 C   0  0  0  0  0  0  0  0  0  0  0  0
   -4.5544    0.7511    0.9702 N   0  0  0  0  0  0  0  0  0  0  0  0
    3.7211   -2.4306   -0.2250 C   0  0  0  0  0  0  0  0  0  0  0  0
    1.9329   -2.3961   -1.9794 H   0  0  0  0  0  0  0  0  0  0  0  0
    3.3279   -1.5786   -2.7407 H   0  0  0  0  0  0  0  0  0  0  0  0
    1.8536   -0.6162   -2.4618 H   0  0  0  0  0  0  0  0  0  0  0  0
    1.8230   -1.6562    0.9874 H   0  0  0  0  0  0  0  0  0  0  0  0
    0.4531   -1.3729   -1.0035 H   0  0  0  0  0  0  0  0  0  0  0  0
    0.8255    0.4327   -0.9489 H   0  0  0  0  0  0  0  0  0  0  0  0
   -0.1869   -1.0507    1.4949 H   0  0  0  0  0  0  0  0  0  0  0  0
    0.2236    1.8777    0.7160 H   0  0  0  0  0  0  0  0  0  0  0  0
   -0.7182    1.3150    2.1389 H   0  0  0  0  0  0  0  0  0  0  0  0
    1.1161   -0.2253    2.7501 H   0  0  0  0  0  0  0  0  0  0  0  0
    1.6432    1.5050    2.8618 H   0  0  0  0  0  0  0  0  0  0  0  0
    3.2899   -0.0125    1.8051 H   0  0  0  0  0  0  0  0  0  0  0  0
    2.1896    2.2486    0.3199 H   0  0  0  0  0  0  0  0  0  0  0  0
    2.8942    1.4782   -1.6472 H   0  0  0  0  0  0  0  0  0  0  0  0
    4.6971    3.5611   -0.3430 H   0  0  0  0  0  0  0  0  0  0  0  0
   -2.3754   -0.1299    1.2244 H   0  0  0  0  0  0  0  0  0  0  0  0
   -2.0655   -2.4250    0.6075 H   0  0  0  0  0  0  0  0  0  0  0  0
   -1.5109   -1.9040   -1.0750 H   0  0  0  0  0  0  0  0  0  0  0  0
   -3.8348   -2.1121   -1.4673 H   0  0  0  0  0  0  0  0  0  0  0  0
   -4.1753   -1.4976    0.2305 H   0  0  0  0  0  0  0  0  0  0  0  0
   -3.6048   -0.0044   -2.2379 H   0  0  0  0  0  0  0  0  0  0  0  0
   -1.1852    2.3168   -1.1641 H   0  0  0  0  0  0  0  0  0  0  0  0
   -2.9351    2.4927   -1.1164 H   0  0  0  0  0  0  0  0  0  0  0  0
   -2.1273    2.2460    0.4368 H   0  0  0  0  0  0  0  0  0  0  0  0
   -4.8150    1.7405   -0.9457 H   0  0  0  0  0  0  0  0  0  0  0  0
   -5.5289    0.1325   -0.8033 H   0  0  0  0  0  0  0  0  0  0  0  0
   -5.4906    0.4885    1.3390 H   0  0  0  0  0  0  0  0  0  0  0  0
   -4.3510    1.7094    1.2239 H   0  0  0  0  0  0  0  0  0  0  0  0
    4.4233   -2.0112    0.6350 H   0  0  0  0  0  0  0  0  0  0  0  0
    3.0954   -3.0800    0.1440 H   0  0  0  0  0  0  0  0  0  0  0  0
    4.5008   -2.7048   -1.0023 H   0  0  0  0  0  0  0  0  0  0  0  0
    2.1857   -2.2518   -2.2087 H   0  0  0  0  0  0  0  0  0  0  0  0
    3.5700   -1.2514   -2.6872 H   0  0  0  0  0  0  0  0  0  0  0  0
    2.0215   -0.4282   -2.4294 H   0  0  0  0  0  0  0  0  0  0  0  0
    1.7782   -1.6467    1.0281 H   0  0  0  0  0  0  0  0  0  0  0  0
    0.3431   -1.3147   -1.0167 H   0  0  0  0  0  0  0  0  0  0  0  0
    0.8998    0.4414   -0.9637 H   0  0  0  0  0  0  0  0  0  0  0  0
   -0.1983   -1.0921    1.4422 H   0  0  0  0  0  0  0  0  0  0  0  0
    0.0801    1.9033    0.8370 H   0  0  0  0  0  0  0  0  0  0  0  0
   -0.7765    1.1403    2.2418 H   0  0  0  0  0  0  0  0  0  0  0  0
    1.1967   -0.1233    2.8582 H   0  0  0  0  0  0  0  0  0  0  0  0
    1.6494    1.6518    2.6992 H   0  0  0  0  0  0  0  0  0  0  0  0
    3.2882    0.0841    1.7370 H   0  0  0  0  0  0  0  0  0  0  0  0
    1.9385    2.0812    0.0154 H   0  0  0  0  0  0  0  0  0  0  0  0
    3.2080    1.3863   -1.6267 H   0  0  0  0  0  0  0  0  0  0  0  0
    4.8769    3.5294   -0.8660 H   0  0  0  0  0  0  0  0  0  0  0  0
   -2.3869   -0.1983    1.2085 H   0  0  0  0  0  0  0  0  0  0  0  0
   -2.0242   -2.4686    0.4988 H   0  0  0  0  0  0  0  0  0  0  0  0
   -1.5986   -1.8801   -1.2047 H   0  0  0  0  0  0  0  0  0  0  0  0
   -3.9474   -2.1146   -1.3973 H   0  0  0  0  0  0  0  0  0  0  0  0
   -4.1370   -1.4689    0.3255 H   0  0  0  0  0  0  0  0  0  0  0  0
   -3.6788   -0.0027   -2.2080 H   0  0  0  0  0  0  0  0  0  0  0  0
   -1.1769    2.3187   -1.1493 H   0  0  0  0  0  0  0  0  0  0  0  0
   -2.9272    2.4077   -1.2398 H   0  0  0  0  0  0  0  0  0  0  0  0
   -2.2353    2.2982    0.3807 H   0  0  0  0  0  0  0  0  0  0  0  0
   -4.8221    1.7594   -0.9012 H   0  0  0  0  0  0  0  0  0  0  0  0
   -5.5564    0.1650   -0.7262 H   0  0  0  0  0  0  0  0  0  0  0  0
   -5.4196    0.4194    1.4233 H   0  0  0  0  0  0  0  0  0  0  0  0
   -4.4014    1.7626    1.2639 H   0  0  0  0  0  0  0  0  0  0  0  0
    4.3549   -2.8406   -1.0211 H   0  0  0  0  0  0  0  0  0  0  0  0
    2.9090   -3.1117    0.0900 H   0  0  0  0  0  0  0  0  0  0  0  0
    4.3445   -2.2338    0.6652 H   0  0  0  0  0  0  0  0  0  0  0  0
  2  1  1  0
  2  3  1  0
  3  4  1  0
  4  5  1  0
  5  6  1  0
  6  7  1  0
  3  8  1  0
  7  8  1  0
  8  9  1  0
  9 10  1  0
 10 11  1  0
  2 12  1  0
 10 12  1  0
  5 13  1  0
 13 14  1  0
 14 15  1  0
 15 16  1  0
 13 17  1  0
 16 17  1  0
 17 18  1  0
 16 19  1  0
 19 20  1  0
  2 21  1  0
 23 22  1  0
 23 24  1  0
 24 25  1  0
 25 26  1  0
 26 27  1  0
 27 28  1  0
 24 29  1  0
 28 29  1  0
 29 30  1  0
 30 31  1  0
 31 32  1  0
 23 33  1  0
 31 33  1  0
 26 34  1  0
 34 35  1  0
 35 36  1  0
 36 37  1  0
 34 38  1  0
 37 38  1  0
 38 39  1  0
 37 40  1  0
 40 41  1  0
 23 42  1  0
  1 43  1  0
  1 44  1  0
  1 45  1  0
  3 46  1  1
  4 47  1  0
  4 48  1  0
  5 49  1  1
  6 50  1  0
  6 51  1  0
  7 52  1  0
  7 53  1  0
  8 54  1  0
  9 55  1  0
 10 56  1  0
 11 57  1  0
 13 58  1  1
 14 59  1  0
 14 60  1  0
 15 61  1  0
 15 62  1  0
 16 63  1  0
 18 64  1  0
 18 65  1  0
 18 66  1  0
 19 67  1  0
 19 68  1  0
 20 69  1  0
 20 70  1  0
 21 71  1  0
 21 72  1  0
 21 73  1  0
 22 74  1  0
 22 75  1  0
 22 76  1  0
 24 77  1  0
 25 78  1  0
 25 79  1  0
 26 80  1  1
 27 81  1  0
 27 82  1  0
 28 83  1  0
 28 84  1  0
 29 85  1  0
 30 86  1  0
 31 87  1  0
 32 88  1  0
 34 89  1  1
 35 90  1  0
 35 91  1  0
 36 92  1  0
 36 93  1  0
 37 94  1  0
 39 95  1  0
 39 96  1  0
 39 97  1  0
 40 98  1  0
 40 99  1  0
 41100  1  0
 41101  1  0
 42102  1  0
 42103  1  0
 42104  1  0
M  END
>  <PDBID>  (1) 
1ZUC

>  <PDB ID>  (1) 
1ZUC

>  <Generic Name>  (1) 
Tanaproget

>  <Brand Name>  (1) 
nan

>  <DrugBank ID>  (1) 
DB04787

>  <ATC Codes>  (1) 
nan

>  <Ligand ID>  (1) 
T98

>  <Target Name>  (1) 
Progesterone receptor

>  <UniProt ID>  (1) 
P06401

>  <PDB ID.1>  (1) 
1ZUC

>  <Seq. Identity>  (1) 
97%

$$$$
