PDB_DB00278_04
     RDKit          3D

170174  0  0  0  0  0  0  0  0999 V2000
    0.8965    0.3512    1.5125 S   0  0  0  0  0  0  0  0  0  0  0  0
    0.1054    1.4835    2.4800 O   0  0  0  0  0  0  0  0  0  0  0  0
    1.5430   -0.7794    2.3956 O   0  0  0  0  0  0  0  0  0  0  0  0
    3.9922    0.3278   -2.3801 C   0  0  0  0  0  0  0  0  0  0  0  0
    4.4596   -1.0518   -2.0534 C   0  0  2  0  0  0  0  0  0  0  0  0
    4.7367   -1.2178   -0.5805 C   0  0  0  0  0  0  0  0  0  0  0  0
    4.3008    0.0935    0.0832 C   0  0  0  0  0  0  0  0  0  0  0  0
    4.5095   -0.1127    1.5657 C   0  0  0  0  0  0  0  0  0  0  0  0
    3.8673    0.9590    2.3935 C   0  0  0  0  0  0  0  0  0  0  0  0
    3.0245    1.9235    1.6403 C   0  0  0  0  0  0  0  0  0  0  0  0
    2.1356    1.2426    0.6422 C   0  0  0  0  0  0  0  0  0  0  0  0
    2.8732    0.3209   -0.2837 C   0  0  0  0  0  0  0  0  0  0  0  0
    5.7658   -1.2825   -2.7796 C   0  0  0  0  0  0  0  0  0  0  0  0
    2.8061    0.7442   -1.6686 N   0  0  0  0  0  0  0  0  0  0  0  0
   -0.1888   -0.2916    0.4988 N   0  0  0  0  0  0  0  0  0  0  0  0
   -1.5178    0.2533    0.5700 C   0  0  2  0  0  0  0  0  0  0  0  0
   -2.5425   -0.5342   -0.1698 C   0  0  0  0  0  0  0  0  0  0  0  0
   -2.2471   -0.6641   -1.5302 O   0  0  0  0  0  0  0  0  0  0  0  0
   -1.4107    1.6746    0.0116 C   0  0  0  0  0  0  0  0  0  0  0  0
   -2.6889    2.4238   -0.0035 C   0  0  0  0  0  0  0  0  0  0  0  0
   -2.4868    3.8064   -0.5588 C   0  0  0  0  0  0  0  0  0  0  0  0
   -1.5844    4.5716    0.2252 N   0  0  0  0  0  0  0  0  0  0  0  0
   -1.4106    5.9281   -0.2903 C   0  0  0  0  0  0  0  0  0  0  0  0
   -2.6970    6.5616   -0.2759 N   0  0  0  0  0  0  0  0  0  0  0  0
   -0.8952    5.8714   -1.6327 N   0  0  0  0  0  0  0  0  0  0  0  0
   -2.8368   -1.7938    0.4184 N   0  0  0  0  0  0  0  0  0  0  0  0
   -1.8701   -2.7941    0.4992 C   0  0  2  0  0  0  0  0  0  0  0  0
   -2.1544   -3.9992   -0.3879 C   0  0  0  0  0  0  0  0  0  0  0  0
   -3.5279   -4.5427   -0.2829 C   0  0  1  0  0  0  0  0  0  0  0  0
   -4.5479   -3.5884    0.2151 C   0  0  0  0  0  0  0  0  0  0  0  0
   -4.1870   -2.1563    0.1486 C   0  0  0  0  0  0  0  0  0  0  0  0
   -1.5674   -3.2754    1.9286 C   0  0  0  0  0  0  0  0  0  0  0  0
   -1.1199   -2.2736    2.7481 O   0  0  0  0  0  0  0  0  0  0  0  0
   -2.6136   -3.9251    2.5198 O   0  0  0  0  0  0  0  0  0  0  0  0
   -3.8960   -5.0521   -1.6898 C   0  0  0  0  0  0  0  0  0  0  0  0
    0.8965    0.3512    1.5125 S   0  0  0  0  0  0  0  0  0  0  0  0
    0.1054    1.4835    2.4800 O   0  0  0  0  0  0  0  0  0  0  0  0
    1.5430   -0.7794    2.3956 O   0  0  0  0  0  0  0  0  0  0  0  0
    3.9922    0.3278   -2.3801 C   0  0  0  0  0  0  0  0  0  0  0  0
    4.4596   -1.0518   -2.0534 C   0  0  2  0  0  0  0  0  0  0  0  0
    4.7367   -1.2178   -0.5805 C   0  0  0  0  0  0  0  0  0  0  0  0
    4.3008    0.0935    0.0832 C   0  0  0  0  0  0  0  0  0  0  0  0
    4.5095   -0.1127    1.5657 C   0  0  0  0  0  0  0  0  0  0  0  0
    3.8673    0.9590    2.3935 C   0  0  0  0  0  0  0  0  0  0  0  0
    3.0245    1.9235    1.6403 C   0  0  0  0  0  0  0  0  0  0  0  0
    2.1356    1.2426    0.6422 C   0  0  0  0  0  0  0  0  0  0  0  0
    2.8732    0.3209   -0.2837 C   0  0  0  0  0  0  0  0  0  0  0  0
    5.7658   -1.2825   -2.7796 C   0  0  0  0  0  0  0  0  0  0  0  0
    2.8061    0.7442   -1.6686 N   0  0  0  0  0  0  0  0  0  0  0  0
   -0.1888   -0.2916    0.4988 N   0  0  0  0  0  0  0  0  0  0  0  0
   -1.5178    0.2533    0.5700 C   0  0  2  0  0  0  0  0  0  0  0  0
   -2.5425   -0.5342   -0.1698 C   0  0  0  0  0  0  0  0  0  0  0  0
   -2.2471   -0.6641   -1.5302 O   0  0  0  0  0  0  0  0  0  0  0  0
   -1.4107    1.6746    0.0116 C   0  0  0  0  0  0  0  0  0  0  0  0
   -2.6889    2.4238   -0.0035 C   0  0  0  0  0  0  0  0  0  0  0  0
   -2.4868    3.8064   -0.5588 C   0  0  0  0  0  0  0  0  0  0  0  0
   -1.5844    4.5716    0.2252 N   0  0  0  0  0  0  0  0  0  0  0  0
   -1.4106    5.9281   -0.2903 C   0  0  0  0  0  0  0  0  0  0  0  0
   -2.6970    6.5616   -0.2759 N   0  0  0  0  0  0  0  0  0  0  0  0
   -0.8952    5.8714   -1.6327 N   0  0  0  0  0  0  0  0  0  0  0  0
   -2.8368   -1.7938    0.4184 N   0  0  0  0  0  0  0  0  0  0  0  0
   -1.8701   -2.7941    0.4992 C   0  0  2  0  0  0  0  0  0  0  0  0
   -2.1544   -3.9992   -0.3879 C   0  0  0  0  0  0  0  0  0  0  0  0
   -3.5279   -4.5427   -0.2829 C   0  0  1  0  0  0  0  0  0  0  0  0
   -4.5479   -3.5884    0.2151 C   0  0  0  0  0  0  0  0  0  0  0  0
   -4.1870   -2.1563    0.1486 C   0  0  0  0  0  0  0  0  0  0  0  0
   -1.5674   -3.2754    1.9286 C   0  0  0  0  0  0  0  0  0  0  0  0
   -1.1199   -2.2736    2.7481 O   0  0  0  0  0  0  0  0  0  0  0  0
   -2.6136   -3.9251    2.5198 O   0  0  0  0  0  0  0  0  0  0  0  0
   -3.8960   -5.0521   -1.6898 C   0  0  0  0  0  0  0  0  0  0  0  0
   -0.3738    0.9869    3.1908 H   0  0  0  0  0  0  0  0  0  0  0  0
    1.2738   -0.8872    3.3429 H   0  0  0  0  0  0  0  0  0  0  0  0
    3.7014    0.3123   -3.4676 H   0  0  0  0  0  0  0  0  0  0  0  0
    4.8086    1.0962   -2.3084 H   0  0  0  0  0  0  0  0  0  0  0  0
    3.6677   -1.7601   -2.3946 H   0  0  0  0  0  0  0  0  0  0  0  0
    4.0455   -1.9925   -0.1689 H   0  0  0  0  0  0  0  0  0  0  0  0
    5.8031   -1.4348   -0.3650 H   0  0  0  0  0  0  0  0  0  0  0  0
    4.9307    0.9267   -0.2829 H   0  0  0  0  0  0  0  0  0  0  0  0
    5.6068   -0.0676    1.7437 H   0  0  0  0  0  0  0  0  0  0  0  0
    4.2095   -1.1495    1.8566 H   0  0  0  0  0  0  0  0  0  0  0  0
    3.3007    0.4809    3.2323 H   0  0  0  0  0  0  0  0  0  0  0  0
    4.6448    1.5799    2.9371 H   0  0  0  0  0  0  0  0  0  0  0  0
    2.3370    2.4304    2.3769 H   0  0  0  0  0  0  0  0  0  0  0  0
    3.6701    2.6977    1.1782 H   0  0  0  0  0  0  0  0  0  0  0  0
    1.6774    2.0405   -0.0152 H   0  0  0  0  0  0  0  0  0  0  0  0
    2.3662   -0.6817   -0.2624 H   0  0  0  0  0  0  0  0  0  0  0  0
    5.6773   -2.2599   -3.3033 H   0  0  0  0  0  0  0  0  0  0  0  0
    6.0204   -0.4455   -3.4446 H   0  0  0  0  0  0  0  0  0  0  0  0
    6.6351   -1.3839   -2.0713 H   0  0  0  0  0  0  0  0  0  0  0  0
    2.8283    1.8086   -1.6424 H   0  0  0  0  0  0  0  0  0  0  0  0
    0.1234   -0.4078   -0.5065 H   0  0  0  0  0  0  0  0  0  0  0  0
   -1.8372    0.3561    1.6253 H   0  0  0  0  0  0  0  0  0  0  0  0
   -3.4956    0.0875   -0.1320 H   0  0  0  0  0  0  0  0  0  0  0  0
   -1.4863   -1.2810   -1.6163 H   0  0  0  0  0  0  0  0  0  0  0  0
   -1.0901    1.5706   -1.0712 H   0  0  0  0  0  0  0  0  0  0  0  0
   -0.5937    2.2109    0.4906 H   0  0  0  0  0  0  0  0  0  0  0  0
   -3.4524    1.9530   -0.6665 H   0  0  0  0  0  0  0  0  0  0  0  0
   -3.0779    2.5474    1.0345 H   0  0  0  0  0  0  0  0  0  0  0  0
   -3.4568    4.3209   -0.7459 H   0  0  0  0  0  0  0  0  0  0  0  0
   -2.0275    3.7145   -1.5896 H   0  0  0  0  0  0  0  0  0  0  0  0
   -0.6804    4.1372    0.4456 H   0  0  0  0  0  0  0  0  0  0  0  0
   -0.6702    6.4130    0.3588 H   0  0  0  0  0  0  0  0  0  0  0  0
   -2.6958    7.3840    0.3850 H   0  0  0  0  0  0  0  0  0  0  0  0
   -2.9309    6.8728   -1.2411 H   0  0  0  0  0  0  0  0  0  0  0  0
   -0.2694    6.6503   -1.8899 H   0  0  0  0  0  0  0  0  0  0  0  0
   -1.6222    5.6558   -2.3530 H   0  0  0  0  0  0  0  0  0  0  0  0
   -0.8818   -2.4277    0.1308 H   0  0  0  0  0  0  0  0  0  0  0  0
   -1.4247   -4.7767   -0.1348 H   0  0  0  0  0  0  0  0  0  0  0  0
   -1.9285   -3.6685   -1.4245 H   0  0  0  0  0  0  0  0  0  0  0  0
   -3.5968   -5.4601    0.3505 H   0  0  0  0  0  0  0  0  0  0  0  0
   -4.9715   -3.8621    1.2136 H   0  0  0  0  0  0  0  0  0  0  0  0
   -5.4531   -3.7132   -0.4673 H   0  0  0  0  0  0  0  0  0  0  0  0
   -4.5192   -1.7082   -0.8170 H   0  0  0  0  0  0  0  0  0  0  0  0
   -4.8120   -1.6258    0.9281 H   0  0  0  0  0  0  0  0  0  0  0  0
   -0.7269   -4.0299    1.8633 H   0  0  0  0  0  0  0  0  0  0  0  0
   -1.8520   -1.9050    3.2703 H   0  0  0  0  0  0  0  0  0  0  0  0
   -2.5410   -4.9089    2.5517 H   0  0  0  0  0  0  0  0  0  0  0  0
   -3.8612   -4.2239   -2.4157 H   0  0  0  0  0  0  0  0  0  0  0  0
   -4.8764   -5.5557   -1.6722 H   0  0  0  0  0  0  0  0  0  0  0  0
   -3.1477   -5.8191   -1.9652 H   0  0  0  0  0  0  0  0  0  0  0  0
   -0.3738    0.9869    3.1908 H   0  0  0  0  0  0  0  0  0  0  0  0
    1.2738   -0.8872    3.3429 H   0  0  0  0  0  0  0  0  0  0  0  0
    3.7014    0.3123   -3.4676 H   0  0  0  0  0  0  0  0  0  0  0  0
    4.8086    1.0962   -2.3084 H   0  0  0  0  0  0  0  0  0  0  0  0
    3.6677   -1.7601   -2.3946 H   0  0  0  0  0  0  0  0  0  0  0  0
    4.0455   -1.9925   -0.1689 H   0  0  0  0  0  0  0  0  0  0  0  0
    5.8031   -1.4348   -0.3650 H   0  0  0  0  0  0  0  0  0  0  0  0
    4.9307    0.9267   -0.2829 H   0  0  0  0  0  0  0  0  0  0  0  0
    5.6068   -0.0676    1.7437 H   0  0  0  0  0  0  0  0  0  0  0  0
    4.2095   -1.1495    1.8566 H   0  0  0  0  0  0  0  0  0  0  0  0
    3.3007    0.4809    3.2323 H   0  0  0  0  0  0  0  0  0  0  0  0
    4.6448    1.5799    2.9371 H   0  0  0  0  0  0  0  0  0  0  0  0
    2.3370    2.4304    2.3769 H   0  0  0  0  0  0  0  0  0  0  0  0
    3.6701    2.6977    1.1782 H   0  0  0  0  0  0  0  0  0  0  0  0
    1.6774    2.0405   -0.0152 H   0  0  0  0  0  0  0  0  0  0  0  0
    2.3662   -0.6817   -0.2624 H   0  0  0  0  0  0  0  0  0  0  0  0
    5.6773   -2.2599   -3.3033 H   0  0  0  0  0  0  0  0  0  0  0  0
    6.0204   -0.4455   -3.4446 H   0  0  0  0  0  0  0  0  0  0  0  0
    6.6351   -1.3839   -2.0713 H   0  0  0  0  0  0  0  0  0  0  0  0
    2.8283    1.8086   -1.6424 H   0  0  0  0  0  0  0  0  0  0  0  0
    0.1234   -0.4078   -0.5065 H   0  0  0  0  0  0  0  0  0  0  0  0
   -1.8372    0.3561    1.6253 H   0  0  0  0  0  0  0  0  0  0  0  0
   -3.4956    0.0875   -0.1320 H   0  0  0  0  0  0  0  0  0  0  0  0
   -1.4863   -1.2810   -1.6163 H   0  0  0  0  0  0  0  0  0  0  0  0
   -1.0901    1.5706   -1.0712 H   0  0  0  0  0  0  0  0  0  0  0  0
   -0.5937    2.2109    0.4906 H   0  0  0  0  0  0  0  0  0  0  0  0
   -3.4524    1.9530   -0.6665 H   0  0  0  0  0  0  0  0  0  0  0  0
   -3.0779    2.5474    1.0345 H   0  0  0  0  0  0  0  0  0  0  0  0
   -3.4568    4.3209   -0.7459 H   0  0  0  0  0  0  0  0  0  0  0  0
   -2.0275    3.7145   -1.5896 H   0  0  0  0  0  0  0  0  0  0  0  0
   -0.6804    4.1372    0.4456 H   0  0  0  0  0  0  0  0  0  0  0  0
   -0.6702    6.4130    0.3588 H   0  0  0  0  0  0  0  0  0  0  0  0
   -2.6958    7.3840    0.3850 H   0  0  0  0  0  0  0  0  0  0  0  0
   -2.9309    6.8728   -1.2411 H   0  0  0  0  0  0  0  0  0  0  0  0
   -0.2694    6.6503   -1.8899 H   0  0  0  0  0  0  0  0  0  0  0  0
   -1.6222    5.6558   -2.3530 H   0  0  0  0  0  0  0  0  0  0  0  0
   -0.8818   -2.4277    0.1308 H   0  0  0  0  0  0  0  0  0  0  0  0
   -1.4247   -4.7767   -0.1348 H   0  0  0  0  0  0  0  0  0  0  0  0
   -1.9285   -3.6685   -1.4245 H   0  0  0  0  0  0  0  0  0  0  0  0
   -3.5968   -5.4601    0.3505 H   0  0  0  0  0  0  0  0  0  0  0  0
   -4.9715   -3.8621    1.2136 H   0  0  0  0  0  0  0  0  0  0  0  0
   -5.4531   -3.7132   -0.4673 H   0  0  0  0  0  0  0  0  0  0  0  0
   -4.5192   -1.7082   -0.8170 H   0  0  0  0  0  0  0  0  0  0  0  0
   -4.8120   -1.6258    0.9281 H   0  0  0  0  0  0  0  0  0  0  0  0
   -0.7269   -4.0299    1.8633 H   0  0  0  0  0  0  0  0  0  0  0  0
   -1.8520   -1.9050    3.2703 H   0  0  0  0  0  0  0  0  0  0  0  0
   -2.5410   -4.9089    2.5517 H   0  0  0  0  0  0  0  0  0  0  0  0
   -3.8612   -4.2239   -2.4157 H   0  0  0  0  0  0  0  0  0  0  0  0
   -4.8764   -5.5557   -1.6722 H   0  0  0  0  0  0  0  0  0  0  0  0
   -3.1477   -5.8191   -1.9652 H   0  0  0  0  0  0  0  0  0  0  0  0
  1  2  1  0
  1  3  1  0
  4  5  1  0
  5  6  1  0
  6  7  1  0
  7  8  1  0
  8  9  1  0
  9 10  1  0
  1 11  1  0
 10 11  1  0
  7 12  1  0
 11 12  1  0
  5 13  1  0
  4 14  1  0
 12 14  1  0
  1 15  1  0
 15 16  1  0
 16 17  1  0
 17 18  1  0
 16 19  1  0
 19 20  1  0
 20 21  1  0
 21 22  1  0
 22 23  1  0
 23 24  1  0
 23 25  1  0
 17 26  1  0
 26 27  1  0
 27 28  1  0
 28 29  1  0
 29 30  1  0
 26 31  1  0
 30 31  1  0
 27 32  1  0
 32 33  1  0
 32 34  1  0
 29 35  1  0
 36 37  1  0
 36 38  1  0
 39 40  1  0
 40 41  1  0
 41 42  1  0
 42 43  1  0
 43 44  1  0
 44 45  1  0
 36 46  1  0
 45 46  1  0
 42 47  1  0
 46 47  1  0
 40 48  1  0
 39 49  1  0
 47 49  1  0
 36 50  1  0
 50 51  1  0
 51 52  1  0
 52 53  1  0
 51 54  1  0
 54 55  1  0
 55 56  1  0
 56 57  1  0
 57 58  1  0
 58 59  1  0
 58 60  1  0
 52 61  1  0
 61 62  1  0
 62 63  1  0
 63 64  1  0
 64 65  1  0
 61 66  1  0
 65 66  1  0
 62 67  1  0
 67 68  1  0
 67 69  1  0
 64 70  1  0
  2 71  1  0
  3 72  1  0
  4 73  1  0
  4 74  1  0
  5 75  1  6
  6 76  1  0
  6 77  1  0
  7 78  1  0
  8 79  1  0
  8 80  1  0
  9 81  1  0
  9 82  1  0
 10 83  1  0
 10 84  1  0
 11 85  1  0
 12 86  1  0
 13 87  1  0
 13 88  1  0
 13 89  1  0
 14 90  1  0
 15 91  1  0
 16 92  1  1
 17 93  1  0
 18 94  1  0
 19 95  1  0
 19 96  1  0
 20 97  1  0
 20 98  1  0
 21 99  1  0
 21100  1  0
 22101  1  0
 23102  1  0
 24103  1  0
 24104  1  0
 25105  1  0
 25106  1  0
 27107  1  6
 28108  1  0
 28109  1  0
 29110  1  1
 30111  1  0
 30112  1  0
 31113  1  0
 31114  1  0
 32115  1  0
 33116  1  0
 34117  1  0
 35118  1  0
 35119  1  0
 35120  1  0
 37121  1  0
 38122  1  0
 39123  1  0
 39124  1  0
 40125  1  6
 41126  1  0
 41127  1  0
 42128  1  0
 43129  1  0
 43130  1  0
 44131  1  0
 44132  1  0
 45133  1  0
 45134  1  0
 46135  1  0
 47136  1  0
 48137  1  0
 48138  1  0
 48139  1  0
 49140  1  0
 50141  1  0
 51142  1  1
 52143  1  0
 53144  1  0
 54145  1  0
 54146  1  0
 55147  1  0
 55148  1  0
 56149  1  0
 56150  1  0
 57151  1  0
 58152  1  0
 59153  1  0
 59154  1  0
 60155  1  0
 60156  1  0
 62157  1  6
 63158  1  0
 63159  1  0
 64160  1  1
 65161  1  0
 65162  1  0
 66163  1  0
 66164  1  0
 67165  1  0
 68166  1  0
 69167  1  0
 70168  1  0
 70169  1  0
 70170  1  0
M  END
>  <PDBID>  (1) 
4HFP

>  <PDB ID>  (1) 
4HFP

>  <Generic Name>  (1) 
Argatroban

>  <Brand Name>  (1) 
Argatroban

>  <DrugBank ID>  (1) 
DB00278

>  <ATC Codes>  (1) 
B01AE03

>  <Ligand ID>  (1) 
15U,MIT

>  <Target Name>  (1) 
Prothrombin

>  <UniProt ID>  (1) 
P00734

>  <PDB ID.1>  (1) 
4HFP

>  <Seq. Identity>  (1) 
100%

$$$$
