PDB_DB06290_00
     RDKit          3D

492516  0  0  0  0  0  0  0  0999 V2000
   -0.3994   -0.0662   -1.7593 C   0  0  0  0  0  0  0  0  0  0  0  0
   -1.4367   -1.0826   -1.3947 C   0  0  2  0  0  0  0  0  0  0  0  0
   -1.5581   -0.9678    0.0770 C   0  0  1  0  0  0  0  0  0  0  0  0
   -0.0759   -0.9273    0.4863 C   0  0  0  0  0  0  0  0  0  0  0  0
    0.5224   -0.0276   -0.5644 C   0  0  1  0  0  0  0  0  0  0  0  0
   -2.3021    0.2194    0.6064 C   0  0  1  0  0  0  0  0  0  0  0  0
   -2.9809    0.9703   -0.3184 O   0  0  0  0  0  0  0  0  0  0  0  0
   -3.0174   -0.0354    1.8160 N   0  0  0  0  0  0  0  0  0  0  0  0
   -0.9384   -2.4871   -1.7326 C   0  0  0  0  0  0  0  0  0  0  0  0
    0.1310   -2.4340   -2.6413 O   0  0  0  0  0  0  0  0  0  0  0  0
   -4.6127   -1.7869    1.8082 C   0  0  1  0  0  0  0  0  0  0  0  0
   -5.4022    0.6479    1.2505 C   0  0  0  0  0  0  0  0  0  0  0  0
   -2.0058   -3.2821   -2.2376 N   0  0  0  0  0  0  0  0  0  0  0  0
   -1.8517   -4.6949   -2.1379 C   0  0  0  0  0  0  0  0  0  0  0  0
   -2.6688   -2.7993   -3.4015 C   0  0  0  0  0  0  0  0  0  0  0  0
   -4.3938   -0.3353    1.7582 C   0  0  2  0  0  0  0  0  0  0  0  0
   -4.8910   -1.0059    3.0784 C   0  0  0  0  0  0  0  0  0  0  0  0
   -5.7423   -2.3454    1.0194 C   0  0  0  0  0  0  0  0  0  0  0  0
   -3.0750   -5.2739   -1.4388 C   0  0  0  0  0  0  0  0  0  0  0  0
   -3.6593   -4.2796   -0.4575 C   0  0  0  0  0  0  0  0  0  0  0  0
   -5.1464   -4.3777   -0.3464 C   0  0  0  0  0  0  0  0  0  0  0  0
   -5.6146   -3.8730    0.9895 C   0  0  0  0  0  0  0  0  0  0  0  0
    1.8264   -0.3426   -0.8836 O   0  0  0  0  0  0  0  0  0  0  0  0
    4.9799    1.8697   -4.0417 C   0  0  0  0  0  0  0  0  0  0  0  0
    3.8790    0.8627   -4.1985 C   0  0  0  0  0  0  0  0  0  0  0  0
    3.5026    0.2085   -2.8899 C   0  0  0  0  0  0  0  0  0  0  0  0
    3.1492    1.2772   -1.9055 C   0  0  0  0  0  0  0  0  0  0  0  0
    4.3382    2.1507   -1.6272 C   0  0  0  0  0  0  0  0  0  0  0  0
    4.7298    2.8368   -2.9156 C   0  0  0  0  0  0  0  0  0  0  0  0
    2.6404    0.7419   -0.5898 C   0  0  0  0  0  0  0  0  0  0  0  0
    3.7243    0.3423    0.3338 C   0  0  0  0  0  0  0  0  0  0  0  0
    5.1237    0.4197   -0.1413 C   0  0  1  0  0  0  0  0  0  0  0  0
    5.4116    1.3138   -1.2064 N   0  0  0  0  0  0  0  0  0  0  0  0
    6.1098    0.6994    0.9841 C   0  0  1  0  0  0  0  0  0  0  0  0
    5.6876    2.2960    1.7936 S   0  0  0  0  0  0  0  0  0  0  0  0
    5.6869    1.6745    3.5275 C   0  0  0  0  0  0  0  0  0  0  0  0
    6.4415    0.3586    3.2777 C   0  0  2  0  0  0  0  0  0  0  0  0
    5.8897   -0.2096    2.0903 N   0  0  0  0  0  0  0  0  0  0  0  0
    6.1490   -0.5515    4.4245 C   0  0  0  0  0  0  0  0  0  0  0  0
    6.5882    0.0161    5.7551 C   0  0  0  0  0  0  0  0  0  0  0  0
    6.8859   -1.8663    4.1471 C   0  0  0  0  0  0  0  0  0  0  0  0
    5.0435    2.6146   -5.2263 O   0  0  0  0  0  0  0  0  0  0  0  0
    6.2815    2.4881   -5.8486 C   0  0  0  0  0  0  0  0  0  0  0  0
    3.6132    3.7724   -3.3098 C   0  0  0  0  0  0  0  0  0  0  0  0
   -5.4248    1.8444    2.1164 N   0  0  0  0  0  0  0  0  0  0  0  0
   -6.7009    0.1488    1.2846 O   0  0  0  0  0  0  0  0  0  0  0  0
   -6.5703    2.9708    1.5029 S   0  0  0  0  0  0  0  0  0  0  0  0
   -7.1341    3.8966    2.8739 C   0  0  0  0  0  0  0  0  0  0  0  0
   -5.9522    3.9255    0.4685 O   0  0  0  0  0  0  0  0  0  0  0  0
   -7.8015    2.1156    0.9105 O   0  0  0  0  0  0  0  0  0  0  0  0
   -6.4759    5.1672    3.2219 C   0  0  0  0  0  0  0  0  0  0  0  0
   -7.7828    5.2165    2.4760 C   0  0  0  0  0  0  0  0  0  0  0  0
   -0.6711    0.1909   -1.1083 C   0  0  0  0  0  0  0  0  0  0  0  0
   -1.6463   -0.9099   -0.8500 C   0  0  2  0  0  0  0  0  0  0  0  0
   -1.5317   -1.1298    0.6584 C   0  0  1  0  0  0  0  0  0  0  0  0
   -0.0170   -1.0881    0.8277 C   0  0  0  0  0  0  0  0  0  0  0  0
    0.4837   -0.0510   -0.1567 C   0  0  1  0  0  0  0  0  0  0  0  0
   -2.2145   -0.0107    1.4087 C   0  0  0  0  0  0  0  0  0  0  0  0
   -1.1945    0.6855    2.1003 O   0  0  0  0  0  0  0  0  0  0  0  0
   -3.1357   -0.4606    2.4041 N   0  0  0  0  0  0  0  0  0  0  0  0
   -1.2195   -2.1665   -1.5796 C   0  0  0  0  0  0  0  0  0  0  0  0
   -0.3224   -1.8976   -2.6163 O   0  0  0  0  0  0  0  0  0  0  0  0
   -5.0046   -1.9461    2.1274 C   0  0  1  0  0  0  0  0  0  0  0  0
   -5.0365    0.3657    0.9257 C   0  0  2  0  0  0  0  0  0  0  0  0
   -2.3370   -2.9632   -1.9937 N   0  0  0  0  0  0  0  0  0  0  0  0
   -2.0581   -4.3661   -2.0956 C   0  0  0  0  0  0  0  0  0  0  0  0
   -3.1041   -2.4234   -3.0733 C   0  0  0  0  0  0  0  0  0  0  0  0
   -4.4827   -0.5798    1.9448 C   0  0  2  0  0  0  0  0  0  0  0  0
   -5.4856   -0.9011    3.0649 C   0  0  0  0  0  0  0  0  0  0  0  0
   -5.8644   -2.4725    1.0320 C   0  0  0  0  0  0  0  0  0  0  0  0
   -3.0710   -5.1286   -1.2582 C   0  0  0  0  0  0  0  0  0  0  0  0
   -3.7178   -4.2689   -0.2172 C   0  0  0  0  0  0  0  0  0  0  0  0
   -5.1838   -4.5957   -0.1282 C   0  0  0  0  0  0  0  0  0  0  0  0
   -5.8520   -3.9828    1.0813 C   0  0  0  0  0  0  0  0  0  0  0  0
    1.6246   -0.4581   -0.8359 O   0  0  0  0  0  0  0  0  0  0  0  0
    4.6181    2.0410   -4.0718 C   0  0  0  0  0  0  0  0  0  0  0  0
    4.2395    0.5906   -3.9478 C   0  0  0  0  0  0  0  0  0  0  0  0
    3.0698    0.3196   -3.0736 C   0  0  0  0  0  0  0  0  0  0  0  0
    3.0063    1.1722   -1.8455 C   0  0  0  0  0  0  0  0  0  0  0  0
    4.3123    1.9015   -1.5918 C   0  0  0  0  0  0  0  0  0  0  0  0
    4.5376    2.8032   -2.7757 C   0  0  0  0  0  0  0  0  0  0  0  0
    2.6873    0.4181   -0.5840 C   0  0  0  0  0  0  0  0  0  0  0  0
    3.8210   -0.3013    0.0437 C   0  0  0  0  0  0  0  0  0  0  0  0
    5.1913    0.0256   -0.3998 C   0  0  0  0  0  0  0  0  0  0  0  0
    5.3331    0.9075   -1.5139 N   0  0  0  0  0  0  0  0  0  0  0  0
    6.0824    0.5401    0.7053 C   0  0  0  0  0  0  0  0  0  0  0  0
    5.4257    2.0650    1.4667 S   0  0  0  0  0  0  0  0  0  0  0  0
    5.7907    1.6130    3.2152 C   0  0  0  0  0  0  0  0  0  0  0  0
    6.5858    0.3372    2.9716 C   0  0  0  0  0  0  0  0  0  0  0  0
    5.9851   -0.3481    1.8651 N   0  0  0  0  0  0  0  0  0  0  0  0
    6.4866   -0.5771    4.1726 C   0  0  0  0  0  0  0  0  0  0  0  0
    7.0492    0.1521    5.3773 C   0  0  0  0  0  0  0  0  0  0  0  0
    7.2877   -1.8271    3.9808 C   0  0  0  0  0  0  0  0  0  0  0  0
    3.8773    2.7155   -5.0184 O   0  0  0  0  0  0  0  0  0  0  0  0
    4.7079    3.1949   -6.0275 C   0  0  0  0  0  0  0  0  0  0  0  0
    3.3916    3.8089   -2.8437 C   0  0  0  0  0  0  0  0  0  0  0  0
   -5.0659    1.6972    1.5296 N   0  0  0  0  0  0  0  0  0  0  0  0
   -6.3715    0.0305    0.6577 O   0  0  0  0  0  0  0  0  0  0  0  0
   -5.6314    2.8815    0.5863 S   0  0  0  0  0  0  0  0  0  0  0  0
   -6.9516    3.7319    1.3823 C   0  0  0  0  0  0  0  0  0  0  0  0
   -4.3570    4.1376    0.6915 O   0  0  0  0  0  0  0  0  0  0  0  0
   -5.9396    2.6281   -0.8504 O   0  0  0  0  0  0  0  0  0  0  0  0
   -6.6373    4.8545    2.2998 C   0  0  0  0  0  0  0  0  0  0  0  0
   -7.2225    5.1399    0.9787 C   0  0  0  0  0  0  0  0  0  0  0  0
   -0.7285    0.6459   -0.8758 C   0  0  0  0  0  0  0  0  0  0  0  0
   -1.7541   -0.4513   -0.8425 C   0  0  2  0  0  0  0  0  0  0  0  0
   -1.7234   -0.9447    0.5988 C   0  0  1  0  0  0  0  0  0  0  0  0
   -0.2501   -0.9159    0.8999 C   0  0  0  0  0  0  0  0  0  0  0  0
    0.3905    0.0716   -0.0317 C   0  0  1  0  0  0  0  0  0  0  0  0
   -2.5121   -0.0193    1.4884 C   0  0  0  0  0  0  0  0  0  0  0  0
   -1.5677    0.7020    2.2526 O   0  0  0  0  0  0  0  0  0  0  0  0
   -3.3640   -0.6971    2.4155 N   0  0  0  0  0  0  0  0  0  0  0  0
   -1.2616   -1.5723   -1.7459 C   0  0  0  0  0  0  0  0  0  0  0  0
   -0.6712   -1.0688   -2.8989 O   0  0  0  0  0  0  0  0  0  0  0  0
   -5.2854   -2.1007    2.1462 C   0  0  1  0  0  0  0  0  0  0  0  0
   -5.2758    0.2352    1.0072 C   0  0  2  0  0  0  0  0  0  0  0  0
   -2.3272   -2.4953   -2.0096 N   0  0  0  0  0  0  0  0  0  0  0  0
   -1.9572   -3.8641   -1.8121 C   0  0  0  0  0  0  0  0  0  0  0  0
   -3.0124   -2.2351   -3.2412 C   0  0  0  0  0  0  0  0  0  0  0  0
   -4.7379   -0.7278    2.0203 C   0  0  2  0  0  0  0  0  0  0  0  0
   -5.7394   -1.0728    3.1216 C   0  0  0  0  0  0  0  0  0  0  0  0
   -6.1549   -2.5311    1.0118 C   0  0  0  0  0  0  0  0  0  0  0  0
   -3.1446   -4.6990   -1.3237 C   0  0  0  0  0  0  0  0  0  0  0  0
   -4.0101   -3.9191   -0.3886 C   0  0  0  0  0  0  0  0  0  0  0  0
   -5.3779   -4.5122   -0.2969 C   0  0  0  0  0  0  0  0  0  0  0  0
   -6.1319   -4.0428    0.9308 C   0  0  0  0  0  0  0  0  0  0  0  0
    1.3951   -0.4825   -0.8197 O   0  0  0  0  0  0  0  0  0  0  0  0
    4.9191    1.5506   -3.9364 C   0  0  0  0  0  0  0  0  0  0  0  0
    3.9729    0.4203   -4.1461 C   0  0  0  0  0  0  0  0  0  0  0  0
    3.3916   -0.1638   -2.9089 C   0  0  0  0  0  0  0  0  0  0  0  0
    2.9795    0.8559   -1.8897 C   0  0  0  0  0  0  0  0  0  0  0  0
    4.2426    1.6628   -1.5544 C   0  0  0  0  0  0  0  0  0  0  0  0
    4.5360    2.4773   -2.8120 C   0  0  0  0  0  0  0  0  0  0  0  0
    2.5869    0.1613   -0.6018 C   0  0  0  0  0  0  0  0  0  0  0  0
    3.6714   -0.7394   -0.1096 C   0  0  0  0  0  0  0  0  0  0  0  0
    5.0113   -0.0942   -0.1789 C   0  0  0  0  0  0  0  0  0  0  0  0
    5.2841    0.6558   -1.3632 N   0  0  0  0  0  0  0  0  0  0  0  0
    5.3133    0.7797    1.0155 C   0  0  0  0  0  0  0  0  0  0  0  0
    6.9943    1.4767    0.7381 S   0  0  0  0  0  0  0  0  0  0  0  0
    7.6887    1.0432    2.3877 C   0  0  0  0  0  0  0  0  0  0  0  0
    6.3670    0.7293    3.1059 C   0  0  1  0  0  0  0  0  0  0  0  0
    5.5721   -0.0327    2.1903 N   0  0  0  0  0  0  0  0  0  0  0  0
    6.6028   -0.1058    4.3290 C   0  0  0  0  0  0  0  0  0  0  0  0
    7.5073    0.6577    5.2683 C   0  0  0  0  0  0  0  0  0  0  0  0
    7.1932   -1.4468    4.0273 C   0  0  0  0  0  0  0  0  0  0  0  0
    4.9057    2.3310   -5.1123 O   0  0  0  0  0  0  0  0  0  0  0  0
    6.1860    2.4556   -5.6409 C   0  0  0  0  0  0  0  0  0  0  0  0
    3.2421    3.2188   -3.1474 C   0  0  0  0  0  0  0  0  0  0  0  0
   -5.1991    1.5789    1.5788 N   0  0  0  0  0  0  0  0  0  0  0  0
   -6.6397   -0.0287    0.8230 O   0  0  0  0  0  0  0  0  0  0  0  0
   -5.7300    2.7741    0.6360 S   0  0  0  0  0  0  0  0  0  0  0  0
   -7.0129    3.6621    1.4382 C   0  0  0  0  0  0  0  0  0  0  0  0
   -4.4556    3.9424    0.5616 O   0  0  0  0  0  0  0  0  0  0  0  0
   -6.1221    2.4472   -0.8169 O   0  0  0  0  0  0  0  0  0  0  0  0
   -6.6420    4.7740    2.3895 C   0  0  0  0  0  0  0  0  0  0  0  0
   -7.2104    5.0976    1.0503 C   0  0  0  0  0  0  0  0  0  0  0  0
   -0.7422   -0.0587   -1.0952 C   0  0  0  0  0  0  0  0  0  0  0  0
   -1.7088   -1.1701   -0.7875 C   0  0  2  0  0  0  0  0  0  0  0  0
   -1.5798   -1.2898    0.7355 C   0  0  1  0  0  0  0  0  0  0  0  0
   -0.0512   -1.2350    0.8820 C   0  0  0  0  0  0  0  0  0  0  0  0
    0.3641   -0.1264   -0.0650 C   0  0  1  0  0  0  0  0  0  0  0  0
   -2.2396   -0.1186    1.3955 C   0  0  0  0  0  0  0  0  0  0  0  0
   -1.2289    0.5508    2.1313 O   0  0  0  0  0  0  0  0  0  0  0  0
   -3.2473   -0.4674    2.3392 N   0  0  0  0  0  0  0  0  0  0  0  0
   -1.2500   -2.4322   -1.4803 C   0  0  0  0  0  0  0  0  0  0  0  0
   -0.1705   -2.2128   -2.3316 O   0  0  0  0  0  0  0  0  0  0  0  0
   -5.0063   -1.9986    1.8661 C   0  0  1  0  0  0  0  0  0  0  0  0
   -5.0375    0.4013    0.8267 C   0  0  0  0  0  0  0  0  0  0  0  0
   -2.3188   -3.1552   -2.0920 N   0  0  0  0  0  0  0  0  0  0  0  0
   -2.0700   -4.5706   -2.1910 C   0  0  0  0  0  0  0  0  0  0  0  0
   -2.8689   -2.5641   -3.2682 C   0  0  0  0  0  0  0  0  0  0  0  0
   -4.5731   -0.6033    1.8339 C   0  0  2  0  0  0  0  0  0  0  0  0
   -5.6405   -1.0486    2.7855 C   0  0  0  0  0  0  0  0  0  0  0  0
   -5.6882   -2.5437    0.6576 C   0  0  0  0  0  0  0  0  0  0  0  0
   -3.0647   -5.3706   -1.3815 C   0  0  0  0  0  0  0  0  0  0  0  0
   -3.6773   -4.5121   -0.2956 C   0  0  0  0  0  0  0  0  0  0  0  0
   -5.1422   -4.8285   -0.2289 C   0  0  0  0  0  0  0  0  0  0  0  0
   -5.8679   -4.0361    0.8340 C   0  0  0  0  0  0  0  0  0  0  0  0
    1.6078   -0.3699   -0.6350 O   0  0  0  0  0  0  0  0  0  0  0  0
    4.4842    2.1553   -3.9446 C   0  0  0  0  0  0  0  0  0  0  0  0
    3.3757    1.1404   -4.0892 C   0  0  0  0  0  0  0  0  0  0  0  0
    3.1062    0.3900   -2.8132 C   0  0  0  0  0  0  0  0  0  0  0  0
    2.8328    1.3821   -1.6945 C   0  0  0  0  0  0  0  0  0  0  0  0
    4.1355    2.1252   -1.4719 C   0  0  0  0  0  0  0  0  0  0  0  0
    4.3500    2.9847   -2.7037 C   0  0  0  0  0  0  0  0  0  0  0  0
    2.4793    0.6958   -0.4054 C   0  0  0  0  0  0  0  0  0  0  0  0
    3.6378    0.2541    0.4005 C   0  0  0  0  0  0  0  0  0  0  0  0
    4.9741    0.2698   -0.2401 C   0  0  1  0  0  0  0  0  0  0  0  0
    5.1442    1.0979   -1.3823 N   0  0  0  0  0  0  0  0  0  0  0  0
    6.0943    0.5797    0.7327 C   0  0  1  0  0  0  0  0  0  0  0  0
    5.8241    2.2241    1.5048 S   0  0  0  0  0  0  0  0  0  0  0  0
    6.1004    1.7030    3.2441 C   0  0  0  0  0  0  0  0  0  0  0  0
    6.7321    0.3310    2.9726 C   0  0  0  0  0  0  0  0  0  0  0  0
    5.9905   -0.2590    1.9090 N   0  0  0  0  0  0  0  0  0  0  0  0
    6.5461   -0.5623    4.1878 C   0  0  0  0  0  0  0  0  0  0  0  0
    7.2190    0.0889    5.3716 C   0  0  0  0  0  0  0  0  0  0  0  0
    7.1938   -1.8964    3.8950 C   0  0  0  0  0  0  0  0  0  0  0  0
    4.4090    3.0027   -5.0482 O   0  0  0  0  0  0  0  0  0  0  0  0
    5.5813    2.9749   -5.8005 C   0  0  0  0  0  0  0  0  0  0  0  0
    3.1230    3.8597   -2.8553 C   0  0  0  0  0  0  0  0  0  0  0  0
   -5.0266    1.7111    1.4726 N   0  0  0  0  0  0  0  0  0  0  0  0
   -6.3459    0.1764    0.4072 O   0  0  0  0  0  0  0  0  0  0  0  0
   -5.4726    2.9801    0.6155 S   0  0  0  0  0  0  0  0  0  0  0  0
   -6.7821    3.8639    1.3632 C   0  0  0  0  0  0  0  0  0  0  0  0
   -4.1633    4.1947    0.8157 O   0  0  0  0  0  0  0  0  0  0  0  0
   -5.6786    2.8785   -0.8804 O   0  0  0  0  0  0  0  0  0  0  0  0
   -6.4852    4.9854    2.2919 C   0  0  0  0  0  0  0  0  0  0  0  0
   -6.9815    5.2985    0.9206 C   0  0  0  0  0  0  0  0  0  0  0  0
    0.2017   -0.3403   -2.6391 H   0  0  0  0  0  0  0  0  0  0  0  0
   -0.9175    0.8951   -1.9554 H   0  0  0  0  0  0  0  0  0  0  0  0
   -2.3716   -0.9821   -1.9742 H   0  0  0  0  0  0  0  0  0  0  0  0
   -1.9248   -1.9385    0.4686 H   0  0  0  0  0  0  0  0  0  0  0  0
   -0.0708   -0.4443    1.5021 H   0  0  0  0  0  0  0  0  0  0  0  0
    0.3775   -1.9009    0.5964 H   0  0  0  0  0  0  0  0  0  0  0  0
    0.4123    1.0171   -0.1455 H   0  0  0  0  0  0  0  0  0  0  0  0
   -1.4861    0.9463    0.9494 H   0  0  0  0  0  0  0  0  0  0  0  0
   -3.3321    0.5461   -1.1009 H   0  0  0  0  0  0  0  0  0  0  0  0
   -2.5185   -0.7866    2.3434 H   0  0  0  0  0  0  0  0  0  0  0  0
   -0.5336   -3.0044   -0.8414 H   0  0  0  0  0  0  0  0  0  0  0  0
   -0.1196   -2.1442   -3.5331 H   0  0  0  0  0  0  0  0  0  0  0  0
   -3.7437   -2.4570    1.9346 H   0  0  0  0  0  0  0  0  0  0  0  0
   -5.2386    1.0320    0.2444 H   0  0  0  0  0  0  0  0  0  0  0  0
   -1.7630   -5.1213   -3.1586 H   0  0  0  0  0  0  0  0  0  0  0  0
   -0.9153   -4.9578   -1.6024 H   0  0  0  0  0  0  0  0  0  0  0  0
   -2.0813   -2.1784   -4.0746 H   0  0  0  0  0  0  0  0  0  0  0  0
   -2.9822   -3.7043   -4.0006 H   0  0  0  0  0  0  0  0  0  0  0  0
   -3.6520   -2.3058   -3.1420 H   0  0  0  0  0  0  0  0  0  0  0  0
   -5.9627   -0.9527    3.3098 H   0  0  0  0  0  0  0  0  0  0  0  0
   -4.2179   -1.0581    3.9266 H   0  0  0  0  0  0  0  0  0  0  0  0
   -5.7907   -2.0255   -0.0266 H   0  0  0  0  0  0  0  0  0  0  0  0
   -6.6827   -2.1524    1.5922 H   0  0  0  0  0  0  0  0  0  0  0  0
   -2.7357   -6.1902   -0.9144 H   0  0  0  0  0  0  0  0  0  0  0  0
   -3.7926   -5.5532   -2.2094 H   0  0  0  0  0  0  0  0  0  0  0  0
   -3.4155   -3.2722   -0.8530 H   0  0  0  0  0  0  0  0  0  0  0  0
   -3.2147   -4.4940    0.5262 H   0  0  0  0  0  0  0  0  0  0  0  0
   -5.4030   -5.4669   -0.3864 H   0  0  0  0  0  0  0  0  0  0  0  0
   -5.6947   -3.9045   -1.1909 H   0  0  0  0  0  0  0  0  0  0  0  0
   -4.8654   -4.2124    1.7418 H   0  0  0  0  0  0  0  0  0  0  0  0
   -6.5779   -4.3569    1.2083 H   0  0  0  0  0  0  0  0  0  0  0  0
    5.9666    1.3721   -3.9268 H   0  0  0  0  0  0  0  0  0  0  0  0
    4.2507    0.0916   -4.9300 H   0  0  0  0  0  0  0  0  0  0  0  0
    2.9637    1.3061   -4.6163 H   0  0  0  0  0  0  0  0  0  0  0  0
    4.2128   -0.5408   -2.5540 H   0  0  0  0  0  0  0  0  0  0  0  0
    2.5490   -0.3567   -3.1082 H   0  0  0  0  0  0  0  0  0  0  0  0
    2.3673    1.9154   -2.3907 H   0  0  0  0  0  0  0  0  0  0  0  0
    4.1417    2.9272   -0.8799 H   0  0  0  0  0  0  0  0  0  0  0  0
    5.6814    3.3790   -2.7200 H   0  0  0  0  0  0  0  0  0  0  0  0
    1.9873    1.5508   -0.1797 H   0  0  0  0  0  0  0  0  0  0  0  0
    3.4883   -0.6895    0.7249 H   0  0  0  0  0  0  0  0  0  0  0  0
    3.6321    0.9859    1.2552 H   0  0  0  0  0  0  0  0  0  0  0  0
    5.4006   -0.6194   -0.4977 H   0  0  0  0  0  0  0  0  0  0  0  0
    6.0353    0.9547   -1.9342 H   0  0  0  0  0  0  0  0  0  0  0  0
    7.1389    0.6863    0.6266 H   0  0  0  0  0  0  0  0  0  0  0  0
    4.6660    1.5041    3.8859 H   0  0  0  0  0  0  0  0  0  0  0  0
    6.3015    2.3337    4.1509 H   0  0  0  0  0  0  0  0  0  0  0  0
    7.5171    0.5749    3.2025 H   0  0  0  0  0  0  0  0  0  0  0  0
    4.8602   -0.3250    2.2170 H   0  0  0  0  0  0  0  0  0  0  0  0
    5.0457   -0.7770    4.4418 H   0  0  0  0  0  0  0  0  0  0  0  0
    5.7380   -0.1017    6.4819 H   0  0  0  0  0  0  0  0  0  0  0  0
    6.8997    1.0706    5.6374 H   0  0  0  0  0  0  0  0  0  0  0  0
    7.4317   -0.6161    6.1478 H   0  0  0  0  0  0  0  0  0  0  0  0
    7.7667   -1.6640    3.5150 H   0  0  0  0  0  0  0  0  0  0  0  0
    7.1582   -2.3411    5.1286 H   0  0  0  0  0  0  0  0  0  0  0  0
    6.2012   -2.5150    3.5915 H   0  0  0  0  0  0  0  0  0  0  0  0
    6.2563    3.0986   -6.7689 H   0  0  0  0  0  0  0  0  0  0  0  0
    7.1270    2.7824   -5.2194 H   0  0  0  0  0  0  0  0  0  0  0  0
    6.4484    1.4221   -6.1566 H   0  0  0  0  0  0  0  0  0  0  0  0
    2.8642    3.2234   -3.9349 H   0  0  0  0  0  0  0  0  0  0  0  0
    3.9874    4.6299   -3.9253 H   0  0  0  0  0  0  0  0  0  0  0  0
    3.0654    4.1344   -2.4151 H   0  0  0  0  0  0  0  0  0  0  0  0
   -4.4825    2.3032    1.9490 H   0  0  0  0  0  0  0  0  0  0  0  0
   -7.0722   -0.0411    0.3903 H   0  0  0  0  0  0  0  0  0  0  0  0
   -7.6187    3.2981    3.6668 H   0  0  0  0  0  0  0  0  0  0  0  0
   -4.9770    4.0348    0.3327 H   0  0  0  0  0  0  0  0  0  0  0  0
   -8.0651    2.4212   -0.0154 H   0  0  0  0  0  0  0  0  0  0  0  0
   -6.5799    5.5265    4.2816 H   0  0  0  0  0  0  0  0  0  0  0  0
   -5.5910    5.5495    2.6736 H   0  0  0  0  0  0  0  0  0  0  0  0
   -8.7200    5.4259    2.9910 H   0  0  0  0  0  0  0  0  0  0  0  0
   -7.7511    5.5390    1.4221 H   0  0  0  0  0  0  0  0  0  0  0  0
   -0.2723    0.0840   -2.1381 H   0  0  0  0  0  0  0  0  0  0  0  0
   -1.0917    1.1976   -0.9846 H   0  0  0  0  0  0  0  0  0  0  0  0
   -2.6686   -0.6769   -1.1666 H   0  0  0  0  0  0  0  0  0  0  0  0
   -1.9505   -2.1229    0.9085 H   0  0  0  0  0  0  0  0  0  0  0  0
    0.2036   -0.7792    1.8837 H   0  0  0  0  0  0  0  0  0  0  0  0
    0.4592   -2.0572    0.6888 H   0  0  0  0  0  0  0  0  0  0  0  0
    0.6605    0.8754    0.4310 H   0  0  0  0  0  0  0  0  0  0  0  0
   -2.6272    0.7005    0.6847 H   0  0  0  0  0  0  0  0  0  0  0  0
   -1.3387    1.6610    2.0349 H   0  0  0  0  0  0  0  0  0  0  0  0
   -2.8274   -1.3698    2.8050 H   0  0  0  0  0  0  0  0  0  0  0  0
   -0.6352   -2.8071   -0.8552 H   0  0  0  0  0  0  0  0  0  0  0  0
   -0.7225   -1.4851   -3.3979 H   0  0  0  0  0  0  0  0  0  0  0  0
   -4.2914   -2.6782    2.5863 H   0  0  0  0  0  0  0  0  0  0  0  0
   -4.4956    0.3758   -0.0403 H   0  0  0  0  0  0  0  0  0  0  0  0
   -2.1318   -4.7738   -3.1184 H   0  0  0  0  0  0  0  0  0  0  0  0
   -1.0152   -4.5670   -1.7188 H   0  0  0  0  0  0  0  0  0  0  0  0
   -4.1465   -2.2473   -2.6829 H   0  0  0  0  0  0  0  0  0  0  0  0
   -3.2323   -3.1993   -3.8629 H   0  0  0  0  0  0  0  0  0  0  0  0
   -2.7596   -1.4599   -3.4510 H   0  0  0  0  0  0  0  0  0  0  0  0
   -6.5241   -0.5916    2.9485 H   0  0  0  0  0  0  0  0  0  0  0  0
   -5.1225   -0.8950    4.1077 H   0  0  0  0  0  0  0  0  0  0  0  0
   -5.5531   -2.0769    0.0424 H   0  0  0  0  0  0  0  0  0  0  0  0
   -6.9469   -2.1756    1.1609 H   0  0  0  0  0  0  0  0  0  0  0  0
   -2.5439   -6.0023   -0.7837 H   0  0  0  0  0  0  0  0  0  0  0  0
   -3.8703   -5.5886   -1.8995 H   0  0  0  0  0  0  0  0  0  0  0  0
   -3.5714   -3.2062   -0.4841 H   0  0  0  0  0  0  0  0  0  0  0  0
   -3.2669   -4.5291    0.7683 H   0  0  0  0  0  0  0  0  0  0  0  0
   -5.2513   -5.7027    0.0127 H   0  0  0  0  0  0  0  0  0  0  0  0
   -5.7503   -4.3345   -1.0316 H   0  0  0  0  0  0  0  0  0  0  0  0
   -6.8671   -4.4253    1.1409 H   0  0  0  0  0  0  0  0  0  0  0  0
   -5.3219   -4.3584    2.0048 H   0  0  0  0  0  0  0  0  0  0  0  0
    5.6830    2.0664   -4.3817 H   0  0  0  0  0  0  0  0  0  0  0  0
    5.1148   -0.0425   -3.6836 H   0  0  0  0  0  0  0  0  0  0  0  0
    3.9574    0.2577   -4.9904 H   0  0  0  0  0  0  0  0  0  0  0  0
    3.1281   -0.7445   -2.7403 H   0  0  0  0  0  0  0  0  0  0  0  0
    2.1207    0.3765   -3.6820 H   0  0  0  0  0  0  0  0  0  0  0  0
    2.2091    1.9269   -2.0001 H   0  0  0  0  0  0  0  0  0  0  0  0
    4.1859    2.5284   -0.7069 H   0  0  0  0  0  0  0  0  0  0  0  0
    5.4523    3.3928   -2.5739 H   0  0  0  0  0  0  0  0  0  0  0  0
    2.2751    1.2005    0.1235 H   0  0  0  0  0  0  0  0  0  0  0  0
    3.6266   -1.4089   -0.1022 H   0  0  0  0  0  0  0  0  0  0  0  0
    3.7791   -0.1127    1.1592 H   0  0  0  0  0  0  0  0  0  0  0  0
    5.6902   -0.9446   -0.7266 H   0  0  0  0  0  0  0  0  0  0  0  0
    6.2592    1.3672   -1.4840 H   0  0  0  0  0  0  0  0  0  0  0  0
    7.1272    0.6284    0.4160 H   0  0  0  0  0  0  0  0  0  0  0  0
    6.4860    2.3488    3.6553 H   0  0  0  0  0  0  0  0  0  0  0  0
    4.8781    1.4369    3.7798 H   0  0  0  0  0  0  0  0  0  0  0  0
    7.6326    0.5667    2.7429 H   0  0  0  0  0  0  0  0  0  0  0  0
    6.4795   -1.2309    1.7240 H   0  0  0  0  0  0  0  0  0  0  0  0
    5.4412   -0.8707    4.3629 H   0  0  0  0  0  0  0  0  0  0  0  0
    8.0238   -0.2787    5.6993 H   0  0  0  0  0  0  0  0  0  0  0  0
    7.2422    1.2212    5.1755 H   0  0  0  0  0  0  0  0  0  0  0  0
    6.3842    0.0802    6.2664 H   0  0  0  0  0  0  0  0  0  0  0  0
    8.1434   -1.5879    3.2903 H   0  0  0  0  0  0  0  0  0  0  0  0
    7.7736   -2.1160    4.9430 H   0  0  0  0  0  0  0  0  0  0  0  0
    6.7098   -2.6889    3.6207 H   0  0  0  0  0  0  0  0  0  0  0  0
    4.1584    3.7384   -6.8017 H   0  0  0  0  0  0  0  0  0  0  0  0
    5.5457    3.8128   -5.6045 H   0  0  0  0  0  0  0  0  0  0  0  0
    5.2193    2.2992   -6.4836 H   0  0  0  0  0  0  0  0  0  0  0  0
    2.6857    3.5264   -3.6709 H   0  0  0  0  0  0  0  0  0  0  0  0
    2.8755    3.9023   -1.8669 H   0  0  0  0  0  0  0  0  0  0  0  0
    3.7542    4.8275   -3.1078 H   0  0  0  0  0  0  0  0  0  0  0  0
   -5.5725    1.6263    2.4398 H   0  0  0  0  0  0  0  0  0  0  0  0
   -6.9841    0.7879    0.7815 H   0  0  0  0  0  0  0  0  0  0  0  0
   -7.8381    3.1294    1.6510 H   0  0  0  0  0  0  0  0  0  0  0  0
   -3.9753    4.0112    1.5959 H   0  0  0  0  0  0  0  0  0  0  0  0
   -6.8329    2.7767   -1.2508 H   0  0  0  0  0  0  0  0  0  0  0  0
   -7.2176    5.0458    3.2192 H   0  0  0  0  0  0  0  0  0  0  0  0
   -5.5531    5.1018    2.4049 H   0  0  0  0  0  0  0  0  0  0  0  0
   -8.2598    5.5334    0.9865 H   0  0  0  0  0  0  0  0  0  0  0  0
   -6.6033    5.6291    0.1839 H   0  0  0  0  0  0  0  0  0  0  0  0
   -0.4125    0.8637   -1.9032 H   0  0  0  0  0  0  0  0  0  0  0  0
   -1.1644    1.5577   -0.4057 H   0  0  0  0  0  0  0  0  0  0  0  0
   -2.7506   -0.1281   -1.1614 H   0  0  0  0  0  0  0  0  0  0  0  0
   -2.1508   -1.9637    0.6724 H   0  0  0  0  0  0  0  0  0  0  0  0
   -0.0633   -0.6597    1.9789 H   0  0  0  0  0  0  0  0  0  0  0  0
    0.1561   -1.9425    0.7685 H   0  0  0  0  0  0  0  0  0  0  0  0
    0.7762    0.9131    0.5992 H   0  0  0  0  0  0  0  0  0  0  0  0
   -3.0711    0.7444    0.9191 H   0  0  0  0  0  0  0  0  0  0  0  0
   -1.4973    1.6353    1.9794 H   0  0  0  0  0  0  0  0  0  0  0  0
   -3.0142   -1.6571    2.5850 H   0  0  0  0  0  0  0  0  0  0  0  0
   -0.4756   -2.1177   -1.1831 H   0  0  0  0  0  0  0  0  0  0  0  0
   -1.2617   -0.4575   -3.3983 H   0  0  0  0  0  0  0  0  0  0  0  0
   -4.6076   -2.8709    2.5839 H   0  0  0  0  0  0  0  0  0  0  0  0
   -4.8121    0.1835    0.0208 H   0  0  0  0  0  0  0  0  0  0  0  0
   -1.6871   -4.2845   -2.8070 H   0  0  0  0  0  0  0  0  0  0  0  0
   -1.0823   -3.9785   -1.1565 H   0  0  0  0  0  0  0  0  0  0  0  0
   -3.4798   -1.2134   -3.1426 H   0  0  0  0  0  0  0  0  0  0  0  0
   -3.7634   -3.0098   -3.4344 H   0  0  0  0  0  0  0  0  0  0  0  0
   -2.3541   -2.1774   -4.1201 H   0  0  0  0  0  0  0  0  0  0  0  0
   -6.7939   -0.7500    2.9951 H   0  0  0  0  0  0  0  0  0  0  0  0
   -5.3684   -1.0940    4.1599 H   0  0  0  0  0  0  0  0  0  0  0  0
   -5.7897   -2.0700    0.0704 H   0  0  0  0  0  0  0  0  0  0  0  0
   -7.2336   -2.2570    1.2009 H   0  0  0  0  0  0  0  0  0  0  0  0
   -2.6811   -5.5728   -0.7911 H   0  0  0  0  0  0  0  0  0  0  0  0
   -3.7366   -5.1025   -2.1598 H   0  0  0  0  0  0  0  0  0  0  0  0
   -4.0772   -2.8600   -0.7066 H   0  0  0  0  0  0  0  0  0  0  0  0
   -3.5479   -4.0066    0.6346 H   0  0  0  0  0  0  0  0  0  0  0  0
   -5.2823   -5.6163   -0.2109 H   0  0  0  0  0  0  0  0  0  0  0  0
   -6.0253   -4.3114   -1.1629 H   0  0  0  0  0  0  0  0  0  0  0  0
   -7.1490   -4.4834    0.8594 H   0  0  0  0  0  0  0  0  0  0  0  0
   -5.6824   -4.4814    1.8627 H   0  0  0  0  0  0  0  0  0  0  0  0
    5.9715    1.2479   -3.7597 H   0  0  0  0  0  0  0  0  0  0  0  0
    4.5468   -0.3980   -4.6721 H   0  0  0  0  0  0  0  0  0  0  0  0
    3.1659    0.6940   -4.8837 H   0  0  0  0  0  0  0  0  0  0  0  0
    4.0295   -0.9297   -2.4295 H   0  0  0  0  0  0  0  0  0  0  0  0
    2.4530   -0.7141   -3.2092 H   0  0  0  0  0  0  0  0  0  0  0  0
    2.1542    1.4966   -2.2027 H   0  0  0  0  0  0  0  0  0  0  0  0
    4.1052    2.3133   -0.6927 H   0  0  0  0  0  0  0  0  0  0  0  0
    5.3614    3.1479   -2.5826 H   0  0  0  0  0  0  0  0  0  0  0  0
    2.4273    0.9613    0.1612 H   0  0  0  0  0  0  0  0  0  0  0  0
    3.6429   -1.7476   -0.5833 H   0  0  0  0  0  0  0  0  0  0  0  0
    3.4552   -0.9393    0.9812 H   0  0  0  0  0  0  0  0  0  0  0  0
    5.7734   -0.9253   -0.1432 H   0  0  0  0  0  0  0  0  0  0  0  0
    6.1968    1.1095   -1.2687 H   0  0  0  0  0  0  0  0  0  0  0  0
    4.5763    1.5593    1.1987 H   0  0  0  0  0  0  0  0  0  0  0  0
    8.1908    1.9050    2.8294 H   0  0  0  0  0  0  0  0  0  0  0  0
    8.3078    0.1564    2.2525 H   0  0  0  0  0  0  0  0  0  0  0  0
    5.9439    1.6962    3.3930 H   0  0  0  0  0  0  0  0  0  0  0  0
    6.1383   -0.8625    1.8980 H   0  0  0  0  0  0  0  0  0  0  0  0
    5.6085   -0.2806    4.7955 H   0  0  0  0  0  0  0  0  0  0  0  0
    8.5207    0.7137    4.8238 H   0  0  0  0  0  0  0  0  0  0  0  0
    7.1235    1.6877    5.3764 H   0  0  0  0  0  0  0  0  0  0  0  0
    7.5456    0.2029    6.2716 H   0  0  0  0  0  0  0  0  0  0  0  0
    8.1778   -1.4173    3.5426 H   0  0  0  0  0  0  0  0  0  0  0  0
    7.3649   -1.9487    5.0242 H   0  0  0  0  0  0  0  0  0  0  0  0
    6.4718   -2.1082    3.5022 H   0  0  0  0  0  0  0  0  0  0  0  0
    6.0895    3.0773   -6.5546 H   0  0  0  0  0  0  0  0  0  0  0  0
    6.8781    3.0014   -4.9688 H   0  0  0  0  0  0  0  0  0  0  0  0
    6.5394    1.4683   -5.9344 H   0  0  0  0  0  0  0  0  0  0  0  0
    2.6093    2.6461   -3.8335 H   0  0  0  0  0  0  0  0  0  0  0  0
    3.5300    4.1823   -3.6225 H   0  0  0  0  0  0  0  0  0  0  0  0
    2.7411    3.4662   -2.1936 H   0  0  0  0  0  0  0  0  0  0  0  0
   -5.6639    1.5695    2.5139 H   0  0  0  0  0  0  0  0  0  0  0  0
   -7.1787    0.7960    0.7907 H   0  0  0  0  0  0  0  0  0  0  0  0
   -7.9275    3.1190    1.7277 H   0  0  0  0  0  0  0  0  0  0  0  0
   -4.0745    4.0402    1.4608 H   0  0  0  0  0  0  0  0  0  0  0  0
   -7.0104    2.7456   -1.1450 H   0  0  0  0  0  0  0  0  0  0  0  0
   -7.2668    4.9691    3.2719 H   0  0  0  0  0  0  0  0  0  0  0  0
   -5.5612    4.9807    2.5221 H   0  0  0  0  0  0  0  0  0  0  0  0
   -8.2582    5.5005    1.0090 H   0  0  0  0  0  0  0  0  0  0  0  0
   -6.5708    5.5431    0.2589 H   0  0  0  0  0  0  0  0  0  0  0  0
   -0.2619   -0.1619   -2.0951 H   0  0  0  0  0  0  0  0  0  0  0  0
   -1.2583    0.9339   -1.1135 H   0  0  0  0  0  0  0  0  0  0  0  0
   -2.7425   -0.9121   -1.0892 H   0  0  0  0  0  0  0  0  0  0  0  0
   -1.8979   -2.2646    1.0975 H   0  0  0  0  0  0  0  0  0  0  0  0
    0.2373   -0.9188    1.8979 H   0  0  0  0  0  0  0  0  0  0  0  0
    0.4080   -2.1970    0.6608 H   0  0  0  0  0  0  0  0  0  0  0  0
    0.3554    0.8679    0.4483 H   0  0  0  0  0  0  0  0  0  0  0  0
   -2.5511    0.6349    0.6361 H   0  0  0  0  0  0  0  0  0  0  0  0
   -1.5465    1.4504    2.3705 H   0  0  0  0  0  0  0  0  0  0  0  0
   -2.9321   -1.2838    2.8751 H   0  0  0  0  0  0  0  0  0  0  0  0
   -0.8420   -3.1056   -0.6684 H   0  0  0  0  0  0  0  0  0  0  0  0
   -0.3984   -1.8646   -3.2069 H   0  0  0  0  0  0  0  0  0  0  0  0
   -4.3058   -2.7350    2.3510 H   0  0  0  0  0  0  0  0  0  0  0  0
   -4.4316    0.4649   -0.0908 H   0  0  0  0  0  0  0  0  0  0  0  0
   -2.0948   -4.9197   -3.2566 H   0  0  0  0  0  0  0  0  0  0  0  0
   -1.0497   -4.7609   -1.8187 H   0  0  0  0  0  0  0  0  0  0  0  0
   -3.4928   -1.6663   -3.0577 H   0  0  0  0  0  0  0  0  0  0  0  0
   -3.6015   -3.3140   -3.6913 H   0  0  0  0  0  0  0  0  0  0  0  0
   -2.1684   -2.3577   -4.0804 H   0  0  0  0  0  0  0  0  0  0  0  0
   -6.6992   -0.8198    2.6045 H   0  0  0  0  0  0  0  0  0  0  0  0
   -5.3510   -1.0484    3.8487 H   0  0  0  0  0  0  0  0  0  0  0  0
   -5.1511   -2.3015   -0.2805 H   0  0  0  0  0  0  0  0  0  0  0  0
   -6.7124   -2.1199    0.5608 H   0  0  0  0  0  0  0  0  0  0  0  0
   -2.5660   -6.2644   -0.9509 H   0  0  0  0  0  0  0  0  0  0  0  0
   -3.8585   -5.7350   -2.0639 H   0  0  0  0  0  0  0  0  0  0  0  0
   -3.4668   -3.4606   -0.5349 H   0  0  0  0  0  0  0  0  0  0  0  0
   -3.2191   -4.8355    0.6665 H   0  0  0  0  0  0  0  0  0  0  0  0
   -5.2184   -5.9057    0.0915 H   0  0  0  0  0  0  0  0  0  0  0  0
   -5.6094   -4.7584   -1.2122 H   0  0  0  0  0  0  0  0  0  0  0  0
   -5.5136   -4.3729    1.8449 H   0  0  0  0  0  0  0  0  0  0  0  0
   -6.9325   -4.3439    0.7858 H   0  0  0  0  0  0  0  0  0  0  0  0
    5.4927    1.6616   -3.9484 H   0  0  0  0  0  0  0  0  0  0  0  0
    3.6923    0.4113   -4.8612 H   0  0  0  0  0  0  0  0  0  0  0  0
    2.4535    1.6084   -4.4610 H   0  0  0  0  0  0  0  0  0  0  0  0
    3.9332   -0.2662   -2.5403 H   0  0  0  0  0  0  0  0  0  0  0  0
    2.2085   -0.2414   -2.9924 H   0  0  0  0  0  0  0  0  0  0  0  0
    2.0093    2.0698   -1.9719 H   0  0  0  0  0  0  0  0  0  0  0  0
    4.0974    2.7900   -0.5925 H   0  0  0  0  0  0  0  0  0  0  0  0
    5.2678    3.5983   -2.6050 H   0  0  0  0  0  0  0  0  0  0  0  0
    1.8956    1.4531    0.1868 H   0  0  0  0  0  0  0  0  0  0  0  0
    3.3916   -0.7560    0.8403 H   0  0  0  0  0  0  0  0  0  0  0  0
    3.7108    0.9090    1.3191 H   0  0  0  0  0  0  0  0  0  0  0  0
    5.1874   -0.7925   -0.5727 H   0  0  0  0  0  0  0  0  0  0  0  0
    6.1106    1.4267   -1.4497 H   0  0  0  0  0  0  0  0  0  0  0  0
    7.0810    0.5234    0.2787 H   0  0  0  0  0  0  0  0  0  0  0  0
    6.8655    2.3247    3.7402 H   0  0  0  0  0  0  0  0  0  0  0  0
    5.1573    1.6078    3.7959 H   0  0  0  0  0  0  0  0  0  0  0  0
    7.7915    0.4207    2.7385 H   0  0  0  0  0  0  0  0  0  0  0  0
    5.0065   -0.4268    2.1438 H   0  0  0  0  0  0  0  0  0  0  0  0
    5.4715   -0.7301    4.3921 H   0  0  0  0  0  0  0  0  0  0  0  0
    8.3009    0.1588    5.1792 H   0  0  0  0  0  0  0  0  0  0  0  0
    6.8035    1.1192    5.4973 H   0  0  0  0  0  0  0  0  0  0  0  0
    7.0172   -0.4607    6.3094 H   0  0  0  0  0  0  0  0  0  0  0  0
    7.9790   -1.7909    3.0955 H   0  0  0  0  0  0  0  0  0  0  0  0
    7.6948   -2.2618    4.8171 H   0  0  0  0  0  0  0  0  0  0  0  0
    6.4474   -2.6350    3.5483 H   0  0  0  0  0  0  0  0  0  0  0  0
    5.4885    3.6573   -6.6684 H   0  0  0  0  0  0  0  0  0  0  0  0
    6.4368    3.2729   -5.1964 H   0  0  0  0  0  0  0  0  0  0  0  0
    5.6499    1.9234   -6.1951 H   0  0  0  0  0  0  0  0  0  0  0  0
    2.3365    3.3956   -3.4857 H   0  0  0  0  0  0  0  0  0  0  0  0
    3.4134    4.8040   -3.3363 H   0  0  0  0  0  0  0  0  0  0  0  0
    2.7285    4.0960   -1.8262 H   0  0  0  0  0  0  0  0  0  0  0  0
   -5.5194    1.6605    2.4127 H   0  0  0  0  0  0  0  0  0  0  0  0
   -6.9568    0.6578    0.9897 H   0  0  0  0  0  0  0  0  0  0  0  0
   -7.7115    3.2969    1.5171 H   0  0  0  0  0  0  0  0  0  0  0  0
   -3.8147    4.0329    1.7065 H   0  0  0  0  0  0  0  0  0  0  0  0
   -6.6022    2.9307   -1.2534 H   0  0  0  0  0  0  0  0  0  0  0  0
   -7.1189    5.1535    3.1744 H   0  0  0  0  0  0  0  0  0  0  0  0
   -5.3934    5.1580    2.4844 H   0  0  0  0  0  0  0  0  0  0  0  0
   -8.0160    5.7185    0.8895 H   0  0  0  0  0  0  0  0  0  0  0  0
   -6.3105    5.7266    0.1602 H   0  0  0  0  0  0  0  0  0  0  0  0
  1  2  1  0
  2  3  1  0
  3  4  1  0
  1  5  1  0
  4  5  1  0
  3  6  1  0
  6  7  1  0
  6  8  1  0
  2  9  1  0
  9 10  1  0
  9 13  1  0
 13 14  1  0
 13 15  1  0
  8 16  1  0
 11 16  1  0
 16 12  1  6
 11 17  1  0
 16 17  1  0
 11 18  1  0
 14 19  1  0
 19 20  1  0
 20 21  1  0
 18 22  1  0
 21 22  1  0
  5 23  1  0
 24 25  1  0
 25 26  1  0
 26 27  1  0
 27 28  1  0
 24 29  1  0
 28 29  1  0
 23 30  1  0
 27 30  1  0
 30 31  1  0
 31 32  1  0
 28 33  1  0
 32 33  1  0
 32 34  1  0
 34 35  1  0
 35 36  1  0
 36 37  1  0
 34 38  1  0
 37 38  1  0
 37 39  1  0
 39 40  1  0
 39 41  1  0
 24 42  1  0
 42 43  1  0
 29 44  1  0
 12 45  1  0
 12 46  1  0
 45 47  1  0
 47 48  1  0
 47 49  1  0
 47 50  1  0
 48 51  1  0
 48 52  1  0
 51 52  1  0
 53 54  1  0
 54 55  1  0
 55 56  1  0
 53 57  1  0
 56 57  1  0
 55 58  1  0
 58 59  1  0
 58 60  1  0
 54 61  1  0
 61 62  1  0
 61 65  1  0
 65 66  1  0
 65 67  1  0
 68 60  1  1
 63 68  1  0
 64 68  1  0
 63 69  1  0
 68 69  1  0
 63 70  1  0
 66 71  1  0
 71 72  1  0
 72 73  1  0
 70 74  1  0
 73 74  1  0
 57 75  1  0
 76 77  1  0
 77 78  1  0
 78 79  1  0
 79 80  1  0
 76 81  1  0
 80 81  1  0
 75 82  1  0
 79 82  1  0
 82 83  1  0
 83 84  1  0
 80 85  1  0
 84 85  1  0
 84 86  1  0
 86 87  1  0
 87 88  1  0
 88 89  1  0
 86 90  1  0
 89 90  1  0
 89 91  1  0
 91 92  1  0
 91 93  1  0
 76 94  1  0
 94 95  1  0
 81 96  1  0
 64 97  1  0
 64 98  1  0
 97 99  1  0
 99100  1  0
 99101  1  0
 99102  1  0
100103  1  0
100104  1  0
103104  1  0
105106  1  0
106107  1  0
107108  1  0
105109  1  0
108109  1  0
107110  1  0
110111  1  0
110112  1  0
106113  1  0
113114  1  0
113117  1  0
117118  1  0
117119  1  0
120112  1  1
115120  1  0
116120  1  0
115121  1  0
120121  1  0
115122  1  0
118123  1  0
123124  1  0
124125  1  0
122126  1  0
125126  1  0
109127  1  0
128129  1  0
129130  1  0
130131  1  0
131132  1  0
128133  1  0
132133  1  0
127134  1  0
131134  1  0
134135  1  0
135136  1  0
132137  1  0
136137  1  0
136138  1  0
138139  1  0
139140  1  0
140141  1  0
138142  1  0
141142  1  0
141143  1  0
143144  1  0
143145  1  0
128146  1  0
146147  1  0
133148  1  0
116149  1  0
116150  1  0
149151  1  0
151152  1  0
151153  1  0
151154  1  0
152155  1  0
152156  1  0
155156  1  0
157158  1  0
158159  1  0
159160  1  0
157161  1  0
160161  1  0
159162  1  0
162163  1  0
162164  1  0
158165  1  0
165166  1  0
165169  1  0
169170  1  0
169171  1  0
164172  1  0
167172  1  0
172168  1  6
167173  1  0
172173  1  0
167174  1  0
170175  1  0
175176  1  0
176177  1  0
174178  1  0
177178  1  0
161179  1  0
180181  1  0
181182  1  0
182183  1  0
183184  1  0
180185  1  0
184185  1  0
179186  1  0
183186  1  0
186187  1  0
187188  1  0
184189  1  0
188189  1  0
188190  1  0
190191  1  0
191192  1  0
192193  1  0
190194  1  0
193194  1  0
193195  1  0
195196  1  0
195197  1  0
180198  1  0
198199  1  0
185200  1  0
168201  1  0
168202  1  0
201203  1  0
203204  1  0
203205  1  0
203206  1  0
204207  1  0
204208  1  0
207208  1  0
  1209  1  0
  1210  1  0
  2211  1  6
  3212  1  1
  4213  1  0
  4214  1  0
  5215  1  1
  6216  1  1
  7217  1  0
  8218  1  0
  9219  1  0
 10220  1  0
 11221  1  1
 12222  1  0
 14223  1  0
 14224  1  0
 15225  1  0
 15226  1  0
 15227  1  0
 17228  1  0
 17229  1  0
 18230  1  0
 18231  1  0
 19232  1  0
 19233  1  0
 20234  1  0
 20235  1  0
 21236  1  0
 21237  1  0
 22238  1  0
 22239  1  0
 24240  1  0
 25241  1  0
 25242  1  0
 26243  1  0
 26244  1  0
 27245  1  0
 28246  1  0
 29247  1  0
 30248  1  0
 31249  1  0
 31250  1  0
 32251  1  6
 33252  1  0
 34253  1  6
 36254  1  0
 36255  1  0
 37256  1  6
 38257  1  0
 39258  1  0
 40259  1  0
 40260  1  0
 40261  1  0
 41262  1  0
 41263  1  0
 41264  1  0
 43265  1  0
 43266  1  0
 43267  1  0
 44268  1  0
 44269  1  0
 44270  1  0
 45271  1  0
 46272  1  0
 48273  1  0
 49274  1  0
 50275  1  0
 51276  1  0
 51277  1  0
 52278  1  0
 52279  1  0
 53280  1  0
 53281  1  0
 54282  1  1
 55283  1  6
 56284  1  0
 56285  1  0
 57286  1  1
 58287  1  0
 59288  1  0
 60289  1  0
 61290  1  0
 62291  1  0
 63292  1  1
 64293  1  6
 66294  1  0
 66295  1  0
 67296  1  0
 67297  1  0
 67298  1  0
 69299  1  0
 69300  1  0
 70301  1  0
 70302  1  0
 71303  1  0
 71304  1  0
 72305  1  0
 72306  1  0
 73307  1  0
 73308  1  0
 74309  1  0
 74310  1  0
 76311  1  0
 77312  1  0
 77313  1  0
 78314  1  0
 78315  1  0
 79316  1  0
 80317  1  0
 81318  1  0
 82319  1  0
 83320  1  0
 83321  1  0
 84322  1  0
 85323  1  0
 86324  1  0
 88325  1  0
 88326  1  0
 89327  1  0
 90328  1  0
 91329  1  0
 92330  1  0
 92331  1  0
 92332  1  0
 93333  1  0
 93334  1  0
 93335  1  0
 95336  1  0
 95337  1  0
 95338  1  0
 96339  1  0
 96340  1  0
 96341  1  0
 97342  1  0
 98343  1  0
100344  1  0
101345  1  0
102346  1  0
103347  1  0
103348  1  0
104349  1  0
104350  1  0
105351  1  0
105352  1  0
106353  1  6
107354  1  6
108355  1  0
108356  1  0
109357  1  1
110358  1  0
111359  1  0
112360  1  0
113361  1  0
114362  1  0
115363  1  1
116364  1  6
118365  1  0
118366  1  0
119367  1  0
119368  1  0
119369  1  0
121370  1  0
121371  1  0
122372  1  0
122373  1  0
123374  1  0
123375  1  0
124376  1  0
124377  1  0
125378  1  0
125379  1  0
126380  1  0
126381  1  0
128382  1  0
129383  1  0
129384  1  0
130385  1  0
130386  1  0
131387  1  0
132388  1  0
133389  1  0
134390  1  0
135391  1  0
135392  1  0
136393  1  0
137394  1  0
138395  1  0
140396  1  0
140397  1  0
141398  1  1
142399  1  0
143400  1  0
144401  1  0
144402  1  0
144403  1  0
145404  1  0
145405  1  0
145406  1  0
147407  1  0
147408  1  0
147409  1  0
148410  1  0
148411  1  0
148412  1  0
149413  1  0
150414  1  0
152415  1  0
153416  1  0
154417  1  0
155418  1  0
155419  1  0
156420  1  0
156421  1  0
157422  1  0
157423  1  0
158424  1  1
159425  1  1
160426  1  0
160427  1  0
161428  1  1
162429  1  0
163430  1  0
164431  1  0
165432  1  0
166433  1  0
167434  1  1
168435  1  0
170436  1  0
170437  1  0
171438  1  0
171439  1  0
171440  1  0
173441  1  0
173442  1  0
174443  1  0
174444  1  0
175445  1  0
175446  1  0
176447  1  0
176448  1  0
177449  1  0
177450  1  0
178451  1  0
178452  1  0
180453  1  0
181454  1  0
181455  1  0
182456  1  0
182457  1  0
183458  1  0
184459  1  0
185460  1  0
186461  1  0
187462  1  0
187463  1  0
188464  1  6
189465  1  0
190466  1  6
192467  1  0
192468  1  0
193469  1  0
194470  1  0
195471  1  0
196472  1  0
196473  1  0
196474  1  0
197475  1  0
197476  1  0
197477  1  0
199478  1  0
199479  1  0
199480  1  0
200481  1  0
200482  1  0
200483  1  0
201484  1  0
202485  1  0
204486  1  0
205487  1  0
206488  1  0
207489  1  0
207490  1  0
208491  1  0
208492  1  0
M  END
>  <PDBID>  (1) 
3KEE

>  <PDB ID>  (1) 
3KEE

>  <Generic Name>  (1) 
Simeprevir

>  <Brand Name>  (1) 
Galexos#Olysio

>  <DrugBank ID>  (1) 
DB06290

>  <ATC Codes>  (1) 
J05AE14

>  <Ligand ID>  (1) 
30B

>  <Target Name>  (1) 
NS3 protease

>  <UniProt ID>  (1) 
Q91RS4

>  <PDB ID.1>  (1) 
3KEE

>  <Seq. Identity>  (1) 
82%

$$$$
