PDB_DB01167_08
     RDKit          3D

113119  0  0  0  0  0  0  0  0999 V2000
    6.5578   -2.7223    0.2449 C   0  0  0  0  0  0  0  0  0  0  0  0
    7.4685   -1.8770   -0.5694 C   0  0  0  0  0  0  0  0  0  0  0  0
   12.7908    0.6036   -0.2752 C   0  0  0  0  0  0  0  0  0  0  0  0
   11.6857    1.4779   -0.8463 C   0  0  0  0  0  0  0  0  0  0  0  0
   10.4941    1.5249    0.1053 C   0  0  1  0  0  0  0  0  0  0  0  0
    9.4672    2.3950   -0.5181 C   0  0  0  0  0  0  0  0  0  0  0  0
   10.0760    0.2526    0.5296 N   0  0  0  0  0  0  0  0  0  0  0  0
    9.5727   -0.6761   -0.4044 C   0  0  0  0  0  0  0  0  0  0  0  0
    9.5764   -0.2795   -1.7333 O   0  0  0  0  0  0  0  0  0  0  0  0
    8.2302   -0.9028    0.0876 N   0  0  0  0  0  0  0  0  0  0  0  0
    8.4204   -0.9735    1.4906 C   0  0  0  0  0  0  0  0  0  0  0  0
    9.3613    0.1567    1.6951 N   0  0  0  0  0  0  0  0  0  0  0  0
    5.3962   -2.0242    0.8472 C   0  0  0  0  0  0  0  0  0  0  0  0
    4.9884   -0.7236    0.2732 C   0  0  0  0  0  0  0  0  0  0  0  0
    5.9507   -0.0331   -0.6197 C   0  0  0  0  0  0  0  0  0  0  0  0
    6.5477   -1.1011   -1.5457 C   0  0  0  0  0  0  0  0  0  0  0  0
    3.6246   -0.7884   -0.2919 N   0  0  0  0  0  0  0  0  0  0  0  0
    3.2852    0.4071   -0.9938 C   0  0  0  0  0  0  0  0  0  0  0  0
    1.7923    0.5075   -1.2434 C   0  0  0  0  0  0  0  0  0  0  0  0
    1.0306    0.3168   -0.0558 N   0  0  0  0  0  0  0  0  0  0  0  0
    1.8564    0.1680    1.0942 C   0  0  0  0  0  0  0  0  0  0  0  0
    2.7777   -1.0166    0.8829 C   0  0  0  0  0  0  0  0  0  0  0  0
    0.0157   -0.6520   -0.2506 C   0  0  0  0  0  0  0  0  0  0  0  0
   -1.0218   -0.1939   -1.2130 C   0  0  0  0  0  0  0  0  0  0  0  0
   -2.0192    0.8023   -0.6467 C   0  0  0  0  0  0  0  0  0  0  0  0
   -2.6259    0.2294    0.5888 C   0  0  0  0  0  0  0  0  0  0  0  0
   -1.3952    0.0802    1.5646 C   0  0  0  0  0  0  0  0  0  0  0  0
   -0.6476   -1.0944    1.0372 C   0  0  0  0  0  0  0  0  0  0  0  0
   -3.1375   -0.9970    0.3541 O   0  0  0  0  0  0  0  0  0  0  0  0
   -4.2491   -1.4599    0.9047 C   0  0  0  0  0  0  0  0  0  0  0  0
   -5.5738   -0.8746    0.8186 C   0  0  1  0  0  0  0  0  0  0  0  0
   -5.7735    0.4926    1.4676 C   0  0  0  0  0  0  0  0  0  0  0  0
   -7.1768    0.4947    1.3517 O   0  0  0  0  0  0  0  0  0  0  0  0
   -7.4433    0.0416    0.0533 C   0  0  2  0  0  0  0  0  0  0  0  0
   -6.2214   -0.6653   -0.3430 O   0  0  0  0  0  0  0  0  0  0  0  0
   -7.4219    1.2167   -0.8227 C   0  0  0  0  0  0  0  0  0  0  0  0
   -8.2326    2.3351   -0.5111 N   0  0  0  0  0  0  0  0  0  0  0  0
   -9.6238    2.2817   -0.5890 C   0  0  0  0  0  0  0  0  0  0  0  0
  -10.0380    3.6857   -0.4944 N   0  0  0  0  0  0  0  0  0  0  0  0
   -8.8374    4.4447   -0.7540 C   0  0  0  0  0  0  0  0  0  0  0  0
   -7.8529    3.4776   -1.2238 N   0  0  0  0  0  0  0  0  0  0  0  0
   -8.5562   -0.9332    0.0860 C   0  0  0  0  0  0  0  0  0  0  0  0
   -9.2295   -1.0799    1.4304 C   0  0  0  0  0  0  0  0  0  0  0  0
  -10.7007   -0.9724    1.4886 C   0  0  0  0  0  0  0  0  0  0  0  0
  -11.2776   -1.7865    0.3352 C   0  0  0  0  0  0  0  0  0  0  0  0
  -10.9226   -0.9674   -0.8867 C   0  0  0  0  0  0  0  0  0  0  0  0
   -9.4624   -0.9661   -1.0785 C   0  0  0  0  0  0  0  0  0  0  0  0
  -10.6585   -3.4265    0.2976 Cl  0  0  0  0  0  0  0  0  0  0  0  0
   -8.7713   -2.6644    2.2178 Cl  0  0  0  0  0  0  0  0  0  0  0  0
    7.1347   -3.2363    1.0336 H   0  0  0  0  0  0  0  0  0  0  0  0
    6.2137   -3.5606   -0.4332 H   0  0  0  0  0  0  0  0  0  0  0  0
    8.1260   -2.5399   -1.1648 H   0  0  0  0  0  0  0  0  0  0  0  0
   13.7317    1.1476   -0.1045 H   0  0  0  0  0  0  0  0  0  0  0  0
   12.9480   -0.3273   -0.8214 H   0  0  0  0  0  0  0  0  0  0  0  0
   12.4485    0.2963    0.7580 H   0  0  0  0  0  0  0  0  0  0  0  0
   11.4196    1.0818   -1.8301 H   0  0  0  0  0  0  0  0  0  0  0  0
   12.1082    2.4993   -0.9943 H   0  0  0  0  0  0  0  0  0  0  0  0
   10.9109    2.0482    1.0202 H   0  0  0  0  0  0  0  0  0  0  0  0
    9.3917    3.3559    0.0659 H   0  0  0  0  0  0  0  0  0  0  0  0
    9.7498    2.7299   -1.5405 H   0  0  0  0  0  0  0  0  0  0  0  0
    8.4356    1.9982   -0.5015 H   0  0  0  0  0  0  0  0  0  0  0  0
   10.1314   -1.6484   -0.2566 H   0  0  0  0  0  0  0  0  0  0  0  0
   10.0300   -0.9877   -2.2508 H   0  0  0  0  0  0  0  0  0  0  0  0
    7.5566   -0.7142    2.1224 H   0  0  0  0  0  0  0  0  0  0  0  0
    8.9212   -1.9284    1.8282 H   0  0  0  0  0  0  0  0  0  0  0  0
    9.8726    0.0610    2.5698 H   0  0  0  0  0  0  0  0  0  0  0  0
    5.5331   -1.9750    1.9687 H   0  0  0  0  0  0  0  0  0  0  0  0
    4.5126   -2.7293    0.7557 H   0  0  0  0  0  0  0  0  0  0  0  0
    4.8442   -0.0162    1.1547 H   0  0  0  0  0  0  0  0  0  0  0  0
    5.4861    0.7899   -1.1538 H   0  0  0  0  0  0  0  0  0  0  0  0
    6.7793    0.3472    0.0185 H   0  0  0  0  0  0  0  0  0  0  0  0
    7.1351   -0.6228   -2.3341 H   0  0  0  0  0  0  0  0  0  0  0  0
    5.7553   -1.7765   -1.8621 H   0  0  0  0  0  0  0  0  0  0  0  0
    3.7431    0.3045   -2.0177 H   0  0  0  0  0  0  0  0  0  0  0  0
    3.5976    1.3302   -0.4896 H   0  0  0  0  0  0  0  0  0  0  0  0
    1.5945    1.5177   -1.6487 H   0  0  0  0  0  0  0  0  0  0  0  0
    1.5648   -0.2224   -2.0580 H   0  0  0  0  0  0  0  0  0  0  0  0
    2.4474    1.1228    1.1951 H   0  0  0  0  0  0  0  0  0  0  0  0
    1.3300    0.0415    2.0353 H   0  0  0  0  0  0  0  0  0  0  0  0
    2.1559   -1.9115    0.7585 H   0  0  0  0  0  0  0  0  0  0  0  0
    3.3373   -1.1376    1.8136 H   0  0  0  0  0  0  0  0  0  0  0  0
    0.4994   -1.5526   -0.7095 H   0  0  0  0  0  0  0  0  0  0  0  0
   -0.6054    0.1805   -2.1719 H   0  0  0  0  0  0  0  0  0  0  0  0
   -1.6390   -1.1014   -1.4890 H   0  0  0  0  0  0  0  0  0  0  0  0
   -2.7709    0.9496   -1.4695 H   0  0  0  0  0  0  0  0  0  0  0  0
   -1.4993    1.7813   -0.4527 H   0  0  0  0  0  0  0  0  0  0  0  0
   -3.2420    0.9615    1.1215 H   0  0  0  0  0  0  0  0  0  0  0  0
   -1.7296    0.0438    2.5952 H   0  0  0  0  0  0  0  0  0  0  0  0
   -0.8130    0.9991    1.3960 H   0  0  0  0  0  0  0  0  0  0  0  0
    0.0546   -1.5298    1.7765 H   0  0  0  0  0  0  0  0  0  0  0  0
   -1.3159   -1.9585    0.7493 H   0  0  0  0  0  0  0  0  0  0  0  0
   -4.0954   -1.7149    2.0235 H   0  0  0  0  0  0  0  0  0  0  0  0
   -4.3628   -2.5483    0.5100 H   0  0  0  0  0  0  0  0  0  0  0  0
   -6.2720   -1.5476    1.4909 H   0  0  0  0  0  0  0  0  0  0  0  0
   -5.4363    1.2724    0.7749 H   0  0  0  0  0  0  0  0  0  0  0  0
   -5.4014    0.5761    2.4742 H   0  0  0  0  0  0  0  0  0  0  0  0
   -6.3647    1.6566   -0.8915 H   0  0  0  0  0  0  0  0  0  0  0  0
   -7.5980    0.9964   -1.9132 H   0  0  0  0  0  0  0  0  0  0  0  0
   -9.9557    1.9536   -1.6111 H   0  0  0  0  0  0  0  0  0  0  0  0
  -10.1166    1.7053    0.2224 H   0  0  0  0  0  0  0  0  0  0  0  0
  -10.3166    3.8307    0.5212 H   0  0  0  0  0  0  0  0  0  0  0  0
   -9.0358    5.2383   -1.4945 H   0  0  0  0  0  0  0  0  0  0  0  0
   -8.4363    4.8732    0.2114 H   0  0  0  0  0  0  0  0  0  0  0  0
   -8.0896    3.3103   -2.2365 H   0  0  0  0  0  0  0  0  0  0  0  0
   -8.0047   -1.9538    0.0218 H   0  0  0  0  0  0  0  0  0  0  0  0
   -8.7961   -0.3296    2.1598 H   0  0  0  0  0  0  0  0  0  0  0  0
  -11.0230   -1.5387    2.4104 H   0  0  0  0  0  0  0  0  0  0  0  0
  -11.0712    0.0403    1.4785 H   0  0  0  0  0  0  0  0  0  0  0  0
  -12.3954   -1.8318    0.4432 H   0  0  0  0  0  0  0  0  0  0  0  0
  -11.4213    0.0081   -0.7154 H   0  0  0  0  0  0  0  0  0  0  0  0
  -11.4141   -1.4791   -1.7534 H   0  0  0  0  0  0  0  0  0  0  0  0
   -9.1068   -0.2289   -1.8375 H   0  0  0  0  0  0  0  0  0  0  0  0
   -9.2673   -1.9401   -1.6490 H   0  0  0  0  0  0  0  0  0  0  0  0
  1  2  1  0
  3  4  1  0
  4  5  1  0
  5  6  1  0
  5  7  1  0
  7  8  1  0
  8  9  1  0
  2 10  1  0
  8 10  1  0
 10 11  1  0
  7 12  1  0
 11 12  1  0
  1 13  1  0
 13 14  1  0
 14 15  1  0
  2 16  1  0
 15 16  1  0
 14 17  1  0
 17 18  1  0
 18 19  1  0
 19 20  1  0
 20 21  1  0
 17 22  1  0
 21 22  1  0
 20 23  1  0
 23 24  1  0
 24 25  1  0
 25 26  1  0
 26 27  1  0
 23 28  1  0
 27 28  1  0
 26 29  1  0
 29 30  1  0
 30 31  1  0
 31 32  1  0
 32 33  1  0
 33 34  1  0
 31 35  1  0
 34 35  1  0
 34 36  1  6
 36 37  1  0
 37 38  1  0
 38 39  1  0
 40 39  1  0
 37 41  1  0
 40 41  1  0
 34 42  1  0
 42 43  1  0
 43 44  1  0
 44 45  1  0
 45 46  1  0
 42 47  1  0
 46 47  1  0
 45 48  1  0
 43 49  1  0
  1 50  1  0
  1 51  1  0
  2 52  1  0
  3 53  1  0
  3 54  1  0
  3 55  1  0
  4 56  1  0
  4 57  1  0
  5 58  1  1
  6 59  1  0
  6 60  1  0
  6 61  1  0
  8 62  1  0
  9 63  1  0
 11 64  1  0
 11 65  1  0
 12 66  1  0
 13 67  1  0
 13 68  1  0
 14 69  1  0
 15 70  1  0
 15 71  1  0
 16 72  1  0
 16 73  1  0
 18 74  1  0
 18 75  1  0
 19 76  1  0
 19 77  1  0
 21 78  1  0
 21 79  1  0
 22 80  1  0
 22 81  1  0
 23 82  1  0
 24 83  1  0
 24 84  1  0
 25 85  1  0
 25 86  1  0
 26 87  1  0
 27 88  1  0
 27 89  1  0
 28 90  1  0
 28 91  1  0
 30 92  1  0
 30 93  1  0
 31 94  1  1
 32 95  1  0
 32 96  1  0
 36 97  1  0
 36 98  1  0
 38 99  1  0
 38100  1  0
 39101  1  0
 40102  1  0
 40103  1  0
 41104  1  0
 42105  1  0
 43106  1  0
 44107  1  0
 44108  1  0
 45109  1  0
 46110  1  0
 46111  1  0
 47112  1  0
 47113  1  0
M  END
>  <PDBID>  (1) 
5JLC

>  <PDB ID>  (1) 
5JLC

>  <Generic Name>  (1) 
Itraconazole

>  <Brand Name>  (1) 
Itraconazole#Onmel#Sporanox#Sporanox Oral Solution 10mg/ml#Itrizole#Oriconazole#Sporal

>  <DrugBank ID>  (1) 
DB01167

>  <ATC Codes>  (1) 
J02AC02

>  <Ligand ID>  (1) 
1YN

>  <Target Name>  (1) 
Lanosterol 14-alpha demethylase

>  <UniProt ID>  (1) 
P50859

>  <PDB ID.1>  (1) 
5JLC

>  <Seq. Identity>  (1) 
97%

$$$$
