PDB_DB00951_09
     RDKit          3D

 25 25  0  0  0  0  0  0  0  0999 V2000
   -1.4222   -0.1920    0.1353 C   0  0  2  0  0  0  0  0  0  0  0  0
   -0.0071   -0.1585   -0.2557 C   0  0  0  0  0  0  0  0  0  0  0  0
    2.7923   -0.1492   -0.0110 N   0  0  0  0  0  0  0  0  0  0  0  0
   -1.9207   -1.4804   -0.0685 O   0  0  0  0  0  0  0  0  0  0  0  0
    0.7403   -1.1715    0.6209 C   0  0  0  0  0  0  0  0  0  0  0  0
   -2.2980    0.7294   -0.4940 N   0  0  0  0  0  0  0  0  0  0  0  0
    2.0855   -1.3472   -0.0021 C   0  0  0  0  0  0  0  0  0  0  0  0
   -3.6074    0.6669   -0.1031 N   0  0  0  0  0  0  0  0  0  0  0  0
    2.1354    1.0578    0.2447 C   0  0  0  0  0  0  0  0  0  0  0  0
    0.6992    1.1336   -0.1689 C   0  0  0  0  0  0  0  0  0  0  0  0
   -1.5000   -0.0220    1.2497 H   0  0  0  0  0  0  0  0  0  0  0  0
    0.0930   -0.5722   -1.3027 H   0  0  0  0  0  0  0  0  0  0  0  0
    3.7777   -0.1405   -0.2384 H   0  0  0  0  0  0  0  0  0  0  0  0
   -2.7876   -1.6276    0.3572 H   0  0  0  0  0  0  0  0  0  0  0  0
    0.8123   -0.7424    1.6494 H   0  0  0  0  0  0  0  0  0  0  0  0
    0.1352   -2.1056    0.6192 H   0  0  0  0  0  0  0  0  0  0  0  0
   -1.9218    1.6572   -0.7063 H   0  0  0  0  0  0  0  0  0  0  0  0
    2.6534   -2.1366    0.5637 H   0  0  0  0  0  0  0  0  0  0  0  0
    1.9403   -1.7247   -1.0358 H   0  0  0  0  0  0  0  0  0  0  0  0
   -4.1533   -0.0055   -0.6870 H   0  0  0  0  0  0  0  0  0  0  0  0
   -4.0121    1.6151   -0.0758 H   0  0  0  0  0  0  0  0  0  0  0  0
    2.6763    1.8907   -0.2908 H   0  0  0  0  0  0  0  0  0  0  0  0
    2.2602    1.3157    1.3363 H   0  0  0  0  0  0  0  0  0  0  0  0
    0.2182    1.8604    0.5511 H   0  0  0  0  0  0  0  0  0  0  0  0
    0.6109    1.6489   -1.1639 H   0  0  0  0  0  0  0  0  0  0  0  0
  1  2  1  0
  1  4  1  0
  2  5  1  0
  1  6  1  0
  3  7  1  0
  5  7  1  0
  6  8  1  0
  3  9  1  0
  2 10  1  0
  9 10  1  0
  1 11  1  1
  2 12  1  0
  3 13  1  0
  4 14  1  0
  5 15  1  0
  5 16  1  0
  6 17  1  0
  7 18  1  0
  7 19  1  0
  8 20  1  0
  8 21  1  0
  9 22  1  0
  9 23  1  0
 10 24  1  0
 10 25  1  0
M  END
>  <PDBID>  (1) 
5KSG

>  <PDB ID>  (1) 
5KSG

>  <Generic Name>  (1) 
Isoniazid

>  <Brand Name>  (1) 
Dom-isoniazid 300mg Tablets#Isonarif#Isoniazid#Isoniazid Syrup 50mg/5ml#Isoniazid Tab 100mg#Isoniazid Tab 300mg#Isoniazid Tab 50mg#Isoniazide 100mg Tablets#Isotamine B 300#Isotamine Powder#Isotamine Syr Pediatric 50mg/5ml#Isotamine-100#Isotamine-300#Pdp-isoniazid#Rifamate#Rifater#Nicozid#Nidrazid#Nydrazid#Rimicid#Rimifon#Servizid#Tibinide

>  <DrugBank ID>  (1) 
DB00951

>  <ATC Codes>  (1) 
J04AM04#J04AM02#J04AM06#J04AM03#J04AM05#J04AM01#J04AC51#J04AC01

>  <Ligand ID>  (1) 
NIZ

>  <Target Name>  (1) 
Catalase-peroxidase

>  <UniProt ID>  (1) 
Q08129

>  <PDB ID.1>  (1) 
5KSG

>  <Seq. Identity>  (1) 
66%

$$$$
