PDB_DB00284_03
     RDKit          3D

 89 92  0  0  0  0  0  0  0  0999 V2000
   -5.5063    0.9313   -1.4732 C   0  0  2  0  0  0  0  0  0  0  0  0
   -6.0729    0.0223   -2.5095 C   0  0  1  0  0  0  0  0  0  0  0  0
   -7.5009    0.4490   -2.8950 C   0  0  2  0  0  0  0  0  0  0  0  0
   -8.3898    0.6851   -1.7279 C   0  0  1  0  0  0  0  0  0  0  0  0
   -7.7179    1.4327   -0.6073 C   0  0  0  0  0  0  0  0  0  0  0  0
   -8.6093    2.4145    0.0835 C   0  0  0  0  0  0  0  0  0  0  0  0
   -6.4846    2.1117   -1.2118 C   0  0  0  0  0  0  0  0  0  0  0  0
   -5.3486    0.1755   -3.7075 O   0  0  0  0  0  0  0  0  0  0  0  0
   -8.0217   -0.5889   -3.6644 O   0  0  0  0  0  0  0  0  0  0  0  0
   -9.4301    1.5323   -2.1828 O   0  0  0  0  0  0  0  0  0  0  0  0
   -7.8687    3.0310    1.0936 O   0  0  0  0  0  0  0  0  0  0  0  0
   -0.4473   -0.2441   -0.9700 C   0  0  2  0  0  0  0  0  0  0  0  0
   -1.5559   -1.2488   -1.0784 C   0  0  1  0  0  0  0  0  0  0  0  0
   -2.6673   -0.6007   -1.9656 C   0  0  2  0  0  0  0  0  0  0  0  0
   -3.0957    0.6153   -1.2704 C   0  0  1  0  0  0  0  0  0  0  0  0
   -1.8307    1.5524   -1.3008 C   0  0  1  0  0  0  0  0  0  0  0  0
   -1.6938    2.2631    0.0213 C   0  0  0  0  0  0  0  0  0  0  0  0
   -4.2038    1.3685   -1.5368 N   0  0  0  0  0  0  0  0  0  0  0  0
   -1.1378   -2.4144   -1.7249 O   0  0  0  0  0  0  0  0  0  0  0  0
   -3.6329   -1.5979   -2.1454 O   0  0  0  0  0  0  0  0  0  0  0  0
   -0.7177    0.8968   -1.7329 O   0  0  0  0  0  0  0  0  0  0  0  0
    4.2214   -1.0827    0.5501 C   0  0  2  0  0  0  0  0  0  0  0  0
    3.2786   -2.2749    0.7778 C   0  0  1  0  0  0  0  0  0  0  0  0
    2.1944   -2.3446   -0.2916 C   0  0  2  0  0  0  0  0  0  0  0  0
    1.7250   -0.9447   -0.5500 C   0  0  1  0  0  0  0  0  0  0  0  0
    2.8551   -0.0501   -1.0044 C   0  0  1  0  0  0  0  0  0  0  0  0
    2.6747    1.3061   -0.4182 C   0  0  0  0  0  0  0  0  0  0  0  0
    4.0046   -3.4699    0.7626 O   0  0  0  0  0  0  0  0  0  0  0  0
    1.1285   -3.0445    0.2935 O   0  0  0  0  0  0  0  0  0  0  0  0
    0.6967   -0.8084   -1.4438 O   0  0  0  0  0  0  0  0  0  0  0  0
    4.0983   -0.6072   -0.7522 O   0  0  0  0  0  0  0  0  0  0  0  0
    3.5887    2.2371   -0.9015 O   0  0  0  0  0  0  0  0  0  0  0  0
    7.6147   -0.1212    3.6127 C   0  0  1  0  0  0  0  0  0  0  0  0
    7.6363   -1.6311    3.6577 C   0  0  1  0  0  0  0  0  0  0  0  0
    6.5579   -2.2281    2.7756 C   0  0  2  0  0  0  0  0  0  0  0  0
    6.2282   -1.1519    1.7536 C   0  0  1  0  0  0  0  0  0  0  0  0
    7.4832   -0.4285    1.3258 C   0  0  1  0  0  0  0  0  0  0  0  0
    7.1466    0.4467    0.1472 C   0  0  0  0  0  0  0  0  0  0  0  0
    8.6080    0.3239    4.4892 O   0  0  0  0  0  0  0  0  0  0  0  0
    8.9109   -2.0438    3.3326 O   0  0  0  0  0  0  0  0  0  0  0  0
    5.4686   -2.5108    3.5949 O   0  0  0  0  0  0  0  0  0  0  0  0
    5.4895   -1.5710    0.7108 O   0  0  0  0  0  0  0  0  0  0  0  0
    7.9171    0.4031    2.3603 O   0  0  0  0  0  0  0  0  0  0  0  0
    6.1354    1.3094    0.5642 O   0  0  0  0  0  0  0  0  0  0  0  0
   -5.6826    0.3175   -0.4831 H   0  0  0  0  0  0  0  0  0  0  0  0
   -6.1609   -1.0330   -2.2637 H   0  0  0  0  0  0  0  0  0  0  0  0
   -7.4010    1.3310   -3.5641 H   0  0  0  0  0  0  0  0  0  0  0  0
   -8.8561   -0.2338   -1.3428 H   0  0  0  0  0  0  0  0  0  0  0  0
   -7.3299    0.6669    0.1239 H   0  0  0  0  0  0  0  0  0  0  0  0
   -9.4738    1.8555    0.4898 H   0  0  0  0  0  0  0  0  0  0  0  0
   -8.9421    3.1740   -0.6485 H   0  0  0  0  0  0  0  0  0  0  0  0
   -6.0144    2.7028   -0.4051 H   0  0  0  0  0  0  0  0  0  0  0  0
   -6.6946    2.6542   -2.1319 H   0  0  0  0  0  0  0  0  0  0  0  0
   -5.3347    1.1343   -3.9723 H   0  0  0  0  0  0  0  0  0  0  0  0
   -7.7934   -0.5067   -4.6279 H   0  0  0  0  0  0  0  0  0  0  0  0
   -8.9691    2.3539   -2.5181 H   0  0  0  0  0  0  0  0  0  0  0  0
   -7.7568    2.3541    1.8057 H   0  0  0  0  0  0  0  0  0  0  0  0
   -0.3909    0.0362    0.1171 H   0  0  0  0  0  0  0  0  0  0  0  0
   -2.0241   -1.4939   -0.1045 H   0  0  0  0  0  0  0  0  0  0  0  0
   -2.1577   -0.3549   -2.9192 H   0  0  0  0  0  0  0  0  0  0  0  0
   -3.1136    0.3463   -0.1482 H   0  0  0  0  0  0  0  0  0  0  0  0
   -2.1034    2.3146   -2.0562 H   0  0  0  0  0  0  0  0  0  0  0  0
   -0.7048    2.7631    0.0123 H   0  0  0  0  0  0  0  0  0  0  0  0
   -2.4955    3.0380    0.0649 H   0  0  0  0  0  0  0  0  0  0  0  0
   -1.7249    1.5635    0.8817 H   0  0  0  0  0  0  0  0  0  0  0  0
   -4.0507    2.4050   -1.5946 H   0  0  0  0  0  0  0  0  0  0  0  0
   -1.9288   -3.0222   -1.7356 H   0  0  0  0  0  0  0  0  0  0  0  0
   -3.4382   -2.0148   -3.0401 H   0  0  0  0  0  0  0  0  0  0  0  0
    3.9205   -0.3366    1.3164 H   0  0  0  0  0  0  0  0  0  0  0  0
    2.8360   -2.2092    1.7914 H   0  0  0  0  0  0  0  0  0  0  0  0
    2.6237   -2.8626   -1.1451 H   0  0  0  0  0  0  0  0  0  0  0  0
    1.3746   -0.5354    0.4351 H   0  0  0  0  0  0  0  0  0  0  0  0
    2.7758    0.0634   -2.1164 H   0  0  0  0  0  0  0  0  0  0  0  0
    1.6647    1.6938   -0.6554 H   0  0  0  0  0  0  0  0  0  0  0  0
    2.7009    1.2089    0.6957 H   0  0  0  0  0  0  0  0  0  0  0  0
    4.5133   -3.5956   -0.0658 H   0  0  0  0  0  0  0  0  0  0  0  0
    1.5511   -3.7799    0.8380 H   0  0  0  0  0  0  0  0  0  0  0  0
    3.9037    1.8761   -1.7899 H   0  0  0  0  0  0  0  0  0  0  0  0
    6.6703    0.3097    3.9433 H   0  0  0  0  0  0  0  0  0  0  0  0
    7.4452   -1.9435    4.7003 H   0  0  0  0  0  0  0  0  0  0  0  0
    6.9119   -3.1632    2.3516 H   0  0  0  0  0  0  0  0  0  0  0  0
    5.6223   -0.3996    2.3385 H   0  0  0  0  0  0  0  0  0  0  0  0
    8.2799   -1.1320    1.0034 H   0  0  0  0  0  0  0  0  0  0  0  0
    6.7715   -0.1224   -0.7149 H   0  0  0  0  0  0  0  0  0  0  0  0
    8.0001    1.1100   -0.1335 H   0  0  0  0  0  0  0  0  0  0  0  0
    8.8114    1.2566    4.2984 H   0  0  0  0  0  0  0  0  0  0  0  0
    9.0405   -2.9397    3.7095 H   0  0  0  0  0  0  0  0  0  0  0  0
    5.0667   -1.6161    3.8239 H   0  0  0  0  0  0  0  0  0  0  0  0
    6.3290    2.2661    0.4114 H   0  0  0  0  0  0  0  0  0  0  0  0
  1  2  1  0
  2  3  1  0
  3  4  1  0
  4  5  1  0
  5  6  1  0
  1  7  1  0
  5  7  1  0
  2  8  1  0
  3  9  1  0
  4 10  1  0
  6 11  1  0
 12 13  1  0
 13 14  1  0
 14 15  1  0
 15 16  1  0
 16 17  1  0
  1 18  1  0
 15 18  1  0
 13 19  1  0
 14 20  1  0
 12 21  1  0
 16 21  1  0
 22 23  1  0
 23 24  1  0
 24 25  1  0
 25 26  1  0
 26 27  1  0
 23 28  1  0
 24 29  1  0
 12 30  1  0
 25 30  1  0
 22 31  1  0
 26 31  1  0
 27 32  1  0
 33 34  1  0
 34 35  1  0
 35 36  1  0
 36 37  1  0
 37 38  1  0
 33 39  1  0
 34 40  1  0
 35 41  1  0
 22 42  1  0
 36 42  1  0
 33 43  1  0
 37 43  1  0
 38 44  1  0
  1 45  1  1
  2 46  1  1
  3 47  1  6
  4 48  1  1
  5 49  1  0
  6 50  1  0
  6 51  1  0
  7 52  1  0
  7 53  1  0
  8 54  1  0
  9 55  1  0
 10 56  1  0
 11 57  1  0
 12 58  1  1
 13 59  1  1
 14 60  1  6
 15 61  1  1
 16 62  1  6
 17 63  1  0
 17 64  1  0
 17 65  1  0
 18 66  1  0
 19 67  1  0
 20 68  1  0
 22 69  1  1
 23 70  1  1
 24 71  1  6
 25 72  1  1
 26 73  1  6
 27 74  1  0
 27 75  1  0
 28 76  1  0
 29 77  1  0
 32 78  1  0
 33 79  1  1
 34 80  1  1
 35 81  1  6
 36 82  1  1
 37 83  1  6
 38 84  1  0
 38 85  1  0
 39 86  1  0
 40 87  1  0
 41 88  1  0
 44 89  1  0
M  END
>  <PDBID>  (1) 
2QMJ

>  <PDB ID>  (1) 
2QMJ

>  <Generic Name>  (1) 
Acarbose

>  <Brand Name>  (1) 
Acarbose#Glucobay#Precose#Prandase

>  <DrugBank ID>  (1) 
DB00284

>  <ATC Codes>  (1) 
A10BF01#A10BD17

>  <Ligand ID>  (1) 
ACR,QPS

>  <Target Name>  (1) 
Maltase-glucoamylase, intestinal

>  <UniProt ID>  (1) 
O43451

>  <PDB ID.1>  (1) 
2QMJ

>  <Seq. Identity>  (1) 
99%

$$$$
