PDB_DB00203_04
     RDKit          3D

 79 82  0  0  0  0  0  0  0  0999 V2000
   -6.4449    2.1748    1.3730 C   0  0  0  0  0  0  0  0  0  0  0  0
   -6.1220    0.7514    1.6603 C   0  0  0  0  0  0  0  0  0  0  0  0
   -4.8309    0.2507    1.0621 C   0  0  0  0  0  0  0  0  0  0  0  0
   -4.8938    0.3627   -0.4214 C   0  0  0  0  0  0  0  0  0  0  0  0
   -5.0907    1.7257   -0.8051 N   0  0  0  0  0  0  0  0  0  0  0  0
   -3.9260    2.1703   -1.4384 N   0  0  0  0  0  0  0  0  0  0  0  0
   -3.0619    2.9263   -0.6015 C   0  0  0  0  0  0  0  0  0  0  0  0
   -3.3489    1.0164   -2.0578 C   0  0  0  0  0  0  0  0  0  0  0  0
   -1.9141    1.1502   -2.4269 C   0  0  0  0  0  0  0  0  0  0  0  0
   -1.5489    0.1331   -3.2948 O   0  0  0  0  0  0  0  0  0  0  0  0
   -1.1263    1.1646   -1.2213 N   0  0  0  0  0  0  0  0  0  0  0  0
   -1.3103    0.0118   -0.3709 C   0  0  0  0  0  0  0  0  0  0  0  0
   -2.5950   -0.5184   -0.2792 N   0  0  0  0  0  0  0  0  0  0  0  0
   -3.6304   -0.1148   -1.1158 C   0  0  0  0  0  0  0  0  0  0  0  0
   -0.1837   -0.9453   -0.6590 C   0  0  0  0  0  0  0  0  0  0  0  0
    1.1213   -0.2558   -0.3056 C   0  0  0  0  0  0  0  0  0  0  0  0
    1.8638   -0.9869    0.7982 C   0  0  0  0  0  0  0  0  0  0  0  0
    2.2298   -2.3777    0.4028 C   0  0  0  0  0  0  0  0  0  0  0  0
    1.0795   -2.9711   -0.3650 C   0  0  0  0  0  0  0  0  0  0  0  0
   -0.2551   -2.2678    0.0064 C   0  0  0  0  0  0  0  0  0  0  0  0
   -1.2157   -3.0580   -0.6220 O   0  0  0  0  0  0  0  0  0  0  0  0
   -2.0626   -3.7215    0.2231 C   0  0  0  0  0  0  0  0  0  0  0  0
   -1.3036   -4.6776    1.1540 C   0  0  0  0  0  0  0  0  0  0  0  0
    3.3324    0.0115    1.0872 S   0  0  0  0  0  0  0  0  0  0  0  0
    4.0757   -0.8065    2.3043 O   0  0  0  0  0  0  0  0  0  0  0  0
    2.7280    1.3897    1.6761 O   0  0  0  0  0  0  0  0  0  0  0  0
    4.2215    0.1117   -0.1845 N   0  0  0  0  0  0  0  0  0  0  0  0
    4.4412    1.4714   -0.6836 C   0  0  0  0  0  0  0  0  0  0  0  0
    5.3048    2.1797    0.3326 C   0  0  0  0  0  0  0  0  0  0  0  0
    6.6275    1.5817    0.2735 N   0  0  0  0  0  0  0  0  0  0  0  0
    7.5223    2.5410   -0.2939 C   0  0  0  0  0  0  0  0  0  0  0  0
    6.6556    0.3546   -0.4594 C   0  0  0  0  0  0  0  0  0  0  0  0
    5.5117   -0.5641   -0.1862 C   0  0  0  0  0  0  0  0  0  0  0  0
   -7.1438    2.3401    0.5363 H   0  0  0  0  0  0  0  0  0  0  0  0
   -6.9622    2.6092    2.2856 H   0  0  0  0  0  0  0  0  0  0  0  0
   -5.5507    2.8281    1.2290 H   0  0  0  0  0  0  0  0  0  0  0  0
   -6.9443    0.1298    1.1990 H   0  0  0  0  0  0  0  0  0  0  0  0
   -6.1690    0.5567    2.7611 H   0  0  0  0  0  0  0  0  0  0  0  0
   -3.9736    0.7850    1.5219 H   0  0  0  0  0  0  0  0  0  0  0  0
   -4.7652   -0.8269    1.4066 H   0  0  0  0  0  0  0  0  0  0  0  0
   -5.7912   -0.2069   -0.7533 H   0  0  0  0  0  0  0  0  0  0  0  0
   -5.9235    1.8419   -1.4436 H   0  0  0  0  0  0  0  0  0  0  0  0
   -2.1982    3.2878   -1.1604 H   0  0  0  0  0  0  0  0  0  0  0  0
   -3.6500    3.8322   -0.2706 H   0  0  0  0  0  0  0  0  0  0  0  0
   -2.7305    2.4421    0.3195 H   0  0  0  0  0  0  0  0  0  0  0  0
   -3.9156    0.8580   -3.0208 H   0  0  0  0  0  0  0  0  0  0  0  0
   -1.7629    2.1109   -2.9312 H   0  0  0  0  0  0  0  0  0  0  0  0
   -2.1336   -0.6560   -3.1785 H   0  0  0  0  0  0  0  0  0  0  0  0
   -0.1275    1.2294   -1.5166 H   0  0  0  0  0  0  0  0  0  0  0  0
   -1.0556    0.4219    0.6638 H   0  0  0  0  0  0  0  0  0  0  0  0
   -2.8783   -0.7170    0.7045 H   0  0  0  0  0  0  0  0  0  0  0  0
   -3.9433   -0.9971   -1.7473 H   0  0  0  0  0  0  0  0  0  0  0  0
   -0.1011   -1.1554   -1.7656 H   0  0  0  0  0  0  0  0  0  0  0  0
    0.9216    0.7670    0.1312 H   0  0  0  0  0  0  0  0  0  0  0  0
    1.7887   -0.1122   -1.1518 H   0  0  0  0  0  0  0  0  0  0  0  0
    1.2768   -1.0123    1.7385 H   0  0  0  0  0  0  0  0  0  0  0  0
    3.1491   -2.4398   -0.2200 H   0  0  0  0  0  0  0  0  0  0  0  0
    2.4368   -2.9933    1.3067 H   0  0  0  0  0  0  0  0  0  0  0  0
    1.0238   -4.0430   -0.1874 H   0  0  0  0  0  0  0  0  0  0  0  0
    1.1680   -2.8238   -1.4684 H   0  0  0  0  0  0  0  0  0  0  0  0
   -0.3458   -2.2665    1.1033 H   0  0  0  0  0  0  0  0  0  0  0  0
   -2.7315   -3.0848    0.7918 H   0  0  0  0  0  0  0  0  0  0  0  0
   -2.6956   -4.3924   -0.4271 H   0  0  0  0  0  0  0  0  0  0  0  0
   -0.8189   -5.4219    0.4863 H   0  0  0  0  0  0  0  0  0  0  0  0
   -0.6077   -4.1525    1.8185 H   0  0  0  0  0  0  0  0  0  0  0  0
   -2.0161   -5.2348    1.7962 H   0  0  0  0  0  0  0  0  0  0  0  0
    3.4451   -0.8584    3.0702 H   0  0  0  0  0  0  0  0  0  0  0  0
    2.3478    1.9631    0.9656 H   0  0  0  0  0  0  0  0  0  0  0  0
    4.9491    1.4524   -1.6457 H   0  0  0  0  0  0  0  0  0  0  0  0
    3.4609    1.9825   -0.7902 H   0  0  0  0  0  0  0  0  0  0  0  0
    4.9455    2.0622    1.3674 H   0  0  0  0  0  0  0  0  0  0  0  0
    5.3388    3.2734    0.0890 H   0  0  0  0  0  0  0  0  0  0  0  0
    6.9783    3.4133   -0.7484 H   0  0  0  0  0  0  0  0  0  0  0  0
    8.1361    3.0068    0.5290 H   0  0  0  0  0  0  0  0  0  0  0  0
    8.2026    2.1401   -1.0653 H   0  0  0  0  0  0  0  0  0  0  0  0
    7.5913   -0.1924   -0.1501 H   0  0  0  0  0  0  0  0  0  0  0  0
    6.7715    0.5082   -1.5606 H   0  0  0  0  0  0  0  0  0  0  0  0
    5.4883   -1.3185   -1.0211 H   0  0  0  0  0  0  0  0  0  0  0  0
    5.6648   -1.1503    0.7407 H   0  0  0  0  0  0  0  0  0  0  0  0
  1  2  1  0
  2  3  1  0
  3  4  1  0
  4  5  1  0
  5  6  1  0
  6  7  1  0
  6  8  1  0
  8  9  1  0
  9 10  1  0
  9 11  1  0
 11 12  1  0
 12 13  1  0
  4 14  1  0
  8 14  1  0
 13 14  1  0
 12 15  1  0
 15 16  1  0
 16 17  1  0
 17 18  1  0
 18 19  1  0
 15 20  1  0
 19 20  1  0
 20 21  1  0
 21 22  1  0
 22 23  1  0
 17 24  1  0
 24 25  1  0
 24 26  1  0
 24 27  1  0
 27 28  1  0
 28 29  1  0
 29 30  1  0
 30 31  1  0
 30 32  1  0
 27 33  1  0
 32 33  1  0
  1 34  1  0
  1 35  1  0
  1 36  1  0
  2 37  1  0
  2 38  1  0
  3 39  1  0
  3 40  1  0
  4 41  1  0
  5 42  1  0
  7 43  1  0
  7 44  1  0
  7 45  1  0
  8 46  1  0
  9 47  1  0
 10 48  1  0
 11 49  1  0
 12 50  1  0
 13 51  1  0
 14 52  1  0
 15 53  1  0
 16 54  1  0
 16 55  1  0
 17 56  1  0
 18 57  1  0
 18 58  1  0
 19 59  1  0
 19 60  1  0
 20 61  1  0
 22 62  1  0
 22 63  1  0
 23 64  1  0
 23 65  1  0
 23 66  1  0
 25 67  1  0
 26 68  1  0
 28 69  1  0
 28 70  1  0
 29 71  1  0
 29 72  1  0
 31 73  1  0
 31 74  1  0
 31 75  1  0
 32 76  1  0
 32 77  1  0
 33 78  1  0
 33 79  1  0
M  END
>  <PDBID>  (1) 
1UDT

>  <PDB ID>  (1) 
1UDT

>  <Generic Name>  (1) 
Sildenafil

>  <Brand Name>  (1) 
Act Sildenafil#Apo-sildenafil#Apo-sildenafil R#Auro-sildenafil#Dom-sildenafil#Gd-sildenafil#Ipg-sildenafil#Jamp-sildenafil#M-sildenafil#Mar-sildenafil#Mint-sildenafil#Myl-sildenafil#Mylan-sildenafil#PMS-sildenafil#PMS-sildenafil R#Pb-sildenafil#Priva-sildenafil#Ran-sildenafil#Ratio-sildenafil#Ratio-sildenafil R#Revatio#Riva-sildenafil#Sandoz Sildenafil#Sildenafil#Sildenafil Citrate#Sildenafil R#Sildenafil Tablets#Teva-sildenafil#Van-sildenafil#Viagra

>  <DrugBank ID>  (1) 
DB00203

>  <ATC Codes>  (1) 
G04BE03

>  <Ligand ID>  (1) 
VIA

>  <Target Name>  (1) 
cGMP-specific 3',5'-cyclic phosphodiesterase

>  <UniProt ID>  (1) 
O76074

>  <PDB ID.1>  (1) 
1UDT

>  <Seq. Identity>  (1) 
94%

$$$$
