PDB_DB04573_00
     RDKit          3D

102108  0  0  0  0  0  0  0  0999 V2000
   -0.2396   -0.8638    0.4171 C   0  0  1  0  0  0  0  0  0  0  0  0
    0.6075   -1.9155   -0.1816 C   0  0  0  0  0  0  0  0  0  0  0  0
    1.7126   -1.4874   -1.0680 C   0  0  0  0  0  0  0  0  0  0  0  0
    2.4487   -0.2838   -0.7339 C   0  0  2  0  0  0  0  0  0  0  0  0
    2.6479    0.6360   -1.9428 C   0  0  0  0  0  0  0  0  0  0  0  0
    3.7574   -0.3836   -0.0446 C   0  0  1  0  0  0  0  0  0  0  0  0
    4.8126   -0.7534   -0.8574 O   0  0  0  0  0  0  0  0  0  0  0  0
    3.9226    1.0631    0.4529 C   0  0  2  0  0  0  0  0  0  0  0  0
    4.4506    0.9474    1.7446 O   0  0  0  0  0  0  0  0  0  0  0  0
    2.5175    1.6608    0.4819 C   0  0  0  0  0  0  0  0  0  0  0  0
    1.6855    0.4664    0.3765 C   0  0  1  0  0  0  0  0  0  0  0  0
    0.3035    0.5012   -0.0431 C   0  0  2  0  0  0  0  0  0  0  0  0
   -0.5700    1.6064    0.4476 C   0  0  0  0  0  0  0  0  0  0  0  0
   -1.9256    1.4718   -0.1980 C   0  0  0  0  0  0  0  0  0  0  0  0
   -2.2003    0.0717   -0.6733 C   0  0  0  0  0  0  0  0  0  0  0  0
   -3.6557   -0.1833   -0.9330 C   0  0  0  0  0  0  0  0  0  0  0  0
   -4.5073   -0.2336    0.2859 C   0  0  0  0  0  0  0  0  0  0  0  0
   -4.8094    0.9813    0.8420 O   0  0  0  0  0  0  0  0  0  0  0  0
   -3.9188   -1.1632    1.3223 C   0  0  0  0  0  0  0  0  0  0  0  0
   -2.4590   -0.8610    1.5681 C   0  0  0  0  0  0  0  0  0  0  0  0
   -1.6974   -0.9953    0.2460 C   0  0  2  0  0  0  0  0  0  0  0  0
   -0.3051   -0.3723    0.5237 C   0  0  1  0  0  0  0  0  0  0  0  0
    0.4473   -1.6185    0.7099 C   0  0  0  0  0  0  0  0  0  0  0  0
    1.7886   -1.7534    0.1327 C   0  0  0  0  0  0  0  0  0  0  0  0
    2.4949   -0.5373   -0.3002 C   0  0  2  0  0  0  0  0  0  0  0  0
    2.6733   -0.4826   -1.8194 C   0  0  0  0  0  0  0  0  0  0  0  0
    3.8550   -0.3119    0.2961 C   0  0  1  0  0  0  0  0  0  0  0  0
    4.8691   -0.9460   -0.4170 O   0  0  0  0  0  0  0  0  0  0  0  0
    4.0594    1.1975    0.1045 C   0  0  2  0  0  0  0  0  0  0  0  0
    4.4535    1.6969    1.3450 O   0  0  0  0  0  0  0  0  0  0  0  0
    2.6915    1.7770   -0.1936 C   0  0  0  0  0  0  0  0  0  0  0  0
    1.7854    0.6997    0.2046 C   0  0  1  0  0  0  0  0  0  0  0  0
    0.4152    0.6835   -0.3263 C   0  0  2  0  0  0  0  0  0  0  0  0
   -0.3441    1.9842   -0.1700 C   0  0  0  0  0  0  0  0  0  0  0  0
   -1.6823    1.7688   -0.8892 C   0  0  0  0  0  0  0  0  0  0  0  0
   -2.4306    0.7380   -0.1203 C   0  0  1  0  0  0  0  0  0  0  0  0
   -3.8202    0.4916   -0.6342 C   0  0  0  0  0  0  0  0  0  0  0  0
   -4.5991   -0.3213    0.3429 C   0  0  0  0  0  0  0  0  0  0  0  0
   -5.7640   -0.7653   -0.3220 O   0  0  0  0  0  0  0  0  0  0  0  0
   -3.8970   -1.5278    0.8555 C   0  0  0  0  0  0  0  0  0  0  0  0
   -2.4399   -1.3315    1.1420 C   0  0  0  0  0  0  0  0  0  0  0  0
   -1.7319   -0.5847    0.0034 C   0  0  2  0  0  0  0  0  0  0  0  0
   -0.0310   -0.8633    1.5300 H   0  0  0  0  0  0  0  0  0  0  0  0
    1.0462   -2.6160    0.5885 H   0  0  0  0  0  0  0  0  0  0  0  0
   -0.0690   -2.5933   -0.7829 H   0  0  0  0  0  0  0  0  0  0  0  0
    1.2791   -1.3695   -2.1084 H   0  0  0  0  0  0  0  0  0  0  0  0
    2.4148   -2.3563   -1.1818 H   0  0  0  0  0  0  0  0  0  0  0  0
    3.3324    1.4644   -1.7268 H   0  0  0  0  0  0  0  0  0  0  0  0
    1.7182    0.9251   -2.4239 H   0  0  0  0  0  0  0  0  0  0  0  0
    3.1936   -0.0160   -2.6865 H   0  0  0  0  0  0  0  0  0  0  0  0
    3.6496   -1.0826    0.8136 H   0  0  0  0  0  0  0  0  0  0  0  0
    4.8581   -1.7446   -0.8410 H   0  0  0  0  0  0  0  0  0  0  0  0
    4.6192    1.6330   -0.1536 H   0  0  0  0  0  0  0  0  0  0  0  0
    4.9989    1.7063    2.0012 H   0  0  0  0  0  0  0  0  0  0  0  0
    2.3727    2.4613   -0.2302 H   0  0  0  0  0  0  0  0  0  0  0  0
    2.3989    2.0991    1.5140 H   0  0  0  0  0  0  0  0  0  0  0  0
    1.8925   -0.1599    1.2991 H   0  0  0  0  0  0  0  0  0  0  0  0
    0.1940    0.4859   -1.1500 H   0  0  0  0  0  0  0  0  0  0  0  0
   -0.1346    2.5603    0.0834 H   0  0  0  0  0  0  0  0  0  0  0  0
   -0.6134    1.6877    1.5487 H   0  0  0  0  0  0  0  0  0  0  0  0
   -2.6688    1.8586    0.5096 H   0  0  0  0  0  0  0  0  0  0  0  0
   -2.0089    2.1316   -1.1119 H   0  0  0  0  0  0  0  0  0  0  0  0
   -1.6908   -0.0766   -1.6717 H   0  0  0  0  0  0  0  0  0  0  0  0
   -4.0772    0.5035   -1.6811 H   0  0  0  0  0  0  0  0  0  0  0  0
   -3.7093   -1.2081   -1.4080 H   0  0  0  0  0  0  0  0  0  0  0  0
   -5.4881   -0.7046   -0.0186 H   0  0  0  0  0  0  0  0  0  0  0  0
   -5.3274    1.5564    0.2522 H   0  0  0  0  0  0  0  0  0  0  0  0
   -4.1180   -2.2235    1.1118 H   0  0  0  0  0  0  0  0  0  0  0  0
   -4.4537   -0.9320    2.2859 H   0  0  0  0  0  0  0  0  0  0  0  0
   -2.3943    0.1415    1.9902 H   0  0  0  0  0  0  0  0  0  0  0  0
   -2.0878   -1.5815    2.3162 H   0  0  0  0  0  0  0  0  0  0  0  0
   -1.9791   -1.9691   -0.1723 H   0  0  0  0  0  0  0  0  0  0  0  0
   -0.4616    0.1549    1.5129 H   0  0  0  0  0  0  0  0  0  0  0  0
    0.5154   -1.8434    1.8179 H   0  0  0  0  0  0  0  0  0  0  0  0
   -0.2060   -2.4666    0.3372 H   0  0  0  0  0  0  0  0  0  0  0  0
    2.4815   -2.3094    0.8359 H   0  0  0  0  0  0  0  0  0  0  0  0
    1.7505   -2.4504   -0.7602 H   0  0  0  0  0  0  0  0  0  0  0  0
    3.2024    0.4177   -2.1294 H   0  0  0  0  0  0  0  0  0  0  0  0
    1.7464   -0.7029   -2.3574 H   0  0  0  0  0  0  0  0  0  0  0  0
    3.3685   -1.3441   -2.0488 H   0  0  0  0  0  0  0  0  0  0  0  0
    3.8335   -0.5886    1.3551 H   0  0  0  0  0  0  0  0  0  0  0  0
    4.7082   -1.8994   -0.5597 H   0  0  0  0  0  0  0  0  0  0  0  0
    4.7891    1.4029   -0.6892 H   0  0  0  0  0  0  0  0  0  0  0  0
    5.3358    2.0989    1.2833 H   0  0  0  0  0  0  0  0  0  0  0  0
    2.5943    2.1436   -1.2288 H   0  0  0  0  0  0  0  0  0  0  0  0
    2.4929    2.6764    0.4575 H   0  0  0  0  0  0  0  0  0  0  0  0
    1.7605    0.6189    1.3087 H   0  0  0  0  0  0  0  0  0  0  0  0
    0.3236    0.3936   -1.3915 H   0  0  0  0  0  0  0  0  0  0  0  0
    0.1708    2.8200   -0.6657 H   0  0  0  0  0  0  0  0  0  0  0  0
   -0.5998    2.1917    0.8900 H   0  0  0  0  0  0  0  0  0  0  0  0
   -2.2342    2.7066   -0.8646 H   0  0  0  0  0  0  0  0  0  0  0  0
   -1.4707    1.4605   -1.9255 H   0  0  0  0  0  0  0  0  0  0  0  0
   -2.5497    1.1309    0.9310 H   0  0  0  0  0  0  0  0  0  0  0  0
   -3.8481    0.0334   -1.6213 H   0  0  0  0  0  0  0  0  0  0  0  0
   -4.3120    1.5022   -0.7122 H   0  0  0  0  0  0  0  0  0  0  0  0
   -4.9573    0.3442    1.1585 H   0  0  0  0  0  0  0  0  0  0  0  0
   -6.5810   -0.4955    0.1297 H   0  0  0  0  0  0  0  0  0  0  0  0
   -4.0014   -2.4184    0.2017 H   0  0  0  0  0  0  0  0  0  0  0  0
   -4.3806   -1.8147    1.8238 H   0  0  0  0  0  0  0  0  0  0  0  0
   -2.2509   -0.7216    2.0513 H   0  0  0  0  0  0  0  0  0  0  0  0
   -1.9942   -2.3322    1.3025 H   0  0  0  0  0  0  0  0  0  0  0  0
   -1.7451   -1.1937   -0.9059 H   0  0  0  0  0  0  0  0  0  0  0  0
  1  2  1  0
  2  3  1  0
  3  4  1  0
  4  5  1  6
  4  6  1  0
  6  7  1  0
  6  8  1  0
  8  9  1  0
  8 10  1  0
  4 11  1  0
 10 11  1  0
  1 12  1  0
 11 12  1  0
 12 13  1  0
 13 14  1  0
 14 15  1  0
 15 16  1  0
 16 17  1  0
 17 18  1  0
 17 19  1  0
 19 20  1  0
  1 21  1  0
 15 21  1  0
 20 21  1  0
 22 23  1  0
 23 24  1  0
 24 25  1  0
 25 26  1  6
 25 27  1  0
 27 28  1  0
 27 29  1  0
 29 30  1  0
 29 31  1  0
 25 32  1  0
 31 32  1  0
 22 33  1  0
 32 33  1  0
 33 34  1  0
 34 35  1  0
 35 36  1  0
 36 37  1  0
 37 38  1  0
 38 39  1  0
 38 40  1  0
 40 41  1  0
 22 42  1  0
 36 42  1  0
 41 42  1  0
  1 43  1  1
  2 44  1  0
  2 45  1  0
  3 46  1  0
  3 47  1  0
  5 48  1  0
  5 49  1  0
  5 50  1  0
  6 51  1  1
  7 52  1  0
  8 53  1  6
  9 54  1  0
 10 55  1  0
 10 56  1  0
 11 57  1  1
 12 58  1  6
 13 59  1  0
 13 60  1  0
 14 61  1  0
 14 62  1  0
 15 63  1  0
 16 64  1  0
 16 65  1  0
 17 66  1  0
 18 67  1  0
 19 68  1  0
 19 69  1  0
 20 70  1  0
 20 71  1  0
 21 72  1  6
 22 73  1  1
 23 74  1  0
 23 75  1  0
 24 76  1  0
 24 77  1  0
 26 78  1  0
 26 79  1  0
 26 80  1  0
 27 81  1  1
 28 82  1  0
 29 83  1  6
 30 84  1  0
 31 85  1  0
 31 86  1  0
 32 87  1  1
 33 88  1  6
 34 89  1  0
 34 90  1  0
 35 91  1  0
 35 92  1  0
 36 93  1  1
 37 94  1  0
 37 95  1  0
 38 96  1  0
 39 97  1  0
 40 98  1  0
 40 99  1  0
 41100  1  0
 41101  1  0
 42102  1  6
M  END
>  <PDBID>  (1) 
3Q95

>  <PDB ID>  (1) 
3Q95

>  <Generic Name>  (1) 
Estriol

>  <Brand Name>  (1) 
Aacifemine#Colpoestriol#Ovestin#Synapause E

>  <DrugBank ID>  (1) 
DB04573

>  <ATC Codes>  (1) 
G03CC06#G03CA04

>  <Ligand ID>  (1) 
ESL

>  <Target Name>  (1) 
Estrogen receptor

>  <UniProt ID>  (1) 
P03372

>  <PDB ID.1>  (1) 
3Q95

>  <Seq. Identity>  (1) 
93%

$$$$
