PDB_DB01016_03
     RDKit          3D

316324  0  0  0  0  0  0  0  0999 V2000
    5.3131   -1.9097    0.1031 O   0  0  0  0  0  0  0  0  0  0  0  0
    2.6344   -0.7662    2.6742 O   0  0  0  0  0  0  0  0  0  0  0  0
    2.8147   -2.4754    0.6911 O   0  0  0  0  0  0  0  0  0  0  0  0
   -4.6733    0.0502    2.5424 O   0  0  0  0  0  0  0  0  0  0  0  0
   -6.4433    3.9836   -0.3687 Cl  0  0  0  0  0  0  0  0  0  0  0  0
    2.6768   -0.9102    0.8492 S   0  0  0  0  0  0  0  0  0  0  0  0
   -8.0088   -1.3599    0.0221 O   0  0  0  0  0  0  0  0  0  0  0  0
    5.8511    0.1490   -0.9501 N   0  0  0  0  0  0  0  0  0  0  0  0
    3.9127   -0.0558    0.4739 N   0  0  0  0  0  0  0  0  0  0  0  0
   -4.4054   -1.4947    0.7932 N   0  0  0  0  0  0  0  0  0  0  0  0
    6.8443    0.5991   -0.0345 C   0  0  0  0  0  0  0  0  0  0  0  0
    7.5590    1.7910   -0.7004 C   0  0  0  0  0  0  0  0  0  0  0  0
    7.9098   -0.4150    0.3024 C   0  0  0  0  0  0  0  0  0  0  0  0
    9.0116    1.8267   -0.2783 C   0  0  0  0  0  0  0  0  0  0  0  0
    8.9215   -0.5548   -0.8102 C   0  0  0  0  0  0  0  0  0  0  0  0
    9.7218    0.7058   -1.0124 C   0  0  0  0  0  0  0  0  0  0  0  0
    4.8453   -0.7188   -0.4324 C   0  0  0  0  0  0  0  0  0  0  0  0
    1.1415   -0.4047    0.4943 C   0  0  0  0  0  0  0  0  0  0  0  0
   -1.3848    0.3752   -0.4192 C   0  0  0  0  0  0  0  0  0  0  0  0
   -2.3860   -0.1639    0.5658 C   0  0  0  0  0  0  0  0  0  0  0  0
    0.8402   -0.5874   -0.9874 C   0  0  0  0  0  0  0  0  0  0  0  0
    0.7306    0.9921    0.8633 C   0  0  0  0  0  0  0  0  0  0  0  0
   -0.6696   -0.7065   -1.1781 C   0  0  0  0  0  0  0  0  0  0  0  0
   -0.4829    1.4152    0.1416 C   0  0  0  0  0  0  0  0  0  0  0  0
   -3.4741   -0.9956   -0.1281 C   0  0  0  0  0  0  0  0  0  0  0  0
   -5.2773   -0.6708    1.5019 C   0  0  0  0  0  0  0  0  0  0  0  0
   -6.2933    0.1442    0.7907 C   0  0  0  0  0  0  0  0  0  0  0  0
   -6.9349   -0.5801   -0.3564 C   0  0  0  0  0  0  0  0  0  0  0  0
   -5.7132    1.4390    0.2994 C   0  0  0  0  0  0  0  0  0  0  0  0
   -7.3445    0.3674   -1.4657 C   0  0  0  0  0  0  0  0  0  0  0  0
   -6.9269    2.3473    0.0530 C   0  0  0  0  0  0  0  0  0  0  0  0
   -7.8270    1.6955   -0.9501 C   0  0  0  0  0  0  0  0  0  0  0  0
   -7.8625   -2.7011   -0.2245 C   0  0  0  0  0  0  0  0  0  0  0  0
    5.3131   -1.9097    0.1031 O   0  0  0  0  0  0  0  0  0  0  0  0
    2.6344   -0.7662    2.6742 O   0  0  0  0  0  0  0  0  0  0  0  0
    2.8147   -2.4754    0.6911 O   0  0  0  0  0  0  0  0  0  0  0  0
   -4.6733    0.0502    2.5424 O   0  0  0  0  0  0  0  0  0  0  0  0
   -6.4433    3.9836   -0.3687 Cl  0  0  0  0  0  0  0  0  0  0  0  0
    2.6768   -0.9102    0.8492 S   0  0  0  0  0  0  0  0  0  0  0  0
   -8.0088   -1.3599    0.0221 O   0  0  0  0  0  0  0  0  0  0  0  0
    5.8511    0.1490   -0.9501 N   0  0  0  0  0  0  0  0  0  0  0  0
    3.9127   -0.0558    0.4739 N   0  0  0  0  0  0  0  0  0  0  0  0
   -4.4054   -1.4947    0.7932 N   0  0  0  0  0  0  0  0  0  0  0  0
    6.8443    0.5991   -0.0345 C   0  0  0  0  0  0  0  0  0  0  0  0
    7.5590    1.7910   -0.7004 C   0  0  0  0  0  0  0  0  0  0  0  0
    7.9098   -0.4150    0.3024 C   0  0  0  0  0  0  0  0  0  0  0  0
    9.0116    1.8267   -0.2783 C   0  0  0  0  0  0  0  0  0  0  0  0
    8.9215   -0.5548   -0.8102 C   0  0  0  0  0  0  0  0  0  0  0  0
    9.7218    0.7058   -1.0124 C   0  0  0  0  0  0  0  0  0  0  0  0
    4.8453   -0.7188   -0.4324 C   0  0  0  0  0  0  0  0  0  0  0  0
    1.1415   -0.4047    0.4943 C   0  0  0  0  0  0  0  0  0  0  0  0
   -1.3848    0.3752   -0.4192 C   0  0  0  0  0  0  0  0  0  0  0  0
   -2.3860   -0.1639    0.5658 C   0  0  0  0  0  0  0  0  0  0  0  0
    0.8402   -0.5874   -0.9874 C   0  0  0  0  0  0  0  0  0  0  0  0
    0.7306    0.9921    0.8633 C   0  0  0  0  0  0  0  0  0  0  0  0
   -0.6696   -0.7065   -1.1781 C   0  0  0  0  0  0  0  0  0  0  0  0
   -0.4829    1.4152    0.1416 C   0  0  0  0  0  0  0  0  0  0  0  0
   -3.4741   -0.9956   -0.1281 C   0  0  0  0  0  0  0  0  0  0  0  0
   -5.2773   -0.6708    1.5019 C   0  0  0  0  0  0  0  0  0  0  0  0
   -6.2933    0.1442    0.7907 C   0  0  0  0  0  0  0  0  0  0  0  0
   -6.9349   -0.5801   -0.3564 C   0  0  0  0  0  0  0  0  0  0  0  0
   -5.7132    1.4390    0.2994 C   0  0  0  0  0  0  0  0  0  0  0  0
   -7.3445    0.3674   -1.4657 C   0  0  0  0  0  0  0  0  0  0  0  0
   -6.9269    2.3473    0.0530 C   0  0  0  0  0  0  0  0  0  0  0  0
   -7.8270    1.6955   -0.9501 C   0  0  0  0  0  0  0  0  0  0  0  0
   -7.8625   -2.7011   -0.2245 C   0  0  0  0  0  0  0  0  0  0  0  0
    5.3131   -1.9097    0.1031 O   0  0  0  0  0  0  0  0  0  0  0  0
    2.6344   -0.7662    2.6742 O   0  0  0  0  0  0  0  0  0  0  0  0
    2.8147   -2.4754    0.6911 O   0  0  0  0  0  0  0  0  0  0  0  0
   -4.6733    0.0502    2.5424 O   0  0  0  0  0  0  0  0  0  0  0  0
   -6.4433    3.9836   -0.3687 Cl  0  0  0  0  0  0  0  0  0  0  0  0
    2.6768   -0.9102    0.8492 S   0  0  0  0  0  0  0  0  0  0  0  0
   -8.0088   -1.3599    0.0221 O   0  0  0  0  0  0  0  0  0  0  0  0
    5.8511    0.1490   -0.9501 N   0  0  0  0  0  0  0  0  0  0  0  0
    3.9127   -0.0558    0.4739 N   0  0  0  0  0  0  0  0  0  0  0  0
   -4.4054   -1.4947    0.7932 N   0  0  0  0  0  0  0  0  0  0  0  0
    6.8443    0.5991   -0.0345 C   0  0  0  0  0  0  0  0  0  0  0  0
    7.5590    1.7910   -0.7004 C   0  0  0  0  0  0  0  0  0  0  0  0
    7.9098   -0.4150    0.3024 C   0  0  0  0  0  0  0  0  0  0  0  0
    9.0116    1.8267   -0.2783 C   0  0  0  0  0  0  0  0  0  0  0  0
    8.9215   -0.5548   -0.8102 C   0  0  0  0  0  0  0  0  0  0  0  0
    9.7218    0.7058   -1.0124 C   0  0  0  0  0  0  0  0  0  0  0  0
    4.8453   -0.7188   -0.4324 C   0  0  0  0  0  0  0  0  0  0  0  0
    1.1415   -0.4047    0.4943 C   0  0  0  0  0  0  0  0  0  0  0  0
   -1.3848    0.3752   -0.4192 C   0  0  0  0  0  0  0  0  0  0  0  0
   -2.3860   -0.1639    0.5658 C   0  0  0  0  0  0  0  0  0  0  0  0
    0.8402   -0.5874   -0.9874 C   0  0  0  0  0  0  0  0  0  0  0  0
    0.7306    0.9921    0.8633 C   0  0  0  0  0  0  0  0  0  0  0  0
   -0.6696   -0.7065   -1.1781 C   0  0  0  0  0  0  0  0  0  0  0  0
   -0.4829    1.4152    0.1416 C   0  0  0  0  0  0  0  0  0  0  0  0
   -3.4741   -0.9956   -0.1281 C   0  0  0  0  0  0  0  0  0  0  0  0
   -5.2773   -0.6708    1.5019 C   0  0  0  0  0  0  0  0  0  0  0  0
   -6.2933    0.1442    0.7907 C   0  0  0  0  0  0  0  0  0  0  0  0
   -6.9349   -0.5801   -0.3564 C   0  0  0  0  0  0  0  0  0  0  0  0
   -5.7132    1.4390    0.2994 C   0  0  0  0  0  0  0  0  0  0  0  0
   -7.3445    0.3674   -1.4657 C   0  0  0  0  0  0  0  0  0  0  0  0
   -6.9269    2.3473    0.0530 C   0  0  0  0  0  0  0  0  0  0  0  0
   -7.8270    1.6955   -0.9501 C   0  0  0  0  0  0  0  0  0  0  0  0
   -7.8625   -2.7011   -0.2245 C   0  0  0  0  0  0  0  0  0  0  0  0
    5.3131   -1.9097    0.1031 O   0  0  0  0  0  0  0  0  0  0  0  0
    2.6344   -0.7662    2.6742 O   0  0  0  0  0  0  0  0  0  0  0  0
    2.8147   -2.4754    0.6911 O   0  0  0  0  0  0  0  0  0  0  0  0
   -4.6733    0.0502    2.5424 O   0  0  0  0  0  0  0  0  0  0  0  0
   -6.4433    3.9836   -0.3687 Cl  0  0  0  0  0  0  0  0  0  0  0  0
    2.6768   -0.9102    0.8492 S   0  0  0  0  0  0  0  0  0  0  0  0
   -8.0088   -1.3599    0.0221 O   0  0  0  0  0  0  0  0  0  0  0  0
    5.8511    0.1490   -0.9501 N   0  0  0  0  0  0  0  0  0  0  0  0
    3.9127   -0.0558    0.4739 N   0  0  0  0  0  0  0  0  0  0  0  0
   -4.4054   -1.4947    0.7932 N   0  0  0  0  0  0  0  0  0  0  0  0
    6.8443    0.5991   -0.0345 C   0  0  0  0  0  0  0  0  0  0  0  0
    7.5590    1.7910   -0.7004 C   0  0  0  0  0  0  0  0  0  0  0  0
    7.9098   -0.4150    0.3024 C   0  0  0  0  0  0  0  0  0  0  0  0
    9.0116    1.8267   -0.2783 C   0  0  0  0  0  0  0  0  0  0  0  0
    8.9215   -0.5548   -0.8102 C   0  0  0  0  0  0  0  0  0  0  0  0
    9.7218    0.7058   -1.0124 C   0  0  0  0  0  0  0  0  0  0  0  0
    4.8453   -0.7188   -0.4324 C   0  0  0  0  0  0  0  0  0  0  0  0
    1.1415   -0.4047    0.4943 C   0  0  0  0  0  0  0  0  0  0  0  0
   -1.3848    0.3752   -0.4192 C   0  0  0  0  0  0  0  0  0  0  0  0
   -2.3860   -0.1639    0.5658 C   0  0  0  0  0  0  0  0  0  0  0  0
    0.8402   -0.5874   -0.9874 C   0  0  0  0  0  0  0  0  0  0  0  0
    0.7306    0.9921    0.8633 C   0  0  0  0  0  0  0  0  0  0  0  0
   -0.6696   -0.7065   -1.1781 C   0  0  0  0  0  0  0  0  0  0  0  0
   -0.4829    1.4152    0.1416 C   0  0  0  0  0  0  0  0  0  0  0  0
   -3.4741   -0.9956   -0.1281 C   0  0  0  0  0  0  0  0  0  0  0  0
   -5.2773   -0.6708    1.5019 C   0  0  0  0  0  0  0  0  0  0  0  0
   -6.2933    0.1442    0.7907 C   0  0  0  0  0  0  0  0  0  0  0  0
   -6.9349   -0.5801   -0.3564 C   0  0  0  0  0  0  0  0  0  0  0  0
   -5.7132    1.4390    0.2994 C   0  0  0  0  0  0  0  0  0  0  0  0
   -7.3445    0.3674   -1.4657 C   0  0  0  0  0  0  0  0  0  0  0  0
   -6.9269    2.3473    0.0530 C   0  0  0  0  0  0  0  0  0  0  0  0
   -7.8270    1.6955   -0.9501 C   0  0  0  0  0  0  0  0  0  0  0  0
   -7.8625   -2.7011   -0.2245 C   0  0  0  0  0  0  0  0  0  0  0  0
    5.1907   -1.8197    1.1008 H   0  0  0  0  0  0  0  0  0  0  0  0
    2.6551    0.2365    2.7361 H   0  0  0  0  0  0  0  0  0  0  0  0
    2.3795   -2.8233   -0.1514 H   0  0  0  0  0  0  0  0  0  0  0  0
   -5.3333    0.2515    3.2562 H   0  0  0  0  0  0  0  0  0  0  0  0
    6.2399   -0.2556   -1.8154 H   0  0  0  0  0  0  0  0  0  0  0  0
    4.4966    0.3242    1.2635 H   0  0  0  0  0  0  0  0  0  0  0  0
   -4.7148   -2.4887    0.6598 H   0  0  0  0  0  0  0  0  0  0  0  0
    6.4038    0.9852    0.8819 H   0  0  0  0  0  0  0  0  0  0  0  0
    7.5577    1.6637   -1.8028 H   0  0  0  0  0  0  0  0  0  0  0  0
    7.0356    2.7411   -0.4830 H   0  0  0  0  0  0  0  0  0  0  0  0
    7.5147   -1.4000    0.5349 H   0  0  0  0  0  0  0  0  0  0  0  0
    8.4418   -0.0599    1.2156 H   0  0  0  0  0  0  0  0  0  0  0  0
    9.1560    1.8021    0.8065 H   0  0  0  0  0  0  0  0  0  0  0  0
    9.4236    2.8051   -0.6229 H   0  0  0  0  0  0  0  0  0  0  0  0
    8.4434   -0.8836   -1.7518 H   0  0  0  0  0  0  0  0  0  0  0  0
    9.6282   -1.3547   -0.5073 H   0  0  0  0  0  0  0  0  0  0  0  0
    9.8094    0.9642   -2.0674 H   0  0  0  0  0  0  0  0  0  0  0  0
   10.7373    0.6364   -0.5697 H   0  0  0  0  0  0  0  0  0  0  0  0
    4.2118   -1.0235   -1.3178 H   0  0  0  0  0  0  0  0  0  0  0  0
    0.3830   -1.0798    1.0014 H   0  0  0  0  0  0  0  0  0  0  0  0
   -2.0160    0.9231   -1.1930 H   0  0  0  0  0  0  0  0  0  0  0  0
   -2.9465    0.6889    1.0220 H   0  0  0  0  0  0  0  0  0  0  0  0
   -1.9584   -0.8433    1.3285 H   0  0  0  0  0  0  0  0  0  0  0  0
    1.1459    0.3488   -1.4898 H   0  0  0  0  0  0  0  0  0  0  0  0
    1.3797   -1.4257   -1.4205 H   0  0  0  0  0  0  0  0  0  0  0  0
    1.5819    1.7174    0.6508 H   0  0  0  0  0  0  0  0  0  0  0  0
    0.5775    1.0826    1.9686 H   0  0  0  0  0  0  0  0  0  0  0  0
   -0.9738   -0.7382   -2.2308 H   0  0  0  0  0  0  0  0  0  0  0  0
   -0.9349   -1.6802   -0.7006 H   0  0  0  0  0  0  0  0  0  0  0  0
   -1.1130    2.0239    0.8630 H   0  0  0  0  0  0  0  0  0  0  0  0
   -0.1903    2.1872   -0.6370 H   0  0  0  0  0  0  0  0  0  0  0  0
   -3.8329   -0.4587   -1.0030 H   0  0  0  0  0  0  0  0  0  0  0  0
   -2.9227   -1.9178   -0.5477 H   0  0  0  0  0  0  0  0  0  0  0  0
   -5.9301   -1.4237    2.1259 H   0  0  0  0  0  0  0  0  0  0  0  0
   -7.0863    0.4118    1.5672 H   0  0  0  0  0  0  0  0  0  0  0  0
   -6.1717   -1.2598   -0.7888 H   0  0  0  0  0  0  0  0  0  0  0  0
   -5.0811    1.9419    1.0824 H   0  0  0  0  0  0  0  0  0  0  0  0
   -5.1752    1.3366   -0.6385 H   0  0  0  0  0  0  0  0  0  0  0  0
   -8.2068   -0.1063   -1.9898 H   0  0  0  0  0  0  0  0  0  0  0  0
   -6.5456    0.4919   -2.2237 H   0  0  0  0  0  0  0  0  0  0  0  0
   -7.4660    2.3979    1.0246 H   0  0  0  0  0  0  0  0  0  0  0  0
   -7.8721    2.3789   -1.8427 H   0  0  0  0  0  0  0  0  0  0  0  0
   -8.8817    1.6429   -0.5802 H   0  0  0  0  0  0  0  0  0  0  0  0
   -7.7108   -2.9797   -1.2761 H   0  0  0  0  0  0  0  0  0  0  0  0
   -8.8461   -3.1763    0.0667 H   0  0  0  0  0  0  0  0  0  0  0  0
   -7.1033   -3.1961    0.4007 H   0  0  0  0  0  0  0  0  0  0  0  0
    5.1907   -1.8197    1.1008 H   0  0  0  0  0  0  0  0  0  0  0  0
    2.6551    0.2365    2.7361 H   0  0  0  0  0  0  0  0  0  0  0  0
    2.3795   -2.8233   -0.1514 H   0  0  0  0  0  0  0  0  0  0  0  0
   -5.3333    0.2515    3.2562 H   0  0  0  0  0  0  0  0  0  0  0  0
    6.2399   -0.2556   -1.8154 H   0  0  0  0  0  0  0  0  0  0  0  0
    4.4966    0.3242    1.2635 H   0  0  0  0  0  0  0  0  0  0  0  0
   -4.7148   -2.4887    0.6598 H   0  0  0  0  0  0  0  0  0  0  0  0
    6.4038    0.9852    0.8819 H   0  0  0  0  0  0  0  0  0  0  0  0
    7.5577    1.6637   -1.8028 H   0  0  0  0  0  0  0  0  0  0  0  0
    7.0356    2.7411   -0.4830 H   0  0  0  0  0  0  0  0  0  0  0  0
    7.5147   -1.4000    0.5349 H   0  0  0  0  0  0  0  0  0  0  0  0
    8.4418   -0.0599    1.2156 H   0  0  0  0  0  0  0  0  0  0  0  0
    9.1560    1.8021    0.8065 H   0  0  0  0  0  0  0  0  0  0  0  0
    9.4236    2.8051   -0.6229 H   0  0  0  0  0  0  0  0  0  0  0  0
    8.4434   -0.8836   -1.7518 H   0  0  0  0  0  0  0  0  0  0  0  0
    9.6282   -1.3547   -0.5073 H   0  0  0  0  0  0  0  0  0  0  0  0
    9.8094    0.9642   -2.0674 H   0  0  0  0  0  0  0  0  0  0  0  0
   10.7373    0.6364   -0.5697 H   0  0  0  0  0  0  0  0  0  0  0  0
    4.2118   -1.0235   -1.3178 H   0  0  0  0  0  0  0  0  0  0  0  0
    0.3830   -1.0798    1.0014 H   0  0  0  0  0  0  0  0  0  0  0  0
   -2.0160    0.9231   -1.1930 H   0  0  0  0  0  0  0  0  0  0  0  0
   -2.9465    0.6889    1.0220 H   0  0  0  0  0  0  0  0  0  0  0  0
   -1.9584   -0.8433    1.3285 H   0  0  0  0  0  0  0  0  0  0  0  0
    1.1459    0.3488   -1.4898 H   0  0  0  0  0  0  0  0  0  0  0  0
    1.3797   -1.4257   -1.4205 H   0  0  0  0  0  0  0  0  0  0  0  0
    1.5819    1.7174    0.6508 H   0  0  0  0  0  0  0  0  0  0  0  0
    0.5775    1.0826    1.9686 H   0  0  0  0  0  0  0  0  0  0  0  0
   -0.9738   -0.7382   -2.2308 H   0  0  0  0  0  0  0  0  0  0  0  0
   -0.9349   -1.6802   -0.7006 H   0  0  0  0  0  0  0  0  0  0  0  0
   -1.1130    2.0239    0.8630 H   0  0  0  0  0  0  0  0  0  0  0  0
   -0.1903    2.1872   -0.6370 H   0  0  0  0  0  0  0  0  0  0  0  0
   -3.8329   -0.4587   -1.0030 H   0  0  0  0  0  0  0  0  0  0  0  0
   -2.9227   -1.9178   -0.5477 H   0  0  0  0  0  0  0  0  0  0  0  0
   -5.9301   -1.4237    2.1259 H   0  0  0  0  0  0  0  0  0  0  0  0
   -7.0863    0.4118    1.5672 H   0  0  0  0  0  0  0  0  0  0  0  0
   -6.1717   -1.2598   -0.7888 H   0  0  0  0  0  0  0  0  0  0  0  0
   -5.0811    1.9419    1.0824 H   0  0  0  0  0  0  0  0  0  0  0  0
   -5.1752    1.3366   -0.6385 H   0  0  0  0  0  0  0  0  0  0  0  0
   -8.2068   -0.1063   -1.9898 H   0  0  0  0  0  0  0  0  0  0  0  0
   -6.5456    0.4919   -2.2237 H   0  0  0  0  0  0  0  0  0  0  0  0
   -7.4660    2.3979    1.0246 H   0  0  0  0  0  0  0  0  0  0  0  0
   -7.8721    2.3789   -1.8427 H   0  0  0  0  0  0  0  0  0  0  0  0
   -8.8817    1.6429   -0.5802 H   0  0  0  0  0  0  0  0  0  0  0  0
   -7.7108   -2.9797   -1.2761 H   0  0  0  0  0  0  0  0  0  0  0  0
   -8.8461   -3.1763    0.0667 H   0  0  0  0  0  0  0  0  0  0  0  0
   -7.1033   -3.1961    0.4007 H   0  0  0  0  0  0  0  0  0  0  0  0
    5.1907   -1.8197    1.1008 H   0  0  0  0  0  0  0  0  0  0  0  0
    2.6551    0.2365    2.7361 H   0  0  0  0  0  0  0  0  0  0  0  0
    2.3795   -2.8233   -0.1514 H   0  0  0  0  0  0  0  0  0  0  0  0
   -5.3333    0.2515    3.2562 H   0  0  0  0  0  0  0  0  0  0  0  0
    6.2399   -0.2556   -1.8154 H   0  0  0  0  0  0  0  0  0  0  0  0
    4.4966    0.3242    1.2635 H   0  0  0  0  0  0  0  0  0  0  0  0
   -4.7148   -2.4887    0.6598 H   0  0  0  0  0  0  0  0  0  0  0  0
    6.4038    0.9852    0.8819 H   0  0  0  0  0  0  0  0  0  0  0  0
    7.5577    1.6637   -1.8028 H   0  0  0  0  0  0  0  0  0  0  0  0
    7.0356    2.7411   -0.4830 H   0  0  0  0  0  0  0  0  0  0  0  0
    7.5147   -1.4000    0.5349 H   0  0  0  0  0  0  0  0  0  0  0  0
    8.4418   -0.0599    1.2156 H   0  0  0  0  0  0  0  0  0  0  0  0
    9.1560    1.8021    0.8065 H   0  0  0  0  0  0  0  0  0  0  0  0
    9.4236    2.8051   -0.6229 H   0  0  0  0  0  0  0  0  0  0  0  0
    8.4434   -0.8836   -1.7518 H   0  0  0  0  0  0  0  0  0  0  0  0
    9.6282   -1.3547   -0.5073 H   0  0  0  0  0  0  0  0  0  0  0  0
    9.8094    0.9642   -2.0674 H   0  0  0  0  0  0  0  0  0  0  0  0
   10.7373    0.6364   -0.5697 H   0  0  0  0  0  0  0  0  0  0  0  0
    4.2118   -1.0235   -1.3178 H   0  0  0  0  0  0  0  0  0  0  0  0
    0.3830   -1.0798    1.0014 H   0  0  0  0  0  0  0  0  0  0  0  0
   -2.0160    0.9231   -1.1930 H   0  0  0  0  0  0  0  0  0  0  0  0
   -2.9465    0.6889    1.0220 H   0  0  0  0  0  0  0  0  0  0  0  0
   -1.9584   -0.8433    1.3285 H   0  0  0  0  0  0  0  0  0  0  0  0
    1.1459    0.3488   -1.4898 H   0  0  0  0  0  0  0  0  0  0  0  0
    1.3797   -1.4257   -1.4205 H   0  0  0  0  0  0  0  0  0  0  0  0
    1.5819    1.7174    0.6508 H   0  0  0  0  0  0  0  0  0  0  0  0
    0.5775    1.0826    1.9686 H   0  0  0  0  0  0  0  0  0  0  0  0
   -0.9738   -0.7382   -2.2308 H   0  0  0  0  0  0  0  0  0  0  0  0
   -0.9349   -1.6802   -0.7006 H   0  0  0  0  0  0  0  0  0  0  0  0
   -1.1130    2.0239    0.8630 H   0  0  0  0  0  0  0  0  0  0  0  0
   -0.1903    2.1872   -0.6370 H   0  0  0  0  0  0  0  0  0  0  0  0
   -3.8329   -0.4587   -1.0030 H   0  0  0  0  0  0  0  0  0  0  0  0
   -2.9227   -1.9178   -0.5477 H   0  0  0  0  0  0  0  0  0  0  0  0
   -5.9301   -1.4237    2.1259 H   0  0  0  0  0  0  0  0  0  0  0  0
   -7.0863    0.4118    1.5672 H   0  0  0  0  0  0  0  0  0  0  0  0
   -6.1717   -1.2598   -0.7888 H   0  0  0  0  0  0  0  0  0  0  0  0
   -5.0811    1.9419    1.0824 H   0  0  0  0  0  0  0  0  0  0  0  0
   -5.1752    1.3366   -0.6385 H   0  0  0  0  0  0  0  0  0  0  0  0
   -8.2068   -0.1063   -1.9898 H   0  0  0  0  0  0  0  0  0  0  0  0
   -6.5456    0.4919   -2.2237 H   0  0  0  0  0  0  0  0  0  0  0  0
   -7.4660    2.3979    1.0246 H   0  0  0  0  0  0  0  0  0  0  0  0
   -7.8721    2.3789   -1.8427 H   0  0  0  0  0  0  0  0  0  0  0  0
   -8.8817    1.6429   -0.5802 H   0  0  0  0  0  0  0  0  0  0  0  0
   -7.7108   -2.9797   -1.2761 H   0  0  0  0  0  0  0  0  0  0  0  0
   -8.8461   -3.1763    0.0667 H   0  0  0  0  0  0  0  0  0  0  0  0
   -7.1033   -3.1961    0.4007 H   0  0  0  0  0  0  0  0  0  0  0  0
    5.1907   -1.8197    1.1008 H   0  0  0  0  0  0  0  0  0  0  0  0
    2.6551    0.2365    2.7361 H   0  0  0  0  0  0  0  0  0  0  0  0
    2.3795   -2.8233   -0.1514 H   0  0  0  0  0  0  0  0  0  0  0  0
   -5.3333    0.2515    3.2562 H   0  0  0  0  0  0  0  0  0  0  0  0
    6.2399   -0.2556   -1.8154 H   0  0  0  0  0  0  0  0  0  0  0  0
    4.4966    0.3242    1.2635 H   0  0  0  0  0  0  0  0  0  0  0  0
   -4.7148   -2.4887    0.6598 H   0  0  0  0  0  0  0  0  0  0  0  0
    6.4038    0.9852    0.8819 H   0  0  0  0  0  0  0  0  0  0  0  0
    7.5577    1.6637   -1.8028 H   0  0  0  0  0  0  0  0  0  0  0  0
    7.0356    2.7411   -0.4830 H   0  0  0  0  0  0  0  0  0  0  0  0
    7.5147   -1.4000    0.5349 H   0  0  0  0  0  0  0  0  0  0  0  0
    8.4418   -0.0599    1.2156 H   0  0  0  0  0  0  0  0  0  0  0  0
    9.1560    1.8021    0.8065 H   0  0  0  0  0  0  0  0  0  0  0  0
    9.4236    2.8051   -0.6229 H   0  0  0  0  0  0  0  0  0  0  0  0
    8.4434   -0.8836   -1.7518 H   0  0  0  0  0  0  0  0  0  0  0  0
    9.6282   -1.3547   -0.5073 H   0  0  0  0  0  0  0  0  0  0  0  0
    9.8094    0.9642   -2.0674 H   0  0  0  0  0  0  0  0  0  0  0  0
   10.7373    0.6364   -0.5697 H   0  0  0  0  0  0  0  0  0  0  0  0
    4.2118   -1.0235   -1.3178 H   0  0  0  0  0  0  0  0  0  0  0  0
    0.3830   -1.0798    1.0014 H   0  0  0  0  0  0  0  0  0  0  0  0
   -2.0160    0.9231   -1.1930 H   0  0  0  0  0  0  0  0  0  0  0  0
   -2.9465    0.6889    1.0220 H   0  0  0  0  0  0  0  0  0  0  0  0
   -1.9584   -0.8433    1.3285 H   0  0  0  0  0  0  0  0  0  0  0  0
    1.1459    0.3488   -1.4898 H   0  0  0  0  0  0  0  0  0  0  0  0
    1.3797   -1.4257   -1.4205 H   0  0  0  0  0  0  0  0  0  0  0  0
    1.5819    1.7174    0.6508 H   0  0  0  0  0  0  0  0  0  0  0  0
    0.5775    1.0826    1.9686 H   0  0  0  0  0  0  0  0  0  0  0  0
   -0.9738   -0.7382   -2.2308 H   0  0  0  0  0  0  0  0  0  0  0  0
   -0.9349   -1.6802   -0.7006 H   0  0  0  0  0  0  0  0  0  0  0  0
   -1.1130    2.0239    0.8630 H   0  0  0  0  0  0  0  0  0  0  0  0
   -0.1903    2.1872   -0.6370 H   0  0  0  0  0  0  0  0  0  0  0  0
   -3.8329   -0.4587   -1.0030 H   0  0  0  0  0  0  0  0  0  0  0  0
   -2.9227   -1.9178   -0.5477 H   0  0  0  0  0  0  0  0  0  0  0  0
   -5.9301   -1.4237    2.1259 H   0  0  0  0  0  0  0  0  0  0  0  0
   -7.0863    0.4118    1.5672 H   0  0  0  0  0  0  0  0  0  0  0  0
   -6.1717   -1.2598   -0.7888 H   0  0  0  0  0  0  0  0  0  0  0  0
   -5.0811    1.9419    1.0824 H   0  0  0  0  0  0  0  0  0  0  0  0
   -5.1752    1.3366   -0.6385 H   0  0  0  0  0  0  0  0  0  0  0  0
   -8.2068   -0.1063   -1.9898 H   0  0  0  0  0  0  0  0  0  0  0  0
   -6.5456    0.4919   -2.2237 H   0  0  0  0  0  0  0  0  0  0  0  0
   -7.4660    2.3979    1.0246 H   0  0  0  0  0  0  0  0  0  0  0  0
   -7.8721    2.3789   -1.8427 H   0  0  0  0  0  0  0  0  0  0  0  0
   -8.8817    1.6429   -0.5802 H   0  0  0  0  0  0  0  0  0  0  0  0
   -7.7108   -2.9797   -1.2761 H   0  0  0  0  0  0  0  0  0  0  0  0
   -8.8461   -3.1763    0.0667 H   0  0  0  0  0  0  0  0  0  0  0  0
   -7.1033   -3.1961    0.4007 H   0  0  0  0  0  0  0  0  0  0  0  0
  6  2  1  0
  3  6  1  0
  6  9  1  0
  8 11  1  0
 11 12  1  0
 11 13  1  0
 12 14  1  0
 13 15  1  0
 14 16  1  0
 15 16  1  0
  1 17  1  0
  8 17  1  0
  9 17  1  0
  6 18  1  0
 19 20  1  0
 18 21  1  0
 18 22  1  0
 19 23  1  0
 21 23  1  0
 19 24  1  0
 22 24  1  0
 10 25  1  0
 20 25  1  0
  4 26  1  0
 10 26  1  0
 26 27  1  0
  7 28  1  0
 27 28  1  0
 27 29  1  0
 28 30  1  0
  5 31  1  0
 29 31  1  0
 30 32  1  0
 31 32  1  0
  7 33  1  0
 39 35  1  0
 36 39  1  0
 39 42  1  0
 41 44  1  0
 44 45  1  0
 44 46  1  0
 45 47  1  0
 46 48  1  0
 47 49  1  0
 48 49  1  0
 34 50  1  0
 41 50  1  0
 42 50  1  0
 39 51  1  0
 52 53  1  0
 51 54  1  0
 51 55  1  0
 52 56  1  0
 54 56  1  0
 52 57  1  0
 55 57  1  0
 43 58  1  0
 53 58  1  0
 37 59  1  0
 43 59  1  0
 59 60  1  0
 40 61  1  0
 60 61  1  0
 60 62  1  0
 61 63  1  0
 38 64  1  0
 62 64  1  0
 63 65  1  0
 64 65  1  0
 40 66  1  0
 72 68  1  0
 69 72  1  0
 72 75  1  0
 74 77  1  0
 77 78  1  0
 77 79  1  0
 78 80  1  0
 79 81  1  0
 80 82  1  0
 81 82  1  0
 67 83  1  0
 74 83  1  0
 75 83  1  0
 72 84  1  0
 85 86  1  0
 84 87  1  0
 84 88  1  0
 85 89  1  0
 87 89  1  0
 85 90  1  0
 88 90  1  0
 76 91  1  0
 86 91  1  0
 70 92  1  0
 76 92  1  0
 92 93  1  0
 73 94  1  0
 93 94  1  0
 93 95  1  0
 94 96  1  0
 71 97  1  0
 95 97  1  0
 96 98  1  0
 97 98  1  0
 73 99  1  0
105101  1  0
102105  1  0
105108  1  0
107110  1  0
110111  1  0
110112  1  0
111113  1  0
112114  1  0
113115  1  0
114115  1  0
100116  1  0
107116  1  0
108116  1  0
105117  1  0
118119  1  0
117120  1  0
117121  1  0
118122  1  0
120122  1  0
118123  1  0
121123  1  0
109124  1  0
119124  1  0
103125  1  0
109125  1  0
125126  1  0
106127  1  0
126127  1  0
126128  1  0
127129  1  0
104130  1  0
128130  1  0
129131  1  0
130131  1  0
106132  1  0
  1133  1  0
  2134  1  0
  3135  1  0
  4136  1  0
  8137  1  0
  9138  1  0
 10139  1  0
 11140  1  0
 12141  1  0
 12142  1  0
 13143  1  0
 13144  1  0
 14145  1  0
 14146  1  0
 15147  1  0
 15148  1  0
 16149  1  0
 16150  1  0
 17151  1  0
 18152  1  0
 19153  1  0
 20154  1  0
 20155  1  0
 21156  1  0
 21157  1  0
 22158  1  0
 22159  1  0
 23160  1  0
 23161  1  0
 24162  1  0
 24163  1  0
 25164  1  0
 25165  1  0
 26166  1  0
 27167  1  0
 28168  1  0
 29169  1  0
 29170  1  0
 30171  1  0
 30172  1  0
 31173  1  0
 32174  1  0
 32175  1  0
 33176  1  0
 33177  1  0
 33178  1  0
 34179  1  0
 35180  1  0
 36181  1  0
 37182  1  0
 41183  1  0
 42184  1  0
 43185  1  0
 44186  1  0
 45187  1  0
 45188  1  0
 46189  1  0
 46190  1  0
 47191  1  0
 47192  1  0
 48193  1  0
 48194  1  0
 49195  1  0
 49196  1  0
 50197  1  0
 51198  1  0
 52199  1  0
 53200  1  0
 53201  1  0
 54202  1  0
 54203  1  0
 55204  1  0
 55205  1  0
 56206  1  0
 56207  1  0
 57208  1  0
 57209  1  0
 58210  1  0
 58211  1  0
 59212  1  0
 60213  1  0
 61214  1  0
 62215  1  0
 62216  1  0
 63217  1  0
 63218  1  0
 64219  1  0
 65220  1  0
 65221  1  0
 66222  1  0
 66223  1  0
 66224  1  0
 67225  1  0
 68226  1  0
 69227  1  0
 70228  1  0
 74229  1  0
 75230  1  0
 76231  1  0
 77232  1  0
 78233  1  0
 78234  1  0
 79235  1  0
 79236  1  0
 80237  1  0
 80238  1  0
 81239  1  0
 81240  1  0
 82241  1  0
 82242  1  0
 83243  1  0
 84244  1  0
 85245  1  0
 86246  1  0
 86247  1  0
 87248  1  0
 87249  1  0
 88250  1  0
 88251  1  0
 89252  1  0
 89253  1  0
 90254  1  0
 90255  1  0
 91256  1  0
 91257  1  0
 92258  1  0
 93259  1  0
 94260  1  0
 95261  1  0
 95262  1  0
 96263  1  0
 96264  1  0
 97265  1  0
 98266  1  0
 98267  1  0
 99268  1  0
 99269  1  0
 99270  1  0
100271  1  0
101272  1  0
102273  1  0
103274  1  0
107275  1  0
108276  1  0
109277  1  0
110278  1  0
111279  1  0
111280  1  0
112281  1  0
112282  1  0
113283  1  0
113284  1  0
114285  1  0
114286  1  0
115287  1  0
115288  1  0
116289  1  0
117290  1  0
118291  1  0
119292  1  0
119293  1  0
120294  1  0
120295  1  0
121296  1  0
121297  1  0
122298  1  0
122299  1  0
123300  1  0
123301  1  0
124302  1  0
124303  1  0
125304  1  0
126305  1  0
127306  1  0
128307  1  0
128308  1  0
129309  1  0
129310  1  0
130311  1  0
131312  1  0
131313  1  0
132314  1  0
132315  1  0
132316  1  0
M  END
>  <PDBID>  (1) 
6BAA

>  <PDB ID>  (1) 
6BAA

>  <Generic Name>  (1) 
Glyburide

>  <Brand Name>  (1) 
Apo Glyburide Tab 2.5mg#Apo Glyburide Tab 5mg#Ava-glyburide#Diabeta#Diabeta 5mg#Diabeta Tab 2.5mg#Diabeta Tab 5mg#Diabeta Tablets 2.5mg#Dom-glyburide#Euglucon#Glucovance#Glyburide#Glyburide (micronized) and Metformin Hydrochloride#Glyburide Tablets 2.5mg#Glyburide Tablets 5mg#Glyburide and Metformin#Glyburide and Metformin Hydrochloride#Glyburide-2.5 Tab 2.5mg#Glyburide-5 Tab 5mg#Glyburide-metformin Hydrochloride#Glynase#Med Glybe Tab 2.5mg#Med Glybe Tab 5mg#Mylan-glybe#Ntp-glyburide#Nu-glyburide Tab 2.5mg#Nu-glyburide Tab 5mg#PMS-glyburide#Penta-glyburide - 2.5mg#Penta-glyburide - 5mg#Pro-glyburide#Ratio-glyburide#Riva-glyburide#Sandoz Glyburide#Teva-glyburide#Daonil#Delmide#Micronase#Novo-Glyburide#Semi-Daonil

>  <DrugBank ID>  (1) 
DB01016

>  <ATC Codes>  (1) 
A10BB01

>  <Ligand ID>  (1) 
GBM

>  <Target Name>  (1) 
ATP-sensitive inward rectifier potassium channel 11

>  <UniProt ID>  (1) 
Q14654

>  <PDB ID.1>  (1) 
6BAA

>  <Seq. Identity>  (1) 
94%

$$$$
