PDB_DB01157_09
     RDKit          3D

264272  0  0  0  0  0  0  0  0999 V2000
    5.4776   -0.7091    1.0417 N   0  0  0  0  0  0  0  0  0  0  0  0
    6.1556    0.3380    0.3302 C   0  0  1  0  0  0  0  0  0  0  0  0
    5.2715    1.4291    0.0880 N   0  0  0  0  0  0  0  0  0  0  0  0
    4.2619    1.0600   -0.9248 C   0  0  2  0  0  0  0  0  0  0  0  0
    4.1349   -0.9467    0.5739 C   0  0  0  0  0  0  0  0  0  0  0  0
    3.8568   -0.3975   -0.7947 C   0  0  0  0  0  0  0  0  0  0  0  0
    2.4281   -0.6645   -1.2341 C   0  0  0  0  0  0  0  0  0  0  0  0
    1.6076   -1.0724   -0.0701 C   0  0  0  0  0  0  0  0  0  0  0  0
    1.8231   -0.0946    1.0709 C   0  0  0  0  0  0  0  0  0  0  0  0
    3.2094   -0.4253    1.6301 C   0  0  0  0  0  0  0  0  0  0  0  0
    0.1923   -1.4360   -0.2307 C   0  0  0  0  0  0  0  0  0  0  0  0
   -0.7101   -0.4603   -0.7624 N   0  0  0  0  0  0  0  0  0  0  0  0
   -2.1207   -0.8677   -0.5901 C   0  0  0  0  0  0  0  0  0  0  0  0
   -2.5297   -0.8923    0.8267 C   0  0  0  0  0  0  0  0  0  0  0  0
   -3.3713    0.3029    1.2327 C   0  0  0  0  0  0  0  0  0  0  0  0
   -4.4937    0.6348    0.3317 C   0  0  0  0  0  0  0  0  0  0  0  0
   -4.4239   -0.0138   -1.0275 C   0  0  0  0  0  0  0  0  0  0  0  0
   -3.0140   -0.1329   -1.5333 C   0  0  0  0  0  0  0  0  0  0  0  0
    1.8575    0.4769   -2.0129 C   0  0  0  0  0  0  0  0  0  0  0  0
   -3.8281    0.1151    2.5276 O   0  0  0  0  0  0  0  0  0  0  0  0
   -5.6925    0.2191    0.9295 O   0  0  0  0  0  0  0  0  0  0  0  0
   -5.2389    0.5215   -1.9760 O   0  0  0  0  0  0  0  0  0  0  0  0
   -3.2889    1.0192    3.4337 C   0  0  0  0  0  0  0  0  0  0  0  0
   -6.5408    1.2868    1.2041 C   0  0  0  0  0  0  0  0  0  0  0  0
   -6.2595   -0.3200   -2.3897 C   0  0  0  0  0  0  0  0  0  0  0  0
    7.3182    0.8048    1.0489 N   0  0  0  0  0  0  0  0  0  0  0  0
    4.9848    1.3054   -2.1742 N   0  0  0  0  0  0  0  0  0  0  0  0
    5.8577   -1.0298   -0.4958 N   0  0  0  0  0  0  0  0  0  0  0  0
    6.3569    0.3197   -0.4574 C   0  0  1  0  0  0  0  0  0  0  0  0
    5.5019    1.2527    0.2082 N   0  0  0  0  0  0  0  0  0  0  0  0
    4.2352    1.3774   -0.4669 C   0  0  0  0  0  0  0  0  0  0  0  0
    4.4142   -1.1157   -0.5850 C   0  0  0  0  0  0  0  0  0  0  0  0
    3.8644    0.1280   -1.1964 C   0  0  0  0  0  0  0  0  0  0  0  0
    2.3639   -0.0427   -1.4169 C   0  0  1  0  0  0  0  0  0  0  0  0
    1.7900   -1.0984   -0.5663 C   0  0  0  0  0  0  0  0  0  0  0  0
    2.3632   -1.1890    0.8417 C   0  0  0  0  0  0  0  0  0  0  0  0
    3.8285   -1.4362    0.7693 C   0  0  0  0  0  0  0  0  0  0  0  0
    0.3248   -1.2657   -0.5493 C   0  0  0  0  0  0  0  0  0  0  0  0
   -0.4795   -0.1667   -0.1399 N   0  0  0  0  0  0  0  0  0  0  0  0
   -1.8666   -0.6016    0.2326 C   0  0  0  0  0  0  0  0  0  0  0  0
   -2.2742    0.1689    1.4215 C   0  0  0  0  0  0  0  0  0  0  0  0
   -3.6876    0.5202    1.5967 C   0  0  0  0  0  0  0  0  0  0  0  0
   -4.6109    0.4257    0.4511 C   0  0  0  0  0  0  0  0  0  0  0  0
   -4.1867   -0.2933   -0.7636 C   0  0  0  0  0  0  0  0  0  0  0  0
   -2.7677   -0.6653   -0.9312 C   0  0  0  0  0  0  0  0  0  0  0  0
    1.6755    1.3003   -1.4197 C   0  0  0  0  0  0  0  0  0  0  0  0
   -4.2235   -0.1743    2.6824 O   0  0  0  0  0  0  0  0  0  0  0  0
   -5.8788   -0.0827    0.8399 O   0  0  0  0  0  0  0  0  0  0  0  0
   -4.5586    0.4112   -1.9290 O   0  0  0  0  0  0  0  0  0  0  0  0
   -4.5666    0.6708    3.7264 C   0  0  0  0  0  0  0  0  0  0  0  0
   -6.8931    0.8315    0.6792 C   0  0  0  0  0  0  0  0  0  0  0  0
   -5.4889   -0.2583   -2.6783 C   0  0  0  0  0  0  0  0  0  0  0  0
    7.6612    0.2985    0.2199 N   0  0  0  0  0  0  0  0  0  0  0  0
    3.2876    1.8349    0.5095 N   0  0  0  0  0  0  0  0  0  0  0  0
    5.2719   -1.1305   -0.0564 N   0  0  0  0  0  0  0  0  0  0  0  0
    6.2723   -0.2135   -0.5621 C   0  0  0  0  0  0  0  0  0  0  0  0
    5.8442    1.1496   -0.5938 N   0  0  0  0  0  0  0  0  0  0  0  0
    4.4303    1.3091   -0.8959 C   0  0  2  0  0  0  0  0  0  0  0  0
    4.3352   -0.4298    0.8083 C   0  0  0  0  0  0  0  0  0  0  0  0
    3.5672    0.6334    0.1253 C   0  0  0  0  0  0  0  0  0  0  0  0
    2.2510    0.2085   -0.4976 C   0  0  1  0  0  0  0  0  0  0  0  0
    1.6853   -1.0013    0.0969 C   0  0  0  0  0  0  0  0  0  0  0  0
    2.0666   -1.0162    1.5814 C   0  0  0  0  0  0  0  0  0  0  0  0
    3.5519   -1.4037    1.6205 C   0  0  0  0  0  0  0  0  0  0  0  0
    0.2833   -1.3870   -0.1193 C   0  0  0  0  0  0  0  0  0  0  0  0
   -0.7568   -0.5279    0.3031 N   0  0  0  0  0  0  0  0  0  0  0  0
   -2.0863   -1.1380    0.0589 C   0  0  0  0  0  0  0  0  0  0  0  0
   -2.9591   -0.8773    1.2621 C   0  0  0  0  0  0  0  0  0  0  0  0
   -3.6616    0.4623    1.1437 C   0  0  0  0  0  0  0  0  0  0  0  0
   -4.6437    0.4954    0.0157 C   0  0  0  0  0  0  0  0  0  0  0  0
   -4.2179   -0.4305   -1.0934 C   0  0  0  0  0  0  0  0  0  0  0  0
   -2.7221   -0.5489   -1.1540 C   0  0  0  0  0  0  0  0  0  0  0  0
    1.3888    1.4443   -0.5083 C   0  0  0  0  0  0  0  0  0  0  0  0
   -4.2136    0.7618    2.3695 O   0  0  0  0  0  0  0  0  0  0  0  0
   -5.8921    0.2615    0.5028 O   0  0  0  0  0  0  0  0  0  0  0  0
   -4.6570   -0.0446   -2.3352 O   0  0  0  0  0  0  0  0  0  0  0  0
   -3.6323    1.8608    2.9884 C   0  0  0  0  0  0  0  0  0  0  0  0
   -6.8221    1.2316    0.2763 C   0  0  0  0  0  0  0  0  0  0  0  0
   -5.5012   -0.9148   -2.9688 C   0  0  0  0  0  0  0  0  0  0  0  0
    7.4065   -0.2814    0.3581 N   0  0  0  0  0  0  0  0  0  0  0  0
    4.2088    0.8252   -2.2361 N   0  0  0  0  0  0  0  0  0  0  0  0
    5.2719   -1.1305   -0.0564 N   0  0  0  0  0  0  0  0  0  0  0  0
    6.2723   -0.2135   -0.5621 C   0  0  0  0  0  0  0  0  0  0  0  0
    5.8442    1.1496   -0.5938 N   0  0  0  0  0  0  0  0  0  0  0  0
    4.4303    1.3091   -0.8959 C   0  0  2  0  0  0  0  0  0  0  0  0
    4.3352   -0.4298    0.8083 C   0  0  0  0  0  0  0  0  0  0  0  0
    3.5672    0.6334    0.1253 C   0  0  0  0  0  0  0  0  0  0  0  0
    2.2510    0.2085   -0.4976 C   0  0  1  0  0  0  0  0  0  0  0  0
    1.6853   -1.0013    0.0969 C   0  0  0  0  0  0  0  0  0  0  0  0
    2.0666   -1.0162    1.5814 C   0  0  0  0  0  0  0  0  0  0  0  0
    3.5519   -1.4037    1.6205 C   0  0  0  0  0  0  0  0  0  0  0  0
    0.2833   -1.3870   -0.1193 C   0  0  0  0  0  0  0  0  0  0  0  0
   -0.7568   -0.5279    0.3031 N   0  0  0  0  0  0  0  0  0  0  0  0
   -2.0863   -1.1380    0.0589 C   0  0  0  0  0  0  0  0  0  0  0  0
   -2.9591   -0.8773    1.2621 C   0  0  0  0  0  0  0  0  0  0  0  0
   -3.6616    0.4623    1.1437 C   0  0  0  0  0  0  0  0  0  0  0  0
   -4.6437    0.4954    0.0157 C   0  0  0  0  0  0  0  0  0  0  0  0
   -4.2179   -0.4305   -1.0934 C   0  0  0  0  0  0  0  0  0  0  0  0
   -2.7221   -0.5489   -1.1540 C   0  0  0  0  0  0  0  0  0  0  0  0
    1.3888    1.4443   -0.5083 C   0  0  0  0  0  0  0  0  0  0  0  0
   -4.2136    0.7618    2.3695 O   0  0  0  0  0  0  0  0  0  0  0  0
   -5.8921    0.2615    0.5028 O   0  0  0  0  0  0  0  0  0  0  0  0
   -4.6570   -0.0446   -2.3352 O   0  0  0  0  0  0  0  0  0  0  0  0
   -3.6323    1.8608    2.9884 C   0  0  0  0  0  0  0  0  0  0  0  0
   -6.8221    1.2316    0.2763 C   0  0  0  0  0  0  0  0  0  0  0  0
   -5.5012   -0.9148   -2.9688 C   0  0  0  0  0  0  0  0  0  0  0  0
    7.4065   -0.2814    0.3581 N   0  0  0  0  0  0  0  0  0  0  0  0
    4.2088    0.8252   -2.2361 N   0  0  0  0  0  0  0  0  0  0  0  0
    6.0352   -1.5403    1.2481 H   0  0  0  0  0  0  0  0  0  0  0  0
    6.4984   -0.0394   -0.6660 H   0  0  0  0  0  0  0  0  0  0  0  0
    4.8840    1.9230    0.8845 H   0  0  0  0  0  0  0  0  0  0  0  0
    3.4443    1.7696   -0.7441 H   0  0  0  0  0  0  0  0  0  0  0  0
    4.0744   -2.0647    0.4903 H   0  0  0  0  0  0  0  0  0  0  0  0
    4.5129   -0.9564   -1.4955 H   0  0  0  0  0  0  0  0  0  0  0  0
    2.4148   -1.5580   -1.9348 H   0  0  0  0  0  0  0  0  0  0  0  0
    2.1306   -2.0362    0.3160 H   0  0  0  0  0  0  0  0  0  0  0  0
    1.0592   -0.2852    1.8580 H   0  0  0  0  0  0  0  0  0  0  0  0
    1.7850    0.9537    0.7791 H   0  0  0  0  0  0  0  0  0  0  0  0
    3.0291   -1.2673    2.3553 H   0  0  0  0  0  0  0  0  0  0  0  0
    3.6110    0.4056    2.2324 H   0  0  0  0  0  0  0  0  0  0  0  0
   -0.1941   -1.8306    0.7463 H   0  0  0  0  0  0  0  0  0  0  0  0
    0.0584   -2.3451   -0.9016 H   0  0  0  0  0  0  0  0  0  0  0  0
   -0.6014   -0.3801   -1.8277 H   0  0  0  0  0  0  0  0  0  0  0  0
   -2.1031   -1.9427   -0.9764 H   0  0  0  0  0  0  0  0  0  0  0  0
   -3.0260   -1.8473    1.0642 H   0  0  0  0  0  0  0  0  0  0  0  0
   -1.6413   -0.8428    1.4887 H   0  0  0  0  0  0  0  0  0  0  0  0
   -2.6570    1.1768    1.2837 H   0  0  0  0  0  0  0  0  0  0  0  0
   -4.5705    1.7506    0.2504 H   0  0  0  0  0  0  0  0  0  0  0  0
   -4.7961   -1.0696   -0.8545 H   0  0  0  0  0  0  0  0  0  0  0  0
   -3.0906   -0.6350   -2.5334 H   0  0  0  0  0  0  0  0  0  0  0  0
   -2.5479    0.8596   -1.7329 H   0  0  0  0  0  0  0  0  0  0  0  0
    2.6570    1.1338   -2.4559 H   0  0  0  0  0  0  0  0  0  0  0  0
    1.1408    1.1111   -1.4618 H   0  0  0  0  0  0  0  0  0  0  0  0
    1.3306    0.1225   -2.9381 H   0  0  0  0  0  0  0  0  0  0  0  0
   -3.7125    0.7871    4.4306 H   0  0  0  0  0  0  0  0  0  0  0  0
   -3.6285    2.0648    3.2151 H   0  0  0  0  0  0  0  0  0  0  0  0
   -2.2047    1.0087    3.5099 H   0  0  0  0  0  0  0  0  0  0  0  0
   -7.4577    0.8608    1.6724 H   0  0  0  0  0  0  0  0  0  0  0  0
   -6.0649    2.0169    1.8561 H   0  0  0  0  0  0  0  0  0  0  0  0
   -6.8730    1.6883    0.2207 H   0  0  0  0  0  0  0  0  0  0  0  0
   -6.9191    0.0877   -3.1481 H   0  0  0  0  0  0  0  0  0  0  0  0
   -6.8968   -0.6597   -1.5444 H   0  0  0  0  0  0  0  0  0  0  0  0
   -5.7900   -1.2427   -2.7903 H   0  0  0  0  0  0  0  0  0  0  0  0
    7.1393    0.8631    2.0716 H   0  0  0  0  0  0  0  0  0  0  0  0
    8.1674    0.2327    0.8276 H   0  0  0  0  0  0  0  0  0  0  0  0
    4.9366    0.4597   -2.7455 H   0  0  0  0  0  0  0  0  0  0  0  0
    4.7992    2.2066   -2.5995 H   0  0  0  0  0  0  0  0  0  0  0  0
    6.3147   -1.4952   -1.3094 H   0  0  0  0  0  0  0  0  0  0  0  0
    6.5749    0.7359   -1.4743 H   0  0  0  0  0  0  0  0  0  0  0  0
    5.4592    1.2079    1.2246 H   0  0  0  0  0  0  0  0  0  0  0  0
    4.3822    2.2205   -1.2008 H   0  0  0  0  0  0  0  0  0  0  0  0
    4.1958   -1.9687   -1.2567 H   0  0  0  0  0  0  0  0  0  0  0  0
    4.3434    0.2186   -2.2090 H   0  0  0  0  0  0  0  0  0  0  0  0
    2.2298   -0.4025   -2.4882 H   0  0  0  0  0  0  0  0  0  0  0  0
    2.1926   -2.0892   -1.0270 H   0  0  0  0  0  0  0  0  0  0  0  0
    1.8951   -2.1443    1.2415 H   0  0  0  0  0  0  0  0  0  0  0  0
    2.0169   -0.4182    1.5229 H   0  0  0  0  0  0  0  0  0  0  0  0
    4.3994   -0.9390    1.5961 H   0  0  0  0  0  0  0  0  0  0  0  0
    4.0701   -2.5324    0.9134 H   0  0  0  0  0  0  0  0  0  0  0  0
    0.0364   -2.1612    0.0810 H   0  0  0  0  0  0  0  0  0  0  0  0
   -0.0334   -1.5946   -1.5849 H   0  0  0  0  0  0  0  0  0  0  0  0
   -0.6964    0.4158   -1.0277 H   0  0  0  0  0  0  0  0  0  0  0  0
   -1.6716   -1.6693    0.5709 H   0  0  0  0  0  0  0  0  0  0  0  0
   -1.8222   -0.3148    2.3506 H   0  0  0  0  0  0  0  0  0  0  0  0
   -1.6802    1.1434    1.3826 H   0  0  0  0  0  0  0  0  0  0  0  0
   -3.7112    1.6110    1.9516 H   0  0  0  0  0  0  0  0  0  0  0  0
   -4.8784    1.4806    0.1080 H   0  0  0  0  0  0  0  0  0  0  0  0
   -4.8056   -1.2436   -0.8264 H   0  0  0  0  0  0  0  0  0  0  0  0
   -2.7616   -1.7225   -1.3826 H   0  0  0  0  0  0  0  0  0  0  0  0
   -2.2593   -0.0849   -1.7631 H   0  0  0  0  0  0  0  0  0  0  0  0
    2.4628    2.0748   -1.7167 H   0  0  0  0  0  0  0  0  0  0  0  0
    1.1845    1.5845   -0.4965 H   0  0  0  0  0  0  0  0  0  0  0  0
    0.9436    1.4194   -2.2632 H   0  0  0  0  0  0  0  0  0  0  0  0
   -5.3361    1.3719    3.2948 H   0  0  0  0  0  0  0  0  0  0  0  0
   -3.7147    1.3305    4.0307 H   0  0  0  0  0  0  0  0  0  0  0  0
   -5.0415    0.2125    4.5831 H   0  0  0  0  0  0  0  0  0  0  0  0
   -7.8298    0.3448    1.0073 H   0  0  0  0  0  0  0  0  0  0  0  0
   -7.0344    1.1379   -0.3738 H   0  0  0  0  0  0  0  0  0  0  0  0
   -6.7467    1.7119    1.3611 H   0  0  0  0  0  0  0  0  0  0  0  0
   -5.8282    0.2349   -3.5870 H   0  0  0  0  0  0  0  0  0  0  0  0
   -6.3771   -0.5723   -2.0865 H   0  0  0  0  0  0  0  0  0  0  0  0
   -5.0105   -1.2164   -3.0155 H   0  0  0  0  0  0  0  0  0  0  0  0
    7.5275    0.2676    1.2614 H   0  0  0  0  0  0  0  0  0  0  0  0
    8.0972   -0.6118   -0.0540 H   0  0  0  0  0  0  0  0  0  0  0  0
    3.4767    1.4715    1.4688 H   0  0  0  0  0  0  0  0  0  0  0  0
    3.3941    2.8852    0.6103 H   0  0  0  0  0  0  0  0  0  0  0  0
    4.8222   -1.7216   -0.7782 H   0  0  0  0  0  0  0  0  0  0  0  0
    6.6142   -0.5624   -1.5480 H   0  0  0  0  0  0  0  0  0  0  0  0
    6.1693    1.7162    0.1947 H   0  0  0  0  0  0  0  0  0  0  0  0
    4.2418    2.4179   -0.9188 H   0  0  0  0  0  0  0  0  0  0  0  0
    5.0116    0.1030    1.5521 H   0  0  0  0  0  0  0  0  0  0  0  0
    3.3181    1.4143    0.8999 H   0  0  0  0  0  0  0  0  0  0  0  0
    2.4957    0.0280   -1.5948 H   0  0  0  0  0  0  0  0  0  0  0  0
    2.3251   -1.8708   -0.3216 H   0  0  0  0  0  0  0  0  0  0  0  0
    1.5410   -1.8154    2.1240 H   0  0  0  0  0  0  0  0  0  0  0  0
    1.9225   -0.0166    2.0274 H   0  0  0  0  0  0  0  0  0  0  0  0
    3.6169   -2.4109    1.1265 H   0  0  0  0  0  0  0  0  0  0  0  0
    3.9106   -1.5236    2.6565 H   0  0  0  0  0  0  0  0  0  0  0  0
    0.0991   -2.3821    0.4121 H   0  0  0  0  0  0  0  0  0  0  0  0
    0.1133   -1.6912   -1.2057 H   0  0  0  0  0  0  0  0  0  0  0  0
   -0.8071    0.3566   -0.2272 H   0  0  0  0  0  0  0  0  0  0  0  0
   -1.8953   -2.2261   -0.0149 H   0  0  0  0  0  0  0  0  0  0  0  0
   -3.6364   -1.7125    1.3949 H   0  0  0  0  0  0  0  0  0  0  0  0
   -2.2949   -0.8071    2.1420 H   0  0  0  0  0  0  0  0  0  0  0  0
   -2.8606    1.2251    0.9763 H   0  0  0  0  0  0  0  0  0  0  0  0
   -4.6544    1.5209   -0.4549 H   0  0  0  0  0  0  0  0  0  0  0  0
   -4.6395   -1.4270   -0.8675 H   0  0  0  0  0  0  0  0  0  0  0  0
   -2.4608   -1.1825   -2.0285 H   0  0  0  0  0  0  0  0  0  0  0  0
   -2.2265    0.4333   -1.3257 H   0  0  0  0  0  0  0  0  0  0  0  0
    2.0881    2.3551   -0.6237 H   0  0  0  0  0  0  0  0  0  0  0  0
    0.9413    1.6291    0.4840 H   0  0  0  0  0  0  0  0  0  0  0  0
    0.7232    1.5361   -1.3721 H   0  0  0  0  0  0  0  0  0  0  0  0
   -4.1587    2.0120    3.9619 H   0  0  0  0  0  0  0  0  0  0  0  0
   -3.6917    2.7453    2.3352 H   0  0  0  0  0  0  0  0  0  0  0  0
   -2.5718    1.7096    3.2531 H   0  0  0  0  0  0  0  0  0  0  0  0
   -7.7765    0.8762    0.7713 H   0  0  0  0  0  0  0  0  0  0  0  0
   -6.5875    2.2007    0.7325 H   0  0  0  0  0  0  0  0  0  0  0  0
   -7.1233    1.3075   -0.7977 H   0  0  0  0  0  0  0  0  0  0  0  0
   -5.8349   -0.5926   -3.9566 H   0  0  0  0  0  0  0  0  0  0  0  0
   -6.4065   -1.1822   -2.3847 H   0  0  0  0  0  0  0  0  0  0  0  0
   -4.9424   -1.8731   -3.1114 H   0  0  0  0  0  0  0  0  0  0  0  0
    7.0591   -0.1012    1.3347 H   0  0  0  0  0  0  0  0  0  0  0  0
    8.0635    0.5047    0.1535 H   0  0  0  0  0  0  0  0  0  0  0  0
    4.9603    0.2485   -2.6262 H   0  0  0  0  0  0  0  0  0  0  0  0
    3.7340    1.4810   -2.8644 H   0  0  0  0  0  0  0  0  0  0  0  0
    4.8222   -1.7216   -0.7782 H   0  0  0  0  0  0  0  0  0  0  0  0
    6.6142   -0.5624   -1.5480 H   0  0  0  0  0  0  0  0  0  0  0  0
    6.1693    1.7162    0.1947 H   0  0  0  0  0  0  0  0  0  0  0  0
    4.2418    2.4179   -0.9188 H   0  0  0  0  0  0  0  0  0  0  0  0
    5.0116    0.1030    1.5521 H   0  0  0  0  0  0  0  0  0  0  0  0
    3.3181    1.4143    0.8999 H   0  0  0  0  0  0  0  0  0  0  0  0
    2.4957    0.0280   -1.5948 H   0  0  0  0  0  0  0  0  0  0  0  0
    2.3251   -1.8708   -0.3216 H   0  0  0  0  0  0  0  0  0  0  0  0
    1.5410   -1.8154    2.1240 H   0  0  0  0  0  0  0  0  0  0  0  0
    1.9225   -0.0166    2.0274 H   0  0  0  0  0  0  0  0  0  0  0  0
    3.6169   -2.4109    1.1265 H   0  0  0  0  0  0  0  0  0  0  0  0
    3.9106   -1.5236    2.6565 H   0  0  0  0  0  0  0  0  0  0  0  0
    0.0991   -2.3821    0.4121 H   0  0  0  0  0  0  0  0  0  0  0  0
    0.1133   -1.6912   -1.2057 H   0  0  0  0  0  0  0  0  0  0  0  0
   -0.8071    0.3566   -0.2272 H   0  0  0  0  0  0  0  0  0  0  0  0
   -1.8953   -2.2261   -0.0149 H   0  0  0  0  0  0  0  0  0  0  0  0
   -3.6364   -1.7125    1.3949 H   0  0  0  0  0  0  0  0  0  0  0  0
   -2.2949   -0.8071    2.1420 H   0  0  0  0  0  0  0  0  0  0  0  0
   -2.8606    1.2251    0.9763 H   0  0  0  0  0  0  0  0  0  0  0  0
   -4.6544    1.5209   -0.4549 H   0  0  0  0  0  0  0  0  0  0  0  0
   -4.6395   -1.4270   -0.8675 H   0  0  0  0  0  0  0  0  0  0  0  0
   -2.4608   -1.1825   -2.0285 H   0  0  0  0  0  0  0  0  0  0  0  0
   -2.2265    0.4333   -1.3257 H   0  0  0  0  0  0  0  0  0  0  0  0
    2.0881    2.3551   -0.6237 H   0  0  0  0  0  0  0  0  0  0  0  0
    0.9413    1.6291    0.4840 H   0  0  0  0  0  0  0  0  0  0  0  0
    0.7232    1.5361   -1.3721 H   0  0  0  0  0  0  0  0  0  0  0  0
   -4.1587    2.0120    3.9619 H   0  0  0  0  0  0  0  0  0  0  0  0
   -3.6917    2.7453    2.3352 H   0  0  0  0  0  0  0  0  0  0  0  0
   -2.5718    1.7096    3.2531 H   0  0  0  0  0  0  0  0  0  0  0  0
   -7.7765    0.8762    0.7713 H   0  0  0  0  0  0  0  0  0  0  0  0
   -6.5875    2.2007    0.7325 H   0  0  0  0  0  0  0  0  0  0  0  0
   -7.1233    1.3075   -0.7977 H   0  0  0  0  0  0  0  0  0  0  0  0
   -5.8349   -0.5926   -3.9566 H   0  0  0  0  0  0  0  0  0  0  0  0
   -6.4065   -1.1822   -2.3847 H   0  0  0  0  0  0  0  0  0  0  0  0
   -4.9424   -1.8731   -3.1114 H   0  0  0  0  0  0  0  0  0  0  0  0
    7.0591   -0.1012    1.3347 H   0  0  0  0  0  0  0  0  0  0  0  0
    8.0635    0.5047    0.1535 H   0  0  0  0  0  0  0  0  0  0  0  0
    4.9603    0.2485   -2.6262 H   0  0  0  0  0  0  0  0  0  0  0  0
    3.7340    1.4810   -2.8644 H   0  0  0  0  0  0  0  0  0  0  0  0
  1  2  1  0
  2  3  1  0
  3  4  1  0
  1  5  1  0
  4  6  1  0
  5  6  1  0
  6  7  1  0
  7  8  1  0
  8  9  1  0
  5 10  1  0
  9 10  1  0
  8 11  1  0
 11 12  1  0
 12 13  1  0
 13 14  1  0
 14 15  1  0
 15 16  1  0
 16 17  1  0
 13 18  1  0
 17 18  1  0
  7 19  1  0
 15 20  1  0
 16 21  1  0
 17 22  1  0
 20 23  1  0
 21 24  1  0
 22 25  1  0
  2 26  1  0
  4 27  1  0
 28 29  1  0
 29 30  1  0
 30 31  1  0
 28 32  1  0
 31 33  1  0
 32 33  1  0
 33 34  1  0
 34 35  1  0
 35 36  1  0
 32 37  1  0
 36 37  1  0
 35 38  1  0
 38 39  1  0
 39 40  1  0
 40 41  1  0
 41 42  1  0
 42 43  1  0
 43 44  1  0
 40 45  1  0
 44 45  1  0
 34 46  1  0
 42 47  1  0
 43 48  1  0
 44 49  1  0
 47 50  1  0
 48 51  1  0
 49 52  1  0
 29 53  1  0
 31 54  1  0
 55 56  1  0
 56 57  1  0
 57 58  1  0
 55 59  1  0
 58 60  1  0
 59 60  1  0
 60 61  1  0
 61 62  1  0
 62 63  1  0
 59 64  1  0
 63 64  1  0
 62 65  1  0
 65 66  1  0
 66 67  1  0
 67 68  1  0
 68 69  1  0
 69 70  1  0
 70 71  1  0
 67 72  1  0
 71 72  1  0
 61 73  1  0
 69 74  1  0
 70 75  1  0
 71 76  1  0
 74 77  1  0
 75 78  1  0
 76 79  1  0
 56 80  1  0
 58 81  1  0
 82 83  1  0
 83 84  1  0
 84 85  1  0
 82 86  1  0
 85 87  1  0
 86 87  1  0
 87 88  1  0
 88 89  1  0
 89 90  1  0
 86 91  1  0
 90 91  1  0
 89 92  1  0
 92 93  1  0
 93 94  1  0
 94 95  1  0
 95 96  1  0
 96 97  1  0
 97 98  1  0
 94 99  1  0
 98 99  1  0
 88100  1  0
 96101  1  0
 97102  1  0
 98103  1  0
101104  1  0
102105  1  0
103106  1  0
 83107  1  0
 85108  1  0
  1109  1  0
  2110  1  6
  3111  1  0
  4112  1  6
  5113  1  0
  6114  1  0
  7115  1  0
  8116  1  0
  9117  1  0
  9118  1  0
 10119  1  0
 10120  1  0
 11121  1  0
 11122  1  0
 12123  1  0
 13124  1  0
 14125  1  0
 14126  1  0
 15127  1  0
 16128  1  0
 17129  1  0
 18130  1  0
 18131  1  0
 19132  1  0
 19133  1  0
 19134  1  0
 23135  1  0
 23136  1  0
 23137  1  0
 24138  1  0
 24139  1  0
 24140  1  0
 25141  1  0
 25142  1  0
 25143  1  0
 26144  1  0
 26145  1  0
 27146  1  0
 27147  1  0
 28148  1  0
 29149  1  6
 30150  1  0
 31151  1  0
 32152  1  0
 33153  1  0
 34154  1  6
 35155  1  0
 36156  1  0
 36157  1  0
 37158  1  0
 37159  1  0
 38160  1  0
 38161  1  0
 39162  1  0
 40163  1  0
 41164  1  0
 41165  1  0
 42166  1  0
 43167  1  0
 44168  1  0
 45169  1  0
 45170  1  0
 46171  1  0
 46172  1  0
 46173  1  0
 50174  1  0
 50175  1  0
 50176  1  0
 51177  1  0
 51178  1  0
 51179  1  0
 52180  1  0
 52181  1  0
 52182  1  0
 53183  1  0
 53184  1  0
 54185  1  0
 54186  1  0
 55187  1  0
 56188  1  0
 57189  1  0
 58190  1  6
 59191  1  0
 60192  1  0
 61193  1  6
 62194  1  0
 63195  1  0
 63196  1  0
 64197  1  0
 64198  1  0
 65199  1  0
 65200  1  0
 66201  1  0
 67202  1  0
 68203  1  0
 68204  1  0
 69205  1  0
 70206  1  0
 71207  1  0
 72208  1  0
 72209  1  0
 73210  1  0
 73211  1  0
 73212  1  0
 77213  1  0
 77214  1  0
 77215  1  0
 78216  1  0
 78217  1  0
 78218  1  0
 79219  1  0
 79220  1  0
 79221  1  0
 80222  1  0
 80223  1  0
 81224  1  0
 81225  1  0
 82226  1  0
 83227  1  0
 84228  1  0
 85229  1  6
 86230  1  0
 87231  1  0
 88232  1  6
 89233  1  0
 90234  1  0
 90235  1  0
 91236  1  0
 91237  1  0
 92238  1  0
 92239  1  0
 93240  1  0
 94241  1  0
 95242  1  0
 95243  1  0
 96244  1  0
 97245  1  0
 98246  1  0
 99247  1  0
 99248  1  0
100249  1  0
100250  1  0
100251  1  0
104252  1  0
104253  1  0
104254  1  0
105255  1  0
105256  1  0
105257  1  0
106258  1  0
106259  1  0
106260  1  0
107261  1  0
107262  1  0
108263  1  0
108264  1  0
M  END
>  <PDBID>  (1) 
4M2X

>  <PDB ID>  (1) 
4M2X

>  <Generic Name>  (1) 
Trimetrexate

>  <Brand Name>  (1) 
Neutrexin Pws IV 25mg/vial#Neutrexin

>  <DrugBank ID>  (1) 
DB01157

>  <ATC Codes>  (1) 
P01AX07

>  <Ligand ID>  (1) 
TMQ

>  <Target Name>  (1) 
Dihydrofolate reductase

>  <UniProt ID>  (1) 
P00374

>  <PDB ID.1>  (1) 
4M2X

>  <Seq. Identity>  (1) 
31%

$$$$
