PDB_DB01268_07
     RDKit          3D

 72 74  0  0  0  0  0  0  0  0999 V2000
   -0.5659    0.5267    3.5703 C   0  0  0  0  0  0  0  0  0  0  0  0
   -5.9288   -2.1732   -0.5279 C   0  0  0  0  0  0  0  0  0  0  0  0
   -6.3482   -0.7984   -0.1215 C   0  0  0  0  0  0  0  0  0  0  0  0
   -3.7109   -1.4425    0.3647 C   0  0  0  0  0  0  0  0  0  0  0  0
   -0.4018    0.2017    0.6087 C   0  0  0  0  0  0  0  0  0  0  0  0
   -4.6485   -2.6581    0.1061 C   0  0  0  0  0  0  0  0  0  0  0  0
   -4.0241   -0.4848   -0.6931 C   0  0  0  0  0  0  0  0  0  0  0  0
   -3.1388    0.5935   -1.0988 C   0  0  0  0  0  0  0  0  0  0  0  0
   -4.1494    1.4830   -1.9043 C   0  0  0  0  0  0  0  0  0  0  0  0
    1.5504    1.8610    0.8049 C   0  0  0  0  0  0  0  0  0  0  0  0
   -0.0829   -0.2308   -0.7537 C   0  0  0  0  0  0  0  0  0  0  0  0
   -2.5158    1.4924   -0.1197 C   0  0  0  0  0  0  0  0  0  0  0  0
   -0.1526    1.5396    2.5529 C   0  0  0  0  0  0  0  0  0  0  0  0
   -5.3211    0.2626   -0.3128 C   0  0  0  0  0  0  0  0  0  0  0  0
   -1.6405    0.9319    0.8982 C   0  0  0  0  0  0  0  0  0  0  0  0
    0.6499    0.8774    1.4107 C   0  0  0  0  0  0  0  0  0  0  0  0
   -1.2597    2.0833    1.7829 N   0  0  0  0  0  0  0  0  0  0  0  0
   -5.4576    1.0545   -1.5042 N   0  0  0  0  0  0  0  0  0  0  0  0
    2.4050    1.4204   -0.2325 N   0  0  0  0  0  0  0  0  0  0  0  0
   -4.0073    2.8087   -1.5826 O   0  0  0  0  0  0  0  0  0  0  0  0
    0.9072    3.0740    0.4793 O   0  0  0  0  0  0  0  0  0  0  0  0
   -4.9477   -3.3058    1.2707 F   0  0  0  0  0  0  0  0  0  0  0  0
    3.3871    0.4386    0.1173 C   0  0  0  0  0  0  0  0  0  0  0  0
    4.2444    0.0468   -1.0746 C   0  0  0  0  0  0  0  0  0  0  0  0
    5.2087   -0.9405   -0.7449 N   0  0  0  0  0  0  0  0  0  0  0  0
    6.0566   -1.3180   -1.8507 C   0  0  0  0  0  0  0  0  0  0  0  0
    6.0225   -0.6781    0.4028 C   0  0  0  0  0  0  0  0  0  0  0  0
    6.9390    0.4846    0.1128 C   0  0  0  0  0  0  0  0  0  0  0  0
    7.0298   -2.4028   -1.4609 C   0  0  0  0  0  0  0  0  0  0  0  0
   -0.9512   -0.3911    3.1261 H   0  0  0  0  0  0  0  0  0  0  0  0
    0.3159    0.3672    4.2427 H   0  0  0  0  0  0  0  0  0  0  0  0
   -1.3350    1.0266    4.2219 H   0  0  0  0  0  0  0  0  0  0  0  0
   -6.7434   -2.8689   -0.1809 H   0  0  0  0  0  0  0  0  0  0  0  0
   -5.9163   -2.2870   -1.6275 H   0  0  0  0  0  0  0  0  0  0  0  0
   -7.2375   -0.5236   -0.7272 H   0  0  0  0  0  0  0  0  0  0  0  0
   -6.6876   -0.7622    0.9381 H   0  0  0  0  0  0  0  0  0  0  0  0
   -2.7032   -1.8346    0.3678 H   0  0  0  0  0  0  0  0  0  0  0  0
   -4.0057   -1.1494    1.3976 H   0  0  0  0  0  0  0  0  0  0  0  0
   -0.5308   -0.8121    1.1736 H   0  0  0  0  0  0  0  0  0  0  0  0
   -4.1796   -3.3760   -0.5855 H   0  0  0  0  0  0  0  0  0  0  0  0
   -4.2802   -1.0775   -1.6210 H   0  0  0  0  0  0  0  0  0  0  0  0
   -2.3833    0.2267   -1.8316 H   0  0  0  0  0  0  0  0  0  0  0  0
   -3.9601    1.2549   -2.9656 H   0  0  0  0  0  0  0  0  0  0  0  0
    2.2558    2.1938    1.6474 H   0  0  0  0  0  0  0  0  0  0  0  0
   -0.0887    0.4594   -1.5722 H   0  0  0  0  0  0  0  0  0  0  0  0
    0.9411   -0.7198   -0.7194 H   0  0  0  0  0  0  0  0  0  0  0  0
   -0.7241   -1.1263   -1.0505 H   0  0  0  0  0  0  0  0  0  0  0  0
   -3.3896    1.9759    0.4515 H   0  0  0  0  0  0  0  0  0  0  0  0
   -2.0900    2.4303   -0.6117 H   0  0  0  0  0  0  0  0  0  0  0  0
    0.5069    2.3158    2.9693 H   0  0  0  0  0  0  0  0  0  0  0  0
   -5.1260    0.8704    0.5956 H   0  0  0  0  0  0  0  0  0  0  0  0
   -2.3095    0.3521    1.6203 H   0  0  0  0  0  0  0  0  0  0  0  0
    1.3002    0.1336    1.9759 H   0  0  0  0  0  0  0  0  0  0  0  0
   -2.0314    2.3193    2.4315 H   0  0  0  0  0  0  0  0  0  0  0  0
   -6.1606    1.7969   -1.4524 H   0  0  0  0  0  0  0  0  0  0  0  0
    2.0573    1.3152   -1.1635 H   0  0  0  0  0  0  0  0  0  0  0  0
   -3.7243    3.3275   -2.3615 H   0  0  0  0  0  0  0  0  0  0  0  0
    0.5573    2.9355   -0.4451 H   0  0  0  0  0  0  0  0  0  0  0  0
    4.0510    0.8597    0.9308 H   0  0  0  0  0  0  0  0  0  0  0  0
    2.9382   -0.4932    0.5122 H   0  0  0  0  0  0  0  0  0  0  0  0
    3.5390   -0.3140   -1.8587 H   0  0  0  0  0  0  0  0  0  0  0  0
    4.6749    0.9828   -1.4712 H   0  0  0  0  0  0  0  0  0  0  0  0
    6.5789   -0.4197   -2.2432 H   0  0  0  0  0  0  0  0  0  0  0  0
    5.4017   -1.6652   -2.6851 H   0  0  0  0  0  0  0  0  0  0  0  0
    6.6928   -1.5620    0.6353 H   0  0  0  0  0  0  0  0  0  0  0  0
    5.4440   -0.5431    1.3435 H   0  0  0  0  0  0  0  0  0  0  0  0
    8.0084    0.1792    0.0281 H   0  0  0  0  0  0  0  0  0  0  0  0
    6.8554    1.2131    0.9458 H   0  0  0  0  0  0  0  0  0  0  0  0
    6.5824    1.0039   -0.7947 H   0  0  0  0  0  0  0  0  0  0  0  0
    6.5108   -3.1135   -0.7559 H   0  0  0  0  0  0  0  0  0  0  0  0
    7.9292   -2.0021   -0.9573 H   0  0  0  0  0  0  0  0  0  0  0  0
    7.3183   -2.9823   -2.3734 H   0  0  0  0  0  0  0  0  0  0  0  0
  2  3  1  0
  2  6  1  0
  4  6  1  0
  4  7  1  0
  7  8  1  0
  8  9  1  0
  5 11  1  0
  8 12  1  0
  1 13  1  0
  3 14  1  0
  7 14  1  0
  5 15  1  0
 12 15  1  0
  5 16  1  0
 10 16  1  0
 13 16  1  0
 13 17  1  0
 15 17  1  0
  9 18  1  0
 14 18  1  0
 10 19  1  0
  9 20  1  0
 10 21  1  0
  6 22  1  0
 19 23  1  0
 23 24  1  0
 24 25  1  0
 25 26  1  0
 25 27  1  0
 27 28  1  0
 26 29  1  0
  1 30  1  0
  1 31  1  0
  1 32  1  0
  2 33  1  0
  2 34  1  0
  3 35  1  0
  3 36  1  0
  4 37  1  0
  4 38  1  0
  5 39  1  0
  6 40  1  0
  7 41  1  0
  8 42  1  0
  9 43  1  0
 10 44  1  0
 11 45  1  0
 11 46  1  0
 11 47  1  0
 12 48  1  0
 12 49  1  0
 13 50  1  0
 14 51  1  0
 15 52  1  0
 16 53  1  0
 17 54  1  0
 18 55  1  0
 19 56  1  0
 20 57  1  0
 21 58  1  0
 23 59  1  0
 23 60  1  0
 24 61  1  0
 24 62  1  0
 26 63  1  0
 26 64  1  0
 27 65  1  0
 27 66  1  0
 28 67  1  0
 28 68  1  0
 28 69  1  0
 29 70  1  0
 29 71  1  0
 29 72  1  0
M  END
>  <PDBID>  (1) 
4AGD

>  <PDB ID>  (1) 
4AGD

>  <Generic Name>  (1) 
Sunitinib

>  <Brand Name>  (1) 
Sutent

>  <DrugBank ID>  (1) 
DB01268

>  <ATC Codes>  (1) 
L01XE04

>  <Ligand ID>  (1) 
B49

>  <Target Name>  (1) 
Vascular endothelial growth factor receptor 3

>  <UniProt ID>  (1) 
P35916

>  <PDB ID.1>  (1) 
4AGD

>  <Seq. Identity>  (1) 
66%

$$$$
