PDB_DB01034_00
     RDKit          3D

 82 82  0  0  0  0  0  0  0  0999 V2000
   -6.1591    1.3911    0.0560 O   0  0  0  0  0  0  0  0  0  0  0  0
   -5.2488    0.4290   -0.4244 C   0  0  0  0  0  0  0  0  0  0  0  0
   -6.0432   -0.4915   -1.2536 N   0  0  0  0  0  0  0  0  0  0  0  0
   -4.6575   -0.3075    0.7201 C   0  0  2  0  0  0  0  0  0  0  0  0
   -3.8597    0.5386    1.5779 O   0  0  0  0  0  0  0  0  0  0  0  0
   -3.3229   -0.6938    0.9439 C   0  0  2  0  0  0  0  0  0  0  0  0
   -2.1074   -0.4004    0.1033 C   0  0  1  0  0  0  0  0  0  0  0  0
   -2.3217    0.4864   -0.9294 O   0  0  0  0  0  0  0  0  0  0  0  0
   -0.9672    0.0276    0.9925 C   0  0  0  0  0  0  0  0  0  0  0  0
    0.2889    0.3554    0.2525 C   0  0  0  0  0  0  0  0  0  0  0  0
    0.7826   -0.8325   -0.5143 C   0  0  0  0  0  0  0  0  0  0  0  0
    2.0631   -0.5739   -1.2828 C   0  0  0  0  0  0  0  0  0  0  0  0
    3.1439   -0.1862   -0.3312 C   0  0  0  0  0  0  0  0  0  0  0  0
    4.4653    0.0768   -1.0529 C   0  0  0  0  0  0  0  0  0  0  0  0
    5.4691    0.4591    0.0302 C   0  0  0  0  0  0  0  0  0  0  0  0
    5.5891   -0.6887    1.0045 C   0  0  0  0  0  0  0  0  0  0  0  0
    4.4081    1.7698   -0.1575 O   0  0  0  0  0  0  0  0  0  0  0  0
    4.8080    0.6002    0.4236 C   0  0  0  0  0  0  0  0  0  0  0  0
    6.1498    0.2604   -0.0760 N   0  0  0  0  0  0  0  0  0  0  0  0
    3.9436   -0.5853    0.2151 C   0  0  2  0  0  0  0  0  0  0  0  0
    3.8175   -1.0014   -1.1751 O   0  0  0  0  0  0  0  0  0  0  0  0
    2.6451   -0.6735   -0.3195 C   0  0  2  0  0  0  0  0  0  0  0  0
    1.8339    0.3532   -1.0228 C   0  0  0  0  0  0  0  0  0  0  0  0
    1.4157   -0.1799   -2.2452 O   0  0  0  0  0  0  0  0  0  0  0  0
    0.6976    0.8947   -0.2300 C   0  0  0  0  0  0  0  0  0  0  0  0
   -0.3246   -0.0865    0.2185 C   0  0  0  0  0  0  0  0  0  0  0  0
   -1.0330   -0.8351   -0.8589 C   0  0  0  0  0  0  0  0  0  0  0  0
   -2.0504   -1.7993   -0.2722 C   0  0  0  0  0  0  0  0  0  0  0  0
   -3.1052   -1.1036    0.5482 C   0  0  0  0  0  0  0  0  0  0  0  0
   -3.8804   -0.0971   -0.2891 C   0  0  0  0  0  0  0  0  0  0  0  0
   -4.9282    0.5720    0.5851 C   0  0  0  0  0  0  0  0  0  0  0  0
   -4.2800    1.2852    1.7355 C   0  0  0  0  0  0  0  0  0  0  0  0
   -5.8975    1.7071    0.9586 H   0  0  0  0  0  0  0  0  0  0  0  0
   -4.5751    0.9516   -1.0926 H   0  0  0  0  0  0  0  0  0  0  0  0
   -5.5655   -1.4120   -1.2545 H   0  0  0  0  0  0  0  0  0  0  0  0
   -6.9936   -0.5601   -0.8240 H   0  0  0  0  0  0  0  0  0  0  0  0
   -5.4464   -0.7932    1.3688 H   0  0  0  0  0  0  0  0  0  0  0  0
   -3.0890   -1.4012    1.7769 H   0  0  0  0  0  0  0  0  0  0  0  0
   -1.7744   -1.3650   -0.3863 H   0  0  0  0  0  0  0  0  0  0  0  0
   -1.9661    1.3953   -0.7252 H   0  0  0  0  0  0  0  0  0  0  0  0
   -1.2940    0.8718    1.6456 H   0  0  0  0  0  0  0  0  0  0  0  0
   -0.8096   -0.8226    1.7195 H   0  0  0  0  0  0  0  0  0  0  0  0
    1.0786    0.6721    0.9830 H   0  0  0  0  0  0  0  0  0  0  0  0
    0.1354    1.2373   -0.4136 H   0  0  0  0  0  0  0  0  0  0  0  0
   -0.0112   -1.1715   -1.2410 H   0  0  0  0  0  0  0  0  0  0  0  0
    0.9449   -1.6545    0.2109 H   0  0  0  0  0  0  0  0  0  0  0  0
    2.3529   -1.5465   -1.7385 H   0  0  0  0  0  0  0  0  0  0  0  0
    1.9056    0.1934   -2.0575 H   0  0  0  0  0  0  0  0  0  0  0  0
    2.9289    0.7557    0.2240 H   0  0  0  0  0  0  0  0  0  0  0  0
    3.3235   -0.9976    0.3828 H   0  0  0  0  0  0  0  0  0  0  0  0
    4.8115   -0.8419   -1.5647 H   0  0  0  0  0  0  0  0  0  0  0  0
    4.3499    0.8810   -1.7895 H   0  0  0  0  0  0  0  0  0  0  0  0
    6.4447    0.7445   -0.4064 H   0  0  0  0  0  0  0  0  0  0  0  0
    5.0871    1.3343    0.5907 H   0  0  0  0  0  0  0  0  0  0  0  0
    4.7885   -0.6321    1.7842 H   0  0  0  0  0  0  0  0  0  0  0  0
    6.5921   -0.6048    1.4896 H   0  0  0  0  0  0  0  0  0  0  0  0
    5.5641   -1.6519    0.4670 H   0  0  0  0  0  0  0  0  0  0  0  0
    4.6183    2.5169    0.4630 H   0  0  0  0  0  0  0  0  0  0  0  0
    4.9550    0.7122    1.5370 H   0  0  0  0  0  0  0  0  0  0  0  0
    6.0520   -0.4151   -0.8698 H   0  0  0  0  0  0  0  0  0  0  0  0
    6.6367    1.1194   -0.4423 H   0  0  0  0  0  0  0  0  0  0  0  0
    4.3331   -1.4847    0.7822 H   0  0  0  0  0  0  0  0  0  0  0  0
    2.0643   -1.6280   -0.1570 H   0  0  0  0  0  0  0  0  0  0  0  0
    2.4802    1.2334   -1.3247 H   0  0  0  0  0  0  0  0  0  0  0  0
    2.1172   -0.8204   -2.5524 H   0  0  0  0  0  0  0  0  0  0  0  0
    1.1057    1.3800    0.6967 H   0  0  0  0  0  0  0  0  0  0  0  0
    0.1726    1.7083   -0.7764 H   0  0  0  0  0  0  0  0  0  0  0  0
   -1.1131    0.5173    0.7595 H   0  0  0  0  0  0  0  0  0  0  0  0
    0.0728   -0.7691    1.0172 H   0  0  0  0  0  0  0  0  0  0  0  0
   -0.3103   -1.4903   -1.4305 H   0  0  0  0  0  0  0  0  0  0  0  0
   -1.5568   -0.1473   -1.5219 H   0  0  0  0  0  0  0  0  0  0  0  0
   -1.5681   -2.6068    0.3030 H   0  0  0  0  0  0  0  0  0  0  0  0
   -2.6100   -2.3285   -1.0979 H   0  0  0  0  0  0  0  0  0  0  0  0
   -3.8455   -1.8929    0.8660 H   0  0  0  0  0  0  0  0  0  0  0  0
   -2.6787   -0.5968    1.4135 H   0  0  0  0  0  0  0  0  0  0  0  0
   -4.3750   -0.5727   -1.1517 H   0  0  0  0  0  0  0  0  0  0  0  0
   -3.1982    0.6958   -0.6608 H   0  0  0  0  0  0  0  0  0  0  0  0
   -5.6183   -0.1982    1.0131 H   0  0  0  0  0  0  0  0  0  0  0  0
   -5.4993    1.2937   -0.0392 H   0  0  0  0  0  0  0  0  0  0  0  0
   -3.1865    1.3813    1.6083 H   0  0  0  0  0  0  0  0  0  0  0  0
   -4.7344    2.2954    1.8302 H   0  0  0  0  0  0  0  0  0  0  0  0
   -4.4311    0.7233    2.6940 H   0  0  0  0  0  0  0  0  0  0  0  0
  1  2  1  0
  2  3  1  0
  2  4  1  0
  4  5  1  0
  4  6  1  0
  5  6  1  0
  6  7  1  0
  7  8  1  0
  7  9  1  0
  9 10  1  0
 10 11  1  0
 11 12  1  0
 12 13  1  0
 13 14  1  0
 14 15  1  0
 15 16  1  0
 17 18  1  0
 18 19  1  0
 18 20  1  0
 20 21  1  0
 20 22  1  0
 21 22  1  0
 22 23  1  0
 23 24  1  0
 23 25  1  0
 25 26  1  0
 26 27  1  0
 27 28  1  0
 28 29  1  0
 29 30  1  0
 30 31  1  0
 31 32  1  0
  1 33  1  0
  2 34  1  0
  3 35  1  0
  3 36  1  0
  4 37  1  1
  6 38  1  1
  7 39  1  6
  8 40  1  0
  9 41  1  0
  9 42  1  0
 10 43  1  0
 10 44  1  0
 11 45  1  0
 11 46  1  0
 12 47  1  0
 12 48  1  0
 13 49  1  0
 13 50  1  0
 14 51  1  0
 14 52  1  0
 15 53  1  0
 15 54  1  0
 16 55  1  0
 16 56  1  0
 16 57  1  0
 17 58  1  0
 18 59  1  0
 19 60  1  0
 19 61  1  0
 20 62  1  1
 22 63  1  1
 23 64  1  0
 24 65  1  0
 25 66  1  0
 25 67  1  0
 26 68  1  0
 26 69  1  0
 27 70  1  0
 27 71  1  0
 28 72  1  0
 28 73  1  0
 29 74  1  0
 29 75  1  0
 30 76  1  0
 30 77  1  0
 31 78  1  0
 31 79  1  0
 32 80  1  0
 32 81  1  0
 32 82  1  0
M  END
>  <PDBID>  (1) 
4LS7

>  <PDB ID>  (1) 
4LS7

>  <Generic Name>  (1) 
Cerulenin

>  <Brand Name>  (1) 
Helicocerin

>  <DrugBank ID>  (1) 
DB01034

>  <ATC Codes>  (1) 
nan

>  <Ligand ID>  (1) 
1X9

>  <Target Name>  (1) 
3-oxoacyl-[acyl-carrier-protein] synthase 2

>  <UniProt ID>  (1) 
P0AAI5

>  <PDB ID.1>  (1) 
4LS7

>  <Seq. Identity>  (1) 
51%

$$$$
