PDB_DB01586_07
     RDKit          3D

140146  0  0  0  0  0  0  0  0999 V2000
   -3.8371   -1.5027    0.8984 C   0  0  0  0  0  0  0  0  0  0  0  0
   -3.2720   -0.5403   -0.1012 C   0  0  1  0  0  0  0  0  0  0  0  0
   -1.0620   -1.4815    0.5413 C   0  0  0  0  0  0  0  0  0  0  0  0
    0.3322   -1.1364    0.9981 C   0  0  0  0  0  0  0  0  0  0  0  0
    1.0478   -0.3675   -0.0958 C   0  0  1  0  0  0  0  0  0  0  0  0
    0.1860    0.8926   -0.2473 C   0  0  1  0  0  0  0  0  0  0  0  0
    1.0801    1.7651   -1.0227 C   0  0  0  0  0  0  0  0  0  0  0  0
    2.3366    1.6823   -0.1738 C   0  0  0  0  0  0  0  0  0  0  0  0
    2.3329    0.2407    0.3629 C   0  0  2  0  0  0  0  0  0  0  0  0
    1.1259   -1.1797   -1.3384 C   0  0  0  0  0  0  0  0  0  0  0  0
   -3.3108   -1.2211   -1.4585 C   0  0  0  0  0  0  0  0  0  0  0  0
   -2.3224    2.3478   -2.0466 O   0  0  0  0  0  0  0  0  0  0  0  0
   -6.8898   -0.3671    1.9159 O   0  0  0  0  0  0  0  0  0  0  0  0
   -5.3335   -1.7098    0.7340 C   0  0  0  0  0  0  0  0  0  0  0  0
    3.5856   -0.3840   -0.1348 C   0  0  2  0  0  0  0  0  0  0  0  0
    3.7316   -1.8461    0.2363 C   0  0  0  0  0  0  0  0  0  0  0  0
    4.7503    0.3184    0.5837 C   0  0  0  0  0  0  0  0  0  0  0  0
    6.0724   -0.2488    0.1412 C   0  0  0  0  0  0  0  0  0  0  0  0
    7.2380    0.4205    0.8222 C   0  0  0  0  0  0  0  0  0  0  0  0
   -6.0388   -0.3954    0.8052 C   0  0  2  0  0  0  0  0  0  0  0  0
   -5.1231    0.7872    0.9133 C   0  0  0  0  0  0  0  0  0  0  0  0
    7.3059    1.7793    0.5781 O   0  0  0  0  0  0  0  0  0  0  0  0
    8.4038   -0.1496    0.3028 O   0  0  0  0  0  0  0  0  0  0  0  0
   -4.0389    0.7697   -0.1503 C   0  0  1  0  0  0  0  0  0  0  0  0
   -3.1452    1.9530    0.1098 C   0  0  0  0  0  0  0  0  0  0  0  0
   -1.9172    1.9725   -0.7492 C   0  0  1  0  0  0  0  0  0  0  0  0
   -1.1706    0.6558   -0.7558 C   0  0  2  0  0  0  0  0  0  0  0  0
   -1.8606   -0.2230    0.2769 C   0  0  1  0  0  0  0  0  0  0  0  0
   -3.8371   -1.5027    0.8984 C   0  0  0  0  0  0  0  0  0  0  0  0
   -3.2720   -0.5403   -0.1012 C   0  0  1  0  0  0  0  0  0  0  0  0
   -1.0620   -1.4815    0.5413 C   0  0  0  0  0  0  0  0  0  0  0  0
    0.3322   -1.1364    0.9981 C   0  0  0  0  0  0  0  0  0  0  0  0
    1.0478   -0.3675   -0.0958 C   0  0  1  0  0  0  0  0  0  0  0  0
    0.1860    0.8926   -0.2473 C   0  0  1  0  0  0  0  0  0  0  0  0
    1.0801    1.7651   -1.0227 C   0  0  0  0  0  0  0  0  0  0  0  0
    2.3366    1.6823   -0.1738 C   0  0  0  0  0  0  0  0  0  0  0  0
    2.3329    0.2407    0.3629 C   0  0  2  0  0  0  0  0  0  0  0  0
    1.1259   -1.1797   -1.3384 C   0  0  0  0  0  0  0  0  0  0  0  0
   -3.3108   -1.2211   -1.4585 C   0  0  0  0  0  0  0  0  0  0  0  0
   -2.3224    2.3478   -2.0466 O   0  0  0  0  0  0  0  0  0  0  0  0
   -6.8898   -0.3671    1.9159 O   0  0  0  0  0  0  0  0  0  0  0  0
   -5.3335   -1.7098    0.7340 C   0  0  0  0  0  0  0  0  0  0  0  0
    3.5856   -0.3840   -0.1348 C   0  0  2  0  0  0  0  0  0  0  0  0
    3.7316   -1.8461    0.2363 C   0  0  0  0  0  0  0  0  0  0  0  0
    4.7503    0.3184    0.5837 C   0  0  0  0  0  0  0  0  0  0  0  0
    6.0724   -0.2488    0.1412 C   0  0  0  0  0  0  0  0  0  0  0  0
    7.2380    0.4205    0.8222 C   0  0  0  0  0  0  0  0  0  0  0  0
   -6.0388   -0.3954    0.8052 C   0  0  2  0  0  0  0  0  0  0  0  0
   -5.1231    0.7872    0.9133 C   0  0  0  0  0  0  0  0  0  0  0  0
    7.3059    1.7793    0.5781 O   0  0  0  0  0  0  0  0  0  0  0  0
    8.4038   -0.1496    0.3028 O   0  0  0  0  0  0  0  0  0  0  0  0
   -4.0389    0.7697   -0.1503 C   0  0  1  0  0  0  0  0  0  0  0  0
   -3.1452    1.9530    0.1098 C   0  0  0  0  0  0  0  0  0  0  0  0
   -1.9172    1.9725   -0.7492 C   0  0  1  0  0  0  0  0  0  0  0  0
   -1.1706    0.6558   -0.7558 C   0  0  2  0  0  0  0  0  0  0  0  0
   -1.8606   -0.2230    0.2769 C   0  0  1  0  0  0  0  0  0  0  0  0
   -3.3771   -2.5030    0.6772 H   0  0  0  0  0  0  0  0  0  0  0  0
   -3.6692   -1.1943    1.9488 H   0  0  0  0  0  0  0  0  0  0  0  0
   -1.1036   -2.2106   -0.2684 H   0  0  0  0  0  0  0  0  0  0  0  0
   -1.5601   -1.9690    1.4309 H   0  0  0  0  0  0  0  0  0  0  0  0
    0.2010   -0.3930    1.8391 H   0  0  0  0  0  0  0  0  0  0  0  0
    0.8181   -2.0492    1.3210 H   0  0  0  0  0  0  0  0  0  0  0  0
    0.0999    1.3035    0.7907 H   0  0  0  0  0  0  0  0  0  0  0  0
    1.3293    1.3432   -2.0052 H   0  0  0  0  0  0  0  0  0  0  0  0
    0.7357    2.8096   -1.1401 H   0  0  0  0  0  0  0  0  0  0  0  0
    2.1977    2.3581    0.6764 H   0  0  0  0  0  0  0  0  0  0  0  0
    3.2337    1.9088   -0.7756 H   0  0  0  0  0  0  0  0  0  0  0  0
    2.3520    0.2309    1.4690 H   0  0  0  0  0  0  0  0  0  0  0  0
    0.7575   -2.2154   -1.1028 H   0  0  0  0  0  0  0  0  0  0  0  0
    0.4231   -0.8041   -2.1102 H   0  0  0  0  0  0  0  0  0  0  0  0
    2.1134   -1.1996   -1.8231 H   0  0  0  0  0  0  0  0  0  0  0  0
   -2.3063   -1.4995   -1.8069 H   0  0  0  0  0  0  0  0  0  0  0  0
   -3.7543   -0.5215   -2.1799 H   0  0  0  0  0  0  0  0  0  0  0  0
   -3.9044   -2.1669   -1.4307 H   0  0  0  0  0  0  0  0  0  0  0  0
   -3.2149    2.7354   -2.0495 H   0  0  0  0  0  0  0  0  0  0  0  0
   -7.5072    0.4159    1.8757 H   0  0  0  0  0  0  0  0  0  0  0  0
   -5.5726   -2.2629   -0.1990 H   0  0  0  0  0  0  0  0  0  0  0  0
   -5.6462   -2.3791    1.5683 H   0  0  0  0  0  0  0  0  0  0  0  0
    3.7949   -0.2699   -1.2009 H   0  0  0  0  0  0  0  0  0  0  0  0
    2.8189   -2.4373    0.1018 H   0  0  0  0  0  0  0  0  0  0  0  0
    4.5704   -2.2983   -0.3747 H   0  0  0  0  0  0  0  0  0  0  0  0
    4.0529   -1.9876    1.2900 H   0  0  0  0  0  0  0  0  0  0  0  0
    4.6805    0.1118    1.6912 H   0  0  0  0  0  0  0  0  0  0  0  0
    4.6974    1.4156    0.4969 H   0  0  0  0  0  0  0  0  0  0  0  0
    6.1805   -0.3017   -0.9621 H   0  0  0  0  0  0  0  0  0  0  0  0
    6.1295   -1.3264    0.4814 H   0  0  0  0  0  0  0  0  0  0  0  0
    7.2001    0.1578    1.8863 H   0  0  0  0  0  0  0  0  0  0  0  0
   -6.6929   -0.2356   -0.0824 H   0  0  0  0  0  0  0  0  0  0  0  0
   -4.6347    0.8825    1.8944 H   0  0  0  0  0  0  0  0  0  0  0  0
   -5.7499    1.6976    0.6869 H   0  0  0  0  0  0  0  0  0  0  0  0
    6.8333    2.3290    1.2408 H   0  0  0  0  0  0  0  0  0  0  0  0
    8.8334    0.4285   -0.3733 H   0  0  0  0  0  0  0  0  0  0  0  0
   -4.4695    0.8845   -1.1752 H   0  0  0  0  0  0  0  0  0  0  0  0
   -2.9317    2.0999    1.1927 H   0  0  0  0  0  0  0  0  0  0  0  0
   -3.7472    2.8635   -0.1821 H   0  0  0  0  0  0  0  0  0  0  0  0
   -1.2778    2.8054   -0.3926 H   0  0  0  0  0  0  0  0  0  0  0  0
   -1.2649    0.2562   -1.7709 H   0  0  0  0  0  0  0  0  0  0  0  0
   -1.8756    0.3555    1.2233 H   0  0  0  0  0  0  0  0  0  0  0  0
   -3.3771   -2.5030    0.6772 H   0  0  0  0  0  0  0  0  0  0  0  0
   -3.6692   -1.1943    1.9488 H   0  0  0  0  0  0  0  0  0  0  0  0
   -1.1036   -2.2106   -0.2684 H   0  0  0  0  0  0  0  0  0  0  0  0
   -1.5601   -1.9690    1.4309 H   0  0  0  0  0  0  0  0  0  0  0  0
    0.2010   -0.3930    1.8391 H   0  0  0  0  0  0  0  0  0  0  0  0
    0.8181   -2.0492    1.3210 H   0  0  0  0  0  0  0  0  0  0  0  0
    0.0999    1.3035    0.7907 H   0  0  0  0  0  0  0  0  0  0  0  0
    1.3293    1.3432   -2.0052 H   0  0  0  0  0  0  0  0  0  0  0  0
    0.7357    2.8096   -1.1401 H   0  0  0  0  0  0  0  0  0  0  0  0
    2.1977    2.3581    0.6764 H   0  0  0  0  0  0  0  0  0  0  0  0
    3.2337    1.9088   -0.7756 H   0  0  0  0  0  0  0  0  0  0  0  0
    2.3520    0.2309    1.4690 H   0  0  0  0  0  0  0  0  0  0  0  0
    0.7575   -2.2154   -1.1028 H   0  0  0  0  0  0  0  0  0  0  0  0
    0.4231   -0.8041   -2.1102 H   0  0  0  0  0  0  0  0  0  0  0  0
    2.1134   -1.1996   -1.8231 H   0  0  0  0  0  0  0  0  0  0  0  0
   -2.3063   -1.4995   -1.8069 H   0  0  0  0  0  0  0  0  0  0  0  0
   -3.7543   -0.5215   -2.1799 H   0  0  0  0  0  0  0  0  0  0  0  0
   -3.9044   -2.1669   -1.4307 H   0  0  0  0  0  0  0  0  0  0  0  0
   -3.2149    2.7354   -2.0495 H   0  0  0  0  0  0  0  0  0  0  0  0
   -7.5072    0.4159    1.8757 H   0  0  0  0  0  0  0  0  0  0  0  0
   -5.5726   -2.2629   -0.1990 H   0  0  0  0  0  0  0  0  0  0  0  0
   -5.6462   -2.3791    1.5683 H   0  0  0  0  0  0  0  0  0  0  0  0
    3.7949   -0.2699   -1.2009 H   0  0  0  0  0  0  0  0  0  0  0  0
    2.8189   -2.4373    0.1018 H   0  0  0  0  0  0  0  0  0  0  0  0
    4.5704   -2.2983   -0.3747 H   0  0  0  0  0  0  0  0  0  0  0  0
    4.0529   -1.9876    1.2900 H   0  0  0  0  0  0  0  0  0  0  0  0
    4.6805    0.1118    1.6912 H   0  0  0  0  0  0  0  0  0  0  0  0
    4.6974    1.4156    0.4969 H   0  0  0  0  0  0  0  0  0  0  0  0
    6.1805   -0.3017   -0.9621 H   0  0  0  0  0  0  0  0  0  0  0  0
    6.1295   -1.3264    0.4814 H   0  0  0  0  0  0  0  0  0  0  0  0
    7.2001    0.1578    1.8863 H   0  0  0  0  0  0  0  0  0  0  0  0
   -6.6929   -0.2356   -0.0824 H   0  0  0  0  0  0  0  0  0  0  0  0
   -4.6347    0.8825    1.8944 H   0  0  0  0  0  0  0  0  0  0  0  0
   -5.7499    1.6976    0.6869 H   0  0  0  0  0  0  0  0  0  0  0  0
    6.8333    2.3290    1.2408 H   0  0  0  0  0  0  0  0  0  0  0  0
    8.8334    0.4285   -0.3733 H   0  0  0  0  0  0  0  0  0  0  0  0
   -4.4695    0.8845   -1.1752 H   0  0  0  0  0  0  0  0  0  0  0  0
   -2.9317    2.0999    1.1927 H   0  0  0  0  0  0  0  0  0  0  0  0
   -3.7472    2.8635   -0.1821 H   0  0  0  0  0  0  0  0  0  0  0  0
   -1.2778    2.8054   -0.3926 H   0  0  0  0  0  0  0  0  0  0  0  0
   -1.2649    0.2562   -1.7709 H   0  0  0  0  0  0  0  0  0  0  0  0
   -1.8756    0.3555    1.2233 H   0  0  0  0  0  0  0  0  0  0  0  0
  1  2  1  0
  3  4  1  0
  4  5  1  0
  5  6  1  0
  6  7  1  0
  7  8  1  0
  5  9  1  0
  8  9  1  0
  5 10  1  6
  2 11  1  6
  1 14  1  0
  9 15  1  0
 15 16  1  0
 15 17  1  0
 17 18  1  0
 18 19  1  0
 13 20  1  0
 14 20  1  0
 20 21  1  0
 19 22  1  0
 19 23  1  0
  2 24  1  0
 21 24  1  0
 24 25  1  0
 12 26  1  0
 25 26  1  0
  6 27  1  0
 26 27  1  0
  2 28  1  0
  3 28  1  0
 27 28  1  0
 29 30  1  0
 31 32  1  0
 32 33  1  0
 33 34  1  0
 34 35  1  0
 35 36  1  0
 33 37  1  0
 36 37  1  0
 33 38  1  6
 30 39  1  6
 29 42  1  0
 37 43  1  0
 43 44  1  0
 43 45  1  0
 45 46  1  0
 46 47  1  0
 41 48  1  0
 42 48  1  0
 48 49  1  0
 47 50  1  0
 47 51  1  0
 30 52  1  0
 49 52  1  0
 52 53  1  0
 40 54  1  0
 53 54  1  0
 34 55  1  0
 54 55  1  0
 30 56  1  0
 31 56  1  0
 55 56  1  0
  1 57  1  0
  1 58  1  0
  3 59  1  0
  3 60  1  0
  4 61  1  0
  4 62  1  0
  6 63  1  1
  7 64  1  0
  7 65  1  0
  8 66  1  0
  8 67  1  0
  9 68  1  1
 10 69  1  0
 10 70  1  0
 10 71  1  0
 11 72  1  0
 11 73  1  0
 11 74  1  0
 12 75  1  0
 13 76  1  0
 14 77  1  0
 14 78  1  0
 15 79  1  6
 16 80  1  0
 16 81  1  0
 16 82  1  0
 17 83  1  0
 17 84  1  0
 18 85  1  0
 18 86  1  0
 19 87  1  0
 20 88  1  6
 21 89  1  0
 21 90  1  0
 22 91  1  0
 23 92  1  0
 24 93  1  6
 25 94  1  0
 25 95  1  0
 26 96  1  1
 27 97  1  6
 28 98  1  1
 29 99  1  0
 29100  1  0
 31101  1  0
 31102  1  0
 32103  1  0
 32104  1  0
 34105  1  1
 35106  1  0
 35107  1  0
 36108  1  0
 36109  1  0
 37110  1  1
 38111  1  0
 38112  1  0
 38113  1  0
 39114  1  0
 39115  1  0
 39116  1  0
 40117  1  0
 41118  1  0
 42119  1  0
 42120  1  0
 43121  1  6
 44122  1  0
 44123  1  0
 44124  1  0
 45125  1  0
 45126  1  0
 46127  1  0
 46128  1  0
 47129  1  0
 48130  1  6
 49131  1  0
 49132  1  0
 50133  1  0
 51134  1  0
 52135  1  6
 53136  1  0
 53137  1  0
 54138  1  1
 55139  1  6
 56140  1  1
M  END
>  <PDBID>  (1) 
1IHI

>  <PDB ID>  (1) 
1IHI

>  <Generic Name>  (1) 
Ursodeoxycholic acid

>  <Brand Name>  (1) 
Actigall#Dom-ursodiol C#Mint-ursodiol#Novo-ursodiol#PHL-ursodiol C#PMS-ursodiol#PMS-ursodiol C#Pendo-ursodiol C#Urso#Urso 250#Urso DS#Urso Forte#Ursodiol#Ursodiol Tablets USP#Ursodiol Tablets, 250 mg#Ursodiol Tablets, 500 mg#Ursofalk#Cholit-ursan#Delursan#Destolit#Deursil#Litursol#Solutrat#Ursacol#Ursochol#Ursolvan

>  <DrugBank ID>  (1) 
DB01586

>  <ATC Codes>  (1) 
A05AA02

>  <Ligand ID>  (1) 
IU5,JN3

>  <Target Name>  (1) 
Aldo-keto reductase family 1 member C2

>  <UniProt ID>  (1) 
P52895

>  <PDB ID.1>  (1) 
1IHI

>  <Seq. Identity>  (1) 
100%

$$$$
