PDB_DB00775_03
     RDKit          3D

 76 77  0  0  0  0  0  0  0  0999 V2000
   -9.0644   -0.6547    0.9710 C   0  0  0  0  0  0  0  0  0  0  0  0
   -8.2842    0.0307    2.0654 C   0  0  0  0  0  0  0  0  0  0  0  0
   -6.9868    0.5165    1.4774 C   0  0  0  0  0  0  0  0  0  0  0  0
   -6.2272   -0.6809    0.9465 C   0  0  0  0  0  0  0  0  0  0  0  0
   -4.7393   -0.1208    0.2716 S   0  0  0  0  0  0  0  0  0  0  0  0
   -3.9308    0.5881    1.3946 O   0  0  0  0  0  0  0  0  0  0  0  0
   -5.4395    1.4056   -0.6043 O   0  0  0  0  0  0  0  0  0  0  0  0
   -4.2642   -0.8987   -0.8791 N   0  0  0  0  0  0  0  0  0  0  0  0
   -3.0166   -1.2012   -1.4316 C   0  0  1  0  0  0  0  0  0  0  0  0
   -2.2563   -0.0494   -1.9745 C   0  0  0  0  0  0  0  0  0  0  0  0
   -1.8607    1.0933   -1.1581 C   0  0  0  0  0  0  0  0  0  0  0  0
   -0.9620    0.8504   -0.0114 C   0  0  0  0  0  0  0  0  0  0  0  0
    0.4310    0.3977   -0.3569 C   0  0  0  0  0  0  0  0  0  0  0  0
    1.0666    1.1024   -1.5081 C   0  0  0  0  0  0  0  0  0  0  0  0
    1.8754    0.1764   -2.1549 O   0  0  0  0  0  0  0  0  0  0  0  0
    0.0968    1.6107   -2.5364 C   0  0  0  0  0  0  0  0  0  0  0  0
   -1.1630    2.1802   -2.0014 C   0  0  0  0  0  0  0  0  0  0  0  0
   -2.1933   -2.2481   -0.7325 C   0  0  0  0  0  0  0  0  0  0  0  0
   -2.9802   -3.4337   -0.7611 O   0  0  0  0  0  0  0  0  0  0  0  0
   -1.1153   -2.5472   -1.5829 O   0  0  0  0  0  0  0  0  0  0  0  0
    3.1983    0.5030   -2.1922 C   0  0  0  0  0  0  0  0  0  0  0  0
    3.7316    0.5864   -0.7775 C   0  0  0  0  0  0  0  0  0  0  0  0
    5.1969    0.9451   -0.9019 C   0  0  0  0  0  0  0  0  0  0  0  0
    5.7928    1.0541    0.4562 C   0  0  0  0  0  0  0  0  0  0  0  0
    5.7268   -0.2075    1.2871 C   0  0  0  0  0  0  0  0  0  0  0  0
    6.4636   -1.2837    0.5585 C   0  0  0  0  0  0  0  0  0  0  0  0
    7.4433   -2.0439    1.4194 C   0  0  0  0  0  0  0  0  0  0  0  0
    8.3229   -1.0166    2.0018 N   0  0  0  0  0  0  0  0  0  0  0  0
    7.5638   -0.3770    3.0318 C   0  0  0  0  0  0  0  0  0  0  0  0
    6.1985    0.0480    2.6800 C   0  0  0  0  0  0  0  0  0  0  0  0
  -10.1395   -0.3782    1.0488 H   0  0  0  0  0  0  0  0  0  0  0  0
   -9.0074   -1.7612    1.0538 H   0  0  0  0  0  0  0  0  0  0  0  0
   -8.7287   -0.3654   -0.0326 H   0  0  0  0  0  0  0  0  0  0  0  0
   -8.0311   -0.7514    2.8175 H   0  0  0  0  0  0  0  0  0  0  0  0
   -8.8288    0.8917    2.5073 H   0  0  0  0  0  0  0  0  0  0  0  0
   -6.3584    1.0472    2.2375 H   0  0  0  0  0  0  0  0  0  0  0  0
   -7.1695    1.2690    0.6642 H   0  0  0  0  0  0  0  0  0  0  0  0
   -6.8337   -1.1721    0.1805 H   0  0  0  0  0  0  0  0  0  0  0  0
   -5.9911   -1.3210    1.8204 H   0  0  0  0  0  0  0  0  0  0  0  0
   -4.0792    1.5364    1.6211 H   0  0  0  0  0  0  0  0  0  0  0  0
   -6.1376    0.9260   -1.1360 H   0  0  0  0  0  0  0  0  0  0  0  0
   -4.9684   -1.6121   -1.3212 H   0  0  0  0  0  0  0  0  0  0  0  0
   -3.3132   -1.8181   -2.4228 H   0  0  0  0  0  0  0  0  0  0  0  0
   -1.3110   -0.4950   -2.4738 H   0  0  0  0  0  0  0  0  0  0  0  0
   -2.8022    0.3061   -2.9334 H   0  0  0  0  0  0  0  0  0  0  0  0
   -2.7554    1.6563   -0.7504 H   0  0  0  0  0  0  0  0  0  0  0  0
   -0.8541    1.7922    0.6105 H   0  0  0  0  0  0  0  0  0  0  0  0
   -1.3962    0.1280    0.6888 H   0  0  0  0  0  0  0  0  0  0  0  0
    0.4908   -0.7038   -0.4333 H   0  0  0  0  0  0  0  0  0  0  0  0
    1.0581    0.6329    0.5580 H   0  0  0  0  0  0  0  0  0  0  0  0
    1.6472    1.9708   -1.1413 H   0  0  0  0  0  0  0  0  0  0  0  0
    0.6235    2.4590   -3.0730 H   0  0  0  0  0  0  0  0  0  0  0  0
   -0.0794    0.8643   -3.3185 H   0  0  0  0  0  0  0  0  0  0  0  0
   -1.8489    2.3567   -2.8537 H   0  0  0  0  0  0  0  0  0  0  0  0
   -1.0173    3.0410   -1.3522 H   0  0  0  0  0  0  0  0  0  0  0  0
   -1.8976   -2.0119    0.2788 H   0  0  0  0  0  0  0  0  0  0  0  0
   -3.7803   -3.3226   -0.1916 H   0  0  0  0  0  0  0  0  0  0  0  0
   -0.4861   -3.1309   -1.0822 H   0  0  0  0  0  0  0  0  0  0  0  0
    3.3252    1.4763   -2.7178 H   0  0  0  0  0  0  0  0  0  0  0  0
    3.7390   -0.2417   -2.7955 H   0  0  0  0  0  0  0  0  0  0  0  0
    3.2417    1.3195   -0.1431 H   0  0  0  0  0  0  0  0  0  0  0  0
    3.5830   -0.4127   -0.3327 H   0  0  0  0  0  0  0  0  0  0  0  0
    5.3634    1.8797   -1.4342 H   0  0  0  0  0  0  0  0  0  0  0  0
    5.7129    0.1076   -1.4527 H   0  0  0  0  0  0  0  0  0  0  0  0
    5.2903    1.9018    0.9985 H   0  0  0  0  0  0  0  0  0  0  0  0
    6.8479    1.4040    0.3279 H   0  0  0  0  0  0  0  0  0  0  0  0
    4.6616   -0.5071    1.3578 H   0  0  0  0  0  0  0  0  0  0  0  0
    5.7786   -2.0173    0.0797 H   0  0  0  0  0  0  0  0  0  0  0  0
    7.0707   -0.8578   -0.2834 H   0  0  0  0  0  0  0  0  0  0  0  0
    6.8738   -2.5279    2.2251 H   0  0  0  0  0  0  0  0  0  0  0  0
    7.9968   -2.7321    0.7669 H   0  0  0  0  0  0  0  0  0  0  0  0
    8.5175   -0.3420    1.2286 H   0  0  0  0  0  0  0  0  0  0  0  0
    8.1931    0.4855    3.4029 H   0  0  0  0  0  0  0  0  0  0  0  0
    7.5678   -1.0877    3.9105 H   0  0  0  0  0  0  0  0  0  0  0  0
    5.4882   -0.3748    3.4459 H   0  0  0  0  0  0  0  0  0  0  0  0
    6.1192    1.1633    2.8482 H   0  0  0  0  0  0  0  0  0  0  0  0
  1  2  1  0
  2  3  1  0
  3  4  1  0
  4  5  1  0
  5  6  1  0
  5  7  1  0
  5  8  1  0
  8  9  1  0
  9 10  1  0
 10 11  1  0
 11 12  1  0
 12 13  1  0
 13 14  1  0
 14 15  1  0
 14 16  1  0
 11 17  1  0
 16 17  1  0
  9 18  1  0
 18 19  1  0
 18 20  1  0
 15 21  1  0
 21 22  1  0
 22 23  1  0
 23 24  1  0
 24 25  1  0
 25 26  1  0
 26 27  1  0
 27 28  1  0
 28 29  1  0
 25 30  1  0
 29 30  1  0
  1 31  1  0
  1 32  1  0
  1 33  1  0
  2 34  1  0
  2 35  1  0
  3 36  1  0
  3 37  1  0
  4 38  1  0
  4 39  1  0
  6 40  1  0
  7 41  1  0
  8 42  1  0
  9 43  1  6
 10 44  1  0
 10 45  1  0
 11 46  1  0
 12 47  1  0
 12 48  1  0
 13 49  1  0
 13 50  1  0
 14 51  1  0
 16 52  1  0
 16 53  1  0
 17 54  1  0
 17 55  1  0
 18 56  1  0
 19 57  1  0
 20 58  1  0
 21 59  1  0
 21 60  1  0
 22 61  1  0
 22 62  1  0
 23 63  1  0
 23 64  1  0
 24 65  1  0
 24 66  1  0
 25 67  1  0
 26 68  1  0
 26 69  1  0
 27 70  1  0
 27 71  1  0
 28 72  1  0
 29 73  1  0
 29 74  1  0
 30 75  1  0
 30 76  1  0
M  END
>  <PDBID>  (1) 
2VDM

>  <PDB ID>  (1) 
2VDM

>  <Generic Name>  (1) 
Tirofiban

>  <Brand Name>  (1) 
Aggrastat#Aggribloc#Agrastat

>  <DrugBank ID>  (1) 
DB00775

>  <ATC Codes>  (1) 
B01AC17

>  <Ligand ID>  (1) 
AGG

>  <Target Name>  (1) 
Integrin alpha-IIb

>  <UniProt ID>  (1) 
P08514

>  <PDB ID.1>  (1) 
2VDM

>  <Seq. Identity>  (1) 
100%

$$$$
