PDB_DB08881_06
     RDKit          3D

 75 78  0  0  0  0  0  0  0  0999 V2000
   -7.7521    1.0941   -0.3686 C   0  0  0  0  0  0  0  0  0  0  0  0
    0.3089   -1.4492    0.6574 C   0  0  0  0  0  0  0  0  0  0  0  0
   -0.2792    0.6825   -0.6499 C   0  0  0  0  0  0  0  0  0  0  0  0
    2.1559    0.4607   -1.4116 C   0  0  0  0  0  0  0  0  0  0  0  0
    3.2380    0.4622   -0.3439 C   0  0  0  0  0  0  0  0  0  0  0  0
    3.8964    1.8466   -0.4221 C   0  0  0  0  0  0  0  0  0  0  0  0
    1.4791    2.3983   -0.1329 C   0  0  0  0  0  0  0  0  0  0  0  0
   -4.1955   -0.7953    0.6911 C   0  0  0  0  0  0  0  0  0  0  0  0
   -4.0994   -2.2283    0.3373 C   0  0  0  0  0  0  0  0  0  0  0  0
   -2.8317   -2.8274    0.1955 N   0  0  0  0  0  0  0  0  0  0  0  0
   -2.9863    0.0441    0.2897 C   0  0  0  0  0  0  0  0  0  0  0  0
   -0.4600   -2.4350   -0.1054 N   0  0  0  0  0  0  0  0  0  0  0  0
   -0.4455   -0.1619    0.5163 C   0  0  0  0  0  0  0  0  0  0  0  0
   -1.8225   -0.7553    0.6887 C   0  0  0  0  0  0  0  0  0  0  0  0
   -1.7788   -1.9435   -0.2405 C   0  0  0  0  0  0  0  0  0  0  0  0
   -5.4862   -0.1431    0.2820 C   0  0  0  0  0  0  0  0  0  0  0  0
    0.9874    1.2930   -1.0573 C   0  0  0  0  0  0  0  0  0  0  0  0
    2.8042    2.8685   -0.7001 C   0  0  0  0  0  0  0  0  0  0  0  0
    0.6065    3.4645   -0.2205 F   0  0  0  0  0  0  0  0  0  0  0  0
    1.8821   -0.7846   -1.9233 F   0  0  0  0  0  0  0  0  0  0  0  0
    4.1540   -0.5979   -0.5633 N   0  0  0  0  0  0  0  0  0  0  0  0
    5.3573   -0.8995    0.3031 S   0  0  0  0  0  0  0  0  0  0  0  0
    5.3412   -0.9712    1.8462 O   0  0  0  0  0  0  0  0  0  0  0  0
    5.4997   -2.7775   -0.0536 O   0  0  0  0  0  0  0  0  0  0  0  0
    6.8485   -0.4134   -0.3919 C   0  0  0  0  0  0  0  0  0  0  0  0
    7.9991   -0.7421    0.5273 C   0  0  0  0  0  0  0  0  0  0  0  0
    9.2951   -0.3088   -0.0991 C   0  0  0  0  0  0  0  0  0  0  0  0
   -5.4986    1.3020    0.6776 C   0  0  0  0  0  0  0  0  0  0  0  0
   -6.9640    1.7363    0.7539 C   0  0  0  0  0  0  0  0  0  0  0  0
   -6.8266    0.7939   -1.5180 C   0  0  0  0  0  0  0  0  0  0  0  0
   -5.8167   -0.2801   -1.1686 C   0  0  0  0  0  0  0  0  0  0  0  0
   -8.9338    2.2992   -0.9306 Cl  0  0  0  0  0  0  0  0  0  0  0  0
   -0.8537    0.1579   -1.8301 O   0  0  0  0  0  0  0  0  0  0  0  0
   -8.3230    0.2104   -0.0317 H   0  0  0  0  0  0  0  0  0  0  0  0
    0.1607   -1.8072    1.7437 H   0  0  0  0  0  0  0  0  0  0  0  0
    1.3615   -1.4634    0.5265 H   0  0  0  0  0  0  0  0  0  0  0  0
   -0.9710    1.5861   -0.4683 H   0  0  0  0  0  0  0  0  0  0  0  0
    2.7026    0.9627   -2.2940 H   0  0  0  0  0  0  0  0  0  0  0  0
    2.8326    0.4021    0.6850 H   0  0  0  0  0  0  0  0  0  0  0  0
    4.6249    1.8959   -1.2355 H   0  0  0  0  0  0  0  0  0  0  0  0
    4.3189    2.1074    0.5736 H   0  0  0  0  0  0  0  0  0  0  0  0
    1.6583    2.0662    0.8831 H   0  0  0  0  0  0  0  0  0  0  0  0
   -4.1926   -0.7387    1.8245 H   0  0  0  0  0  0  0  0  0  0  0  0
   -4.6880   -2.8808    1.0503 H   0  0  0  0  0  0  0  0  0  0  0  0
   -4.6518   -2.3671   -0.6400 H   0  0  0  0  0  0  0  0  0  0  0  0
   -2.5409   -3.2584    1.0825 H   0  0  0  0  0  0  0  0  0  0  0  0
   -3.0280    0.1165   -0.8129 H   0  0  0  0  0  0  0  0  0  0  0  0
   -2.9836    1.0099    0.7996 H   0  0  0  0  0  0  0  0  0  0  0  0
   -0.4871   -3.3624    0.3745 H   0  0  0  0  0  0  0  0  0  0  0  0
   -0.2653    0.3760    1.4942 H   0  0  0  0  0  0  0  0  0  0  0  0
   -1.8893   -1.1424    1.7293 H   0  0  0  0  0  0  0  0  0  0  0  0
   -2.0699   -1.6705   -1.2925 H   0  0  0  0  0  0  0  0  0  0  0  0
   -6.2885   -0.6573    0.8582 H   0  0  0  0  0  0  0  0  0  0  0  0
    0.7337    1.8875   -2.0042 H   0  0  0  0  0  0  0  0  0  0  0  0
    2.6612    3.0381   -1.7853 H   0  0  0  0  0  0  0  0  0  0  0  0
    3.0347    3.8506   -0.2425 H   0  0  0  0  0  0  0  0  0  0  0  0
    3.6849   -1.3370   -1.1326 H   0  0  0  0  0  0  0  0  0  0  0  0
    6.0261   -1.5279    2.3062 H   0  0  0  0  0  0  0  0  0  0  0  0
    4.6342   -3.0285    0.3594 H   0  0  0  0  0  0  0  0  0  0  0  0
    7.0469   -0.9408   -1.3660 H   0  0  0  0  0  0  0  0  0  0  0  0
    6.8928    0.6624   -0.6273 H   0  0  0  0  0  0  0  0  0  0  0  0
    8.0344   -1.8601    0.6638 H   0  0  0  0  0  0  0  0  0  0  0  0
    7.8506   -0.3204    1.5380 H   0  0  0  0  0  0  0  0  0  0  0  0
    9.5234    0.7570    0.0985 H   0  0  0  0  0  0  0  0  0  0  0  0
    9.2518   -0.4930   -1.1907 H   0  0  0  0  0  0  0  0  0  0  0  0
   10.1021   -0.9696    0.2890 H   0  0  0  0  0  0  0  0  0  0  0  0
   -5.0069    1.4768    1.6615 H   0  0  0  0  0  0  0  0  0  0  0  0
   -4.9931    1.8850   -0.1040 H   0  0  0  0  0  0  0  0  0  0  0  0
   -7.3749    1.4669    1.7469 H   0  0  0  0  0  0  0  0  0  0  0  0
   -7.0107    2.8502    0.6901 H   0  0  0  0  0  0  0  0  0  0  0  0
   -6.3378    1.7484   -1.8024 H   0  0  0  0  0  0  0  0  0  0  0  0
   -7.4520    0.4924   -2.3808 H   0  0  0  0  0  0  0  0  0  0  0  0
   -4.9519   -0.1310   -1.8416 H   0  0  0  0  0  0  0  0  0  0  0  0
   -6.2499   -1.2781   -1.3537 H   0  0  0  0  0  0  0  0  0  0  0  0
   -0.2026   -0.0034   -2.5239 H   0  0  0  0  0  0  0  0  0  0  0  0
  4  5  1  0
  5  6  1  0
  8  9  1  0
  9 10  1  0
  8 11  1  0
  2 12  1  0
  2 13  1  0
  3 13  1  0
 11 14  1  0
 13 14  1  0
 10 15  1  0
 12 15  1  0
 14 15  1  0
  8 16  1  0
  3 17  1  0
  4 17  1  0
  7 17  1  0
  6 18  1  0
  7 18  1  0
  7 19  1  0
  4 20  1  0
  5 21  1  0
 21 22  1  0
 22 23  1  0
 22 24  1  0
 22 25  1  0
 25 26  1  0
 26 27  1  0
 16 28  1  0
  1 29  1  0
 28 29  1  0
  1 30  1  0
 16 31  1  0
 30 31  1  0
  1 32  1  0
  3 33  1  0
  1 34  1  0
  2 35  1  0
  2 36  1  0
  3 37  1  0
  4 38  1  0
  5 39  1  0
  6 40  1  0
  6 41  1  0
  7 42  1  0
  8 43  1  0
  9 44  1  0
  9 45  1  0
 10 46  1  0
 11 47  1  0
 11 48  1  0
 12 49  1  0
 13 50  1  0
 14 51  1  0
 15 52  1  0
 16 53  1  0
 17 54  1  0
 18 55  1  0
 18 56  1  0
 21 57  1  0
 23 58  1  0
 24 59  1  0
 25 60  1  0
 25 61  1  0
 26 62  1  0
 26 63  1  0
 27 64  1  0
 27 65  1  0
 27 66  1  0
 28 67  1  0
 28 68  1  0
 29 69  1  0
 29 70  1  0
 30 71  1  0
 30 72  1  0
 31 73  1  0
 31 74  1  0
 33 75  1  0
M  END
>  <PDBID>  (1) 
3OG7

>  <PDB ID>  (1) 
3OG7

>  <Generic Name>  (1) 
Vemurafenib

>  <Brand Name>  (1) 
Zelboraf

>  <DrugBank ID>  (1) 
DB08881

>  <ATC Codes>  (1) 
L01XE15

>  <Ligand ID>  (1) 
32

>  <Target Name>  (1) 
Serine/threonine-protein kinase B-raf

>  <UniProt ID>  (1) 
P15056

>  <PDB ID.1>  (1) 
3OG7

>  <Seq. Identity>  (1) 
94%

$$$$
