PDB_DB00159_08
     RDKit          3D

 64 63  0  0  0  0  0  0  0  0999 V2000
   -7.9582   -0.9280    2.0672 C   0  0  0  0  0  0  0  0  0  0  0  0
   -7.9649    0.3052    2.6794 O   0  0  0  0  0  0  0  0  0  0  0  0
   -9.2054   -1.2345    1.5398 O   0  0  0  0  0  0  0  0  0  0  0  0
   -6.9467   -0.9771    0.9253 C   0  0  0  0  0  0  0  0  0  0  0  0
   -7.2847    0.0521   -0.1028 C   0  0  0  0  0  0  0  0  0  0  0  0
   -6.3349    0.0398   -1.2468 C   0  0  0  0  0  0  0  0  0  0  0  0
   -4.9274    0.3251   -0.7716 C   0  0  0  0  0  0  0  0  0  0  0  0
   -3.9907    0.3193   -1.9529 C   0  0  0  0  0  0  0  0  0  0  0  0
   -2.5926    0.6204   -1.4751 C   0  0  0  0  0  0  0  0  0  0  0  0
   -2.1189   -0.4007   -0.4886 C   0  0  0  0  0  0  0  0  0  0  0  0
   -0.7025   -0.0916   -0.0127 C   0  0  0  0  0  0  0  0  0  0  0  0
    0.2060   -0.1046   -1.1949 C   0  0  0  0  0  0  0  0  0  0  0  0
    1.6364    0.1503   -0.7461 C   0  0  0  0  0  0  0  0  0  0  0  0
    1.7700    1.4737   -0.0763 C   0  0  0  0  0  0  0  0  0  0  0  0
    3.1519    1.8030    0.3763 C   0  0  0  0  0  0  0  0  0  0  0  0
    4.2392    1.9747   -0.5805 C   0  0  0  0  0  0  0  0  0  0  0  0
    4.6878    0.9228   -1.4832 C   0  0  0  0  0  0  0  0  0  0  0  0
    5.1160   -0.3896   -0.9986 C   0  0  0  0  0  0  0  0  0  0  0  0
    6.2586   -0.5357   -0.0845 C   0  0  0  0  0  0  0  0  0  0  0  0
    6.2006    0.0968    1.2524 C   0  0  0  0  0  0  0  0  0  0  0  0
    7.5299   -0.2769    1.9555 C   0  0  0  0  0  0  0  0  0  0  0  0
    7.6405   -1.7852    2.0674 C   0  0  0  0  0  0  0  0  0  0  0  0
   -7.6663   -1.6895    2.8063 H   0  0  0  0  0  0  0  0  0  0  0  0
   -7.1449    0.8136    2.5053 H   0  0  0  0  0  0  0  0  0  0  0  0
   -9.6249   -0.4869    1.0758 H   0  0  0  0  0  0  0  0  0  0  0  0
   -5.9344   -0.8316    1.3622 H   0  0  0  0  0  0  0  0  0  0  0  0
   -6.9833   -1.9821    0.4710 H   0  0  0  0  0  0  0  0  0  0  0  0
   -7.2822    1.0788    0.3439 H   0  0  0  0  0  0  0  0  0  0  0  0
   -8.3312   -0.0952   -0.4584 H   0  0  0  0  0  0  0  0  0  0  0  0
   -6.5945    0.8225   -1.9942 H   0  0  0  0  0  0  0  0  0  0  0  0
   -6.2926   -0.9454   -1.7660 H   0  0  0  0  0  0  0  0  0  0  0  0
   -4.8798    1.2713   -0.2094 H   0  0  0  0  0  0  0  0  0  0  0  0
   -4.6281   -0.5196   -0.1163 H   0  0  0  0  0  0  0  0  0  0  0  0
   -3.9830   -0.6395   -2.4779 H   0  0  0  0  0  0  0  0  0  0  0  0
   -4.2614    1.1382   -2.6811 H   0  0  0  0  0  0  0  0  0  0  0  0
   -1.9631    0.6568   -2.3924 H   0  0  0  0  0  0  0  0  0  0  0  0
   -2.6468    1.6468   -1.0102 H   0  0  0  0  0  0  0  0  0  0  0  0
   -2.1475   -1.3897   -0.9506 H   0  0  0  0  0  0  0  0  0  0  0  0
   -2.7283   -0.3702    0.4581 H   0  0  0  0  0  0  0  0  0  0  0  0
   -0.6911    0.9329    0.4278 H   0  0  0  0  0  0  0  0  0  0  0  0
   -0.4051   -0.7952    0.7815 H   0  0  0  0  0  0  0  0  0  0  0  0
    0.2111   -1.0415   -1.7559 H   0  0  0  0  0  0  0  0  0  0  0  0
   -0.0225    0.7058   -1.9285 H   0  0  0  0  0  0  0  0  0  0  0  0
    2.3168   -0.0794   -1.5561 H   0  0  0  0  0  0  0  0  0  0  0  0
    1.8897   -0.6199    0.0603 H   0  0  0  0  0  0  0  0  0  0  0  0
    1.1293    1.3914    0.8701 H   0  0  0  0  0  0  0  0  0  0  0  0
    1.3221    2.3001   -0.6941 H   0  0  0  0  0  0  0  0  0  0  0  0
    3.3816    1.0723    1.2053 H   0  0  0  0  0  0  0  0  0  0  0  0
    3.0628    2.7808    0.9746 H   0  0  0  0  0  0  0  0  0  0  0  0
    3.8277    2.8041   -1.3134 H   0  0  0  0  0  0  0  0  0  0  0  0
    5.0808    2.5987   -0.1239 H   0  0  0  0  0  0  0  0  0  0  0  0
    5.6843    1.3760   -1.9418 H   0  0  0  0  0  0  0  0  0  0  0  0
    4.0860    0.8939   -2.4330 H   0  0  0  0  0  0  0  0  0  0  0  0
    4.2824   -1.0134   -0.5703 H   0  0  0  0  0  0  0  0  0  0  0  0
    5.3896   -0.9958   -1.9307 H   0  0  0  0  0  0  0  0  0  0  0  0
    7.2425   -0.2500   -0.5385 H   0  0  0  0  0  0  0  0  0  0  0  0
    6.3542   -1.6554    0.1126 H   0  0  0  0  0  0  0  0  0  0  0  0
    5.4132   -0.3046    1.9207 H   0  0  0  0  0  0  0  0  0  0  0  0
    6.2347    1.1797    1.1946 H   0  0  0  0  0  0  0  0  0  0  0  0
    7.4621    0.1391    2.9601 H   0  0  0  0  0  0  0  0  0  0  0  0
    8.3405    0.1272    1.3381 H   0  0  0  0  0  0  0  0  0  0  0  0
    8.3600   -2.0324    2.8706 H   0  0  0  0  0  0  0  0  0  0  0  0
    6.6787   -2.2601    2.3228 H   0  0  0  0  0  0  0  0  0  0  0  0
    8.0509   -2.2102    1.1324 H   0  0  0  0  0  0  0  0  0  0  0  0
  1  2  1  0
  1  3  1  0
  1  4  1  0
  4  5  1  0
  5  6  1  0
  6  7  1  0
  7  8  1  0
  8  9  1  0
  9 10  1  0
 10 11  1  0
 11 12  1  0
 12 13  1  0
 13 14  1  0
 14 15  1  0
 15 16  1  0
 16 17  1  0
 17 18  1  0
 18 19  1  0
 19 20  1  0
 20 21  1  0
 21 22  1  0
  1 23  1  0
  2 24  1  0
  3 25  1  0
  4 26  1  0
  4 27  1  0
  5 28  1  0
  5 29  1  0
  6 30  1  0
  6 31  1  0
  7 32  1  0
  7 33  1  0
  8 34  1  0
  8 35  1  0
  9 36  1  0
  9 37  1  0
 10 38  1  0
 10 39  1  0
 11 40  1  0
 11 41  1  0
 12 42  1  0
 12 43  1  0
 13 44  1  0
 13 45  1  0
 14 46  1  0
 14 47  1  0
 15 48  1  0
 15 49  1  0
 16 50  1  0
 16 51  1  0
 17 52  1  0
 17 53  1  0
 18 54  1  0
 18 55  1  0
 19 56  1  0
 19 57  1  0
 20 58  1  0
 20 59  1  0
 21 60  1  0
 21 61  1  0
 22 62  1  0
 22 63  1  0
 22 64  1  0
M  END
>  <PDBID>  (1) 
1IGX

>  <PDB ID>  (1) 
1IGX

>  <Generic Name>  (1) 
Icosapent

>  <Brand Name>  (1) 
Animi-3#Animi-3 With Vitamin D#Citranatal Assure#Folcaps Care One#Folcaps Omega-3#Gesticare DHA#Herbalifeline#Natelle One#Prenate Essential#Se-tan DHA#Ultimatecare One Nf#Virt-PN Plus#Virt-bal DHA Plus#Vp-CH-pnv

>  <DrugBank ID>  (1) 
DB00159

>  <ATC Codes>  (1) 
nan

>  <Ligand ID>  (1) 
EPA

>  <Target Name>  (1) 
Prostaglandin G/H synthase 1

>  <UniProt ID>  (1) 
P23219

>  <PDB ID.1>  (1) 
1IGX

>  <Seq. Identity>  (1) 
89%

$$$$
