PDB_DB00701_00
     RDKit          3D

 86 88  0  0  0  0  0  0  0  0999 V2000
   -3.7066    3.0026   -2.0042 C   0  0  0  0  0  0  0  0  0  0  0  0
   -5.2261    3.2270   -0.2208 C   0  0  0  0  0  0  0  0  0  0  0  0
   -2.8959    0.8642    0.5163 C   0  0  2  0  0  0  0  0  0  0  0  0
   -4.1028    2.3188   -0.7201 C   0  0  2  0  0  0  0  0  0  0  0  0
   -0.9475   -0.6562    0.5311 C   0  0  2  0  0  0  0  0  0  0  0  0
    0.2521   -0.7070   -0.4987 C   0  0  1  0  0  0  0  0  0  0  0  0
   -1.6974   -1.9031    0.3809 C   0  0  0  0  0  0  0  0  0  0  0  0
   -2.8601   -2.2212    1.2045 C   0  0  0  0  0  0  0  0  0  0  0  0
   -2.6347   -2.2919    2.6869 C   0  0  0  0  0  0  0  0  0  0  0  0
   -3.2928   -3.6630    0.8113 C   0  0  0  0  0  0  0  0  0  0  0  0
   -4.0304   -2.3717    3.3238 C   0  0  0  0  0  0  0  0  0  0  0  0
   -4.4958   -4.0835    1.5737 C   0  0  0  0  0  0  0  0  0  0  0  0
   -5.0373   -2.9539    2.3814 C   0  0  0  0  0  0  0  0  0  0  0  0
    0.9792    0.5682   -0.4787 C   0  0  0  0  0  0  0  0  0  0  0  0
    1.5391    0.5357   -2.7383 C   0  0  0  0  0  0  0  0  0  0  0  0
    2.3662    0.8701   -3.9298 C   0  0  0  0  0  0  0  0  0  0  0  0
    3.9930    0.4792    0.5302 C   0  0  0  0  0  0  0  0  0  0  0  0
    5.5093    0.6349    0.5306 C   0  0  0  0  0  0  0  0  0  0  0  0
    6.0830    0.5542    1.9149 C   0  0  0  0  0  0  0  0  0  0  0  0
    5.0462    0.1247    2.9330 C   0  0  0  0  0  0  0  0  0  0  0  0
    4.4300   -1.1506    2.3796 C   0  0  0  0  0  0  0  0  0  0  0  0
    3.5350   -0.7283    1.2318 C   0  0  0  0  0  0  0  0  0  0  0  0
    2.8144    2.2911   -4.0089 C   0  0  0  0  0  0  0  0  0  0  0  0
    1.4977    0.5727   -5.1617 C   0  0  0  0  0  0  0  0  0  0  0  0
   -5.7530    3.7551   -1.5349 C   0  0  0  0  0  0  0  0  0  0  0  0
   -1.5438    0.5884    0.2488 N   0  0  0  0  0  0  0  0  0  0  0  0
    2.0832    0.6369   -1.4416 N   0  0  0  0  0  0  0  0  0  0  0  0
    5.7439   -0.1700    4.1699 N   0  0  0  0  0  0  0  0  0  0  0  0
   -3.0793    2.2385    0.1894 O   0  0  0  0  0  0  0  0  0  0  0  0
   -3.1993    0.8489    1.8948 O   0  0  0  0  0  0  0  0  0  0  0  0
    0.9713   -1.8305   -0.3041 O   0  0  0  0  0  0  0  0  0  0  0  0
    4.5196    1.6189   -1.8940 O   0  0  0  0  0  0  0  0  0  0  0  0
    4.1989   -0.9656   -1.7226 O   0  0  0  0  0  0  0  0  0  0  0  0
   -4.6494    3.9199   -2.3551 O   0  0  0  0  0  0  0  0  0  0  0  0
    3.4938    0.4874   -1.1211 S   0  0  0  0  0  0  0  0  0  0  0  0
   -2.7352    3.4990   -1.8253 H   0  0  0  0  0  0  0  0  0  0  0  0
   -3.6313    2.2562   -2.8486 H   0  0  0  0  0  0  0  0  0  0  0  0
   -4.7569    4.0770    0.3180 H   0  0  0  0  0  0  0  0  0  0  0  0
   -5.9644    2.6848    0.3655 H   0  0  0  0  0  0  0  0  0  0  0  0
   -3.6325    0.3251   -0.0959 H   0  0  0  0  0  0  0  0  0  0  0  0
   -4.5731    1.3422   -0.9810 H   0  0  0  0  0  0  0  0  0  0  0  0
   -0.3934   -0.5554    1.5005 H   0  0  0  0  0  0  0  0  0  0  0  0
   -0.2678   -0.7894   -1.4976 H   0  0  0  0  0  0  0  0  0  0  0  0
   -0.9472   -2.7599    0.3919 H   0  0  0  0  0  0  0  0  0  0  0  0
   -2.0462   -1.9562   -0.7026 H   0  0  0  0  0  0  0  0  0  0  0  0
   -3.7782   -1.6424    1.0369 H   0  0  0  0  0  0  0  0  0  0  0  0
   -2.1003   -3.2132    3.0047 H   0  0  0  0  0  0  0  0  0  0  0  0
   -2.1787   -1.3783    3.1139 H   0  0  0  0  0  0  0  0  0  0  0  0
   -2.4616   -4.3634    0.8771 H   0  0  0  0  0  0  0  0  0  0  0  0
   -3.5845   -3.5469   -0.2705 H   0  0  0  0  0  0  0  0  0  0  0  0
   -4.3813   -1.3699    3.6291 H   0  0  0  0  0  0  0  0  0  0  0  0
   -4.0031   -2.9873    4.2575 H   0  0  0  0  0  0  0  0  0  0  0  0
   -4.2849   -4.9518    2.2390 H   0  0  0  0  0  0  0  0  0  0  0  0
   -5.3256   -4.4042    0.8787 H   0  0  0  0  0  0  0  0  0  0  0  0
   -5.5790   -2.2313    1.7577 H   0  0  0  0  0  0  0  0  0  0  0  0
   -5.8435   -3.4078    3.0397 H   0  0  0  0  0  0  0  0  0  0  0  0
    0.2547    1.3536   -0.8977 H   0  0  0  0  0  0  0  0  0  0  0  0
    1.2569    0.9715    0.4984 H   0  0  0  0  0  0  0  0  0  0  0  0
    0.6249    1.1936   -2.8024 H   0  0  0  0  0  0  0  0  0  0  0  0
    1.1412   -0.5149   -2.9330 H   0  0  0  0  0  0  0  0  0  0  0  0
    3.2332    0.1575   -4.0521 H   0  0  0  0  0  0  0  0  0  0  0  0
    3.6080    1.3994    1.0229 H   0  0  0  0  0  0  0  0  0  0  0  0
    5.7264    1.6383    0.1265 H   0  0  0  0  0  0  0  0  0  0  0  0
    5.9194   -0.1078   -0.1813 H   0  0  0  0  0  0  0  0  0  0  0  0
    6.8418   -0.2549    1.9044 H   0  0  0  0  0  0  0  0  0  0  0  0
    6.5840    1.4754    2.2598 H   0  0  0  0  0  0  0  0  0  0  0  0
    4.2863    0.9051    3.0388 H   0  0  0  0  0  0  0  0  0  0  0  0
    3.8228   -1.6163    3.1689 H   0  0  0  0  0  0  0  0  0  0  0  0
    5.2763   -1.7914    2.0194 H   0  0  0  0  0  0  0  0  0  0  0  0
    3.5316   -1.6247    0.5404 H   0  0  0  0  0  0  0  0  0  0  0  0
    2.5158   -0.6636    1.6490 H   0  0  0  0  0  0  0  0  0  0  0  0
    2.5177    2.8664   -3.1055 H   0  0  0  0  0  0  0  0  0  0  0  0
    2.2029    2.7960   -4.8350 H   0  0  0  0  0  0  0  0  0  0  0  0
    3.8485    2.4607   -4.3118 H   0  0  0  0  0  0  0  0  0  0  0  0
    1.9748    1.0105   -6.0591 H   0  0  0  0  0  0  0  0  0  0  0  0
    0.4773    0.9672   -4.9850 H   0  0  0  0  0  0  0  0  0  0  0  0
    1.4613   -0.5380   -5.3483 H   0  0  0  0  0  0  0  0  0  0  0  0
   -6.3965    2.9887   -1.9785 H   0  0  0  0  0  0  0  0  0  0  0  0
   -6.3309    4.6877   -1.3771 H   0  0  0  0  0  0  0  0  0  0  0  0
   -0.9349    1.3696    0.6646 H   0  0  0  0  0  0  0  0  0  0  0  0
    6.6691   -0.5927    3.9246 H   0  0  0  0  0  0  0  0  0  0  0  0
    5.9511    0.7711    4.6233 H   0  0  0  0  0  0  0  0  0  0  0  0
   -2.2956    0.9509    2.3397 H   0  0  0  0  0  0  0  0  0  0  0  0
    0.9465   -2.1215    0.6184 H   0  0  0  0  0  0  0  0  0  0  0  0
    4.2880    2.4998   -1.4675 H   0  0  0  0  0  0  0  0  0  0  0  0
    3.5623   -1.7052   -1.5516 H   0  0  0  0  0  0  0  0  0  0  0  0
  1  4  1  0
  2  4  1  0
  5  6  1  0
  5  7  1  0
  7  8  1  0
  8  9  1  0
  8 10  1  0
  9 11  1  0
 10 12  1  0
 11 13  1  0
 12 13  1  0
  6 14  1  0
 15 16  1  0
 17 18  1  0
 18 19  1  0
 19 20  1  0
 20 21  1  0
 17 22  1  0
 21 22  1  0
 16 23  1  0
 16 24  1  0
  2 25  1  0
  3 26  1  0
  5 26  1  0
 14 27  1  0
 15 27  1  0
 20 28  1  0
  3 29  1  0
  4 29  1  0
  3 30  1  0
  6 31  1  0
  1 34  1  0
 25 34  1  0
 17 35  1  0
 27 35  1  0
 35 32  1  0
 33 35  1  0
  1 36  1  0
  1 37  1  0
  2 38  1  0
  2 39  1  0
  3 40  1  6
  4 41  1  6
  5 42  1  1
  6 43  1  6
  7 44  1  0
  7 45  1  0
  8 46  1  0
  9 47  1  0
  9 48  1  0
 10 49  1  0
 10 50  1  0
 11 51  1  0
 11 52  1  0
 12 53  1  0
 12 54  1  0
 13 55  1  0
 13 56  1  0
 14 57  1  0
 14 58  1  0
 15 59  1  0
 15 60  1  0
 16 61  1  0
 17 62  1  0
 18 63  1  0
 18 64  1  0
 19 65  1  0
 19 66  1  0
 20 67  1  0
 21 68  1  0
 21 69  1  0
 22 70  1  0
 22 71  1  0
 23 72  1  0
 23 73  1  0
 23 74  1  0
 24 75  1  0
 24 76  1  0
 24 77  1  0
 25 78  1  0
 25 79  1  0
 26 80  1  0
 28 81  1  0
 28 82  1  0
 30 83  1  0
 31 84  1  0
 32 85  1  0
 33 86  1  0
M  END
>  <PDBID>  (1) 
1HPV

>  <PDB ID>  (1) 
1HPV

>  <Generic Name>  (1) 
Amprenavir

>  <Brand Name>  (1) 
Agenerase#Agemerase#Prozei

>  <DrugBank ID>  (1) 
DB00701

>  <ATC Codes>  (1) 
J05AE05

>  <Ligand ID>  (1) 
478

>  <Target Name>  (1) 
Pol polyprotein

>  <UniProt ID>  (1) 
Q72874

>  <PDB ID.1>  (1) 
1HPV

>  <Seq. Identity>  (1) 
99%

$$$$
