PDB_DB00806_05
     RDKit          3D

 96 98  0  0  0  0  0  0  0  0999 V2000
    4.9849   -0.8550   -1.2414 C   0  0  0  0  0  0  0  0  0  0  0  0
    4.3541   -0.3366    0.0540 C   0  0  0  0  0  0  0  0  0  0  0  0
    5.3147   -0.5300    1.0689 O   0  0  0  0  0  0  0  0  0  0  0  0
    3.1293   -1.1579    0.3264 C   0  0  0  0  0  0  0  0  0  0  0  0
    2.3840   -0.7669    1.5750 C   0  0  0  0  0  0  0  0  0  0  0  0
    1.9169    0.6819    1.4995 C   0  0  0  0  0  0  0  0  0  0  0  0
    1.0155    0.8997    0.3203 C   0  0  0  0  0  0  0  0  0  0  0  0
   -0.1968    0.1000    0.3361 N   0  0  0  0  0  0  0  0  0  0  0  0
   -0.8695    0.2296   -0.9217 C   0  0  0  0  0  0  0  0  0  0  0  0
   -0.3154    1.3463   -1.5751 O   0  0  0  0  0  0  0  0  0  0  0  0
   -2.3067    0.2759   -0.9902 C   0  0  0  0  0  0  0  0  0  0  0  0
   -3.0391   -0.7315   -1.7011 N   0  0  0  0  0  0  0  0  0  0  0  0
   -2.6488   -2.0767   -1.3147 C   0  0  0  0  0  0  0  0  0  0  0  0
   -4.4029   -0.4515   -1.2682 C   0  0  0  0  0  0  0  0  0  0  0  0
   -4.3124    0.3338   -0.0231 N   0  0  0  0  0  0  0  0  0  0  0  0
   -2.9898    0.0710    0.3782 C   0  0  0  0  0  0  0  0  0  0  0  0
   -2.2954    0.9138    1.2291 N   0  0  0  0  0  0  0  0  0  0  0  0
   -2.5111    2.2925    1.2220 C   0  0  0  0  0  0  0  0  0  0  0  0
   -0.9783    0.4465    1.4888 C   0  0  0  0  0  0  0  0  0  0  0  0
   -1.0970   -0.7103    2.2545 O   0  0  0  0  0  0  0  0  0  0  0  0
    4.9849   -0.8550   -1.2414 C   0  0  0  0  0  0  0  0  0  0  0  0
    4.3541   -0.3366    0.0540 C   0  0  0  0  0  0  0  0  0  0  0  0
    5.3147   -0.5300    1.0689 O   0  0  0  0  0  0  0  0  0  0  0  0
    3.1293   -1.1579    0.3264 C   0  0  0  0  0  0  0  0  0  0  0  0
    2.3840   -0.7669    1.5750 C   0  0  0  0  0  0  0  0  0  0  0  0
    1.9169    0.6819    1.4995 C   0  0  0  0  0  0  0  0  0  0  0  0
    1.0155    0.8997    0.3203 C   0  0  0  0  0  0  0  0  0  0  0  0
   -0.1968    0.1000    0.3361 N   0  0  0  0  0  0  0  0  0  0  0  0
   -0.8695    0.2296   -0.9217 C   0  0  0  0  0  0  0  0  0  0  0  0
   -0.3154    1.3463   -1.5751 O   0  0  0  0  0  0  0  0  0  0  0  0
   -2.3067    0.2759   -0.9902 C   0  0  0  0  0  0  0  0  0  0  0  0
   -3.0391   -0.7315   -1.7011 N   0  0  0  0  0  0  0  0  0  0  0  0
   -2.6488   -2.0767   -1.3147 C   0  0  0  0  0  0  0  0  0  0  0  0
   -4.4029   -0.4515   -1.2682 C   0  0  0  0  0  0  0  0  0  0  0  0
   -4.3124    0.3338   -0.0231 N   0  0  0  0  0  0  0  0  0  0  0  0
   -2.9898    0.0710    0.3782 C   0  0  0  0  0  0  0  0  0  0  0  0
   -2.2954    0.9138    1.2291 N   0  0  0  0  0  0  0  0  0  0  0  0
   -2.5111    2.2925    1.2220 C   0  0  0  0  0  0  0  0  0  0  0  0
   -0.9783    0.4465    1.4888 C   0  0  0  0  0  0  0  0  0  0  0  0
   -1.0970   -0.7103    2.2545 O   0  0  0  0  0  0  0  0  0  0  0  0
    4.2610   -0.9324   -2.0563 H   0  0  0  0  0  0  0  0  0  0  0  0
    5.4616   -1.8393   -1.1183 H   0  0  0  0  0  0  0  0  0  0  0  0
    5.7833   -0.1637   -1.6032 H   0  0  0  0  0  0  0  0  0  0  0  0
    4.2030    0.7333   -0.0501 H   0  0  0  0  0  0  0  0  0  0  0  0
    6.1220   -0.0078    0.8423 H   0  0  0  0  0  0  0  0  0  0  0  0
    2.4228   -1.1824   -0.5051 H   0  0  0  0  0  0  0  0  0  0  0  0
    3.4835   -2.2051    0.4962 H   0  0  0  0  0  0  0  0  0  0  0  0
    1.5101   -1.4395    1.6710 H   0  0  0  0  0  0  0  0  0  0  0  0
    3.0127   -0.9385    2.4723 H   0  0  0  0  0  0  0  0  0  0  0  0
    1.4536    0.9875    2.4443 H   0  0  0  0  0  0  0  0  0  0  0  0
    2.8385    1.2929    1.3099 H   0  0  0  0  0  0  0  0  0  0  0  0
    1.5618    0.8109   -0.6335 H   0  0  0  0  0  0  0  0  0  0  0  0
    0.6439    1.9685    0.3302 H   0  0  0  0  0  0  0  0  0  0  0  0
   -0.4711   -0.6386   -1.5454 H   0  0  0  0  0  0  0  0  0  0  0  0
   -1.0314    2.0195   -1.6582 H   0  0  0  0  0  0  0  0  0  0  0  0
   -2.7028    1.2636   -1.3623 H   0  0  0  0  0  0  0  0  0  0  0  0
   -3.4909   -2.5585   -0.7823 H   0  0  0  0  0  0  0  0  0  0  0  0
   -2.4543   -2.6747   -2.2056 H   0  0  0  0  0  0  0  0  0  0  0  0
   -1.7943   -2.0813   -0.6064 H   0  0  0  0  0  0  0  0  0  0  0  0
   -4.9026    0.1124   -2.0784 H   0  0  0  0  0  0  0  0  0  0  0  0
   -4.9732   -1.3841   -1.1149 H   0  0  0  0  0  0  0  0  0  0  0  0
   -4.4762    1.3289   -0.3338 H   0  0  0  0  0  0  0  0  0  0  0  0
   -2.9217   -0.9834    0.7141 H   0  0  0  0  0  0  0  0  0  0  0  0
   -3.5688    2.5242    1.0462 H   0  0  0  0  0  0  0  0  0  0  0  0
   -2.2394    2.7852    2.1848 H   0  0  0  0  0  0  0  0  0  0  0  0
   -1.9345    2.8056    0.4021 H   0  0  0  0  0  0  0  0  0  0  0  0
   -0.4563    1.1998    2.0985 H   0  0  0  0  0  0  0  0  0  0  0  0
   -0.4767   -0.7775    2.9966 H   0  0  0  0  0  0  0  0  0  0  0  0
    4.2610   -0.9324   -2.0563 H   0  0  0  0  0  0  0  0  0  0  0  0
    5.4616   -1.8393   -1.1183 H   0  0  0  0  0  0  0  0  0  0  0  0
    5.7833   -0.1637   -1.6032 H   0  0  0  0  0  0  0  0  0  0  0  0
    4.2030    0.7333   -0.0501 H   0  0  0  0  0  0  0  0  0  0  0  0
    6.1220   -0.0078    0.8423 H   0  0  0  0  0  0  0  0  0  0  0  0
    2.4228   -1.1824   -0.5051 H   0  0  0  0  0  0  0  0  0  0  0  0
    3.4835   -2.2051    0.4962 H   0  0  0  0  0  0  0  0  0  0  0  0
    1.5101   -1.4395    1.6710 H   0  0  0  0  0  0  0  0  0  0  0  0
    3.0127   -0.9385    2.4723 H   0  0  0  0  0  0  0  0  0  0  0  0
    1.4536    0.9875    2.4443 H   0  0  0  0  0  0  0  0  0  0  0  0
    2.8385    1.2929    1.3099 H   0  0  0  0  0  0  0  0  0  0  0  0
    1.5618    0.8109   -0.6335 H   0  0  0  0  0  0  0  0  0  0  0  0
    0.6439    1.9685    0.3302 H   0  0  0  0  0  0  0  0  0  0  0  0
   -0.4711   -0.6386   -1.5454 H   0  0  0  0  0  0  0  0  0  0  0  0
   -1.0314    2.0195   -1.6582 H   0  0  0  0  0  0  0  0  0  0  0  0
   -2.7028    1.2636   -1.3623 H   0  0  0  0  0  0  0  0  0  0  0  0
   -3.4909   -2.5585   -0.7823 H   0  0  0  0  0  0  0  0  0  0  0  0
   -2.4543   -2.6747   -2.2056 H   0  0  0  0  0  0  0  0  0  0  0  0
   -1.7943   -2.0813   -0.6064 H   0  0  0  0  0  0  0  0  0  0  0  0
   -4.9026    0.1124   -2.0784 H   0  0  0  0  0  0  0  0  0  0  0  0
   -4.9732   -1.3841   -1.1149 H   0  0  0  0  0  0  0  0  0  0  0  0
   -4.4762    1.3289   -0.3338 H   0  0  0  0  0  0  0  0  0  0  0  0
   -2.9217   -0.9834    0.7141 H   0  0  0  0  0  0  0  0  0  0  0  0
   -3.5688    2.5242    1.0462 H   0  0  0  0  0  0  0  0  0  0  0  0
   -2.2394    2.7852    2.1848 H   0  0  0  0  0  0  0  0  0  0  0  0
   -1.9345    2.8056    0.4021 H   0  0  0  0  0  0  0  0  0  0  0  0
   -0.4563    1.1998    2.0985 H   0  0  0  0  0  0  0  0  0  0  0  0
   -0.4767   -0.7775    2.9966 H   0  0  0  0  0  0  0  0  0  0  0  0
  1  2  1  0
  2  3  1  0
  2  4  1  0
  4  5  1  0
  5  6  1  0
  6  7  1  0
  7  8  1  0
  8  9  1  0
  9 10  1  0
  9 11  1  0
 11 12  1  0
 12 13  1  0
 12 14  1  0
 14 15  1  0
 11 16  1  0
 15 16  1  0
 16 17  1  0
 17 18  1  0
  8 19  1  0
 17 19  1  0
 19 20  1  0
 21 22  1  0
 22 23  1  0
 22 24  1  0
 24 25  1  0
 25 26  1  0
 26 27  1  0
 27 28  1  0
 28 29  1  0
 29 30  1  0
 29 31  1  0
 31 32  1  0
 32 33  1  0
 32 34  1  0
 34 35  1  0
 31 36  1  0
 35 36  1  0
 36 37  1  0
 37 38  1  0
 28 39  1  0
 37 39  1  0
 39 40  1  0
  1 41  1  0
  1 42  1  0
  1 43  1  0
  2 44  1  0
  3 45  1  0
  4 46  1  0
  4 47  1  0
  5 48  1  0
  5 49  1  0
  6 50  1  0
  6 51  1  0
  7 52  1  0
  7 53  1  0
  9 54  1  0
 10 55  1  0
 11 56  1  0
 13 57  1  0
 13 58  1  0
 13 59  1  0
 14 60  1  0
 14 61  1  0
 15 62  1  0
 16 63  1  0
 18 64  1  0
 18 65  1  0
 18 66  1  0
 19 67  1  0
 20 68  1  0
 21 69  1  0
 21 70  1  0
 21 71  1  0
 22 72  1  0
 23 73  1  0
 24 74  1  0
 24 75  1  0
 25 76  1  0
 25 77  1  0
 26 78  1  0
 26 79  1  0
 27 80  1  0
 27 81  1  0
 29 82  1  0
 30 83  1  0
 31 84  1  0
 33 85  1  0
 33 86  1  0
 33 87  1  0
 34 88  1  0
 34 89  1  0
 35 90  1  0
 36 91  1  0
 38 92  1  0
 38 93  1  0
 38 94  1  0
 39 95  1  0
 40 96  1  0
M  END
>  <PDBID>  (1) 
3TVX

>  <PDB ID>  (1) 
3TVX

>  <Generic Name>  (1) 
Pentoxifylline

>  <Brand Name>  (1) 
Gapeam Budibac#Nu-pentoxifylline-SR 400 mg#Pentoxifylline#Pentoxifylline SR#Ratio-pentoxifylline#Trental#Trental Srt 400mg#Trental Tab 400mg#Agapurin#Agapurin SR#An Ruo Ning#Angiopent#Ao Le Ni#Ao Nuo Hong#Aotong#Azupentat#Behrifil#Bo Shu Te#Claudicat#Durapental#Elorgan#Endopentoksas#Pentilin#Pentilin Retard#Pentoflux#Pentofyllin#Pentoksifilin#Pentolab#Pentomer#Pentoxil#Rentylin#Torental#Trentilin Retard

>  <DrugBank ID>  (1) 
DB00806

>  <ATC Codes>  (1) 
C04AD03

>  <Ligand ID>  (1) 
PNX

>  <Target Name>  (1) 
cAMP-specific 3',5'-cyclic phosphodiesterase 4B

>  <UniProt ID>  (1) 
Q07343

>  <PDB ID.1>  (1) 
3TVX

>  <Seq. Identity>  (1) 
84%

$$$$
