PDB_DB01261_06
     RDKit          3D

110114  0  0  0  0  0  0  0  0999 V2000
   -5.0202   -0.4830   -1.7002 C   0  0  0  0  0  0  0  0  0  0  0  0
   -4.0268   -1.2216   -0.8240 C   0  0  0  0  0  0  0  0  0  0  0  0
   -3.2525   -0.2253    0.0415 C   0  0  0  0  0  0  0  0  0  0  0  0
   -2.8171    0.8599   -0.9047 C   0  0  0  0  0  0  0  0  0  0  0  0
   -4.0318    1.7701   -1.1285 C   0  0  0  0  0  0  0  0  0  0  0  0
   -5.2521    0.9196   -1.2319 C   0  0  0  0  0  0  0  0  0  0  0  0
   -3.8267    2.5518   -2.2554 F   0  0  0  0  0  0  0  0  0  0  0  0
   -4.6607   -2.1185   -0.0163 F   0  0  0  0  0  0  0  0  0  0  0  0
   -2.1142   -0.9284    0.7457 C   0  0  0  0  0  0  0  0  0  0  0  0
   -1.3685    0.0496    1.6114 C   0  0  2  0  0  0  0  0  0  0  0  0
   -0.2444   -0.6395    2.3325 C   0  0  0  0  0  0  0  0  0  0  0  0
    0.7251   -1.2302    1.3453 C   0  0  1  0  0  0  0  0  0  0  0  0
    1.2324   -0.1451    0.5348 N   0  0  0  0  0  0  0  0  0  0  0  0
   -2.2521    0.6317    2.6242 N   0  0  0  0  0  0  0  0  0  0  0  0
    1.7561   -1.8095    2.1100 O   0  0  0  0  0  0  0  0  0  0  0  0
    1.7006   -0.5898   -0.7497 C   0  0  0  0  0  0  0  0  0  0  0  0
    2.5945    0.4268   -1.4081 C   0  0  0  0  0  0  0  0  0  0  0  0
    3.6367    0.9574   -0.6075 N   0  0  0  0  0  0  0  0  0  0  0  0
    3.5912    0.4152    0.7723 C   0  0  0  0  0  0  0  0  0  0  0  0
    2.2086    0.5767    1.2924 C   0  0  0  0  0  0  0  0  0  0  0  0
    4.9740    0.4993   -0.9166 C   0  0  0  0  0  0  0  0  0  0  0  0
    4.8343   -0.9128   -0.6265 N   0  0  0  0  0  0  0  0  0  0  0  0
    3.9981   -0.9405    0.5242 N   0  0  0  0  0  0  0  0  0  0  0  0
    5.5201    0.8509   -2.2319 C   0  0  0  0  0  0  0  0  0  0  0  0
    4.8665    0.4176   -3.3334 F   0  0  0  0  0  0  0  0  0  0  0  0
    6.8078    0.2907   -2.2968 F   0  0  0  0  0  0  0  0  0  0  0  0
    5.7630    2.2316   -2.2740 F   0  0  0  0  0  0  0  0  0  0  0  0
   -5.9375    0.9296   -0.0171 F   0  0  0  0  0  0  0  0  0  0  0  0
   -6.2118   -0.2463    0.3332 C   0  0  0  0  0  0  0  0  0  0  0  0
   -4.9197   -0.3852    1.1135 C   0  0  0  0  0  0  0  0  0  0  0  0
   -3.7158    0.0406    0.3198 C   0  0  0  0  0  0  0  0  0  0  0  0
   -4.0678    0.0442   -1.1322 C   0  0  0  0  0  0  0  0  0  0  0  0
   -5.0438    1.1991   -1.3496 C   0  0  0  0  0  0  0  0  0  0  0  0
   -6.2547    1.0225   -0.4808 C   0  0  0  0  0  0  0  0  0  0  0  0
   -5.3413    1.3374   -2.6868 F   0  0  0  0  0  0  0  0  0  0  0  0
   -4.9827    0.3322    2.2691 F   0  0  0  0  0  0  0  0  0  0  0  0
   -2.5706   -0.8612    0.6761 C   0  0  0  0  0  0  0  0  0  0  0  0
   -1.3021   -0.5110   -0.0782 C   0  0  2  0  0  0  0  0  0  0  0  0
   -0.2325   -1.4708    0.3562 C   0  0  0  0  0  0  0  0  0  0  0  0
    1.0911   -1.2271   -0.3281 C   0  0  0  0  0  0  0  0  0  0  0  0
    1.6297    0.0890   -0.0754 N   0  0  0  0  0  0  0  0  0  0  0  0
   -0.9417    0.8607    0.0796 N   0  0  0  0  0  0  0  0  0  0  0  0
    0.9714   -1.4786   -1.6906 O   0  0  0  0  0  0  0  0  0  0  0  0
    2.5745    0.4981   -1.0873 C   0  0  0  0  0  0  0  0  0  0  0  0
    3.6257    1.4476   -0.5640 C   0  0  0  0  0  0  0  0  0  0  0  0
    4.3598    0.9543    0.5377 N   0  0  0  0  0  0  0  0  0  0  0  0
    3.6690   -0.1843    1.1783 C   0  0  0  0  0  0  0  0  0  0  0  0
    2.2068    0.0779    1.2496 C   0  0  0  0  0  0  0  0  0  0  0  0
    5.6244    0.3604    0.3060 C   0  0  0  0  0  0  0  0  0  0  0  0
    5.2655   -0.9017   -0.3053 N   0  0  0  0  0  0  0  0  0  0  0  0
    4.0394   -1.2532    0.2707 N   0  0  0  0  0  0  0  0  0  0  0  0
    6.6529    1.1267   -0.4117 C   0  0  0  0  0  0  0  0  0  0  0  0
    7.7916    0.2996   -0.4856 F   0  0  0  0  0  0  0  0  0  0  0  0
    6.3752    1.4467   -1.7217 F   0  0  0  0  0  0  0  0  0  0  0  0
    7.0307    2.2154    0.3452 F   0  0  0  0  0  0  0  0  0  0  0  0
   -6.4824    2.1145    0.3422 F   0  0  0  0  0  0  0  0  0  0  0  0
   -4.7549   -0.5098   -2.7700 H   0  0  0  0  0  0  0  0  0  0  0  0
   -5.9974   -1.0185   -1.6175 H   0  0  0  0  0  0  0  0  0  0  0  0
   -3.2890   -1.7002   -1.4951 H   0  0  0  0  0  0  0  0  0  0  0  0
   -3.9326    0.1964    0.8054 H   0  0  0  0  0  0  0  0  0  0  0  0
   -2.5720    0.4189   -1.9113 H   0  0  0  0  0  0  0  0  0  0  0  0
   -1.9443    1.4323   -0.6146 H   0  0  0  0  0  0  0  0  0  0  0  0
   -4.0671    2.4288   -0.2308 H   0  0  0  0  0  0  0  0  0  0  0  0
   -5.9656    1.3858   -1.9638 H   0  0  0  0  0  0  0  0  0  0  0  0
   -2.5850   -1.7418    1.3379 H   0  0  0  0  0  0  0  0  0  0  0  0
   -1.4537   -1.3956   -0.0116 H   0  0  0  0  0  0  0  0  0  0  0  0
   -0.9869    0.9104    1.0192 H   0  0  0  0  0  0  0  0  0  0  0  0
   -0.6239   -1.3962    3.0546 H   0  0  0  0  0  0  0  0  0  0  0  0
    0.2946    0.1148    2.9805 H   0  0  0  0  0  0  0  0  0  0  0  0
    0.2657   -1.9955    0.7313 H   0  0  0  0  0  0  0  0  0  0  0  0
   -1.7768    0.7330    3.5386 H   0  0  0  0  0  0  0  0  0  0  0  0
   -2.6256    1.5444    2.3155 H   0  0  0  0  0  0  0  0  0  0  0  0
    1.9483   -2.7368    1.7750 H   0  0  0  0  0  0  0  0  0  0  0  0
    2.1075   -1.6174   -0.7388 H   0  0  0  0  0  0  0  0  0  0  0  0
    0.7803   -0.6578   -1.4061 H   0  0  0  0  0  0  0  0  0  0  0  0
    1.9172    1.2932   -1.6797 H   0  0  0  0  0  0  0  0  0  0  0  0
    2.8842   -0.0029   -2.3775 H   0  0  0  0  0  0  0  0  0  0  0  0
    4.3143    1.0006    1.3495 H   0  0  0  0  0  0  0  0  0  0  0  0
    2.2220    0.3145    2.3783 H   0  0  0  0  0  0  0  0  0  0  0  0
    1.9451    1.6660    1.2192 H   0  0  0  0  0  0  0  0  0  0  0  0
    5.6152    0.9070   -0.0719 H   0  0  0  0  0  0  0  0  0  0  0  0
    4.3789   -1.3576   -1.4436 H   0  0  0  0  0  0  0  0  0  0  0  0
    4.4972   -1.3505    1.3440 H   0  0  0  0  0  0  0  0  0  0  0  0
   -6.3143   -1.1358   -0.3191 H   0  0  0  0  0  0  0  0  0  0  0  0
   -7.0457   -0.2473    1.0415 H   0  0  0  0  0  0  0  0  0  0  0  0
   -4.8383   -1.4706    1.3733 H   0  0  0  0  0  0  0  0  0  0  0  0
   -3.4234    1.0880    0.5892 H   0  0  0  0  0  0  0  0  0  0  0  0
   -4.6025   -0.8703   -1.4230 H   0  0  0  0  0  0  0  0  0  0  0  0
   -3.2193    0.1824   -1.8133 H   0  0  0  0  0  0  0  0  0  0  0  0
   -4.4891    2.1258   -1.0546 H   0  0  0  0  0  0  0  0  0  0  0  0
   -7.1483    0.9485   -1.1448 H   0  0  0  0  0  0  0  0  0  0  0  0
   -2.4174   -0.7710    1.7754 H   0  0  0  0  0  0  0  0  0  0  0  0
   -2.8315   -1.9205    0.4960 H   0  0  0  0  0  0  0  0  0  0  0  0
   -1.5021   -0.7280   -1.1612 H   0  0  0  0  0  0  0  0  0  0  0  0
   -0.1162   -1.4461    1.4570 H   0  0  0  0  0  0  0  0  0  0  0  0
   -0.5388   -2.5049    0.1052 H   0  0  0  0  0  0  0  0  0  0  0  0
    1.7941   -1.9934    0.1001 H   0  0  0  0  0  0  0  0  0  0  0  0
   -0.5024    1.0572    0.9945 H   0  0  0  0  0  0  0  0  0  0  0  0
   -0.3521    1.2501   -0.6816 H   0  0  0  0  0  0  0  0  0  0  0  0
    1.0718   -2.4459   -1.8183 H   0  0  0  0  0  0  0  0  0  0  0  0
    2.9991   -0.3449   -1.6678 H   0  0  0  0  0  0  0  0  0  0  0  0
    1.9811    1.0938   -1.8417 H   0  0  0  0  0  0  0  0  0  0  0  0
    3.0424    2.3518   -0.2019 H   0  0  0  0  0  0  0  0  0  0  0  0
    4.1845    1.8140   -1.4287 H   0  0  0  0  0  0  0  0  0  0  0  0
    4.1216   -0.2839    2.1827 H   0  0  0  0  0  0  0  0  0  0  0  0
    1.7524   -0.7456    1.8681 H   0  0  0  0  0  0  0  0  0  0  0  0
    2.0204    1.0365    1.7414 H   0  0  0  0  0  0  0  0  0  0  0  0
    6.0404    0.0825    1.3154 H   0  0  0  0  0  0  0  0  0  0  0  0
    5.2954   -0.9194   -1.3254 H   0  0  0  0  0  0  0  0  0  0  0  0
    4.1973   -2.1510    0.7901 H   0  0  0  0  0  0  0  0  0  0  0  0
  1  2  1  0
  2  3  1  0
  3  4  1  0
  4  5  1  0
  1  6  1  0
  5  6  1  0
  5  7  1  0
  2  8  1  0
  3  9  1  0
  9 10  1  0
 10 11  1  0
 11 12  1  0
 12 13  1  0
 10 14  1  0
 12 15  1  0
 13 16  1  0
 16 17  1  0
 17 18  1  0
 18 19  1  0
 13 20  1  0
 19 20  1  0
 18 21  1  0
 21 22  1  0
 19 23  1  0
 22 23  1  0
 21 24  1  0
 24 25  1  0
 24 26  1  0
 24 27  1  0
  6 28  1  0
 29 30  1  0
 30 31  1  0
 31 32  1  0
 32 33  1  0
 29 34  1  0
 33 34  1  0
 33 35  1  0
 30 36  1  0
 31 37  1  0
 37 38  1  0
 38 39  1  0
 39 40  1  0
 40 41  1  0
 38 42  1  0
 40 43  1  0
 41 44  1  0
 44 45  1  0
 45 46  1  0
 46 47  1  0
 41 48  1  0
 47 48  1  0
 46 49  1  0
 49 50  1  0
 47 51  1  0
 50 51  1  0
 49 52  1  0
 52 53  1  0
 52 54  1  0
 52 55  1  0
 34 56  1  0
  1 57  1  0
  1 58  1  0
  2 59  1  0
  3 60  1  0
  4 61  1  0
  4 62  1  0
  5 63  1  0
  6 64  1  0
  9 65  1  0
  9 66  1  0
 10 67  1  6
 11 68  1  0
 11 69  1  0
 12 70  1  6
 14 71  1  0
 14 72  1  0
 15 73  1  0
 16 74  1  0
 16 75  1  0
 17 76  1  0
 17 77  1  0
 19 78  1  0
 20 79  1  0
 20 80  1  0
 21 81  1  0
 22 82  1  0
 23 83  1  0
 29 84  1  0
 29 85  1  0
 30 86  1  0
 31 87  1  0
 32 88  1  0
 32 89  1  0
 33 90  1  0
 34 91  1  0
 37 92  1  0
 37 93  1  0
 38 94  1  6
 39 95  1  0
 39 96  1  0
 40 97  1  0
 42 98  1  0
 42 99  1  0
 43100  1  0
 44101  1  0
 44102  1  0
 45103  1  0
 45104  1  0
 47105  1  0
 48106  1  0
 48107  1  0
 49108  1  0
 50109  1  0
 51110  1  0
M  END
>  <PDBID>  (1) 
1X70

>  <PDB ID>  (1) 
1X70

>  <Generic Name>  (1) 
Sitagliptin

>  <Brand Name>  (1) 
Janumet#Janumet XR#Januvia#Xelevia

>  <DrugBank ID>  (1) 
DB01261

>  <ATC Codes>  (1) 
A10BD12#A10BH51#A10BH01#A10BD07

>  <Ligand ID>  (1) 
715

>  <Target Name>  (1) 
Dipeptidyl peptidase 4

>  <UniProt ID>  (1) 
P27487

>  <PDB ID.1>  (1) 
1X70

>  <Seq. Identity>  (1) 
100%

$$$$
