PDB_DB00380_04
     RDKit          3D

 43 44  0  0  0  0  0  0  0  0999 V2000
   -4.0855   -1.2898   -0.4859 O   0  0  0  0  0  0  0  0  0  0  0  0
   -3.6875   -0.3576   -1.4406 C   0  0  0  0  0  0  0  0  0  0  0  0
   -4.0316    0.9443   -0.9601 N   0  0  0  0  0  0  0  0  0  0  0  0
   -3.5130    1.1665    0.3364 C   0  0  0  0  0  0  0  0  0  0  0  0
   -3.1784    2.5131    0.4582 O   0  0  0  0  0  0  0  0  0  0  0  0
   -2.3546    0.2954    0.7601 C   0  0  0  0  0  0  0  0  0  0  0  0
   -2.1640   -0.3358   -1.5766 C   0  0  0  0  0  0  0  0  0  0  0  0
   -1.5420   -0.1603   -0.2987 N   0  0  0  0  0  0  0  0  0  0  0  0
   -0.6553   -1.2199   -0.0346 C   0  0  0  0  0  0  0  0  0  0  0  0
    0.5370   -0.9808    0.8084 C   0  0  2  0  0  0  0  0  0  0  0  0
    0.2984   -0.5337    2.2072 C   0  0  0  0  0  0  0  0  0  0  0  0
    1.4553   -0.0005    0.1807 N   0  0  0  0  0  0  0  0  0  0  0  0
    1.8473   -0.6236   -1.0679 C   0  0  0  0  0  0  0  0  0  0  0  0
    3.0601   -0.0085   -1.6945 C   0  0  0  0  0  0  0  0  0  0  0  0
    2.9025    1.3579   -1.9271 O   0  0  0  0  0  0  0  0  0  0  0  0
    4.1700   -0.1638   -0.7818 N   0  0  0  0  0  0  0  0  0  0  0  0
    3.8452    0.5674    0.4160 C   0  0  0  0  0  0  0  0  0  0  0  0
    2.5841    0.0914    1.0967 C   0  0  0  0  0  0  0  0  0  0  0  0
    3.8367    1.9502    0.2020 O   0  0  0  0  0  0  0  0  0  0  0  0
   -4.8924   -0.9272   -0.0410 H   0  0  0  0  0  0  0  0  0  0  0  0
   -4.0980   -0.6491   -2.4041 H   0  0  0  0  0  0  0  0  0  0  0  0
   -3.7131    1.6558   -1.6657 H   0  0  0  0  0  0  0  0  0  0  0  0
   -4.3479    0.9799    1.0679 H   0  0  0  0  0  0  0  0  0  0  0  0
   -2.4784    2.7459   -0.2056 H   0  0  0  0  0  0  0  0  0  0  0  0
   -1.7498    0.9072    1.4603 H   0  0  0  0  0  0  0  0  0  0  0  0
   -2.7231   -0.5635    1.4086 H   0  0  0  0  0  0  0  0  0  0  0  0
   -1.9335    0.5412   -2.2340 H   0  0  0  0  0  0  0  0  0  0  0  0
   -1.8091   -1.2281   -2.1195 H   0  0  0  0  0  0  0  0  0  0  0  0
   -0.3295   -1.7666   -0.9711 H   0  0  0  0  0  0  0  0  0  0  0  0
   -1.2511   -2.0194    0.5046 H   0  0  0  0  0  0  0  0  0  0  0  0
    1.1158   -1.9281    0.8249 H   0  0  0  0  0  0  0  0  0  0  0  0
   -0.6485   -0.9680    2.5594 H   0  0  0  0  0  0  0  0  0  0  0  0
    0.4082    0.5547    2.3795 H   0  0  0  0  0  0  0  0  0  0  0  0
    1.1160   -0.9822    2.8592 H   0  0  0  0  0  0  0  0  0  0  0  0
    2.0045   -1.7127   -0.9880 H   0  0  0  0  0  0  0  0  0  0  0  0
    0.9977   -0.4590   -1.7691 H   0  0  0  0  0  0  0  0  0  0  0  0
    3.2509   -0.5662   -2.6365 H   0  0  0  0  0  0  0  0  0  0  0  0
    3.8085    1.7212   -2.1517 H   0  0  0  0  0  0  0  0  0  0  0  0
    4.3273   -1.1576   -0.5162 H   0  0  0  0  0  0  0  0  0  0  0  0
    4.6797    0.3781    1.1340 H   0  0  0  0  0  0  0  0  0  0  0  0
    2.3752    0.7944    1.9125 H   0  0  0  0  0  0  0  0  0  0  0  0
    2.7866   -0.9197    1.5268 H   0  0  0  0  0  0  0  0  0  0  0  0
    3.7792    2.3570    1.1140 H   0  0  0  0  0  0  0  0  0  0  0  0
  1  2  1  0
  2  3  1  0
  3  4  1  0
  4  5  1  0
  4  6  1  0
  2  7  1  0
  6  8  1  0
  7  8  1  0
  8  9  1  0
  9 10  1  0
 10 11  1  0
 10 12  1  0
 12 13  1  0
 13 14  1  0
 14 15  1  0
 14 16  1  0
 16 17  1  0
 12 18  1  0
 17 18  1  0
 17 19  1  0
  1 20  1  0
  2 21  1  0
  3 22  1  0
  4 23  1  0
  5 24  1  0
  6 25  1  0
  6 26  1  0
  7 27  1  0
  7 28  1  0
  9 29  1  0
  9 30  1  0
 10 31  1  1
 11 32  1  0
 11 33  1  0
 11 34  1  0
 13 35  1  0
 13 36  1  0
 14 37  1  0
 15 38  1  0
 16 39  1  0
 17 40  1  0
 18 41  1  0
 18 42  1  0
 19 43  1  0
M  END
>  <PDBID>  (1) 
1QZR

>  <PDB ID>  (1) 
1QZR

>  <Generic Name>  (1) 
Dexrazoxane

>  <Brand Name>  (1) 
Dexrazoxane#Dexrazoxane Hydrochloride#Zinecard#Ao Nuo Xian#Cardioxane#Dexrazoxane#Savene#Totect

>  <DrugBank ID>  (1) 
DB00380

>  <ATC Codes>  (1) 
V03AF02

>  <Ligand ID>  (1) 
CDX

>  <Target Name>  (1) 
DNA topoisomerase 2-alpha

>  <UniProt ID>  (1) 
P11388

>  <PDB ID.1>  (1) 
1QZR

>  <Seq. Identity>  (1) 
51%

$$$$
