PDB_DB00382_02
     RDKit          3D

 39 41  0  0  0  0  0  0  0  0999 V2000
    3.3823    1.3367    0.4429 C   0  0  0  0  0  0  0  0  0  0  0  0
    2.3244    1.6026   -0.5967 C   0  0  0  0  0  0  0  0  0  0  0  0
    1.0218    1.0097   -0.1252 C   0  0  0  0  0  0  0  0  0  0  0  0
    1.1265   -0.3748    0.3890 C   0  0  0  0  0  0  0  0  0  0  0  0
    2.4914   -0.9969    0.1887 C   0  0  0  0  0  0  0  0  0  0  0  0
    3.6289   -0.1292    0.5445 C   0  0  0  0  0  0  0  0  0  0  0  0
    0.0013    1.1740   -1.1561 N   0  0  0  0  0  0  0  0  0  0  0  0
   -1.2071    0.7410   -0.5199 C   0  0  2  0  0  0  0  0  0  0  0  0
   -1.1814   -0.7821   -0.5425 C   0  0  1  0  0  0  0  0  0  0  0  0
    0.1364   -1.3425   -0.2146 C   0  0  0  0  0  0  0  0  0  0  0  0
   -2.4630    1.1864   -1.1710 C   0  0  0  0  0  0  0  0  0  0  0  0
   -3.5813    0.8644   -0.1740 C   0  0  0  0  0  0  0  0  0  0  0  0
   -3.1538   -0.1260    0.8578 C   0  0  0  0  0  0  0  0  0  0  0  0
   -2.3155   -1.2474    0.3288 C   0  0  0  0  0  0  0  0  0  0  0  0
    0.0462   -2.4884    0.7021 N   0  0  0  0  0  0  0  0  0  0  0  0
    3.0824    1.7469    1.4095 H   0  0  0  0  0  0  0  0  0  0  0  0
    4.3009    1.8680    0.1116 H   0  0  0  0  0  0  0  0  0  0  0  0
    2.1812    2.7159   -0.6222 H   0  0  0  0  0  0  0  0  0  0  0  0
    2.6226    1.2951   -1.5957 H   0  0  0  0  0  0  0  0  0  0  0  0
    0.6683    1.6752    0.7172 H   0  0  0  0  0  0  0  0  0  0  0  0
    0.9433   -0.4197    1.5041 H   0  0  0  0  0  0  0  0  0  0  0  0
    2.5212   -1.9077    0.8538 H   0  0  0  0  0  0  0  0  0  0  0  0
    2.5120   -1.4050   -0.8494 H   0  0  0  0  0  0  0  0  0  0  0  0
    4.4872   -0.3682   -0.1506 H   0  0  0  0  0  0  0  0  0  0  0  0
    4.0394   -0.3423    1.5638 H   0  0  0  0  0  0  0  0  0  0  0  0
    0.2850    0.5159   -1.9376 H   0  0  0  0  0  0  0  0  0  0  0  0
   -1.2281    1.0978    0.5439 H   0  0  0  0  0  0  0  0  0  0  0  0
   -1.4715   -1.0541   -1.6010 H   0  0  0  0  0  0  0  0  0  0  0  0
    0.6180   -1.7660   -1.1417 H   0  0  0  0  0  0  0  0  0  0  0  0
   -2.6847    0.6155   -2.1197 H   0  0  0  0  0  0  0  0  0  0  0  0
   -2.4260    2.2452   -1.4281 H   0  0  0  0  0  0  0  0  0  0  0  0
   -4.5257    0.6161   -0.6854 H   0  0  0  0  0  0  0  0  0  0  0  0
   -3.7617    1.8397    0.3672 H   0  0  0  0  0  0  0  0  0  0  0  0
   -2.6880    0.3562    1.7650 H   0  0  0  0  0  0  0  0  0  0  0  0
   -4.0962   -0.5965    1.2661 H   0  0  0  0  0  0  0  0  0  0  0  0
   -3.0144   -1.9446   -0.2153 H   0  0  0  0  0  0  0  0  0  0  0  0
   -1.9607   -1.8373    1.2054 H   0  0  0  0  0  0  0  0  0  0  0  0
   -0.6506   -3.1793    0.3968 H   0  0  0  0  0  0  0  0  0  0  0  0
   -0.0106   -2.1944    1.6886 H   0  0  0  0  0  0  0  0  0  0  0  0
  1  2  1  0
  2  3  1  0
  3  4  1  0
  4  5  1  0
  1  6  1  0
  5  6  1  0
  3  7  1  0
  7  8  1  0
  8  9  1  0
  4 10  1  0
  9 10  1  0
  8 11  1  0
 11 12  1  0
 12 13  1  0
  9 14  1  0
 13 14  1  0
 10 15  1  0
  1 16  1  0
  1 17  1  0
  2 18  1  0
  2 19  1  0
  3 20  1  0
  4 21  1  0
  5 22  1  0
  5 23  1  0
  6 24  1  0
  6 25  1  0
  7 26  1  0
  8 27  1  1
  9 28  1  6
 10 29  1  0
 11 30  1  0
 11 31  1  0
 12 32  1  0
 12 33  1  0
 13 34  1  0
 13 35  1  0
 14 36  1  0
 14 37  1  0
 15 38  1  0
 15 39  1  0
M  END
>  <PDBID>  (1) 
1ACJ

>  <PDB ID>  (1) 
1ACJ

>  <Generic Name>  (1) 
Tacrine

>  <Brand Name>  (1) 
Cognex#Talem

>  <DrugBank ID>  (1) 
DB00382

>  <ATC Codes>  (1) 
N06DA01

>  <Ligand ID>  (1) 
THA

>  <Target Name>  (1) 
Acetylcholinesterase

>  <UniProt ID>  (1) 
P22303

>  <PDB ID.1>  (1) 
1ACJ

>  <Seq. Identity>  (1) 
57%

$$$$
