PDB_DB04552_08
     RDKit          3D

 43 44  0  0  0  0  0  0  0  0999 V2000
    4.3063    1.6653    2.3250 F   0  0  0  0  0  0  0  0  0  0  0  0
    4.3712    1.0157    1.1162 C   0  0  0  0  0  0  0  0  0  0  0  0
    5.1155    1.7344    0.1786 F   0  0  0  0  0  0  0  0  0  0  0  0
    4.9795   -0.2207    1.2269 F   0  0  0  0  0  0  0  0  0  0  0  0
    3.0053    0.8202    0.4977 C   0  0  2  0  0  0  0  0  0  0  0  0
    2.1300   -0.0035    1.4175 C   0  0  0  0  0  0  0  0  0  0  0  0
    0.9555   -0.6061    0.6453 C   0  0  0  0  0  0  0  0  0  0  0  0
    1.4438   -1.5171   -0.4557 C   0  0  0  0  0  0  0  0  0  0  0  0
    2.9502   -1.3848   -0.5279 C   0  0  0  0  0  0  0  0  0  0  0  0
    3.2382    0.0771   -0.8245 C   0  0  0  0  0  0  0  0  0  0  0  0
    0.1765    0.4845    0.1819 N   0  0  0  0  0  0  0  0  0  0  0  0
   -1.0883    0.1802   -0.4146 C   0  0  0  0  0  0  0  0  0  0  0  0
   -1.5050    1.3303   -1.1620 N   0  0  0  0  0  0  0  0  0  0  0  0
   -2.0738   -0.4435    0.4882 C   0  0  0  0  0  0  0  0  0  0  0  0
   -2.5539   -1.7825   -0.0634 C   0  0  0  0  0  0  0  0  0  0  0  0
   -3.4759   -2.3872    0.7581 O   0  0  0  0  0  0  0  0  0  0  0  0
   -3.0521   -1.5906   -1.3454 O   0  0  0  0  0  0  0  0  0  0  0  0
   -3.2065    0.4142    0.9601 C   0  0  0  0  0  0  0  0  0  0  0  0
   -3.1210    1.8533    0.5061 C   0  0  0  0  0  0  0  0  0  0  0  0
   -2.8383    1.7683   -0.9937 C   0  0  0  0  0  0  0  0  0  0  0  0
    2.5801    1.8303    0.3339 H   0  0  0  0  0  0  0  0  0  0  0  0
    1.6689    0.7027    2.1395 H   0  0  0  0  0  0  0  0  0  0  0  0
    2.6744   -0.7453    2.0159 H   0  0  0  0  0  0  0  0  0  0  0  0
    0.4056   -1.2378    1.3630 H   0  0  0  0  0  0  0  0  0  0  0  0
    1.0711   -1.2161   -1.4694 H   0  0  0  0  0  0  0  0  0  0  0  0
    1.2263   -2.5816   -0.2572 H   0  0  0  0  0  0  0  0  0  0  0  0
    3.4504   -1.7202    0.4132 H   0  0  0  0  0  0  0  0  0  0  0  0
    3.3804   -1.9984   -1.3485 H   0  0  0  0  0  0  0  0  0  0  0  0
    2.4377    0.4124   -1.5298 H   0  0  0  0  0  0  0  0  0  0  0  0
    4.2417    0.2382   -1.2210 H   0  0  0  0  0  0  0  0  0  0  0  0
    0.6772    1.2980   -0.1745 H   0  0  0  0  0  0  0  0  0  0  0  0
   -0.8440   -0.5966   -1.2137 H   0  0  0  0  0  0  0  0  0  0  0  0
   -0.8540    2.1428   -1.0622 H   0  0  0  0  0  0  0  0  0  0  0  0
   -1.5199   -0.7323    1.4350 H   0  0  0  0  0  0  0  0  0  0  0  0
   -1.6991   -2.4934   -0.1638 H   0  0  0  0  0  0  0  0  0  0  0  0
   -4.3149   -2.4800    0.2644 H   0  0  0  0  0  0  0  0  0  0  0  0
   -3.9776   -1.2481   -1.3630 H   0  0  0  0  0  0  0  0  0  0  0  0
   -3.3397    0.4086    2.0717 H   0  0  0  0  0  0  0  0  0  0  0  0
   -4.1487   -0.0056    0.5534 H   0  0  0  0  0  0  0  0  0  0  0  0
   -4.1012    2.3362    0.6781 H   0  0  0  0  0  0  0  0  0  0  0  0
   -2.2817    2.3357    1.0167 H   0  0  0  0  0  0  0  0  0  0  0  0
   -2.9074    2.8186   -1.3607 H   0  0  0  0  0  0  0  0  0  0  0  0
   -3.5830    1.1243   -1.4681 H   0  0  0  0  0  0  0  0  0  0  0  0
  2  1  1  0
  2  3  1  0
  2  4  1  0
  2  5  1  0
  5  6  1  0
  6  7  1  0
  7  8  1  0
  8  9  1  0
  5 10  1  0
  9 10  1  0
  7 11  1  0
 11 12  1  0
 12 13  1  0
 12 14  1  0
 14 15  1  0
 15 16  1  0
 15 17  1  0
 14 18  1  0
 18 19  1  0
 13 20  1  0
 19 20  1  0
  5 21  1  6
  6 22  1  0
  6 23  1  0
  7 24  1  0
  8 25  1  0
  8 26  1  0
  9 27  1  0
  9 28  1  0
 10 29  1  0
 10 30  1  0
 11 31  1  0
 12 32  1  0
 13 33  1  0
 14 34  1  0
 15 35  1  0
 16 36  1  0
 17 37  1  0
 18 38  1  0
 18 39  1  0
 19 40  1  0
 19 41  1  0
 20 42  1  0
 20 43  1  0
M  END
>  <PDBID>  (1) 
1TD7

>  <PDB ID>  (1) 
1TD7

>  <Generic Name>  (1) 
Niflumic Acid

>  <Brand Name>  (1) 
Niflam#Niflugel#Nifluril

>  <DrugBank ID>  (1) 
DB04552

>  <ATC Codes>  (1) 
M02AA17#M01AX02

>  <Ligand ID>  (1) 
NFL

>  <Target Name>  (1) 
Phospholipase A2

>  <UniProt ID>  (1) 
P04054

>  <PDB ID.1>  (1) 
1TD7

>  <Seq. Identity>  (1) 
43%

$$$$
