PDB_DB00234_01
     RDKit          3D

 58 60  0  0  0  0  0  0  0  0999 V2000
    3.5162    2.0740    2.3472 C   0  0  0  0  0  0  0  0  0  0  0  0
    3.1066    0.6479    2.6354 C   0  0  0  0  0  0  0  0  0  0  0  0
    3.4106   -0.1428    1.5662 O   0  0  0  0  0  0  0  0  0  0  0  0
    2.7796    0.2142    0.3744 C   0  0  0  0  0  0  0  0  0  0  0  0
    3.7146    0.6237   -0.6886 C   0  0  0  0  0  0  0  0  0  0  0  0
    3.8875   -0.2651   -1.8554 C   0  0  0  0  0  0  0  0  0  0  0  0
    2.7133   -1.1050   -2.2353 C   0  0  0  0  0  0  0  0  0  0  0  0
    2.3024   -1.8448   -0.9617 C   0  0  0  0  0  0  0  0  0  0  0  0
    1.7454   -0.8234   -0.0352 C   0  0  0  0  0  0  0  0  0  0  0  0
    0.5666   -0.2130   -0.4658 O   0  0  0  0  0  0  0  0  0  0  0  0
   -0.5141   -0.3671    0.3521 C   0  0  2  0  0  0  0  0  0  0  0  0
   -1.7137   -1.0358   -0.1987 C   0  0  0  0  0  0  0  0  0  0  0  0
   -2.3210   -0.3526   -1.4024 C   0  0  0  0  0  0  0  0  0  0  0  0
   -3.3648   -1.2395   -2.0588 C   0  0  0  0  0  0  0  0  0  0  0  0
   -3.9191   -2.2014   -1.0450 C   0  0  0  0  0  0  0  0  0  0  0  0
   -2.8412   -3.2001   -0.7276 C   0  0  0  0  0  0  0  0  0  0  0  0
   -1.5191   -2.5261   -0.4475 C   0  0  0  0  0  0  0  0  0  0  0  0
   -0.9534    0.9768    0.9843 C   0  0  2  0  0  0  0  0  0  0  0  0
   -2.0351    0.8310    1.7871 O   0  0  0  0  0  0  0  0  0  0  0  0
   -3.0617    1.7015    1.7232 C   0  0  0  0  0  0  0  0  0  0  0  0
   -2.5263    3.1003    1.5026 C   0  0  0  0  0  0  0  0  0  0  0  0
   -1.9842    3.0697    0.1504 N   0  0  0  0  0  0  0  0  0  0  0  0
   -0.8895    2.1245    0.0598 C   0  0  0  0  0  0  0  0  0  0  0  0
    2.7674    2.7958    2.7471 H   0  0  0  0  0  0  0  0  0  0  0  0
    4.4665    2.3217    2.8904 H   0  0  0  0  0  0  0  0  0  0  0  0
    3.7014    2.2766    1.2877 H   0  0  0  0  0  0  0  0  0  0  0  0
    3.6569    0.3203    3.5259 H   0  0  0  0  0  0  0  0  0  0  0  0
    2.0044    0.6385    2.7774 H   0  0  0  0  0  0  0  0  0  0  0  0
    2.1660    1.1114    0.6511 H   0  0  0  0  0  0  0  0  0  0  0  0
    4.7386    0.7384   -0.2177 H   0  0  0  0  0  0  0  0  0  0  0  0
    3.4987    1.6640   -1.0773 H   0  0  0  0  0  0  0  0  0  0  0  0
    4.7864   -0.9379   -1.7200 H   0  0  0  0  0  0  0  0  0  0  0  0
    4.1596    0.3377   -2.7727 H   0  0  0  0  0  0  0  0  0  0  0  0
    1.8679   -0.4523   -2.5309 H   0  0  0  0  0  0  0  0  0  0  0  0
    3.0225   -1.7994   -3.0268 H   0  0  0  0  0  0  0  0  0  0  0  0
    3.1907   -2.2994   -0.4764 H   0  0  0  0  0  0  0  0  0  0  0  0
    1.5724   -2.5890   -1.2367 H   0  0  0  0  0  0  0  0  0  0  0  0
    1.4873   -1.3387    0.9154 H   0  0  0  0  0  0  0  0  0  0  0  0
   -0.1336   -1.0277    1.2001 H   0  0  0  0  0  0  0  0  0  0  0  0
   -2.5689   -1.0347    0.5526 H   0  0  0  0  0  0  0  0  0  0  0  0
   -2.8505    0.5647   -1.0829 H   0  0  0  0  0  0  0  0  0  0  0  0
   -1.6120   -0.0823   -2.1801 H   0  0  0  0  0  0  0  0  0  0  0  0
   -2.9591   -1.8032   -2.9023 H   0  0  0  0  0  0  0  0  0  0  0  0
   -4.2220   -0.6330   -2.4401 H   0  0  0  0  0  0  0  0  0  0  0  0
   -4.7409   -2.7615   -1.5469 H   0  0  0  0  0  0  0  0  0  0  0  0
   -4.3537   -1.7155   -0.1630 H   0  0  0  0  0  0  0  0  0  0  0  0
   -2.7073   -3.8298   -1.6444 H   0  0  0  0  0  0  0  0  0  0  0  0
   -3.1800   -3.8581    0.0758 H   0  0  0  0  0  0  0  0  0  0  0  0
   -0.7776   -2.7151   -1.2342 H   0  0  0  0  0  0  0  0  0  0  0  0
   -1.1267   -2.9531    0.4955 H   0  0  0  0  0  0  0  0  0  0  0  0
   -0.1042    1.1549    1.7304 H   0  0  0  0  0  0  0  0  0  0  0  0
   -3.7887    1.5172    0.8989 H   0  0  0  0  0  0  0  0  0  0  0  0
   -3.5754    1.7130    2.7077 H   0  0  0  0  0  0  0  0  0  0  0  0
   -3.2929    3.8714    1.5664 H   0  0  0  0  0  0  0  0  0  0  0  0
   -1.6709    3.2621    2.1883 H   0  0  0  0  0  0  0  0  0  0  0  0
   -2.7307    2.8960   -0.5282 H   0  0  0  0  0  0  0  0  0  0  0  0
    0.0304    2.7765    0.2022 H   0  0  0  0  0  0  0  0  0  0  0  0
   -0.8216    1.8235   -0.9930 H   0  0  0  0  0  0  0  0  0  0  0  0
  1  2  1  0
  2  3  1  0
  3  4  1  0
  4  5  1  0
  5  6  1  0
  6  7  1  0
  7  8  1  0
  4  9  1  0
  8  9  1  0
  9 10  1  0
 10 11  1  0
 11 12  1  0
 12 13  1  0
 13 14  1  0
 14 15  1  0
 15 16  1  0
 12 17  1  0
 16 17  1  0
 11 18  1  0
 18 19  1  0
 19 20  1  0
 20 21  1  0
 21 22  1  0
 18 23  1  0
 22 23  1  0
  1 24  1  0
  1 25  1  0
  1 26  1  0
  2 27  1  0
  2 28  1  0
  4 29  1  0
  5 30  1  0
  5 31  1  0
  6 32  1  0
  6 33  1  0
  7 34  1  0
  7 35  1  0
  8 36  1  0
  8 37  1  0
  9 38  1  0
 11 39  1  1
 12 40  1  0
 13 41  1  0
 13 42  1  0
 14 43  1  0
 14 44  1  0
 15 45  1  0
 15 46  1  0
 16 47  1  0
 16 48  1  0
 17 49  1  0
 17 50  1  0
 18 51  1  1
 20 52  1  0
 20 53  1  0
 21 54  1  0
 21 55  1  0
 22 56  1  0
 23 57  1  0
 23 58  1  0
M  END
>  <PDBID>  (1) 
4XNX

>  <PDB ID>  (1) 
4XNX

>  <Generic Name>  (1) 
Reboxetine

>  <Brand Name>  (1) 
Davedax#Edronax#Norebox#Prolift#Solvex#Vestra

>  <DrugBank ID>  (1) 
DB00234

>  <ATC Codes>  (1) 
N06AX18

>  <Ligand ID>  (1) 
41X

>  <Target Name>  (1) 
Sodium-dependent noradrenaline transporter

>  <UniProt ID>  (1) 
P23975

>  <PDB ID.1>  (1) 
4XNX

>  <Seq. Identity>  (1) 
58%

$$$$
