PDB_DB00234_02
     RDKit          3D

 58 60  0  0  0  0  0  0  0  0999 V2000
    2.5048   -0.7378   -2.2072 C   0  0  0  0  0  0  0  0  0  0  0  0
    3.1997    0.5368   -1.8056 C   0  0  0  0  0  0  0  0  0  0  0  0
    2.6712    1.0147   -0.6474 O   0  0  0  0  0  0  0  0  0  0  0  0
    2.7554    0.2776    0.4739 C   0  0  0  0  0  0  0  0  0  0  0  0
    3.5994    0.9128    1.5728 C   0  0  0  0  0  0  0  0  0  0  0  0
    3.1783    0.2468    2.8670 C   0  0  0  0  0  0  0  0  0  0  0  0
    2.9354   -1.2043    2.6077 C   0  0  0  0  0  0  0  0  0  0  0  0
    1.6387   -1.4553    1.8396 C   0  0  0  0  0  0  0  0  0  0  0  0
    1.4351   -0.1856    1.0053 C   0  0  0  0  0  0  0  0  0  0  0  0
    0.4944   -0.3064    0.0582 O   0  0  0  0  0  0  0  0  0  0  0  0
   -0.7042    0.3648    0.2353 C   0  0  2  0  0  0  0  0  0  0  0  0
   -1.7215   -0.7408    0.4367 C   0  0  0  0  0  0  0  0  0  0  0  0
   -1.8155   -1.6706   -0.7463 C   0  0  0  0  0  0  0  0  0  0  0  0
   -2.9749   -2.6112   -0.5198 C   0  0  0  0  0  0  0  0  0  0  0  0
   -3.1207   -2.8378    0.9658 C   0  0  0  0  0  0  0  0  0  0  0  0
   -3.6067   -1.5947    1.6779 C   0  0  0  0  0  0  0  0  0  0  0  0
   -3.0282   -0.3386    0.9978 C   0  0  0  0  0  0  0  0  0  0  0  0
   -0.9718    1.2220   -0.9596 C   0  0  2  0  0  0  0  0  0  0  0  0
   -0.0131    2.2065   -1.1861 O   0  0  0  0  0  0  0  0  0  0  0  0
   -0.1253    2.6555   -2.4855 C   0  0  0  0  0  0  0  0  0  0  0  0
   -1.4977    3.2521   -2.6577 C   0  0  0  0  0  0  0  0  0  0  0  0
   -2.1703    3.3428   -1.3747 N   0  0  0  0  0  0  0  0  0  0  0  0
   -2.3005    1.9850   -0.8624 C   0  0  0  0  0  0  0  0  0  0  0  0
    1.4383   -0.5534   -2.5003 H   0  0  0  0  0  0  0  0  0  0  0  0
    3.0334   -1.1057   -3.1287 H   0  0  0  0  0  0  0  0  0  0  0  0
    2.6309   -1.5233   -1.4653 H   0  0  0  0  0  0  0  0  0  0  0  0
    4.2927    0.2692   -1.7119 H   0  0  0  0  0  0  0  0  0  0  0  0
    3.0994    1.2323   -2.6672 H   0  0  0  0  0  0  0  0  0  0  0  0
    3.3121   -0.6754    0.1948 H   0  0  0  0  0  0  0  0  0  0  0  0
    4.6635    0.6466    1.4107 H   0  0  0  0  0  0  0  0  0  0  0  0
    3.5152    1.9981    1.6003 H   0  0  0  0  0  0  0  0  0  0  0  0
    2.3389    0.7611    3.3627 H   0  0  0  0  0  0  0  0  0  0  0  0
    4.0423    0.3174    3.5591 H   0  0  0  0  0  0  0  0  0  0  0  0
    3.8130   -1.5840    2.0237 H   0  0  0  0  0  0  0  0  0  0  0  0
    2.9401   -1.7497    3.5712 H   0  0  0  0  0  0  0  0  0  0  0  0
    1.7831   -2.3505    1.2389 H   0  0  0  0  0  0  0  0  0  0  0  0
    0.8214   -1.4890    2.5706 H   0  0  0  0  0  0  0  0  0  0  0  0
    1.0832    0.5568    1.7697 H   0  0  0  0  0  0  0  0  0  0  0  0
   -0.7499    0.9797    1.1438 H   0  0  0  0  0  0  0  0  0  0  0  0
   -1.2367   -1.3813    1.2513 H   0  0  0  0  0  0  0  0  0  0  0  0
   -0.8663   -2.2725   -0.7847 H   0  0  0  0  0  0  0  0  0  0  0  0
   -1.9390   -1.1327   -1.7229 H   0  0  0  0  0  0  0  0  0  0  0  0
   -2.6868   -3.5849   -0.9855 H   0  0  0  0  0  0  0  0  0  0  0  0
   -3.9078   -2.2482   -0.9802 H   0  0  0  0  0  0  0  0  0  0  0  0
   -2.1904   -3.1631    1.4310 H   0  0  0  0  0  0  0  0  0  0  0  0
   -3.8668   -3.6505    1.1201 H   0  0  0  0  0  0  0  0  0  0  0  0
   -3.3155   -1.6464    2.7275 H   0  0  0  0  0  0  0  0  0  0  0  0
   -4.7052   -1.5871    1.6287 H   0  0  0  0  0  0  0  0  0  0  0  0
   -2.9245    0.3949    1.8340 H   0  0  0  0  0  0  0  0  0  0  0  0
   -3.7899    0.0282    0.3193 H   0  0  0  0  0  0  0  0  0  0  0  0
   -0.9688    0.6230   -1.9164 H   0  0  0  0  0  0  0  0  0  0  0  0
    0.0867    1.8512   -3.2037 H   0  0  0  0  0  0  0  0  0  0  0  0
    0.6118    3.4858   -2.6071 H   0  0  0  0  0  0  0  0  0  0  0  0
   -1.4418    4.2604   -3.1475 H   0  0  0  0  0  0  0  0  0  0  0  0
   -2.1062    2.5557   -3.2775 H   0  0  0  0  0  0  0  0  0  0  0  0
   -1.5217    3.8429   -0.7245 H   0  0  0  0  0  0  0  0  0  0  0  0
   -3.0868    1.4779   -1.4229 H   0  0  0  0  0  0  0  0  0  0  0  0
   -2.5639    2.0823    0.2034 H   0  0  0  0  0  0  0  0  0  0  0  0
  1  2  1  0
  2  3  1  0
  3  4  1  0
  4  5  1  0
  5  6  1  0
  6  7  1  0
  7  8  1  0
  4  9  1  0
  8  9  1  0
  9 10  1  0
 10 11  1  0
 11 12  1  0
 12 13  1  0
 13 14  1  0
 14 15  1  0
 15 16  1  0
 12 17  1  0
 16 17  1  0
 11 18  1  0
 18 19  1  0
 19 20  1  0
 20 21  1  0
 21 22  1  0
 18 23  1  0
 22 23  1  0
  1 24  1  0
  1 25  1  0
  1 26  1  0
  2 27  1  0
  2 28  1  0
  4 29  1  0
  5 30  1  0
  5 31  1  0
  6 32  1  0
  6 33  1  0
  7 34  1  0
  7 35  1  0
  8 36  1  0
  8 37  1  0
  9 38  1  0
 11 39  1  1
 12 40  1  0
 13 41  1  0
 13 42  1  0
 14 43  1  0
 14 44  1  0
 15 45  1  0
 15 46  1  0
 16 47  1  0
 16 48  1  0
 17 49  1  0
 17 50  1  0
 18 51  1  6
 20 52  1  0
 20 53  1  0
 21 54  1  0
 21 55  1  0
 22 56  1  0
 23 57  1  0
 23 58  1  0
M  END
>  <PDBID>  (1) 
4XNX

>  <PDB ID>  (1) 
4XNX

>  <Generic Name>  (1) 
Reboxetine

>  <Brand Name>  (1) 
Davedax#Edronax#Norebox#Prolift#Solvex#Vestra

>  <DrugBank ID>  (1) 
DB00234

>  <ATC Codes>  (1) 
N06AX18

>  <Ligand ID>  (1) 
41X

>  <Target Name>  (1) 
Sodium-dependent noradrenaline transporter

>  <UniProt ID>  (1) 
P23975

>  <PDB ID.1>  (1) 
4XNX

>  <Seq. Identity>  (1) 
58%

$$$$
