PDB_DB00491_02
     RDKit          3D

 31 31  0  0  0  0  0  0  0  0999 V2000
    4.1676   -0.4792   -0.5981 O   0  0  0  0  0  0  0  0  0  0  0  0
   -0.0477    1.9253    2.0324 O   0  0  0  0  0  0  0  0  0  0  0  0
   -1.7104   -2.8864    0.1338 O   0  0  0  0  0  0  0  0  0  0  0  0
   -3.4624   -0.8125   -0.3129 O   0  0  0  0  0  0  0  0  0  0  0  0
   -2.3777    1.7546   -0.6539 O   0  0  0  0  0  0  0  0  0  0  0  0
    2.9879   -0.8375    0.0970 C   0  0  0  0  0  0  0  0  0  0  0  0
    0.1286    2.2054    0.6585 C   0  0  0  0  0  0  0  0  0  0  0  0
    1.9215    0.1079   -0.3922 C   0  0  0  0  0  0  0  0  0  0  0  0
    0.1471   -1.3948   -0.2639 C   0  0  0  0  0  0  0  0  0  0  0  0
   -1.2580   -1.5967    0.2813 C   0  0  1  0  0  0  0  0  0  0  0  0
   -2.1241   -0.5902   -0.4928 C   0  0  2  0  0  0  0  0  0  0  0  0
   -1.6877    0.7551    0.0117 C   0  0  1  0  0  0  0  0  0  0  0  0
   -0.2237    0.9810   -0.1566 C   0  0  2  0  0  0  0  0  0  0  0  0
    0.6255   -0.1115    0.2229 N   0  0  0  0  0  0  0  0  0  0  0  0
    4.5921    0.2805   -0.0894 H   0  0  0  0  0  0  0  0  0  0  0  0
   -0.2470    2.8103    2.4683 H   0  0  0  0  0  0  0  0  0  0  0  0
   -2.1437   -3.1391    1.0061 H   0  0  0  0  0  0  0  0  0  0  0  0
   -3.7844   -1.4738   -0.9988 H   0  0  0  0  0  0  0  0  0  0  0  0
   -1.9749    1.8499   -1.5530 H   0  0  0  0  0  0  0  0  0  0  0  0
    3.1456   -0.7435    1.1773 H   0  0  0  0  0  0  0  0  0  0  0  0
    2.7748   -1.8995   -0.1320 H   0  0  0  0  0  0  0  0  0  0  0  0
    1.1405    2.5769    0.5361 H   0  0  0  0  0  0  0  0  0  0  0  0
   -0.5710    3.0326    0.3645 H   0  0  0  0  0  0  0  0  0  0  0  0
    2.3259    1.1297   -0.2221 H   0  0  0  0  0  0  0  0  0  0  0  0
    1.7836   -0.0293   -1.4930 H   0  0  0  0  0  0  0  0  0  0  0  0
    0.7916   -2.1869    0.1088 H   0  0  0  0  0  0  0  0  0  0  0  0
    0.0540   -1.3666   -1.3758 H   0  0  0  0  0  0  0  0  0  0  0  0
   -1.2365   -1.2395    1.3295 H   0  0  0  0  0  0  0  0  0  0  0  0
   -1.8060   -0.6860   -1.5623 H   0  0  0  0  0  0  0  0  0  0  0  0
   -1.9310    0.8357    1.0942 H   0  0  0  0  0  0  0  0  0  0  0  0
   -0.0000    1.2282   -1.2256 H   0  0  0  0  0  0  0  0  0  0  0  0
  1  6  1  0
  2  7  1  0
  6  8  1  0
  3 10  1  0
  9 10  1  0
  4 11  1  0
 10 11  1  0
  5 12  1  0
 11 12  1  0
  7 13  1  0
 12 13  1  0
  8 14  1  0
  9 14  1  0
 13 14  1  0
  1 15  1  0
  2 16  1  0
  3 17  1  0
  4 18  1  0
  5 19  1  0
  6 20  1  0
  6 21  1  0
  7 22  1  0
  7 23  1  0
  8 24  1  0
  8 25  1  0
  9 26  1  0
  9 27  1  0
 10 28  1  1
 11 29  1  6
 12 30  1  1
 13 31  1  6
M  END
>  <PDBID>  (1) 
3L4W

>  <PDB ID>  (1) 
3L4W

>  <Generic Name>  (1) 
Miglitol

>  <Brand Name>  (1) 
Glyset#Miglitol#Diaban#Diamig#Diaset#Diastabol#Elitox#Euglitol#Glycet#Laiping#Migbose#Miglit#Mignar#Migtor#Misobit#Plumarol#Seibule

>  <DrugBank ID>  (1) 
DB00491

>  <ATC Codes>  (1) 
A10BF02

>  <Ligand ID>  (1) 
MIG

>  <Target Name>  (1) 
Maltase-glucoamylase, intestinal

>  <UniProt ID>  (1) 
O43451

>  <PDB ID.1>  (1) 
3L4W

>  <Seq. Identity>  (1) 
99%

$$$$
