PDB_DB08877_03
     RDKit          3D

114120  0  0  0  0  0  0  0  0999 V2000
   -4.5111   -0.8274    0.6054 C   0  0  0  0  0  0  0  0  0  0  0  0
   -4.8127   -2.2663    0.9515 C   0  0  0  0  0  0  0  0  0  0  0  0
   -3.6618   -3.0314    0.3923 C   0  0  0  0  0  0  0  0  0  0  0  0
   -2.4932   -2.0182    0.3322 C   0  0  0  0  0  0  0  0  0  0  0  0
   -2.9888   -0.7001    0.7358 C   0  0  0  0  0  0  0  0  0  0  0  0
   -2.5540    0.4916   -0.1627 C   0  0  1  0  0  0  0  0  0  0  0  0
   -3.3362    1.6795    0.3542 C   0  0  0  0  0  0  0  0  0  0  0  0
   -3.2243    2.9941   -0.2440 C   0  0  0  0  0  0  0  0  0  0  0  0
   -2.0086    3.7122   -0.2058 N   0  0  0  0  0  0  0  0  0  0  0  0
   -1.1744    0.6905   -0.0476 N   0  0  0  0  0  0  0  0  0  0  0  0
   -0.2781   -0.3599   -0.4885 C   0  0  0  0  0  0  0  0  0  0  0  0
   -0.6574    1.8320   -0.6954 N   0  0  0  0  0  0  0  0  0  0  0  0
    0.7471    1.7474   -0.2484 C   0  0  0  0  0  0  0  0  0  0  0  0
    1.0744    0.3642   -0.6830 C   0  0  0  0  0  0  0  0  0  0  0  0
    2.1490   -0.3201    0.1455 C   0  0  0  0  0  0  0  0  0  0  0  0
    2.2632   -1.6539   -0.2922 N   0  0  0  0  0  0  0  0  0  0  0  0
    3.4248   -2.1048   -0.9225 C   0  0  0  0  0  0  0  0  0  0  0  0
    4.5563   -1.2644   -0.9382 N   0  0  0  0  0  0  0  0  0  0  0  0
    4.3145    0.1398   -1.0088 C   0  0  0  0  0  0  0  0  0  0  0  0
    3.3964    0.4757    0.1710 C   0  0  0  0  0  0  0  0  0  0  0  0
    4.3091    0.1099    1.3387 C   0  0  0  0  0  0  0  0  0  0  0  0
    5.7040    0.1539    0.7476 C   0  0  0  0  0  0  0  0  0  0  0  0
    5.5447    0.8108   -0.5602 N   0  0  0  0  0  0  0  0  0  0  0  0
   -4.2557   -0.5710    0.8821 C   0  0  0  0  0  0  0  0  0  0  0  0
   -4.3580   -1.7004    1.8878 C   0  0  0  0  0  0  0  0  0  0  0  0
   -3.1227   -2.4881    1.6507 C   0  0  0  0  0  0  0  0  0  0  0  0
   -2.2237   -1.6810    0.7071 C   0  0  0  0  0  0  0  0  0  0  0  0
   -2.7306   -0.2651    0.7887 C   0  0  0  0  0  0  0  0  0  0  0  0
   -2.5824    0.5597   -0.4360 C   0  0  1  0  0  0  0  0  0  0  0  0
   -3.4223    1.8182   -0.3587 C   0  0  0  0  0  0  0  0  0  0  0  0
   -3.3404    2.6529   -1.6160 C   0  0  0  0  0  0  0  0  0  0  0  0
   -2.0053    3.0756   -1.9151 N   0  0  0  0  0  0  0  0  0  0  0  0
   -1.2245    1.0115   -0.7092 N   0  0  0  0  0  0  0  0  0  0  0  0
   -0.2773    0.0435   -1.0889 C   0  0  0  0  0  0  0  0  0  0  0  0
   -0.7426    1.7254    0.4144 N   0  0  0  0  0  0  0  0  0  0  0  0
    0.3940    0.9621    0.9268 C   0  0  0  0  0  0  0  0  0  0  0  0
    0.9834    0.4501   -0.3622 C   0  0  0  0  0  0  0  0  0  0  0  0
    1.9316   -0.6924   -0.1597 C   0  0  1  0  0  0  0  0  0  0  0  0
    2.3555   -1.2791   -1.4049 N   0  0  0  0  0  0  0  0  0  0  0  0
    3.3187   -0.4690   -2.1171 C   0  0  0  0  0  0  0  0  0  0  0  0
    4.5357   -0.3798   -1.3314 N   0  0  0  0  0  0  0  0  0  0  0  0
    4.2045    0.3823   -0.1359 C   0  0  0  0  0  0  0  0  0  0  0  0
    3.1223   -0.3135    0.6473 C   0  0  0  0  0  0  0  0  0  0  0  0
    3.8547   -1.5472    1.1433 C   0  0  0  0  0  0  0  0  0  0  0  0
    5.2385   -1.0169    1.3828 C   0  0  0  0  0  0  0  0  0  0  0  0
    5.3444    0.2622    0.7534 N   0  0  0  0  0  0  0  0  0  0  0  0
   -5.0327   -0.2280    1.4043 H   0  0  0  0  0  0  0  0  0  0  0  0
   -4.8626   -0.6335   -0.4048 H   0  0  0  0  0  0  0  0  0  0  0  0
   -5.7834   -2.5749    0.4694 H   0  0  0  0  0  0  0  0  0  0  0  0
   -4.9702   -2.4182    2.0324 H   0  0  0  0  0  0  0  0  0  0  0  0
   -3.9446   -3.3693   -0.6234 H   0  0  0  0  0  0  0  0  0  0  0  0
   -3.4078   -3.9256    0.9662 H   0  0  0  0  0  0  0  0  0  0  0  0
   -2.0943   -2.1059   -0.6874 H   0  0  0  0  0  0  0  0  0  0  0  0
   -1.7705   -2.4348    1.1155 H   0  0  0  0  0  0  0  0  0  0  0  0
   -2.7345   -0.4310    1.7559 H   0  0  0  0  0  0  0  0  0  0  0  0
   -2.9450    0.2600   -1.1755 H   0  0  0  0  0  0  0  0  0  0  0  0
   -3.1385    1.7970    1.4770 H   0  0  0  0  0  0  0  0  0  0  0  0
   -4.4459    1.3888    0.3803 H   0  0  0  0  0  0  0  0  0  0  0  0
   -3.9956    3.6740    0.2664 H   0  0  0  0  0  0  0  0  0  0  0  0
   -3.5808    3.0350   -1.3219 H   0  0  0  0  0  0  0  0  0  0  0  0
   -1.8118    4.1924    0.6992 H   0  0  0  0  0  0  0  0  0  0  0  0
   -1.8452    4.3402   -1.0268 H   0  0  0  0  0  0  0  0  0  0  0  0
   -0.5153   -0.7600   -1.4887 H   0  0  0  0  0  0  0  0  0  0  0  0
   -0.1594   -1.1139    0.2992 H   0  0  0  0  0  0  0  0  0  0  0  0
   -0.7119    1.7410   -1.7320 H   0  0  0  0  0  0  0  0  0  0  0  0
    0.6920    1.8688    0.8607 H   0  0  0  0  0  0  0  0  0  0  0  0
    1.3702    2.5156   -0.7271 H   0  0  0  0  0  0  0  0  0  0  0  0
    1.3277    0.3883   -1.7449 H   0  0  0  0  0  0  0  0  0  0  0  0
    1.7339   -0.3319    1.1969 H   0  0  0  0  0  0  0  0  0  0  0  0
    1.3745   -2.1117   -0.5782 H   0  0  0  0  0  0  0  0  0  0  0  0
    3.7267   -3.1018   -0.4866 H   0  0  0  0  0  0  0  0  0  0  0  0
    3.1741   -2.3600   -1.9952 H   0  0  0  0  0  0  0  0  0  0  0  0
    5.2206   -1.5008   -1.7304 H   0  0  0  0  0  0  0  0  0  0  0  0
    3.9453    0.5181   -1.9548 H   0  0  0  0  0  0  0  0  0  0  0  0
    3.2724    1.5561    0.1597 H   0  0  0  0  0  0  0  0  0  0  0  0
    4.0689   -0.9401    1.6099 H   0  0  0  0  0  0  0  0  0  0  0  0
    4.2164    0.8103    2.1799 H   0  0  0  0  0  0  0  0  0  0  0  0
    6.4289    0.6699    1.3767 H   0  0  0  0  0  0  0  0  0  0  0  0
    6.0445   -0.8877    0.4931 H   0  0  0  0  0  0  0  0  0  0  0  0
    5.3706    1.8186   -0.3417 H   0  0  0  0  0  0  0  0  0  0  0  0
   -4.8037    0.2671    1.3301 H   0  0  0  0  0  0  0  0  0  0  0  0
   -4.6328   -0.9302   -0.0783 H   0  0  0  0  0  0  0  0  0  0  0  0
   -5.3011   -2.2562    1.6634 H   0  0  0  0  0  0  0  0  0  0  0  0
   -4.4414   -1.2800    2.9064 H   0  0  0  0  0  0  0  0  0  0  0  0
   -3.4153   -3.4663    1.2103 H   0  0  0  0  0  0  0  0  0  0  0  0
   -2.6468   -2.6978    2.6182 H   0  0  0  0  0  0  0  0  0  0  0  0
   -2.4141   -2.1174   -0.2810 H   0  0  0  0  0  0  0  0  0  0  0  0
   -1.2101   -1.8329    1.1198 H   0  0  0  0  0  0  0  0  0  0  0  0
   -2.4772    0.2198    1.7344 H   0  0  0  0  0  0  0  0  0  0  0  0
   -2.9080   -0.0231   -1.3099 H   0  0  0  0  0  0  0  0  0  0  0  0
   -3.0558    2.4919    0.4696 H   0  0  0  0  0  0  0  0  0  0  0  0
   -4.4873    1.6212   -0.0944 H   0  0  0  0  0  0  0  0  0  0  0  0
   -4.0446    3.5221   -1.5613 H   0  0  0  0  0  0  0  0  0  0  0  0
   -3.6525    2.0015   -2.4889 H   0  0  0  0  0  0  0  0  0  0  0  0
   -1.7606    4.0152   -1.5829 H   0  0  0  0  0  0  0  0  0  0  0  0
   -1.6651    2.8168   -2.8519 H   0  0  0  0  0  0  0  0  0  0  0  0
   -0.0071    0.2087   -2.1891 H   0  0  0  0  0  0  0  0  0  0  0  0
   -0.5195   -1.0041   -0.9242 H   0  0  0  0  0  0  0  0  0  0  0  0
   -0.4518    2.6878    0.2147 H   0  0  0  0  0  0  0  0  0  0  0  0
   -0.0222    0.1733    1.5786 H   0  0  0  0  0  0  0  0  0  0  0  0
    1.0854    1.6382    1.4579 H   0  0  0  0  0  0  0  0  0  0  0  0
    1.4287    1.2969   -0.8815 H   0  0  0  0  0  0  0  0  0  0  0  0
    1.3879   -1.4972    0.3995 H   0  0  0  0  0  0  0  0  0  0  0  0
    1.4963   -1.3411   -2.0173 H   0  0  0  0  0  0  0  0  0  0  0  0
    3.5682   -0.9988   -3.0501 H   0  0  0  0  0  0  0  0  0  0  0  0
    2.9429    0.5680   -2.3083 H   0  0  0  0  0  0  0  0  0  0  0  0
    5.2527    0.1206   -1.8852 H   0  0  0  0  0  0  0  0  0  0  0  0
    3.9702    1.4424   -0.3628 H   0  0  0  0  0  0  0  0  0  0  0  0
    2.8995    0.3078    1.5320 H   0  0  0  0  0  0  0  0  0  0  0  0
    3.3708   -1.9374    2.0618 H   0  0  0  0  0  0  0  0  0  0  0  0
    3.8763   -2.3048    0.3336 H   0  0  0  0  0  0  0  0  0  0  0  0
    5.3877   -0.9622    2.4779 H   0  0  0  0  0  0  0  0  0  0  0  0
    6.0052   -1.6814    0.9308 H   0  0  0  0  0  0  0  0  0  0  0  0
    6.2475    0.3919    0.2785 H   0  0  0  0  0  0  0  0  0  0  0  0
  1  2  1  0
  2  3  1  0
  3  4  1  0
  1  5  1  0
  4  5  1  0
  5  6  1  0
  6  7  1  0
  7  8  1  0
  8  9  1  0
  6 10  1  0
 10 11  1  0
 10 12  1  0
 12 13  1  0
 11 14  1  0
 13 14  1  0
 14 15  1  0
 15 16  1  0
 16 17  1  0
 17 18  1  0
 18 19  1  0
 15 20  1  0
 19 20  1  0
 20 21  1  0
 21 22  1  0
 19 23  1  0
 22 23  1  0
 24 25  1  0
 25 26  1  0
 26 27  1  0
 24 28  1  0
 27 28  1  0
 28 29  1  0
 29 30  1  0
 30 31  1  0
 31 32  1  0
 29 33  1  0
 33 34  1  0
 33 35  1  0
 35 36  1  0
 34 37  1  0
 36 37  1  0
 37 38  1  0
 38 39  1  0
 39 40  1  0
 40 41  1  0
 41 42  1  0
 38 43  1  0
 42 43  1  0
 43 44  1  0
 44 45  1  0
 42 46  1  0
 45 46  1  0
  1 47  1  0
  1 48  1  0
  2 49  1  0
  2 50  1  0
  3 51  1  0
  3 52  1  0
  4 53  1  0
  4 54  1  0
  5 55  1  0
  6 56  1  6
  7 57  1  0
  7 58  1  0
  8 59  1  0
  8 60  1  0
  9 61  1  0
  9 62  1  0
 11 63  1  0
 11 64  1  0
 12 65  1  0
 13 66  1  0
 13 67  1  0
 14 68  1  0
 15 69  1  0
 16 70  1  0
 17 71  1  0
 17 72  1  0
 18 73  1  0
 19 74  1  0
 20 75  1  0
 21 76  1  0
 21 77  1  0
 22 78  1  0
 22 79  1  0
 23 80  1  0
 24 81  1  0
 24 82  1  0
 25 83  1  0
 25 84  1  0
 26 85  1  0
 26 86  1  0
 27 87  1  0
 27 88  1  0
 28 89  1  0
 29 90  1  6
 30 91  1  0
 30 92  1  0
 31 93  1  0
 31 94  1  0
 32 95  1  0
 32 96  1  0
 34 97  1  0
 34 98  1  0
 35 99  1  0
 36100  1  0
 36101  1  0
 37102  1  0
 38103  1  1
 39104  1  0
 40105  1  0
 40106  1  0
 41107  1  0
 42108  1  0
 43109  1  0
 44110  1  0
 44111  1  0
 45112  1  0
 45113  1  0
 46114  1  0
M  END
>  <PDBID>  (1) 
4U5J

>  <PDB ID>  (1) 
4U5J

>  <Generic Name>  (1) 
Ruxolitinib

>  <Brand Name>  (1) 
Jakafi#Jakavi

>  <DrugBank ID>  (1) 
DB08877

>  <ATC Codes>  (1) 
L01XE18

>  <Ligand ID>  (1) 
RXT

>  <Target Name>  (1) 
Tyrosine-protein kinase JAK2

>  <UniProt ID>  (1) 
O60674

>  <PDB ID.1>  (1) 
4U5J

>  <Seq. Identity>  (1) 
30%

$$$$
