PDB_DB00907_01
     RDKit          3D

 53 55  0  0  0  0  0  0  0  0999 V2000
   -3.0147    4.0645    0.6898 C   0  0  0  0  0  0  0  0  0  0  0  0
   -3.0700    2.6917    0.8666 O   0  0  0  0  0  0  0  0  0  0  0  0
   -1.7703    2.1622    0.7783 C   0  0  0  0  0  0  0  0  0  0  0  0
   -1.5115    1.6877    2.0889 O   0  0  0  0  0  0  0  0  0  0  0  0
   -1.6973    1.0358   -0.1892 C   0  0  2  0  0  0  0  0  0  0  0  0
   -2.6075   -0.1007    0.2150 C   0  0  2  0  0  0  0  0  0  0  0  0
   -1.9035   -1.3828    0.0974 N   0  0  0  0  0  0  0  0  0  0  0  0
   -2.8502   -2.4477    0.3671 C   0  0  0  0  0  0  0  0  0  0  0  0
   -3.6842   -0.2518   -0.8307 C   0  0  0  0  0  0  0  0  0  0  0  0
   -2.9455   -0.9397   -1.9590 C   0  0  0  0  0  0  0  0  0  0  0  0
   -1.6297   -1.4153   -1.3381 C   0  0  1  0  0  0  0  0  0  0  0  0
   -0.5081   -0.4721   -1.6271 C   0  0  0  0  0  0  0  0  0  0  0  0
   -0.3047    0.5098   -0.4601 C   0  0  2  0  0  0  0  0  0  0  0  0
    0.2629   -0.1784    0.5733 O   0  0  0  0  0  0  0  0  0  0  0  0
    1.5346    0.2062    0.9264 C   0  0  0  0  0  0  0  0  0  0  0  0
    1.3833    0.7044    2.2672 O   0  0  0  0  0  0  0  0  0  0  0  0
    2.5270   -0.9143    1.0926 C   0  0  0  0  0  0  0  0  0  0  0  0
    3.8806   -0.3658    1.4733 C   0  0  0  0  0  0  0  0  0  0  0  0
    4.4761    0.3311    0.2942 C   0  0  0  0  0  0  0  0  0  0  0  0
    4.6501   -0.6206   -0.8373 C   0  0  0  0  0  0  0  0  0  0  0  0
    3.3881   -1.3494   -1.2209 C   0  0  0  0  0  0  0  0  0  0  0  0
    2.6381   -1.8678   -0.0304 C   0  0  0  0  0  0  0  0  0  0  0  0
   -4.0642    4.4564    0.7655 H   0  0  0  0  0  0  0  0  0  0  0  0
   -2.4392    4.5543    1.4936 H   0  0  0  0  0  0  0  0  0  0  0  0
   -2.6363    4.3496   -0.3118 H   0  0  0  0  0  0  0  0  0  0  0  0
   -1.0846    2.9817    0.5955 H   0  0  0  0  0  0  0  0  0  0  0  0
   -1.1921    2.4414    2.6560 H   0  0  0  0  0  0  0  0  0  0  0  0
   -2.0239    1.4676   -1.1877 H   0  0  0  0  0  0  0  0  0  0  0  0
   -3.0201    0.0328    1.2326 H   0  0  0  0  0  0  0  0  0  0  0  0
   -2.2645   -3.3651    0.6633 H   0  0  0  0  0  0  0  0  0  0  0  0
   -3.4340   -2.7421   -0.5282 H   0  0  0  0  0  0  0  0  0  0  0  0
   -3.5125   -2.1839    1.2359 H   0  0  0  0  0  0  0  0  0  0  0  0
   -4.5357   -0.8649   -0.4613 H   0  0  0  0  0  0  0  0  0  0  0  0
   -4.0216    0.7615   -1.1755 H   0  0  0  0  0  0  0  0  0  0  0  0
   -3.5517   -1.7724   -2.3206 H   0  0  0  0  0  0  0  0  0  0  0  0
   -2.7340   -0.2315   -2.7804 H   0  0  0  0  0  0  0  0  0  0  0  0
   -1.4505   -2.4452   -1.6522 H   0  0  0  0  0  0  0  0  0  0  0  0
    0.3907   -1.0255   -1.8905 H   0  0  0  0  0  0  0  0  0  0  0  0
   -0.8657    0.1690   -2.4912 H   0  0  0  0  0  0  0  0  0  0  0  0
    0.3343    1.3102   -0.8799 H   0  0  0  0  0  0  0  0  0  0  0  0
    1.9620    0.9890    0.3022 H   0  0  0  0  0  0  0  0  0  0  0  0
    1.1763   -0.1270    2.7911 H   0  0  0  0  0  0  0  0  0  0  0  0
    2.2287   -1.5501    2.0000 H   0  0  0  0  0  0  0  0  0  0  0  0
    4.5420   -1.2183    1.7272 H   0  0  0  0  0  0  0  0  0  0  0  0
    3.8021    0.3475    2.3208 H   0  0  0  0  0  0  0  0  0  0  0  0
    3.9116    1.2053   -0.0697 H   0  0  0  0  0  0  0  0  0  0  0  0
    5.5029    0.7189    0.5392 H   0  0  0  0  0  0  0  0  0  0  0  0
    4.9812   -0.0495   -1.7308 H   0  0  0  0  0  0  0  0  0  0  0  0
    5.4792   -1.3469   -0.6078 H   0  0  0  0  0  0  0  0  0  0  0  0
    3.6861   -2.2216   -1.8381 H   0  0  0  0  0  0  0  0  0  0  0  0
    2.7624   -0.6970   -1.8595 H   0  0  0  0  0  0  0  0  0  0  0  0
    3.1718   -2.7865    0.3640 H   0  0  0  0  0  0  0  0  0  0  0  0
    1.6553   -2.2447   -0.3488 H   0  0  0  0  0  0  0  0  0  0  0  0
  1  2  1  0
  2  3  1  0
  3  4  1  0
  3  5  1  0
  5  6  1  0
  6  7  1  0
  7  8  1  0
  6  9  1  0
  9 10  1  0
  7 11  1  0
 10 11  1  0
 11 12  1  0
  5 13  1  0
 12 13  1  0
 13 14  1  0
 14 15  1  0
 15 16  1  0
 15 17  1  0
 17 18  1  0
 18 19  1  0
 19 20  1  0
 20 21  1  0
 17 22  1  0
 21 22  1  0
  1 23  1  0
  1 24  1  0
  1 25  1  0
  3 26  1  0
  4 27  1  0
  5 28  1  6
  6 29  1  1
  8 30  1  0
  8 31  1  0
  8 32  1  0
  9 33  1  0
  9 34  1  0
 10 35  1  0
 10 36  1  0
 11 37  1  6
 12 38  1  0
 12 39  1  0
 13 40  1  6
 15 41  1  0
 16 42  1  0
 17 43  1  0
 18 44  1  0
 18 45  1  0
 19 46  1  0
 19 47  1  0
 20 48  1  0
 20 49  1  0
 21 50  1  0
 21 51  1  0
 22 52  1  0
 22 53  1  0
M  END
>  <PDBID>  (1) 
4XP4

>  <PDB ID>  (1) 
4XP4

>  <Generic Name>  (1) 
Cocaine

>  <Brand Name>  (1) 
Cocaine Hydrochloride#Cocaine Hydrochloride Top Sol 40mg/ml#Cocaine Hydrochloride Topical Sol 10%#PMS-cocaine Hydrochloride  Topical Sol 4%#PMS-cocaine Hydrochloride Topical Sol 10%

>  <DrugBank ID>  (1) 
DB00907

>  <ATC Codes>  (1) 
S01HA01#N01BC01#R02AD03#S02DA02

>  <Ligand ID>  (1) 
COC

>  <Target Name>  (1) 
Sodium-dependent noradrenaline transporter

>  <UniProt ID>  (1) 
P23975

>  <PDB ID.1>  (1) 
4XP4

>  <Seq. Identity>  (1) 
58%

$$$$
