PDB_DB00323_08
     RDKit          3D

 47 48  0  0  0  0  0  0  0  0999 V2000
   -0.0050   -2.1726    0.1410 O   0  0  0  0  0  0  0  0  0  0  0  0
   -0.0414   -0.7598   -0.2202 C   0  0  1  0  0  0  0  0  0  0  0  0
   -0.9674   -0.1291    0.7914 C   0  0  1  0  0  0  0  0  0  0  0  0
   -1.2491    1.3005    0.6581 C   0  0  0  0  0  0  0  0  0  0  0  0
   -2.7356    1.6367    0.8564 C   0  0  0  0  0  0  0  0  0  0  0  0
   -3.0436    1.3866    2.1909 O   0  0  0  0  0  0  0  0  0  0  0  0
   -2.1605   -1.0161    1.0220 C   0  0  0  0  0  0  0  0  0  0  0  0
   -3.4402   -0.6273    0.4207 C   0  0  0  0  0  0  0  0  0  0  0  0
   -3.8147   -1.5242   -0.6833 N   0  0  0  0  0  0  0  0  0  0  0  0
   -3.9366   -2.7982   -0.2858 O   0  0  0  0  0  0  0  0  0  0  0  0
   -2.9814   -1.4433   -1.7173 O   0  0  0  0  0  0  0  0  0  0  0  0
   -3.5598    0.7838   -0.0564 C   0  0  0  0  0  0  0  0  0  0  0  0
   -4.8853    1.2093    0.0143 O   0  0  0  0  0  0  0  0  0  0  0  0
    1.3973   -0.2951   -0.0473 C   0  0  0  0  0  0  0  0  0  0  0  0
    2.3200   -1.1504   -0.9264 C   0  0  0  0  0  0  0  0  0  0  0  0
    3.7208   -0.8723   -0.4627 C   0  0  0  0  0  0  0  0  0  0  0  0
    3.8787    0.5973   -0.0497 C   0  0  0  0  0  0  0  0  0  0  0  0
    5.3227    0.9941   -0.2106 C   0  0  0  0  0  0  0  0  0  0  0  0
    2.9886    1.3824   -0.9854 C   0  0  0  0  0  0  0  0  0  0  0  0
    1.5376    1.1011   -0.5543 C   0  0  0  0  0  0  0  0  0  0  0  0
   -1.0416    1.6620   -0.3620 H   0  0  0  0  0  0  0  0  0  0  0  0
   -3.6584    2.0954    2.5317 H   0  0  0  0  0  0  0  0  0  0  0  0
   -2.3369   -1.2396    2.1174 H   0  0  0  0  0  0  0  0  0  0  0  0
   -5.3119    0.9602   -0.8561 H   0  0  0  0  0  0  0  0  0  0  0  0
    2.1179   -2.2193   -0.8093 H   0  0  0  0  0  0  0  0  0  0  0  0
    4.0351   -1.5186    0.3738 H   0  0  0  0  0  0  0  0  0  0  0  0
    5.8932    0.9100    0.7419 H   0  0  0  0  0  0  0  0  0  0  0  0
    5.3922    2.0849   -0.4892 H   0  0  0  0  0  0  0  0  0  0  0  0
    5.8513    0.3531   -0.9403 H   0  0  0  0  0  0  0  0  0  0  0  0
    3.2284    2.4523   -0.9173 H   0  0  0  0  0  0  0  0  0  0  0  0
    1.2282    1.8358    0.1993 H   0  0  0  0  0  0  0  0  0  0  0  0
    0.3968   -2.1999    1.0403 H   0  0  0  0  0  0  0  0  0  0  0  0
   -0.3748   -0.7415   -1.2500 H   0  0  0  0  0  0  0  0  0  0  0  0
   -0.4181   -0.2066    1.8043 H   0  0  0  0  0  0  0  0  0  0  0  0
   -0.7371    1.9838    1.3685 H   0  0  0  0  0  0  0  0  0  0  0  0
   -2.9156    2.7020    0.6340 H   0  0  0  0  0  0  0  0  0  0  0  0
   -1.8836   -2.0366    0.6192 H   0  0  0  0  0  0  0  0  0  0  0  0
   -4.2899   -0.7725    1.1605 H   0  0  0  0  0  0  0  0  0  0  0  0
   -3.8195   -2.9058    0.7047 H   0  0  0  0  0  0  0  0  0  0  0  0
   -2.4596   -2.2801   -1.7830 H   0  0  0  0  0  0  0  0  0  0  0  0
   -3.1522    0.9053   -1.0838 H   0  0  0  0  0  0  0  0  0  0  0  0
    1.6390   -0.4545    1.0121 H   0  0  0  0  0  0  0  0  0  0  0  0
    2.1821   -0.8708   -1.9734 H   0  0  0  0  0  0  0  0  0  0  0  0
    4.4391   -1.0372   -1.2921 H   0  0  0  0  0  0  0  0  0  0  0  0
    3.6156    0.7418    1.0098 H   0  0  0  0  0  0  0  0  0  0  0  0
    3.1263    0.9757   -2.0029 H   0  0  0  0  0  0  0  0  0  0  0  0
    0.9092    1.2171   -1.4534 H   0  0  0  0  0  0  0  0  0  0  0  0
  1  2  1  0
  2  3  1  0
  3  4  1  0
  4  5  1  0
  5  6  1  0
  3  7  1  0
  7  8  1  0
  8  9  1  0
  9 10  1  0
  9 11  1  0
  5 12  1  0
  8 12  1  0
 12 13  1  0
  2 14  1  0
 14 15  1  0
 15 16  1  0
 16 17  1  0
 17 18  1  0
 17 19  1  0
 14 20  1  0
 19 20  1  0
  4 21  1  0
  6 22  1  0
  7 23  1  0
 24 13  1  0
 15 25  1  0
 16 26  1  0
 18 27  1  0
 18 28  1  0
 18 29  1  0
 19 30  1  0
 20 31  1  0
  1 32  1  0
  2 33  1  6
  3 34  1  1
  4 35  1  0
  5 36  1  0
  7 37  1  0
  8 38  1  0
 10 39  1  0
 11 40  1  0
 12 41  1  0
 14 42  1  0
 15 43  1  0
 16 44  1  0
 17 45  1  0
 19 46  1  0
 20 47  1  0
M  END
>  <PDBID>  (1) 
3S68

>  <PDB ID>  (1) 
3S68

>  <Generic Name>  (1) 
Tolcapone

>  <Brand Name>  (1) 
Tasmar#Tolcapone#Sen De Ning

>  <DrugBank ID>  (1) 
DB00323

>  <ATC Codes>  (1) 
N04BX01

>  <Ligand ID>  (1) 
TCW

>  <Target Name>  (1) 
Catechol O-methyltransferase

>  <UniProt ID>  (1) 
P21964

>  <PDB ID.1>  (1) 
3S68

>  <Seq. Identity>  (1) 
81%

$$$$
