PDB_DB01409_02
     RDKit          3D

116124  0  0  0  0  0  0  0  0999 V2000
   -0.8626   -0.9029    1.3354 C   0  0  2  0  0  0  0  0  0  0  0  0
   -0.6185   -0.6231    2.7775 O   0  0  0  0  0  0  0  0  0  0  0  0
   -2.0788    1.2325    1.4486 C   0  0  0  0  0  0  0  0  0  0  0  0
   -2.9265   -0.4527   -0.0953 C   0  0  0  0  0  0  0  0  0  0  0  0
   -3.4251    1.9317    1.2600 C   0  0  0  0  0  0  0  0  0  0  0  0
   -3.3102    3.2589    1.9744 C   0  0  0  0  0  0  0  0  0  0  0  0
   -2.9922    2.9679    3.4213 C   0  0  0  0  0  0  0  0  0  0  0  0
   -2.3309   -0.0972   -1.4012 C   0  0  0  0  0  0  0  0  0  0  0  0
   -3.3037   -0.7341   -2.4401 C   0  0  0  0  0  0  0  0  0  0  0  0
   -3.1701   -2.2442   -2.1949 C   0  0  0  0  0  0  0  0  0  0  0  0
    4.1974    1.7591   -1.0923 O   0  0  0  0  0  0  0  0  0  0  0  0
    0.1265   -0.2436    0.7097 O   0  0  0  0  0  0  0  0  0  0  0  0
   -3.0607   -0.7627    2.1951 O   0  0  0  0  0  0  0  0  0  0  0  0
   -1.8234    1.5608    3.2388 S   0  0  0  0  0  0  0  0  0  0  0  0
   -3.2153   -2.2556   -0.3554 S   0  0  0  0  0  0  0  0  0  0  0  0
    3.6937   -2.2527   -1.0235 C   0  0  0  0  0  0  0  0  0  0  0  0
    3.6042   -0.2020    0.2523 C   0  0  2  0  0  0  0  0  0  0  0  0
    2.4476   -0.8550    0.9227 C   0  0  0  0  0  0  0  0  0  0  0  0
    1.1663   -0.8913    0.1047 C   0  0  2  0  0  0  0  0  0  0  0  0
    1.3324   -0.5015   -1.2990 C   0  0  0  0  0  0  0  0  0  0  0  0
    2.7204   -0.1687   -1.7711 C   0  0  1  0  0  0  0  0  0  0  0  0
    2.9567    1.3000   -1.4480 C   0  0  1  0  0  0  0  0  0  0  0  0
    3.4235    1.2439   -0.0468 C   0  0  2  0  0  0  0  0  0  0  0  0
    5.0357   -0.4631   -1.6621 C   0  0  0  0  0  0  0  0  0  0  0  0
   -2.1774   -0.2237    1.1526 C   0  0  0  0  0  0  0  0  0  0  0  0
    3.7717   -0.8178   -1.0559 N   0  0  0  0  0  0  0  0  0  0  0  0
   -0.5019    1.4108    0.5949 C   0  0  1  0  0  0  0  0  0  0  0  0
   -0.2766    2.7675    1.1111 O   0  0  0  0  0  0  0  0  0  0  0  0
   -2.8278    2.2641    0.5157 C   0  0  0  0  0  0  0  0  0  0  0  0
   -2.4321   -0.2052    0.6595 C   0  0  0  0  0  0  0  0  0  0  0  0
   -4.2273    2.0731    0.8552 C   0  0  0  0  0  0  0  0  0  0  0  0
   -5.0562    1.7190   -0.3154 C   0  0  0  0  0  0  0  0  0  0  0  0
   -4.5968    2.4219   -1.5287 C   0  0  0  0  0  0  0  0  0  0  0  0
   -2.3995   -0.6822   -0.7606 C   0  0  0  0  0  0  0  0  0  0  0  0
   -2.8277   -2.1382   -0.6610 C   0  0  0  0  0  0  0  0  0  0  0  0
   -1.8443   -2.8495    0.2378 C   0  0  0  0  0  0  0  0  0  0  0  0
    5.0837   -1.9203    1.1193 O   0  0  0  0  0  0  0  0  0  0  0  0
    0.3855    0.5794    1.1296 O   0  0  0  0  0  0  0  0  0  0  0  0
   -2.0441    1.2307    2.3917 O   0  0  0  0  0  0  0  0  0  0  0  0
   -2.8086    2.5395   -1.2536 S   0  0  0  0  0  0  0  0  0  0  0  0
   -1.5762   -1.5467    1.5110 S   0  0  0  0  0  0  0  0  0  0  0  0
    3.1846   -0.1801   -2.0505 C   0  0  0  0  0  0  0  0  0  0  0  0
    2.9605   -1.7705   -0.2348 C   0  0  2  0  0  0  0  0  0  0  0  0
    1.5585   -1.2870    0.0597 C   0  0  0  0  0  0  0  0  0  0  0  0
    1.4348    0.1511    0.3222 C   0  0  2  0  0  0  0  0  0  0  0  0
    2.7313    0.8522    0.6845 C   0  0  0  0  0  0  0  0  0  0  0  0
    3.9548    0.1506    0.2246 C   0  0  1  0  0  0  0  0  0  0  0  0
    4.4239   -0.7451    1.3404 C   0  0  1  0  0  0  0  0  0  0  0  0
    3.7264   -2.0490    1.0406 C   0  0  2  0  0  0  0  0  0  0  0  0
    5.0571   -1.2930   -1.2450 C   0  0  0  0  0  0  0  0  0  0  0  0
   -1.9170    1.1319    0.9596 C   0  0  0  0  0  0  0  0  0  0  0  0
    3.7412   -0.7634   -0.8755 N   0  0  0  0  0  0  0  0  0  0  0  0
   -0.9468   -1.9597    1.3448 H   0  0  0  0  0  0  0  0  0  0  0  0
    0.2006   -1.1760    2.9298 H   0  0  0  0  0  0  0  0  0  0  0  0
   -1.3296    1.7713    0.8729 H   0  0  0  0  0  0  0  0  0  0  0  0
   -3.9402    0.0357   -0.0477 H   0  0  0  0  0  0  0  0  0  0  0  0
   -4.2099    1.3511    1.7848 H   0  0  0  0  0  0  0  0  0  0  0  0
   -3.6205    2.1399    0.2095 H   0  0  0  0  0  0  0  0  0  0  0  0
   -2.5244    3.8811    1.4853 H   0  0  0  0  0  0  0  0  0  0  0  0
   -4.2619    3.7727    1.8622 H   0  0  0  0  0  0  0  0  0  0  0  0
   -2.4621    3.8561    3.8169 H   0  0  0  0  0  0  0  0  0  0  0  0
   -3.8916    2.6839    3.9655 H   0  0  0  0  0  0  0  0  0  0  0  0
   -1.3885   -0.6061   -1.6338 H   0  0  0  0  0  0  0  0  0  0  0  0
   -2.3101    0.9643   -1.6471 H   0  0  0  0  0  0  0  0  0  0  0  0
   -4.3043   -0.3677   -2.2078 H   0  0  0  0  0  0  0  0  0  0  0  0
   -2.9124   -0.4473   -3.4179 H   0  0  0  0  0  0  0  0  0  0  0  0
   -2.1950   -2.5689   -2.5676 H   0  0  0  0  0  0  0  0  0  0  0  0
   -4.0352   -2.7467   -2.6211 H   0  0  0  0  0  0  0  0  0  0  0  0
   -2.8353   -0.2551    2.9883 H   0  0  0  0  0  0  0  0  0  0  0  0
    2.7053   -2.6746   -1.1982 H   0  0  0  0  0  0  0  0  0  0  0  0
    4.3501   -2.6741   -1.8405 H   0  0  0  0  0  0  0  0  0  0  0  0
    4.1742   -2.5908   -0.0737 H   0  0  0  0  0  0  0  0  0  0  0  0
    4.5051   -0.4086    0.8485 H   0  0  0  0  0  0  0  0  0  0  0  0
    2.2857   -0.3267    1.9089 H   0  0  0  0  0  0  0  0  0  0  0  0
    2.7888   -1.8692    1.2251 H   0  0  0  0  0  0  0  0  0  0  0  0
    0.8731   -1.9641    0.1678 H   0  0  0  0  0  0  0  0  0  0  0  0
    0.7241    0.4263   -1.5423 H   0  0  0  0  0  0  0  0  0  0  0  0
    0.9285   -1.2581   -2.0383 H   0  0  0  0  0  0  0  0  0  0  0  0
    2.7914   -0.3255   -2.8532 H   0  0  0  0  0  0  0  0  0  0  0  0
    2.2385    2.0326   -1.8196 H   0  0  0  0  0  0  0  0  0  0  0  0
    3.1624    1.9699    0.7181 H   0  0  0  0  0  0  0  0  0  0  0  0
    5.6089   -1.3760   -2.0047 H   0  0  0  0  0  0  0  0  0  0  0  0
    4.9098    0.1296   -2.5914 H   0  0  0  0  0  0  0  0  0  0  0  0
    5.7408    0.0179   -0.9308 H   0  0  0  0  0  0  0  0  0  0  0  0
   -0.4350    1.6273   -0.4904 H   0  0  0  0  0  0  0  0  0  0  0  0
    0.0326    2.6252    2.0412 H   0  0  0  0  0  0  0  0  0  0  0  0
   -2.4205    3.1892    1.0096 H   0  0  0  0  0  0  0  0  0  0  0  0
   -3.5123   -0.3106    0.9719 H   0  0  0  0  0  0  0  0  0  0  0  0
   -4.3637    1.3218    1.6482 H   0  0  0  0  0  0  0  0  0  0  0  0
   -4.6476    3.0240    1.3260 H   0  0  0  0  0  0  0  0  0  0  0  0
   -5.1285    0.6313   -0.4980 H   0  0  0  0  0  0  0  0  0  0  0  0
   -6.1172    2.0337   -0.0820 H   0  0  0  0  0  0  0  0  0  0  0  0
   -4.8470    1.8601   -2.4512 H   0  0  0  0  0  0  0  0  0  0  0  0
   -4.9819    3.4627   -1.5588 H   0  0  0  0  0  0  0  0  0  0  0  0
   -1.3924   -0.6849   -1.2094 H   0  0  0  0  0  0  0  0  0  0  0  0
   -3.0888   -0.1922   -1.4446 H   0  0  0  0  0  0  0  0  0  0  0  0
   -3.8130   -2.1776   -0.1447 H   0  0  0  0  0  0  0  0  0  0  0  0
   -2.8719   -2.5838   -1.6739 H   0  0  0  0  0  0  0  0  0  0  0  0
   -0.8962   -3.1036   -0.2297 H   0  0  0  0  0  0  0  0  0  0  0  0
   -2.3509   -3.7110    0.7212 H   0  0  0  0  0  0  0  0  0  0  0  0
   -1.6582    0.4383    2.8143 H   0  0  0  0  0  0  0  0  0  0  0  0
    3.0895    0.9129   -2.0442 H   0  0  0  0  0  0  0  0  0  0  0  0
    3.8197   -0.3889   -2.9663 H   0  0  0  0  0  0  0  0  0  0  0  0
    2.2294   -0.7209   -2.2931 H   0  0  0  0  0  0  0  0  0  0  0  0
    2.8885   -2.6911   -0.8322 H   0  0  0  0  0  0  0  0  0  0  0  0
    1.2508   -1.9133    0.9553 H   0  0  0  0  0  0  0  0  0  0  0  0
    0.9218   -1.6736   -0.7655 H   0  0  0  0  0  0  0  0  0  0  0  0
    1.1725    0.6493   -0.6625 H   0  0  0  0  0  0  0  0  0  0  0  0
    2.7787    1.9015    0.2774 H   0  0  0  0  0  0  0  0  0  0  0  0
    2.8074    0.9848    1.7847 H   0  0  0  0  0  0  0  0  0  0  0  0
    4.7600    0.8609   -0.0248 H   0  0  0  0  0  0  0  0  0  0  0  0
    4.3794   -0.3293    2.3659 H   0  0  0  0  0  0  0  0  0  0  0  0
    3.2491   -2.6148    1.8529 H   0  0  0  0  0  0  0  0  0  0  0  0
    5.2720   -1.1208   -2.3431 H   0  0  0  0  0  0  0  0  0  0  0  0
    5.8820   -0.7688   -0.7327 H   0  0  0  0  0  0  0  0  0  0  0  0
    5.0853   -2.3993   -1.1536 H   0  0  0  0  0  0  0  0  0  0  0  0
  1  2  1  0
  3  5  1  0
  5  6  1  0
  6  7  1  0
  4  8  1  0
  8  9  1  0
  9 10  1  0
  1 12  1  0
  3 14  1  0
  7 14  1  0
  4 15  1  0
 10 15  1  0
 17 18  1  0
 12 19  1  0
 18 19  1  0
 19 20  1  0
 20 21  1  0
 11 22  1  0
 21 22  1  0
 11 23  1  0
 17 23  1  0
 22 23  1  0
  1 25  1  0
  3 25  1  0
  4 25  1  0
 25 13  1  0
 26 16  1  0
 17 26  1  0
 21 26  1  0
 24 26  1  0
 27 28  1  0
 29 31  1  0
 31 32  1  0
 32 33  1  0
 30 34  1  0
 34 35  1  0
 35 36  1  0
 27 38  1  0
 29 40  1  0
 33 40  1  0
 30 41  1  0
 36 41  1  0
 43 44  1  0
 38 45  1  0
 44 45  1  0
 45 46  1  0
 46 47  1  0
 37 48  1  0
 47 48  1  0
 37 49  1  0
 43 49  1  0
 48 49  1  0
 27 51  1  0
 29 51  1  0
 30 51  1  0
 51 39  1  0
 52 42  1  0
 43 52  1  0
 47 52  1  0
 50 52  1  0
  1 53  1  1
  2 54  1  0
  3 55  1  0
  4 56  1  0
  5 57  1  0
  5 58  1  0
  6 59  1  0
  6 60  1  0
  7 61  1  0
  7 62  1  0
  8 63  1  0
  8 64  1  0
  9 65  1  0
  9 66  1  0
 10 67  1  0
 10 68  1  0
 13 69  1  0
 16 70  1  0
 16 71  1  0
 16 72  1  0
 17 73  1  1
 18 74  1  0
 18 75  1  0
 19 76  1  6
 20 77  1  0
 20 78  1  0
 21 79  1  6
 22 80  1  1
 23 81  1  1
 24 82  1  0
 24 83  1  0
 24 84  1  0
 27 85  1  6
 28 86  1  0
 29 87  1  0
 30 88  1  0
 31 89  1  0
 31 90  1  0
 32 91  1  0
 32 92  1  0
 33 93  1  0
 33 94  1  0
 34 95  1  0
 34 96  1  0
 35 97  1  0
 35 98  1  0
 36 99  1  0
 36100  1  0
 39101  1  0
 42102  1  0
 42103  1  0
 42104  1  0
 43105  1  6
 44106  1  0
 44107  1  0
 45108  1  6
 46109  1  0
 46110  1  0
 47111  1  6
 48112  1  1
 49113  1  1
 50114  1  0
 50115  1  0
 50116  1  0
M  CHG  2  26   1  52   1
M  END
>  <PDBID>  (1) 
4U15

>  <PDB ID>  (1) 
4U15

>  <Generic Name>  (1) 
Tiotropium

>  <Brand Name>  (1) 
Inspiolto Respimat#Spiriva#Spiriva Respimat#Stiolto Respimat

>  <DrugBank ID>  (1) 
DB01409

>  <ATC Codes>  (1) 
R03AL06#R03BB54#R03BB04

>  <Ligand ID>  (1) 
0HK

>  <Target Name>  (1) 
Muscarinic acetylcholine receptor M3

>  <UniProt ID>  (1) 
P20309

>  <PDB ID.1>  (1) 
4U15

>  <Seq. Identity>  (1) 
98%

$$$$
