PDB_DB00276_06
     RDKit          3D

138144  0  0  0  0  0  0  0  0999 V2000
    1.9304    2.6566    0.3613 C   0  0  0  0  0  0  0  0  0  0  0  0
    2.0454    1.3529   -0.0128 O   0  0  0  0  0  0  0  0  0  0  0  0
    1.3813    0.4257    0.7841 C   0  0  0  0  0  0  0  0  0  0  0  0
    2.5654   -0.2588    1.5629 C   0  0  0  0  0  0  0  0  0  0  0  0
    3.5757   -0.4930    0.4990 C   0  0  0  0  0  0  0  0  0  0  0  0
    4.8154   -0.9147    1.1343 N   0  0  0  0  0  0  0  0  0  0  0  0
    5.9756   -1.2182   -0.2559 S   0  0  0  0  0  0  0  0  0  0  0  0
    7.5060   -0.8491    0.4879 C   0  0  0  0  0  0  0  0  0  0  0  0
    5.7609   -2.6466   -0.6182 O   0  0  0  0  0  0  0  0  0  0  0  0
    5.6645   -0.0724   -1.3120 O   0  0  0  0  0  0  0  0  0  0  0  0
    3.0620   -1.5249   -0.4411 C   0  0  0  0  0  0  0  0  0  0  0  0
    1.6990   -1.3965   -0.9250 C   0  0  0  0  0  0  0  0  0  0  0  0
    0.7194   -0.5925   -0.0809 C   0  0  0  0  0  0  0  0  0  0  0  0
   -0.3152   -0.0936   -0.8330 N   0  0  0  0  0  0  0  0  0  0  0  0
   -1.5512    0.3941   -0.5363 C   0  0  0  0  0  0  0  0  0  0  0  0
   -1.8238    1.5994    0.2759 C   0  0  0  0  0  0  0  0  0  0  0  0
   -1.8633    2.8719   -0.5878 C   0  0  0  0  0  0  0  0  0  0  0  0
   -3.1696    3.1124   -1.2481 C   0  0  0  0  0  0  0  0  0  0  0  0
   -4.1783    3.3782   -0.1182 C   0  0  0  0  0  0  0  0  0  0  0  0
   -4.3293    1.9976    0.5193 C   0  0  0  0  0  0  0  0  0  0  0  0
   -3.0610    1.5591    1.1378 C   0  0  0  0  0  0  0  0  0  0  0  0
   -3.2234    0.3491    1.8764 N   0  0  0  0  0  0  0  0  0  0  0  0
   -2.8266   -0.8437    1.2327 C   0  0  0  0  0  0  0  0  0  0  0  0
   -3.9977   -1.8333    1.3753 C   0  0  0  0  0  0  0  0  0  0  0  0
   -3.7085   -3.1537    0.7325 C   0  0  0  0  0  0  0  0  0  0  0  0
   -3.4099   -2.9425   -0.7361 C   0  0  0  0  0  0  0  0  0  0  0  0
   -2.1510   -2.0530   -0.7927 C   0  0  0  0  0  0  0  0  0  0  0  0
   -2.5693   -0.7343   -0.2237 C   0  0  0  0  0  0  0  0  0  0  0  0
    1.9304    2.6566    0.3613 C   0  0  0  0  0  0  0  0  0  0  0  0
    2.0454    1.3529   -0.0128 O   0  0  0  0  0  0  0  0  0  0  0  0
    1.3813    0.4257    0.7841 C   0  0  0  0  0  0  0  0  0  0  0  0
    2.5654   -0.2588    1.5629 C   0  0  0  0  0  0  0  0  0  0  0  0
    3.5757   -0.4930    0.4990 C   0  0  0  0  0  0  0  0  0  0  0  0
    4.8154   -0.9147    1.1343 N   0  0  0  0  0  0  0  0  0  0  0  0
    5.9756   -1.2182   -0.2559 S   0  0  0  0  0  0  0  0  0  0  0  0
    7.5060   -0.8491    0.4879 C   0  0  0  0  0  0  0  0  0  0  0  0
    5.7609   -2.6466   -0.6182 O   0  0  0  0  0  0  0  0  0  0  0  0
    5.6645   -0.0724   -1.3120 O   0  0  0  0  0  0  0  0  0  0  0  0
    3.0620   -1.5249   -0.4411 C   0  0  0  0  0  0  0  0  0  0  0  0
    1.6990   -1.3965   -0.9250 C   0  0  0  0  0  0  0  0  0  0  0  0
    0.7194   -0.5925   -0.0809 C   0  0  0  0  0  0  0  0  0  0  0  0
   -0.3152   -0.0936   -0.8330 N   0  0  0  0  0  0  0  0  0  0  0  0
   -1.5512    0.3941   -0.5363 C   0  0  0  0  0  0  0  0  0  0  0  0
   -1.8238    1.5994    0.2759 C   0  0  0  0  0  0  0  0  0  0  0  0
   -1.8633    2.8719   -0.5878 C   0  0  0  0  0  0  0  0  0  0  0  0
   -3.1696    3.1124   -1.2481 C   0  0  0  0  0  0  0  0  0  0  0  0
   -4.1783    3.3782   -0.1182 C   0  0  0  0  0  0  0  0  0  0  0  0
   -4.3293    1.9976    0.5193 C   0  0  0  0  0  0  0  0  0  0  0  0
   -3.0610    1.5591    1.1378 C   0  0  0  0  0  0  0  0  0  0  0  0
   -3.2234    0.3491    1.8764 N   0  0  0  0  0  0  0  0  0  0  0  0
   -2.8266   -0.8437    1.2327 C   0  0  0  0  0  0  0  0  0  0  0  0
   -3.9977   -1.8333    1.3753 C   0  0  0  0  0  0  0  0  0  0  0  0
   -3.7085   -3.1537    0.7325 C   0  0  0  0  0  0  0  0  0  0  0  0
   -3.4099   -2.9425   -0.7361 C   0  0  0  0  0  0  0  0  0  0  0  0
   -2.1510   -2.0530   -0.7927 C   0  0  0  0  0  0  0  0  0  0  0  0
   -2.5693   -0.7343   -0.2237 C   0  0  0  0  0  0  0  0  0  0  0  0
    2.5270    3.2843   -0.3702 H   0  0  0  0  0  0  0  0  0  0  0  0
    2.2530    2.8468    1.3952 H   0  0  0  0  0  0  0  0  0  0  0  0
    0.8954    3.0095    0.2730 H   0  0  0  0  0  0  0  0  0  0  0  0
    0.8149    0.8398    1.6089 H   0  0  0  0  0  0  0  0  0  0  0  0
    2.1939   -1.1492    2.0642 H   0  0  0  0  0  0  0  0  0  0  0  0
    2.9264    0.5459    2.2380 H   0  0  0  0  0  0  0  0  0  0  0  0
    3.7358    0.4404   -0.0787 H   0  0  0  0  0  0  0  0  0  0  0  0
    5.2902   -0.0900    1.5676 H   0  0  0  0  0  0  0  0  0  0  0  0
    8.3127   -1.2012   -0.1564 H   0  0  0  0  0  0  0  0  0  0  0  0
    7.5961   -1.4081    1.4537 H   0  0  0  0  0  0  0  0  0  0  0  0
    7.6523    0.2422    0.6506 H   0  0  0  0  0  0  0  0  0  0  0  0
    6.4486   -3.1904   -1.0682 H   0  0  0  0  0  0  0  0  0  0  0  0
    5.5099    0.8529   -0.9860 H   0  0  0  0  0  0  0  0  0  0  0  0
    3.8142   -1.5606   -1.2892 H   0  0  0  0  0  0  0  0  0  0  0  0
    3.2252   -2.5180    0.0726 H   0  0  0  0  0  0  0  0  0  0  0  0
    1.2809   -2.4133   -1.1673 H   0  0  0  0  0  0  0  0  0  0  0  0
    1.7122   -0.8770   -1.9197 H   0  0  0  0  0  0  0  0  0  0  0  0
    0.3944   -1.4014    0.6810 H   0  0  0  0  0  0  0  0  0  0  0  0
   -0.1902   -0.1863   -1.8836 H   0  0  0  0  0  0  0  0  0  0  0  0
   -1.9869    0.7175   -1.5721 H   0  0  0  0  0  0  0  0  0  0  0  0
   -1.0124    1.8557    0.9877 H   0  0  0  0  0  0  0  0  0  0  0  0
   -1.5356    3.7591   -0.0345 H   0  0  0  0  0  0  0  0  0  0  0  0
   -1.1143    2.6794   -1.4068 H   0  0  0  0  0  0  0  0  0  0  0  0
   -3.5476    2.2489   -1.8011 H   0  0  0  0  0  0  0  0  0  0  0  0
   -3.0681    4.0379   -1.8496 H   0  0  0  0  0  0  0  0  0  0  0  0
   -5.1259    3.7722   -0.4855 H   0  0  0  0  0  0  0  0  0  0  0  0
   -3.6612    4.0137    0.6101 H   0  0  0  0  0  0  0  0  0  0  0  0
   -4.8203    1.3743   -0.2027 H   0  0  0  0  0  0  0  0  0  0  0  0
   -5.0628    2.1345    1.3680 H   0  0  0  0  0  0  0  0  0  0  0  0
   -2.8972    2.3440    1.9503 H   0  0  0  0  0  0  0  0  0  0  0  0
   -4.2169    0.3449    2.2466 H   0  0  0  0  0  0  0  0  0  0  0  0
   -1.9702   -1.3200    1.7700 H   0  0  0  0  0  0  0  0  0  0  0  0
   -4.8278   -1.3594    0.7729 H   0  0  0  0  0  0  0  0  0  0  0  0
   -4.3190   -1.8954    2.4168 H   0  0  0  0  0  0  0  0  0  0  0  0
   -4.6455   -3.7417    0.7775 H   0  0  0  0  0  0  0  0  0  0  0  0
   -2.8675   -3.6804    1.1931 H   0  0  0  0  0  0  0  0  0  0  0  0
   -3.1805   -3.9262   -1.2300 H   0  0  0  0  0  0  0  0  0  0  0  0
   -4.1889   -2.4112   -1.2849 H   0  0  0  0  0  0  0  0  0  0  0  0
   -1.9157   -1.9484   -1.8624 H   0  0  0  0  0  0  0  0  0  0  0  0
   -1.3975   -2.6052   -0.2224 H   0  0  0  0  0  0  0  0  0  0  0  0
   -3.5538   -0.5366   -0.7147 H   0  0  0  0  0  0  0  0  0  0  0  0
    2.5270    3.2843   -0.3702 H   0  0  0  0  0  0  0  0  0  0  0  0
    2.2530    2.8468    1.3952 H   0  0  0  0  0  0  0  0  0  0  0  0
    0.8954    3.0095    0.2730 H   0  0  0  0  0  0  0  0  0  0  0  0
    0.8149    0.8398    1.6089 H   0  0  0  0  0  0  0  0  0  0  0  0
    2.1939   -1.1492    2.0642 H   0  0  0  0  0  0  0  0  0  0  0  0
    2.9264    0.5459    2.2380 H   0  0  0  0  0  0  0  0  0  0  0  0
    3.7358    0.4404   -0.0787 H   0  0  0  0  0  0  0  0  0  0  0  0
    5.2902   -0.0900    1.5676 H   0  0  0  0  0  0  0  0  0  0  0  0
    8.3127   -1.2012   -0.1564 H   0  0  0  0  0  0  0  0  0  0  0  0
    7.5961   -1.4081    1.4537 H   0  0  0  0  0  0  0  0  0  0  0  0
    7.6523    0.2422    0.6506 H   0  0  0  0  0  0  0  0  0  0  0  0
    6.4486   -3.1904   -1.0682 H   0  0  0  0  0  0  0  0  0  0  0  0
    5.5099    0.8529   -0.9860 H   0  0  0  0  0  0  0  0  0  0  0  0
    3.8142   -1.5606   -1.2892 H   0  0  0  0  0  0  0  0  0  0  0  0
    3.2252   -2.5180    0.0726 H   0  0  0  0  0  0  0  0  0  0  0  0
    1.2809   -2.4133   -1.1673 H   0  0  0  0  0  0  0  0  0  0  0  0
    1.7122   -0.8770   -1.9197 H   0  0  0  0  0  0  0  0  0  0  0  0
    0.3944   -1.4014    0.6810 H   0  0  0  0  0  0  0  0  0  0  0  0
   -0.1902   -0.1863   -1.8836 H   0  0  0  0  0  0  0  0  0  0  0  0
   -1.9869    0.7175   -1.5721 H   0  0  0  0  0  0  0  0  0  0  0  0
   -1.0124    1.8557    0.9877 H   0  0  0  0  0  0  0  0  0  0  0  0
   -1.5356    3.7591   -0.0345 H   0  0  0  0  0  0  0  0  0  0  0  0
   -1.1143    2.6794   -1.4068 H   0  0  0  0  0  0  0  0  0  0  0  0
   -3.5476    2.2489   -1.8011 H   0  0  0  0  0  0  0  0  0  0  0  0
   -3.0681    4.0379   -1.8496 H   0  0  0  0  0  0  0  0  0  0  0  0
   -5.1259    3.7722   -0.4855 H   0  0  0  0  0  0  0  0  0  0  0  0
   -3.6612    4.0137    0.6101 H   0  0  0  0  0  0  0  0  0  0  0  0
   -4.8203    1.3743   -0.2027 H   0  0  0  0  0  0  0  0  0  0  0  0
   -5.0628    2.1345    1.3680 H   0  0  0  0  0  0  0  0  0  0  0  0
   -2.8972    2.3440    1.9503 H   0  0  0  0  0  0  0  0  0  0  0  0
   -4.2169    0.3449    2.2466 H   0  0  0  0  0  0  0  0  0  0  0  0
   -1.9702   -1.3200    1.7700 H   0  0  0  0  0  0  0  0  0  0  0  0
   -4.8278   -1.3594    0.7729 H   0  0  0  0  0  0  0  0  0  0  0  0
   -4.3190   -1.8954    2.4168 H   0  0  0  0  0  0  0  0  0  0  0  0
   -4.6455   -3.7417    0.7775 H   0  0  0  0  0  0  0  0  0  0  0  0
   -2.8675   -3.6804    1.1931 H   0  0  0  0  0  0  0  0  0  0  0  0
   -3.1805   -3.9262   -1.2300 H   0  0  0  0  0  0  0  0  0  0  0  0
   -4.1889   -2.4112   -1.2849 H   0  0  0  0  0  0  0  0  0  0  0  0
   -1.9157   -1.9484   -1.8624 H   0  0  0  0  0  0  0  0  0  0  0  0
   -1.3975   -2.6052   -0.2224 H   0  0  0  0  0  0  0  0  0  0  0  0
   -3.5538   -0.5366   -0.7147 H   0  0  0  0  0  0  0  0  0  0  0  0
  1  2  1  0
  2  3  1  0
  3  4  1  0
  4  5  1  0
  5  6  1  0
  6  7  1  0
  7  8  1  0
  7  9  1  0
  7 10  1  0
  5 11  1  0
 11 12  1  0
  3 13  1  0
 12 13  1  0
 13 14  1  0
 14 15  1  0
 15 16  1  0
 16 17  1  0
 17 18  1  0
 18 19  1  0
 19 20  1  0
 16 21  1  0
 20 21  1  0
 21 22  1  0
 22 23  1  0
 23 24  1  0
 24 25  1  0
 25 26  1  0
 26 27  1  0
 15 28  1  0
 23 28  1  0
 27 28  1  0
 29 30  1  0
 30 31  1  0
 31 32  1  0
 32 33  1  0
 33 34  1  0
 34 35  1  0
 35 36  1  0
 35 37  1  0
 35 38  1  0
 33 39  1  0
 39 40  1  0
 31 41  1  0
 40 41  1  0
 41 42  1  0
 42 43  1  0
 43 44  1  0
 44 45  1  0
 45 46  1  0
 46 47  1  0
 47 48  1  0
 44 49  1  0
 48 49  1  0
 49 50  1  0
 50 51  1  0
 51 52  1  0
 52 53  1  0
 53 54  1  0
 54 55  1  0
 43 56  1  0
 51 56  1  0
 55 56  1  0
  1 57  1  0
  1 58  1  0
  1 59  1  0
  3 60  1  0
  4 61  1  0
  4 62  1  0
  5 63  1  0
  6 64  1  0
  8 65  1  0
  8 66  1  0
  8 67  1  0
  9 68  1  0
 10 69  1  0
 11 70  1  0
 11 71  1  0
 12 72  1  0
 12 73  1  0
 13 74  1  0
 14 75  1  0
 15 76  1  0
 16 77  1  0
 17 78  1  0
 17 79  1  0
 18 80  1  0
 18 81  1  0
 19 82  1  0
 19 83  1  0
 20 84  1  0
 20 85  1  0
 21 86  1  0
 22 87  1  0
 23 88  1  0
 24 89  1  0
 24 90  1  0
 25 91  1  0
 25 92  1  0
 26 93  1  0
 26 94  1  0
 27 95  1  0
 27 96  1  0
 28 97  1  0
 29 98  1  0
 29 99  1  0
 29100  1  0
 31101  1  0
 32102  1  0
 32103  1  0
 33104  1  0
 34105  1  0
 36106  1  0
 36107  1  0
 36108  1  0
 37109  1  0
 38110  1  0
 39111  1  0
 39112  1  0
 40113  1  0
 40114  1  0
 41115  1  0
 42116  1  0
 43117  1  0
 44118  1  0
 45119  1  0
 45120  1  0
 46121  1  0
 46122  1  0
 47123  1  0
 47124  1  0
 48125  1  0
 48126  1  0
 49127  1  0
 50128  1  0
 51129  1  0
 52130  1  0
 52131  1  0
 53132  1  0
 53133  1  0
 54134  1  0
 54135  1  0
 55136  1  0
 55137  1  0
 56138  1  0
M  END
>  <PDBID>  (1) 
4G0U

>  <PDB ID>  (1) 
4G0U

>  <Generic Name>  (1) 
Amsacrine

>  <Brand Name>  (1) 
Amsa Pd Inj 50mg/ml#AMSA P-D#Amekrin#Amsidine#Amsidyl

>  <DrugBank ID>  (1) 
DB00276

>  <ATC Codes>  (1) 
L01XX01

>  <Ligand ID>  (1) 
ASW

>  <Target Name>  (1) 
DNA topoisomerase 2-alpha

>  <UniProt ID>  (1) 
P11388

>  <PDB ID.1>  (1) 
4G0U

>  <Seq. Identity>  (1) 
78%

$$$$
