PDB_DB00300_02
     RDKit          3D

 41 42  0  0  0  0  0  0  0  0999 V2000
    4.9332    1.4864    0.9726 P   0  0  0  0  0  0  0  0  0  0  0  0
    4.9724    3.0841    0.5377 O   0  0  0  0  0  0  0  0  0  0  0  0
    5.5401    0.5542   -0.2848 O   0  0  0  0  0  0  0  0  0  0  0  0
    3.2175    0.9955    1.2596 C   0  0  0  0  0  0  0  0  0  0  0  0
    2.9107   -0.0089    0.3721 O   0  0  0  0  0  0  0  0  0  0  0  0
    1.7207   -1.9605    0.8354 C   0  0  0  0  0  0  0  0  0  0  0  0
    1.6067   -0.4856    0.4629 C   0  0  2  0  0  0  0  0  0  0  0  0
    0.8902   -0.4087   -0.8683 C   0  0  0  0  0  0  0  0  0  0  0  0
   -0.4084   -0.8942   -0.7301 N   0  0  0  0  0  0  0  0  0  0  0  0
   -1.3772   -0.2182    0.0031 C   0  0  1  0  0  0  0  0  0  0  0  0
   -1.3264    1.2028    0.0980 N   0  0  0  0  0  0  0  0  0  0  0  0
   -2.7101    1.6621    0.2954 C   0  0  0  0  0  0  0  0  0  0  0  0
   -3.4918    0.6767    1.0321 N   0  0  0  0  0  0  0  0  0  0  0  0
   -3.7589   -0.5000    0.1838 C   0  0  0  0  0  0  0  0  0  0  0  0
   -5.0413   -0.3889   -0.4843 N   0  0  0  0  0  0  0  0  0  0  0  0
   -2.6486   -0.5306   -0.8164 C   0  0  0  0  0  0  0  0  0  0  0  0
   -2.3397   -1.8219   -1.3341 N   0  0  0  0  0  0  0  0  0  0  0  0
   -0.9734   -1.6273   -1.8093 C   0  0  0  0  0  0  0  0  0  0  0  0
    5.6720    1.2574    2.1118 H   0  0  0  0  0  0  0  0  0  0  0  0
    4.9640    3.2053   -0.4442 H   0  0  0  0  0  0  0  0  0  0  0  0
    6.4414    0.2379   -0.0146 H   0  0  0  0  0  0  0  0  0  0  0  0
    2.5814    1.8722    1.1266 H   0  0  0  0  0  0  0  0  0  0  0  0
    3.1688    0.6513    2.3224 H   0  0  0  0  0  0  0  0  0  0  0  0
    2.7349   -2.3569    0.5931 H   0  0  0  0  0  0  0  0  0  0  0  0
    1.0040   -2.5989    0.3242 H   0  0  0  0  0  0  0  0  0  0  0  0
    1.5579   -2.0932    1.9332 H   0  0  0  0  0  0  0  0  0  0  0  0
    1.0159    0.0151    1.2303 H   0  0  0  0  0  0  0  0  0  0  0  0
    0.9799    0.6493   -1.2081 H   0  0  0  0  0  0  0  0  0  0  0  0
    1.4668   -1.0236   -1.6145 H   0  0  0  0  0  0  0  0  0  0  0  0
   -1.4865   -0.6747    1.0087 H   0  0  0  0  0  0  0  0  0  0  0  0
   -0.8452    1.4649    1.0025 H   0  0  0  0  0  0  0  0  0  0  0  0
   -3.1703    1.9604   -0.6450 H   0  0  0  0  0  0  0  0  0  0  0  0
   -2.7094    2.5767    0.9555 H   0  0  0  0  0  0  0  0  0  0  0  0
   -4.4070    1.1405    1.2510 H   0  0  0  0  0  0  0  0  0  0  0  0
   -3.6804   -1.4118    0.8101 H   0  0  0  0  0  0  0  0  0  0  0  0
   -5.6362    0.3383   -0.0003 H   0  0  0  0  0  0  0  0  0  0  0  0
   -4.8647   -0.0836   -1.4714 H   0  0  0  0  0  0  0  0  0  0  0  0
   -2.8007    0.2105   -1.6165 H   0  0  0  0  0  0  0  0  0  0  0  0
   -2.2675   -2.5042   -0.5269 H   0  0  0  0  0  0  0  0  0  0  0  0
   -0.9920   -1.0653   -2.7633 H   0  0  0  0  0  0  0  0  0  0  0  0
   -0.4430   -2.5846   -1.9734 H   0  0  0  0  0  0  0  0  0  0  0  0
  1  2  1  0
  1  3  1  0
  1  4  1  0
  4  5  1  0
  5  7  1  0
  6  7  1  0
  7  8  1  0
  8  9  1  0
  9 10  1  0
 10 11  1  0
 11 12  1  0
 12 13  1  0
 13 14  1  0
 14 15  1  0
 10 16  1  0
 14 16  1  0
 16 17  1  0
  9 18  1  0
 17 18  1  0
  1 19  1  0
  2 20  1  0
  3 21  1  0
  4 22  1  0
  4 23  1  0
  6 24  1  0
  6 25  1  0
  6 26  1  0
  7 27  1  1
  8 28  1  0
  8 29  1  0
 10 30  1  1
 11 31  1  0
 12 32  1  0
 12 33  1  0
 13 34  1  0
 14 35  1  0
 15 36  1  0
 15 37  1  0
 16 38  1  0
 17 39  1  0
 18 40  1  0
 18 41  1  0
M  END
>  <PDBID>  (1) 
1T03

>  <PDB ID>  (1) 
1T03

>  <Generic Name>  (1) 
Tenofovir

>  <Brand Name>  (1) 
Atripla#Complera#Stribild#Truvada#Viread

>  <DrugBank ID>  (1) 
DB00300

>  <ATC Codes>  (1) 
nan

>  <Ligand ID>  (1) 
TFO

>  <Target Name>  (1) 
Reverse transcriptase/RNaseH

>  <UniProt ID>  (1) 
Q72547

>  <PDB ID.1>  (1) 
1T03

>  <Seq. Identity>  (1) 
95%

$$$$
