PDB_DB06401_01
     RDKit          3D

348367  0  0  0  0  0  0  0  0999 V2000
    6.8296   -0.3525    0.3127 C   0  0  1  0  0  0  0  0  0  0  0  0
    6.9402   -0.9863   -1.0519 C   0  0  0  0  0  0  0  0  0  0  0  0
    8.3295   -0.9794   -1.5980 C   0  0  0  0  0  0  0  0  0  0  0  0
    9.2723   -0.0065   -0.9860 C   0  0  0  0  0  0  0  0  0  0  0  0
    8.5069    1.2437   -0.6091 C   0  0  0  0  0  0  0  0  0  0  0  0
    7.5774    0.8387    0.5322 C   0  0  1  0  0  0  0  0  0  0  0  0
    6.1483    0.9033    0.3477 N   0  0  0  0  0  0  0  0  0  0  0  0
    5.4272    1.3044    1.5380 C   0  0  0  0  0  0  0  0  0  0  0  0
    4.2176    0.4600    1.7929 C   0  0  0  0  0  0  0  0  0  0  0  0
    3.2943    0.5255    0.7501 O   0  0  0  0  0  0  0  0  0  0  0  0
    2.1884   -0.2639    0.9371 C   0  0  0  0  0  0  0  0  0  0  0  0
    1.9983   -1.1237   -0.2775 C   0  0  0  0  0  0  0  0  0  0  0  0
    0.4979   -1.3609   -0.5481 C   0  0  0  0  0  0  0  0  0  0  0  0
    0.9799    0.6335    1.1124 C   0  0  0  0  0  0  0  0  0  0  0  0
    0.3829    1.0586   -0.2114 C   0  0  0  0  0  0  0  0  0  0  0  0
   -0.0322   -0.0747   -1.0872 C   0  0  0  0  0  0  0  0  0  0  0  0
   -1.4039   -0.0569   -1.6251 C   0  0  0  0  0  0  0  0  0  0  0  0
   -2.5122   -0.3967   -0.8979 N   0  0  0  0  0  0  0  0  0  0  0  0
   -2.7238   -1.7593   -0.5408 C   0  0  0  0  0  0  0  0  0  0  0  0
   -3.7017   -2.4129   -1.4845 C   0  0  0  0  0  0  0  0  0  0  0  0
   -4.3424   -3.6653   -0.8734 C   0  0  0  0  0  0  0  0  0  0  0  0
   -5.1447   -3.1207    0.3138 C   0  0  0  0  0  0  0  0  0  0  0  0
   -5.9887   -4.0613    0.8578 O   0  0  0  0  0  0  0  0  0  0  0  0
   -4.1207   -2.7082    1.3388 C   0  0  0  0  0  0  0  0  0  0  0  0
   -3.1324   -1.7077    0.8705 C   0  0  0  0  0  0  0  0  0  0  0  0
   -3.5917   -0.2720    1.1190 C   0  0  0  0  0  0  0  0  0  0  0  0
   -2.9727    0.3285    2.3400 C   0  0  0  0  0  0  0  0  0  0  0  0
   -3.2681    0.4745   -0.1581 C   0  0  2  0  0  0  0  0  0  0  0  0
   -4.5679    1.0045   -0.6987 C   0  0  0  0  0  0  0  0  0  0  0  0
   -4.4528    1.8027   -1.9469 C   0  0  0  0  0  0  0  0  0  0  0  0
   -3.8516    3.1837   -1.6704 C   0  0  0  0  0  0  0  0  0  0  0  0
   -4.8394    4.0004   -0.9084 C   0  0  0  0  0  0  0  0  0  0  0  0
   -4.1450    4.8696   -0.0552 O   0  0  0  0  0  0  0  0  0  0  0  0
   -5.8075    3.1321   -0.1670 C   0  0  0  0  0  0  0  0  0  0  0  0
   -5.1493    1.8878    0.3880 C   0  0  0  0  0  0  0  0  0  0  0  0
    7.9512    0.7852   -0.4665 C   0  0  1  0  0  0  0  0  0  0  0  0
    8.6317    0.8570    0.8641 C   0  0  0  0  0  0  0  0  0  0  0  0
    7.6240    1.0656    1.9610 C   0  0  0  0  0  0  0  0  0  0  0  0
    6.5355    0.0264    1.9060 C   0  0  0  0  0  0  0  0  0  0  0  0
    6.7915   -0.9968    0.8281 C   0  0  0  0  0  0  0  0  0  0  0  0
    6.9603   -0.2892   -0.4779 C   0  0  1  0  0  0  0  0  0  0  0  0
    6.5607    1.1034   -0.6029 N   0  0  0  0  0  0  0  0  0  0  0  0
    6.0740    1.4730   -1.8995 C   0  0  0  0  0  0  0  0  0  0  0  0
    4.5855    1.7797   -1.8814 C   0  0  0  0  0  0  0  0  0  0  0  0
    3.9393    0.6228   -1.4505 O   0  0  0  0  0  0  0  0  0  0  0  0
    2.5404    0.8239   -1.4036 C   0  0  0  0  0  0  0  0  0  0  0  0
    1.9226   -0.2045   -2.2911 C   0  0  0  0  0  0  0  0  0  0  0  0
    0.4361   -0.2606   -2.2406 C   0  0  0  0  0  0  0  0  0  0  0  0
    2.1417    0.6936    0.0324 C   0  0  0  0  0  0  0  0  0  0  0  0
    0.9640   -0.2807    0.0921 C   0  0  0  0  0  0  0  0  0  0  0  0
   -0.1092    0.1823   -0.8377 C   0  0  0  0  0  0  0  0  0  0  0  0
   -1.4019   -0.5630   -0.6456 C   0  0  0  0  0  0  0  0  0  0  0  0
   -2.1982   -0.4073    0.4293 N   0  0  0  0  0  0  0  0  0  0  0  0
   -1.9686   -0.7540    1.7604 C   0  0  0  0  0  0  0  0  0  0  0  0
   -1.6574    0.5523    2.4729 C   0  0  0  0  0  0  0  0  0  0  0  0
   -1.7992    0.4199    3.9649 C   0  0  0  0  0  0  0  0  0  0  0  0
   -3.2874    0.3320    4.1661 C   0  0  0  0  0  0  0  0  0  0  0  0
   -3.5353    0.3155    5.5432 O   0  0  0  0  0  0  0  0  0  0  0  0
   -3.8003   -0.9093    3.5363 C   0  0  0  0  0  0  0  0  0  0  0  0
   -3.1977   -1.4262    2.3158 C   0  0  0  0  0  0  0  0  0  0  0  0
   -4.0877   -1.4608    1.0969 C   0  0  1  0  0  0  0  0  0  0  0  0
   -5.5179   -1.5567    1.4303 C   0  0  0  0  0  0  0  0  0  0  0  0
   -3.6190   -0.2532    0.3396 C   0  0  2  0  0  0  0  0  0  0  0  0
   -4.1984   -0.0890   -0.9971 C   0  0  0  0  0  0  0  0  0  0  0  0
   -4.1829   -1.2076   -1.9589 C   0  0  0  0  0  0  0  0  0  0  0  0
   -4.2374   -0.5822   -3.3627 C   0  0  0  0  0  0  0  0  0  0  0  0
   -5.5928    0.0853   -3.4709 C   0  0  0  0  0  0  0  0  0  0  0  0
   -6.5595   -0.9399   -3.3464 O   0  0  0  0  0  0  0  0  0  0  0  0
   -5.8433    1.0528   -2.3663 C   0  0  0  0  0  0  0  0  0  0  0  0
   -5.6343    0.4716   -0.9742 C   0  0  0  0  0  0  0  0  0  0  0  0
    6.1288    1.1821   -0.7858 C   0  0  0  0  0  0  0  0  0  0  0  0
    6.9581    2.2642   -0.1223 C   0  0  0  0  0  0  0  0  0  0  0  0
    8.3438    2.2085   -0.7268 C   0  0  0  0  0  0  0  0  0  0  0  0
    9.1525    1.2284    0.0568 C   0  0  0  0  0  0  0  0  0  0  0  0
    9.0757   -0.1742   -0.4441 C   0  0  0  0  0  0  0  0  0  0  0  0
    7.8180   -0.5056   -1.1799 C   0  0  0  0  0  0  0  0  0  0  0  0
    6.6098   -0.1235   -0.5563 N   0  0  0  0  0  0  0  0  0  0  0  0
    6.1815   -0.8271    0.5838 C   0  0  0  0  0  0  0  0  0  0  0  0
    4.7444   -1.2637    0.6133 C   0  0  0  0  0  0  0  0  0  0  0  0
    3.8141   -0.2655    0.5337 O   0  0  0  0  0  0  0  0  0  0  0  0
    2.5419   -0.8315    0.5841 C   0  0  0  0  0  0  0  0  0  0  0  0
    1.7559   -0.3121    1.7778 C   0  0  0  0  0  0  0  0  0  0  0  0
    0.5826   -1.2572    1.9192 C   0  0  0  0  0  0  0  0  0  0  0  0
    1.7312   -0.5493   -0.6355 C   0  0  0  0  0  0  0  0  0  0  0  0
    0.2964   -0.3323   -0.3242 C   0  0  0  0  0  0  0  0  0  0  0  0
   -0.3050   -1.2409    0.6969 C   0  0  0  0  0  0  0  0  0  0  0  0
   -1.6731   -0.7823    1.1376 C   0  0  0  0  0  0  0  0  0  0  0  0
   -2.6548   -0.6966    0.1682 N   0  0  0  0  0  0  0  0  0  0  0  0
   -3.1649   -1.8674   -0.4304 C   0  0  0  0  0  0  0  0  0  0  0  0
   -3.4164   -1.6763   -1.9226 C   0  0  0  0  0  0  0  0  0  0  0  0
   -4.1007   -2.9364   -2.3963 C   0  0  0  0  0  0  0  0  0  0  0  0
   -5.5099   -2.8892   -1.8704 C   0  0  0  0  0  0  0  0  0  0  0  0
   -6.2683   -2.1921   -2.8366 O   0  0  0  0  0  0  0  0  0  0  0  0
   -5.6422   -2.2293   -0.5356 C   0  0  0  0  0  0  0  0  0  0  0  0
   -4.4263   -2.2478    0.3204 C   0  0  0  0  0  0  0  0  0  0  0  0
   -4.5271   -1.0867    1.3488 C   0  0  0  0  0  0  0  0  0  0  0  0
   -5.9335   -0.9567    1.7885 C   0  0  0  0  0  0  0  0  0  0  0  0
   -3.8893   -0.0062    0.5854 C   0  0  1  0  0  0  0  0  0  0  0  0
   -3.6344    1.3017    1.1886 C   0  0  0  0  0  0  0  0  0  0  0  0
   -4.9100    2.0384    1.4906 C   0  0  0  0  0  0  0  0  0  0  0  0
   -5.5022    2.5948    0.1837 C   0  0  0  0  0  0  0  0  0  0  0  0
   -4.6943    3.8212   -0.2167 C   0  0  0  0  0  0  0  0  0  0  0  0
   -4.5449    3.8931   -1.6068 O   0  0  0  0  0  0  0  0  0  0  0  0
   -3.3352    3.6738    0.3866 C   0  0  0  0  0  0  0  0  0  0  0  0
   -2.8380    2.2455    0.2872 C   0  0  0  0  0  0  0  0  0  0  0  0
    6.8951    0.7851   -1.6496 C   0  0  2  0  0  0  0  0  0  0  0  0
    8.2470    0.2395   -2.0101 C   0  0  0  0  0  0  0  0  0  0  0  0
    9.2968    1.1413   -1.3835 C   0  0  0  0  0  0  0  0  0  0  0  0
    9.2653    0.8755    0.0980 C   0  0  0  0  0  0  0  0  0  0  0  0
    7.9789    0.1372    0.4974 C   0  0  0  0  0  0  0  0  0  0  0  0
    6.7720    0.7437   -0.1226 C   0  0  2  0  0  0  0  0  0  0  0  0
    5.9214    0.0002   -0.9869 N   0  0  0  0  0  0  0  0  0  0  0  0
    5.8179   -1.4056   -1.0281 C   0  0  0  0  0  0  0  0  0  0  0  0
    4.6172   -1.8100   -0.1612 C   0  0  0  0  0  0  0  0  0  0  0  0
    3.5015   -1.2030   -0.7196 O   0  0  0  0  0  0  0  0  0  0  0  0
    2.3870   -1.5345    0.0392 C   0  0  0  0  0  0  0  0  0  0  0  0
    1.3538   -2.2542   -0.8013 C   0  0  0  0  0  0  0  0  0  0  0  0
   -0.0656   -1.8396   -0.3225 C   0  0  0  0  0  0  0  0  0  0  0  0
    1.7697   -0.2402    0.5333 C   0  0  0  0  0  0  0  0  0  0  0  0
    0.9691    0.3615   -0.5756 C   0  0  0  0  0  0  0  0  0  0  0  0
   -0.3314   -0.4279   -0.7321 C   0  0  0  0  0  0  0  0  0  0  0  0
   -1.3950    0.3069   -0.0178 C   0  0  0  0  0  0  0  0  0  0  0  0
   -2.7307   -0.1511   -0.0667 N   0  0  0  0  0  0  0  0  0  0  0  0
   -3.1141   -1.3387    0.6126 C   0  0  0  0  0  0  0  0  0  0  0  0
   -3.9451   -2.2529   -0.2358 C   0  0  0  0  0  0  0  0  0  0  0  0
   -5.3208   -2.5348    0.2489 C   0  0  0  0  0  0  0  0  0  0  0  0
   -5.1713   -2.9919    1.7078 C   0  0  0  0  0  0  0  0  0  0  0  0
   -4.1148   -3.9188    1.7108 O   0  0  0  0  0  0  0  0  0  0  0  0
   -4.8087   -1.7647    2.4675 C   0  0  0  0  0  0  0  0  0  0  0  0
   -3.7510   -0.9167    1.9007 C   0  0  0  0  0  0  0  0  0  0  0  0
   -4.2344    0.4972    1.6478 C   0  0  0  0  0  0  0  0  0  0  0  0
   -3.7966    1.4493    2.7580 C   0  0  0  0  0  0  0  0  0  0  0  0
   -3.6233    0.9061    0.3304 C   0  0  2  0  0  0  0  0  0  0  0  0
   -4.6485    1.1730   -0.7331 C   0  0  0  0  0  0  0  0  0  0  0  0
   -5.6145    2.2506   -0.3877 C   0  0  0  0  0  0  0  0  0  0  0  0
   -4.9656    3.6052   -0.2156 C   0  0  0  0  0  0  0  0  0  0  0  0
   -4.3899    3.9805   -1.5643 C   0  0  0  0  0  0  0  0  0  0  0  0
   -5.4350    4.2209   -2.4497 O   0  0  0  0  0  0  0  0  0  0  0  0
   -3.4690    2.9390   -2.1084 C   0  0  0  0  0  0  0  0  0  0  0  0
   -3.9482    1.5346   -2.0192 C   0  0  0  0  0  0  0  0  0  0  0  0
    6.7158   -1.0920    1.1343 H   0  0  0  0  0  0  0  0  0  0  0  0
    6.5723   -2.0312   -1.0604 H   0  0  0  0  0  0  0  0  0  0  0  0
    6.2804   -0.4359   -1.7581 H   0  0  0  0  0  0  0  0  0  0  0  0
    8.3037   -0.7831   -2.7115 H   0  0  0  0  0  0  0  0  0  0  0  0
    8.8212   -1.9933   -1.5214 H   0  0  0  0  0  0  0  0  0  0  0  0
   10.0402    0.2552   -1.7418 H   0  0  0  0  0  0  0  0  0  0  0  0
    9.7195   -0.4454   -0.0708 H   0  0  0  0  0  0  0  0  0  0  0  0
    9.2117    2.0411   -0.3261 H   0  0  0  0  0  0  0  0  0  0  0  0
    7.8430    1.5221   -1.4634 H   0  0  0  0  0  0  0  0  0  0  0  0
    8.0228    1.0415    1.5275 H   0  0  0  0  0  0  0  0  0  0  0  0
    5.0562    2.3444    1.3581 H   0  0  0  0  0  0  0  0  0  0  0  0
    6.0501    1.3170    2.4503 H   0  0  0  0  0  0  0  0  0  0  0  0
    4.4295   -0.5781    2.0616 H   0  0  0  0  0  0  0  0  0  0  0  0
    3.7008    0.9134    2.6903 H   0  0  0  0  0  0  0  0  0  0  0  0
    2.2777   -0.8249    1.8806 H   0  0  0  0  0  0  0  0  0  0  0  0
    2.5165   -0.7772   -1.1763 H   0  0  0  0  0  0  0  0  0  0  0  0
    2.3916   -2.1457   -0.0228 H   0  0  0  0  0  0  0  0  0  0  0  0
    0.1147   -1.6021    0.4703 H   0  0  0  0  0  0  0  0  0  0  0  0
    0.4855   -2.2131   -1.2515 H   0  0  0  0  0  0  0  0  0  0  0  0
    0.2226    0.2130    1.8036 H   0  0  0  0  0  0  0  0  0  0  0  0
    1.3148    1.5961    1.5978 H   0  0  0  0  0  0  0  0  0  0  0  0
    1.1926    1.6996   -0.6814 H   0  0  0  0  0  0  0  0  0  0  0  0
   -0.4080    1.7892    0.0330 H   0  0  0  0  0  0  0  0  0  0  0  0
    0.6178    0.0743   -2.0372 H   0  0  0  0  0  0  0  0  0  0  0  0
   -1.4051   -0.6882   -2.5706 H   0  0  0  0  0  0  0  0  0  0  0  0
   -1.5459    0.9838   -2.0521 H   0  0  0  0  0  0  0  0  0  0  0  0
   -1.8106   -2.3783   -0.6338 H   0  0  0  0  0  0  0  0  0  0  0  0
   -3.1459   -2.7906   -2.3825 H   0  0  0  0  0  0  0  0  0  0  0  0
   -4.4685   -1.7534   -1.8835 H   0  0  0  0  0  0  0  0  0  0  0  0
   -3.5542   -4.3319   -0.4893 H   0  0  0  0  0  0  0  0  0  0  0  0
   -4.9817   -4.1060   -1.6511 H   0  0  0  0  0  0  0  0  0  0  0  0
   -5.6687   -2.2224   -0.0580 H   0  0  0  0  0  0  0  0  0  0  0  0
   -5.6586   -4.9605    0.6817 H   0  0  0  0  0  0  0  0  0  0  0  0
   -3.6114   -3.6204    1.7275 H   0  0  0  0  0  0  0  0  0  0  0  0
   -4.6567   -2.2664    2.2269 H   0  0  0  0  0  0  0  0  0  0  0  0
   -2.2169   -1.8259    1.5262 H   0  0  0  0  0  0  0  0  0  0  0  0
   -4.6828   -0.3470    1.2970 H   0  0  0  0  0  0  0  0  0  0  0  0
   -2.3219    1.1635    2.0046 H   0  0  0  0  0  0  0  0  0  0  0  0
   -3.7514    0.8241    2.9840 H   0  0  0  0  0  0  0  0  0  0  0  0
   -2.3832   -0.3829    2.9227 H   0  0  0  0  0  0  0  0  0  0  0  0
   -2.7355    1.4092    0.2003 H   0  0  0  0  0  0  0  0  0  0  0  0
   -5.3415    0.1943   -0.8317 H   0  0  0  0  0  0  0  0  0  0  0  0
   -3.9104    1.2951   -2.7694 H   0  0  0  0  0  0  0  0  0  0  0  0
   -5.4759    1.9974   -2.3244 H   0  0  0  0  0  0  0  0  0  0  0  0
   -3.5767    3.6687   -2.6382 H   0  0  0  0  0  0  0  0  0  0  0  0
   -2.8793    3.0490   -1.1229 H   0  0  0  0  0  0  0  0  0  0  0  0
   -5.4174    4.6389   -1.6108 H   0  0  0  0  0  0  0  0  0  0  0  0
   -6.7303    2.9069   -0.6998 H   0  0  0  0  0  0  0  0  0  0  0  0
   -6.1177    3.7154    0.7446 H   0  0  0  0  0  0  0  0  0  0  0  0
   -5.9141    1.3739    0.9878 H   0  0  0  0  0  0  0  0  0  0  0  0
   -4.3726    2.2262    1.1027 H   0  0  0  0  0  0  0  0  0  0  0  0
    8.6340    0.8813   -1.3356 H   0  0  0  0  0  0  0  0  0  0  0  0
    9.2033   -0.0884    1.0928 H   0  0  0  0  0  0  0  0  0  0  0  0
    9.3931    1.6696    0.9293 H   0  0  0  0  0  0  0  0  0  0  0  0
    7.2345    2.1075    1.8667 H   0  0  0  0  0  0  0  0  0  0  0  0
    8.0945    0.9885    2.9642 H   0  0  0  0  0  0  0  0  0  0  0  0
    6.4319   -0.5334    2.8754 H   0  0  0  0  0  0  0  0  0  0  0  0
    5.5649    0.5319    1.6411 H   0  0  0  0  0  0  0  0  0  0  0  0
    7.6514   -1.6431    1.0922 H   0  0  0  0  0  0  0  0  0  0  0  0
    5.8998   -1.6571    0.7908 H   0  0  0  0  0  0  0  0  0  0  0  0
    6.8935   -0.9556   -1.3613 H   0  0  0  0  0  0  0  0  0  0  0  0
    6.6338    2.3919   -2.2104 H   0  0  0  0  0  0  0  0  0  0  0  0
    6.2668    0.6728   -2.6376 H   0  0  0  0  0  0  0  0  0  0  0  0
    4.3034    2.0728   -2.9098 H   0  0  0  0  0  0  0  0  0  0  0  0
    4.4427    2.6288   -1.1818 H   0  0  0  0  0  0  0  0  0  0  0  0
    2.3208    1.8625   -1.7282 H   0  0  0  0  0  0  0  0  0  0  0  0
    2.4165   -1.1905   -2.1147 H   0  0  0  0  0  0  0  0  0  0  0  0
    2.2182    0.0641   -3.3480 H   0  0  0  0  0  0  0  0  0  0  0  0
    0.0152    0.4122   -3.0172 H   0  0  0  0  0  0  0  0  0  0  0  0
    0.0613   -1.2706   -2.4401 H   0  0  0  0  0  0  0  0  0  0  0  0
    1.9035    1.6531    0.5253 H   0  0  0  0  0  0  0  0  0  0  0  0
    2.9417    0.2119    0.6583 H   0  0  0  0  0  0  0  0  0  0  0  0
    1.4044   -1.2347   -0.3420 H   0  0  0  0  0  0  0  0  0  0  0  0
    0.7014   -0.5372    1.1015 H   0  0  0  0  0  0  0  0  0  0  0  0
   -0.2103    1.2635   -0.9426 H   0  0  0  0  0  0  0  0  0  0  0  0
   -1.9831   -0.2515   -1.5886 H   0  0  0  0  0  0  0  0  0  0  0  0
   -1.1379   -1.6401   -0.9340 H   0  0  0  0  0  0  0  0  0  0  0  0
   -1.1267   -1.4246    2.0054 H   0  0  0  0  0  0  0  0  0  0  0  0
   -2.4132    1.3288    2.1506 H   0  0  0  0  0  0  0  0  0  0  0  0
   -0.6907    0.9438    2.1867 H   0  0  0  0  0  0  0  0  0  0  0  0
   -1.4527    1.3821    4.4075 H   0  0  0  0  0  0  0  0  0  0  0  0
   -1.2503   -0.4279    4.3767 H   0  0  0  0  0  0  0  0  0  0  0  0
   -3.7455    1.2624    3.7721 H   0  0  0  0  0  0  0  0  0  0  0  0
   -4.4826    0.4886    5.7516 H   0  0  0  0  0  0  0  0  0  0  0  0
   -4.9224   -0.7221    3.4547 H   0  0  0  0  0  0  0  0  0  0  0  0
   -3.7841   -1.6937    4.3601 H   0  0  0  0  0  0  0  0  0  0  0  0
   -2.9595   -2.5268    2.4824 H   0  0  0  0  0  0  0  0  0  0  0  0
   -3.8461   -2.3422    0.4285 H   0  0  0  0  0  0  0  0  0  0  0  0
   -5.6035   -2.2477    2.3267 H   0  0  0  0  0  0  0  0  0  0  0  0
   -6.0703   -0.6292    1.5555 H   0  0  0  0  0  0  0  0  0  0  0  0
   -6.0855   -2.1694    0.6638 H   0  0  0  0  0  0  0  0  0  0  0  0
   -3.9015    0.6360    0.9483 H   0  0  0  0  0  0  0  0  0  0  0  0
   -3.6391    0.7851   -1.4730 H   0  0  0  0  0  0  0  0  0  0  0  0
   -5.2235   -1.6865   -1.8992 H   0  0  0  0  0  0  0  0  0  0  0  0
   -3.4276   -1.9805   -1.8584 H   0  0  0  0  0  0  0  0  0  0  0  0
   -3.4826    0.2437   -3.4041 H   0  0  0  0  0  0  0  0  0  0  0  0
   -4.1015   -1.3273   -4.1412 H   0  0  0  0  0  0  0  0  0  0  0  0
   -5.7241    0.6201   -4.4221 H   0  0  0  0  0  0  0  0  0  0  0  0
   -6.3776   -1.6874   -3.9644 H   0  0  0  0  0  0  0  0  0  0  0  0
   -6.9251    1.3384   -2.4068 H   0  0  0  0  0  0  0  0  0  0  0  0
   -5.2333    1.9672   -2.4908 H   0  0  0  0  0  0  0  0  0  0  0  0
   -5.7020    1.3204   -0.2662 H   0  0  0  0  0  0  0  0  0  0  0  0
   -6.3588   -0.3223   -0.8064 H   0  0  0  0  0  0  0  0  0  0  0  0
    5.0734    1.3186   -0.5338 H   0  0  0  0  0  0  0  0  0  0  0  0
    6.2394    1.3822   -1.8923 H   0  0  0  0  0  0  0  0  0  0  0  0
    6.4876    3.2301   -0.3488 H   0  0  0  0  0  0  0  0  0  0  0  0
    7.0398    2.1256    0.9777 H   0  0  0  0  0  0  0  0  0  0  0  0
    8.2716    1.9524   -1.8113 H   0  0  0  0  0  0  0  0  0  0  0  0
    8.8280    3.2203   -0.6904 H   0  0  0  0  0  0  0  0  0  0  0  0
    8.8492    1.3260    1.1275 H   0  0  0  0  0  0  0  0  0  0  0  0
   10.2387    1.5325    0.0551 H   0  0  0  0  0  0  0  0  0  0  0  0
    9.9231   -0.3196   -1.1750 H   0  0  0  0  0  0  0  0  0  0  0  0
    9.2994   -0.8954    0.3797 H   0  0  0  0  0  0  0  0  0  0  0  0
    7.8574   -0.0090   -2.1819 H   0  0  0  0  0  0  0  0  0  0  0  0
    7.8033   -1.6011   -1.3647 H   0  0  0  0  0  0  0  0  0  0  0  0
    6.7776   -1.7883    0.6609 H   0  0  0  0  0  0  0  0  0  0  0  0
    6.3503   -0.2632    1.5437 H   0  0  0  0  0  0  0  0  0  0  0  0
    4.5282   -1.9750   -0.2294 H   0  0  0  0  0  0  0  0  0  0  0  0
    4.6100   -1.8057    1.5958 H   0  0  0  0  0  0  0  0  0  0  0  0
    2.6122   -1.9315    0.6950 H   0  0  0  0  0  0  0  0  0  0  0  0
    1.3892    0.6990    1.5403 H   0  0  0  0  0  0  0  0  0  0  0  0
    2.3338   -0.3568    2.7049 H   0  0  0  0  0  0  0  0  0  0  0  0
    0.9876   -2.2646    2.0870 H   0  0  0  0  0  0  0  0  0  0  0  0
   -0.0050   -0.9775    2.8307 H   0  0  0  0  0  0  0  0  0  0  0  0
    1.7900   -1.4452   -1.3094 H   0  0  0  0  0  0  0  0  0  0  0  0
    2.1848    0.2766   -1.2285 H   0  0  0  0  0  0  0  0  0  0  0  0
    0.1477    0.7449   -0.1023 H   0  0  0  0  0  0  0  0  0  0  0  0
   -0.2737   -0.5069   -1.2755 H   0  0  0  0  0  0  0  0  0  0  0  0
   -0.3057   -2.2764    0.3121 H   0  0  0  0  0  0  0  0  0  0  0  0
   -1.9704   -1.5081    1.9452 H   0  0  0  0  0  0  0  0  0  0  0  0
   -1.4979    0.1901    1.6352 H   0  0  0  0  0  0  0  0  0  0  0  0
   -2.5053   -2.7567   -0.3745 H   0  0  0  0  0  0  0  0  0  0  0  0
   -3.9721   -0.7677   -2.1428 H   0  0  0  0  0  0  0  0  0  0  0  0
   -2.4078   -1.6464   -2.4001 H   0  0  0  0  0  0  0  0  0  0  0  0
   -4.0661   -2.9203   -3.5119 H   0  0  0  0  0  0  0  0  0  0  0  0
   -3.6003   -3.8068   -1.9586 H   0  0  0  0  0  0  0  0  0  0  0  0
   -5.9404   -3.9238   -1.8695 H   0  0  0  0  0  0  0  0  0  0  0  0
   -7.1879   -2.0209   -2.5138 H   0  0  0  0  0  0  0  0  0  0  0  0
   -6.0718   -1.2217   -0.6917 H   0  0  0  0  0  0  0  0  0  0  0  0
   -6.4485   -2.8023    0.0100 H   0  0  0  0  0  0  0  0  0  0  0  0
   -4.3442   -3.2038    0.8566 H   0  0  0  0  0  0  0  0  0  0  0  0
   -3.9453   -1.4577    2.2203 H   0  0  0  0  0  0  0  0  0  0  0  0
   -6.3225   -2.0321    1.8654 H   0  0  0  0  0  0  0  0  0  0  0  0
   -6.6407   -0.4763    1.1249 H   0  0  0  0  0  0  0  0  0  0  0  0
   -5.9902   -0.6313    2.8630 H   0  0  0  0  0  0  0  0  0  0  0  0
   -4.4788    0.1079   -0.3649 H   0  0  0  0  0  0  0  0  0  0  0  0
   -3.0972    1.2181    2.1819 H   0  0  0  0  0  0  0  0  0  0  0  0
   -5.6985    1.4851    1.9700 H   0  0  0  0  0  0  0  0  0  0  0  0
   -4.7187    2.9284    2.1504 H   0  0  0  0  0  0  0  0  0  0  0  0
   -6.5714    2.8285    0.2974 H   0  0  0  0  0  0  0  0  0  0  0  0
   -5.4039    1.8794   -0.6503 H   0  0  0  0  0  0  0  0  0  0  0  0
   -5.1919    4.7492    0.1366 H   0  0  0  0  0  0  0  0  0  0  0  0
   -5.0809    4.6245   -2.0032 H   0  0  0  0  0  0  0  0  0  0  0  0
   -2.6079    4.2703   -0.2411 H   0  0  0  0  0  0  0  0  0  0  0  0
   -3.2317    4.0992    1.4015 H   0  0  0  0  0  0  0  0  0  0  0  0
   -1.7678    2.2802    0.5291 H   0  0  0  0  0  0  0  0  0  0  0  0
   -3.0420    1.9209   -0.7529 H   0  0  0  0  0  0  0  0  0  0  0  0
    6.5888    1.6820   -2.1880 H   0  0  0  0  0  0  0  0  0  0  0  0
    8.4353   -0.7779   -1.6488 H   0  0  0  0  0  0  0  0  0  0  0  0
    8.3400    0.2447   -3.1128 H   0  0  0  0  0  0  0  0  0  0  0  0
   10.2984    0.9609   -1.8241 H   0  0  0  0  0  0  0  0  0  0  0  0
    8.9606    2.1850   -1.5705 H   0  0  0  0  0  0  0  0  0  0  0  0
    9.2850    1.8253    0.6546 H   0  0  0  0  0  0  0  0  0  0  0  0
   10.1168    0.2014    0.3825 H   0  0  0  0  0  0  0  0  0  0  0  0
    7.8673    0.2679    1.6105 H   0  0  0  0  0  0  0  0  0  0  0  0
    8.0951   -0.9497    0.3585 H   0  0  0  0  0  0  0  0  0  0  0  0
    6.3304    1.6398    0.3706 H   0  0  0  0  0  0  0  0  0  0  0  0
    6.7078   -1.9515   -0.6754 H   0  0  0  0  0  0  0  0  0  0  0  0
    5.5854   -1.8254   -2.0302 H   0  0  0  0  0  0  0  0  0  0  0  0
    4.5106   -2.9167   -0.1916 H   0  0  0  0  0  0  0  0  0  0  0  0
    4.8284   -1.4565    0.8642 H   0  0  0  0  0  0  0  0  0  0  0  0
    2.7109   -2.1788    0.8757 H   0  0  0  0  0  0  0  0  0  0  0  0
    1.4312   -2.0888   -1.8708 H   0  0  0  0  0  0  0  0  0  0  0  0
    1.4150   -3.3375   -0.5959 H   0  0  0  0  0  0  0  0  0  0  0  0
    0.0269   -1.9255    0.7794 H   0  0  0  0  0  0  0  0  0  0  0  0
   -0.7165   -2.5968   -0.7968 H   0  0  0  0  0  0  0  0  0  0  0  0
    1.1897   -0.4437    1.4392 H   0  0  0  0  0  0  0  0  0  0  0  0
    2.6129    0.4515    0.8143 H   0  0  0  0  0  0  0  0  0  0  0  0
    1.5632    0.3903   -1.5104 H   0  0  0  0  0  0  0  0  0  0  0  0
    0.7614    1.4183   -0.3112 H   0  0  0  0  0  0  0  0  0  0  0  0
   -0.5024   -0.4074   -1.8620 H   0  0  0  0  0  0  0  0  0  0  0  0
   -1.4102    1.3990   -0.3622 H   0  0  0  0  0  0  0  0  0  0  0  0
   -1.0423    0.4028    1.0584 H   0  0  0  0  0  0  0  0  0  0  0  0
   -2.2140   -1.9075    0.8796 H   0  0  0  0  0  0  0  0  0  0  0  0
   -3.4493   -3.2336   -0.4334 H   0  0  0  0  0  0  0  0  0  0  0  0
   -4.0534   -1.7965   -1.2659 H   0  0  0  0  0  0  0  0  0  0  0  0
   -5.7385   -3.3772   -0.3139 H   0  0  0  0  0  0  0  0  0  0  0  0
   -6.0021   -1.6571    0.2465 H   0  0  0  0  0  0  0  0  0  0  0  0
   -6.0952   -3.4164    2.1071 H   0  0  0  0  0  0  0  0  0  0  0  0
   -4.4736   -4.7868    1.3916 H   0  0  0  0  0  0  0  0  0  0  0  0
   -4.6038   -2.0881    3.5306 H   0  0  0  0  0  0  0  0  0  0  0  0
   -5.7522   -1.1504    2.5664 H   0  0  0  0  0  0  0  0  0  0  0  0
   -2.9484   -0.8093    2.6937 H   0  0  0  0  0  0  0  0  0  0  0  0
   -5.3407    0.5137    1.6457 H   0  0  0  0  0  0  0  0  0  0  0  0
   -4.6459    1.9596    3.2335 H   0  0  0  0  0  0  0  0  0  0  0  0
   -3.1427    2.2500    2.3240 H   0  0  0  0  0  0  0  0  0  0  0  0
   -3.2611    0.8963    3.5635 H   0  0  0  0  0  0  0  0  0  0  0  0
   -3.0630    1.8490    0.4921 H   0  0  0  0  0  0  0  0  0  0  0  0
   -5.2560    0.2635   -0.9733 H   0  0  0  0  0  0  0  0  0  0  0  0
   -6.2710    1.9946    0.4797 H   0  0  0  0  0  0  0  0  0  0  0  0
   -6.3157    2.3563   -1.2583 H   0  0  0  0  0  0  0  0  0  0  0  0
   -4.1729    3.6197    0.5345 H   0  0  0  0  0  0  0  0  0  0  0  0
   -5.7621    4.3343    0.0271 H   0  0  0  0  0  0  0  0  0  0  0  0
   -3.7815    4.9095   -1.3859 H   0  0  0  0  0  0  0  0  0  0  0  0
   -3.3698    3.1698   -3.2128 H   0  0  0  0  0  0  0  0  0  0  0  0
   -2.4121    3.0767   -1.7360 H   0  0  0  0  0  0  0  0  0  0  0  0
   -3.0795    0.8638   -2.1814 H   0  0  0  0  0  0  0  0  0  0  0  0
   -4.7043    1.3907   -2.8453 H   0  0  0  0  0  0  0  0  0  0  0  0
  1  2  1  0
  2  3  1  0
  3  4  1  0
  4  5  1  0
  5  6  1  0
  6  1  1  0
  1  7  1  0
  6  7  1  0
  7  8  1  0
  8  9  1  0
  9 10  1  0
 10 11  1  0
 11 12  1  0
 12 13  1  0
 11 14  1  0
 14 15  1  0
 13 16  1  0
 15 16  1  0
 16 17  1  0
 17 18  1  0
 18 19  1  0
 19 20  1  0
 20 21  1  0
 21 22  1  0
 22 23  1  0
 22 24  1  0
 19 25  1  0
 24 25  1  0
 25 26  1  0
 26 27  1  0
 18 28  1  0
 26 28  1  0
 28 29  1  0
 29 30  1  0
 30 31  1  0
 31 32  1  0
 32 33  1  0
 32 34  1  0
 29 35  1  0
 34 35  1  0
 36 37  1  0
 37 38  1  0
 38 39  1  0
 39 40  1  0
 40 41  1  0
 41 36  1  0
 36 42  1  0
 41 42  1  0
 42 43  1  0
 43 44  1  0
 44 45  1  0
 45 46  1  0
 46 47  1  0
 47 48  1  0
 46 49  1  0
 49 50  1  0
 48 51  1  0
 50 51  1  0
 51 52  1  0
 52 53  1  0
 53 54  1  0
 54 55  1  0
 55 56  1  0
 56 57  1  0
 57 58  1  0
 57 59  1  0
 54 60  1  0
 59 60  1  0
 60 61  1  0
 61 62  1  0
 53 63  1  0
 61 63  1  0
 63 64  1  0
 64 65  1  0
 65 66  1  0
 66 67  1  0
 67 68  1  0
 67 69  1  0
 64 70  1  0
 69 70  1  0
 71 72  1  0
 72 73  1  0
 73 74  1  0
 74 75  1  0
 75 76  1  0
 71 77  1  0
 76 77  1  0
 77 78  1  0
 78 79  1  0
 79 80  1  0
 80 81  1  0
 81 82  1  0
 82 83  1  0
 81 84  1  0
 84 85  1  0
 83 86  1  0
 85 86  1  0
 86 87  1  0
 87 88  1  0
 88 89  1  0
 89 90  1  0
 90 91  1  0
 91 92  1  0
 92 93  1  0
 92 94  1  0
 89 95  1  0
 94 95  1  0
 95 96  1  0
 96 97  1  0
 88 98  1  0
 96 98  1  0
 98 99  1  0
 99100  1  0
100101  1  0
101102  1  0
102103  1  0
102104  1  0
 99105  1  0
104105  1  0
106107  1  0
107108  1  0
108109  1  0
109110  1  0
110111  1  0
111106  1  0
106112  1  0
111112  1  0
112113  1  0
113114  1  0
114115  1  0
115116  1  0
116117  1  0
117118  1  0
116119  1  0
119120  1  0
118121  1  0
120121  1  0
121122  1  0
122123  1  0
123124  1  0
124125  1  0
125126  1  0
126127  1  0
127128  1  0
127129  1  0
124130  1  0
129130  1  0
130131  1  0
131132  1  0
123133  1  0
131133  1  0
133134  1  0
134135  1  0
135136  1  0
136137  1  0
137138  1  0
137139  1  0
134140  1  0
139140  1  0
  1141  1  1
  2142  1  0
  2143  1  0
  3144  1  0
  3145  1  0
  4146  1  0
  4147  1  0
  5148  1  0
  5149  1  0
  6150  1  1
  8151  1  0
  8152  1  0
  9153  1  0
  9154  1  0
 11155  1  0
 12156  1  0
 12157  1  0
 13158  1  0
 13159  1  0
 14160  1  0
 14161  1  0
 15162  1  0
 15163  1  0
 16164  1  0
 17165  1  0
 17166  1  0
 19167  1  0
 20168  1  0
 20169  1  0
 21170  1  0
 21171  1  0
 22172  1  0
 23173  1  0
 24174  1  0
 24175  1  0
 25176  1  0
 26177  1  0
 27178  1  0
 27179  1  0
 27180  1  0
 28181  1  1
 29182  1  0
 30183  1  0
 30184  1  0
 31185  1  0
 31186  1  0
 32187  1  0
 34188  1  0
 34189  1  0
 35190  1  0
 35191  1  0
 36192  1  6
 37193  1  0
 37194  1  0
 38195  1  0
 38196  1  0
 39197  1  0
 39198  1  0
 40199  1  0
 40200  1  0
 41201  1  6
 43202  1  0
 43203  1  0
 44204  1  0
 44205  1  0
 46206  1  0
 47207  1  0
 47208  1  0
 48209  1  0
 48210  1  0
 49211  1  0
 49212  1  0
 50213  1  0
 50214  1  0
 51215  1  0
 52216  1  0
 52217  1  0
 54218  1  0
 55219  1  0
 55220  1  0
 56221  1  0
 56222  1  0
 57223  1  0
 58224  1  0
 59225  1  0
 59226  1  0
 60227  1  0
 61228  1  6
 62229  1  0
 62230  1  0
 62231  1  0
 63232  1  1
 64233  1  0
 65234  1  0
 65235  1  0
 66236  1  0
 66237  1  0
 67238  1  0
 68239  1  0
 69240  1  0
 69241  1  0
 70242  1  0
 70243  1  0
 71244  1  0
 71245  1  0
 72246  1  0
 72247  1  0
 73248  1  0
 73249  1  0
 74250  1  0
 74251  1  0
 75252  1  0
 75253  1  0
 76254  1  0
 76255  1  0
 78256  1  0
 78257  1  0
 79258  1  0
 79259  1  0
 81260  1  0
 82261  1  0
 82262  1  0
 83263  1  0
 83264  1  0
 84265  1  0
 84266  1  0
 85267  1  0
 85268  1  0
 86269  1  0
 87270  1  0
 87271  1  0
 89272  1  0
 90273  1  0
 90274  1  0
 91275  1  0
 91276  1  0
 92277  1  0
 93278  1  0
 94279  1  0
 94280  1  0
 95281  1  0
 96282  1  0
 97283  1  0
 97284  1  0
 97285  1  0
 98286  1  6
 99287  1  0
100288  1  0
100289  1  0
101290  1  0
101291  1  0
102292  1  0
103293  1  0
104294  1  0
104295  1  0
105296  1  0
105297  1  0
106298  1  6
107299  1  0
107300  1  0
108301  1  0
108302  1  0
109303  1  0
109304  1  0
110305  1  0
110306  1  0
111307  1  1
113308  1  0
113309  1  0
114310  1  0
114311  1  0
116312  1  0
117313  1  0
117314  1  0
118315  1  0
118316  1  0
119317  1  0
119318  1  0
120319  1  0
120320  1  0
121321  1  0
122322  1  0
122323  1  0
124324  1  0
125325  1  0
125326  1  0
126327  1  0
126328  1  0
127329  1  0
128330  1  0
129331  1  0
129332  1  0
130333  1  0
131334  1  0
132335  1  0
132336  1  0
132337  1  0
133338  1  1
134339  1  0
135340  1  0
135341  1  0
136342  1  0
136343  1  0
137344  1  0
139345  1  0
139346  1  0
140347  1  0
140348  1  0
M  END
>  <PDBID>  (1) 
4XI3

>  <PDB ID>  (1) 
4XI3

>  <Generic Name>  (1) 
Bazedoxifene

>  <Brand Name>  (1) 
Duavee#Duavive#Aprela#Viviant

>  <DrugBank ID>  (1) 
DB06401

>  <ATC Codes>  (1) 
G03CC07#G03XC02

>  <Ligand ID>  (1) 
29S

>  <Target Name>  (1) 
Estrogen receptor

>  <UniProt ID>  (1) 
P03372

>  <PDB ID.1>  (1) 
4XI3

>  <Seq. Identity>  (1) 
92%

$$$$
