PDB_DB06401_09
     RDKit          3D

348367  0  0  0  0  0  0  0  0999 V2000
    5.0895   -1.0049    1.0826 C   0  0  1  0  0  0  0  0  0  0  0  0
    5.5405   -2.3247    1.7116 C   0  0  0  0  0  0  0  0  0  0  0  0
    6.9301   -2.6994    1.2950 C   0  0  0  0  0  0  0  0  0  0  0  0
    7.9392   -1.5957    1.4794 C   0  0  0  0  0  0  0  0  0  0  0  0
    7.2221   -0.4590    2.1756 C   0  0  0  0  0  0  0  0  0  0  0  0
    6.0656    0.0506    1.3645 C   0  0  1  0  0  0  0  0  0  0  0  0
    5.8627   -0.4859    0.0367 N   0  0  0  0  0  0  0  0  0  0  0  0
    5.5565    0.3166   -1.0569 C   0  0  0  0  0  0  0  0  0  0  0  0
    4.7264   -0.2261   -2.1531 C   0  0  0  0  0  0  0  0  0  0  0  0
    3.4634   -0.5579   -1.8341 O   0  0  0  0  0  0  0  0  0  0  0  0
    2.6131    0.4886   -1.4749 C   0  0  0  0  0  0  0  0  0  0  0  0
    1.6398    0.7841   -2.5911 C   0  0  0  0  0  0  0  0  0  0  0  0
    0.3516    0.0446   -2.5413 C   0  0  0  0  0  0  0  0  0  0  0  0
    1.9087    0.3432   -0.1832 C   0  0  0  0  0  0  0  0  0  0  0  0
    0.5656    1.0135   -0.2865 C   0  0  0  0  0  0  0  0  0  0  0  0
   -0.3281    0.1519   -1.1810 C   0  0  0  0  0  0  0  0  0  0  0  0
   -1.6372    0.9018   -1.2671 C   0  0  0  0  0  0  0  0  0  0  0  0
   -2.2571    0.8963    0.0194 N   0  0  0  0  0  0  0  0  0  0  0  0
   -3.3130    1.8558    0.2296 C   0  0  0  0  0  0  0  0  0  0  0  0
   -2.9937    3.2322   -0.2098 C   0  0  0  0  0  0  0  0  0  0  0  0
   -3.6101    3.6034   -1.5110 C   0  0  0  0  0  0  0  0  0  0  0  0
   -5.1104    3.4422   -1.3027 C   0  0  0  0  0  0  0  0  0  0  0  0
   -5.7399    4.0352   -2.3871 O   0  0  0  0  0  0  0  0  0  0  0  0
   -5.4783    2.0023   -1.0951 C   0  0  0  0  0  0  0  0  0  0  0  0
   -4.5931    1.2658   -0.1563 C   0  0  0  0  0  0  0  0  0  0  0  0
   -4.2099   -0.1228   -0.6781 C   0  0  0  0  0  0  0  0  0  0  0  0
   -5.3950   -1.0249   -0.4269 C   0  0  0  0  0  0  0  0  0  0  0  0
   -2.9690   -0.4215    0.0568 C   0  0  2  0  0  0  0  0  0  0  0  0
   -3.1116   -0.9348    1.4548 C   0  0  0  0  0  0  0  0  0  0  0  0
   -1.7426   -1.0569    2.1425 C   0  0  0  0  0  0  0  0  0  0  0  0
   -1.9826   -1.1570    3.6339 C   0  0  0  0  0  0  0  0  0  0  0  0
   -2.9373   -2.3109    3.8284 C   0  0  0  0  0  0  0  0  0  0  0  0
   -4.2541   -1.8379    4.0463 O   0  0  0  0  0  0  0  0  0  0  0  0
   -3.0180   -3.1814    2.5930 C   0  0  0  0  0  0  0  0  0  0  0  0
   -3.6295   -2.3806    1.4331 C   0  0  0  0  0  0  0  0  0  0  0  0
    6.0923    1.1036    0.4085 C   0  0  1  0  0  0  0  0  0  0  0  0
    6.8353    1.6385    1.6049 C   0  0  0  0  0  0  0  0  0  0  0  0
    7.4523    0.4696    2.3555 C   0  0  0  0  0  0  0  0  0  0  0  0
    8.3669   -0.2985    1.4348 C   0  0  0  0  0  0  0  0  0  0  0  0
    8.3543    0.2493    0.0301 C   0  0  0  0  0  0  0  0  0  0  0  0
    6.9287    0.3144   -0.5171 C   0  0  1  0  0  0  0  0  0  0  0  0
    5.9351   -0.3147    0.3127 N   0  0  0  0  0  0  0  0  0  0  0  0
    4.7520   -0.8817   -0.3072 C   0  0  0  0  0  0  0  0  0  0  0  0
    4.7044   -0.6143   -1.7863 C   0  0  0  0  0  0  0  0  0  0  0  0
    3.5849   -1.1623   -2.3379 O   0  0  0  0  0  0  0  0  0  0  0  0
    2.3731   -0.7194   -1.9084 C   0  0  0  0  0  0  0  0  0  0  0  0
    1.6578   -1.8764   -1.2430 C   0  0  0  0  0  0  0  0  0  0  0  0
    0.2926   -1.5147   -0.7444 C   0  0  0  0  0  0  0  0  0  0  0  0
    1.5299   -0.0985   -2.9977 C   0  0  0  0  0  0  0  0  0  0  0  0
    0.2278    0.3830   -2.3009 C   0  0  0  0  0  0  0  0  0  0  0  0
   -0.4907   -0.8402   -1.8430 C   0  0  0  0  0  0  0  0  0  0  0  0
   -1.9389   -0.7389   -1.5795 C   0  0  0  0  0  0  0  0  0  0  0  0
   -2.4052   -0.0665   -0.4377 N   0  0  0  0  0  0  0  0  0  0  0  0
   -2.2323    1.3310   -0.4516 C   0  0  0  0  0  0  0  0  0  0  0  0
   -1.4639    1.8469    0.7552 C   0  0  0  0  0  0  0  0  0  0  0  0
   -1.3533    3.3515    0.7242 C   0  0  0  0  0  0  0  0  0  0  0  0
   -2.7151    4.0100    0.6276 C   0  0  0  0  0  0  0  0  0  0  0  0
   -2.8420    4.6926   -0.5834 O   0  0  0  0  0  0  0  0  0  0  0  0
   -3.7660    2.9174    0.7222 C   0  0  0  0  0  0  0  0  0  0  0  0
   -3.5736    2.0087   -0.4548 C   0  0  0  0  0  0  0  0  0  0  0  0
   -4.5570    0.8949   -0.5235 C   0  0  1  0  0  0  0  0  0  0  0  0
   -5.0710    0.7898   -1.9472 C   0  0  0  0  0  0  0  0  0  0  0  0
   -3.8083   -0.3495   -0.2001 C   0  0  2  0  0  0  0  0  0  0  0  0
   -3.9795   -0.8448    1.2046 C   0  0  0  0  0  0  0  0  0  0  0  0
   -5.3812   -1.1707    1.5789 C   0  0  0  0  0  0  0  0  0  0  0  0
   -5.7334   -2.5479    1.0777 C   0  0  0  0  0  0  0  0  0  0  0  0
   -5.0884   -3.5451    2.0450 C   0  0  0  0  0  0  0  0  0  0  0  0
   -5.9030   -3.7264    3.1580 O   0  0  0  0  0  0  0  0  0  0  0  0
   -3.7166   -3.0252    2.4180 C   0  0  0  0  0  0  0  0  0  0  0  0
   -3.1786   -2.1518    1.3000 C   0  0  0  0  0  0  0  0  0  0  0  0
    6.8564   -1.5629   -0.6125 C   0  0  0  0  0  0  0  0  0  0  0  0
    8.3257   -1.9445   -0.4745 C   0  0  0  0  0  0  0  0  0  0  0  0
    8.8189   -1.7018    0.9389 C   0  0  0  0  0  0  0  0  0  0  0  0
    8.6162   -0.2684    1.3612 C   0  0  0  0  0  0  0  0  0  0  0  0
    8.8662    0.6937    0.2156 C   0  0  0  0  0  0  0  0  0  0  0  0
    7.6896    0.6377   -0.7633 C   0  0  0  0  0  0  0  0  0  0  0  0
    6.6806   -0.2117   -0.2137 N   0  0  0  0  0  0  0  0  0  0  0  0
    5.3649    0.3013   -0.1972 C   0  0  0  0  0  0  0  0  0  0  0  0
    4.5068   -0.2807    0.8955 C   0  0  0  0  0  0  0  0  0  0  0  0
    3.2280    0.2443    0.8578 O   0  0  0  0  0  0  0  0  0  0  0  0
    2.5418   -0.0624   -0.2913 C   0  0  0  0  0  0  0  0  0  0  0  0
    2.1595    1.1713   -1.0853 C   0  0  0  0  0  0  0  0  0  0  0  0
    0.9235    0.8182   -1.9249 C   0  0  0  0  0  0  0  0  0  0  0  0
    1.2053   -0.7431    0.0500 C   0  0  0  0  0  0  0  0  0  0  0  0
    0.1442    0.3175    0.3094 C   0  0  0  0  0  0  0  0  0  0  0  0
   -0.2638    1.0001   -0.9829 C   0  0  0  0  0  0  0  0  0  0  0  0
   -1.5243    0.3604   -1.5105 C   0  0  0  0  0  0  0  0  0  0  0  0
   -2.5701    0.5238   -0.6603 N   0  0  0  0  0  0  0  0  0  0  0  0
   -3.2722    1.6305   -0.3314 C   0  0  0  0  0  0  0  0  0  0  0  0
   -2.6458    3.0072   -0.3093 C   0  0  0  0  0  0  0  0  0  0  0  0
   -3.8525    3.9338   -0.0175 C   0  0  0  0  0  0  0  0  0  0  0  0
   -4.4749    3.6008    1.3094 C   0  0  0  0  0  0  0  0  0  0  0  0
   -3.5916    4.0722    2.2900 O   0  0  0  0  0  0  0  0  0  0  0  0
   -4.7937    2.1279    1.4898 C   0  0  0  0  0  0  0  0  0  0  0  0
   -3.5992    1.3618    1.1422 C   0  0  0  0  0  0  0  0  0  0  0  0
   -3.6650   -0.1252    1.1591 C   0  0  0  0  0  0  0  0  0  0  0  0
   -4.7935   -0.6921    1.9283 C   0  0  0  0  0  0  0  0  0  0  0  0
   -3.2993   -0.6195   -0.1643 C   0  0  1  0  0  0  0  0  0  0  0  0
   -4.2477   -1.2336   -1.1146 C   0  0  0  0  0  0  0  0  0  0  0  0
   -5.5128   -0.7190   -1.5422 C   0  0  0  0  0  0  0  0  0  0  0  0
   -6.7668   -1.5268   -1.2668 C   0  0  0  0  0  0  0  0  0  0  0  0
   -6.5865   -2.9623   -1.0021 C   0  0  0  0  0  0  0  0  0  0  0  0
   -6.6876   -3.6999   -2.2007 O   0  0  0  0  0  0  0  0  0  0  0  0
   -5.2973   -3.3564   -0.3486 C   0  0  0  0  0  0  0  0  0  0  0  0
   -4.2120   -2.7379   -1.1455 C   0  0  0  0  0  0  0  0  0  0  0  0
    5.6002    0.1279   -0.4342 C   0  0  2  0  0  0  0  0  0  0  0  0
    6.3571    1.1910   -1.2131 C   0  0  0  0  0  0  0  0  0  0  0  0
    7.8346    1.1379   -0.9477 C   0  0  0  0  0  0  0  0  0  0  0  0
    8.1443    1.1622    0.5296 C   0  0  0  0  0  0  0  0  0  0  0  0
    6.8493    1.2762    1.3239 C   0  0  0  0  0  0  0  0  0  0  0  0
    5.8795    0.1450    0.9846 C   0  0  2  0  0  0  0  0  0  0  0  0
    6.4024   -0.9197    0.1951 N   0  0  0  0  0  0  0  0  0  0  0  0
    5.9343   -2.2366    0.1547 C   0  0  0  0  0  0  0  0  0  0  0  0
    4.6845   -2.5587    0.9659 C   0  0  0  0  0  0  0  0  0  0  0  0
    3.6007   -2.0026    0.7358 O   0  0  0  0  0  0  0  0  0  0  0  0
    2.5116   -1.4414    0.5048 C   0  0  0  0  0  0  0  0  0  0  0  0
    1.9632   -1.5402   -0.9318 C   0  0  0  0  0  0  0  0  0  0  0  0
    1.0046   -0.3798   -1.0916 C   0  0  0  0  0  0  0  0  0  0  0  0
    1.3059   -1.8308    1.3693 C   0  0  0  0  0  0  0  0  0  0  0  0
    0.2844   -0.7570    1.2462 C   0  0  0  0  0  0  0  0  0  0  0  0
   -0.2145   -0.5900   -0.1915 C   0  0  0  0  0  0  0  0  0  0  0  0
   -1.0005    0.6923   -0.2044 C   0  0  0  0  0  0  0  0  0  0  0  0
   -2.2094    0.6318    0.5711 N   0  0  0  0  0  0  0  0  0  0  0  0
   -2.9120    1.8654    0.7714 C   0  0  0  0  0  0  0  0  0  0  0  0
   -2.0867    3.1004    0.7863 C   0  0  0  0  0  0  0  0  0  0  0  0
   -2.1270    3.8306   -0.5353 C   0  0  0  0  0  0  0  0  0  0  0  0
   -3.5900    4.2981   -0.6427 C   0  0  0  0  0  0  0  0  0  0  0  0
   -3.7504    5.1708   -1.7194 O   0  0  0  0  0  0  0  0  0  0  0  0
   -4.5289    3.1428   -0.7180 C   0  0  0  0  0  0  0  0  0  0  0  0
   -4.1064    1.8780   -0.0789 C   0  0  0  0  0  0  0  0  0  0  0  0
   -3.8065    0.7552   -1.0903 C   0  0  0  0  0  0  0  0  0  0  0  0
   -5.0679    0.2751   -1.7261 C   0  0  0  0  0  0  0  0  0  0  0  0
   -3.0996   -0.2481   -0.2110 C   0  0  2  0  0  0  0  0  0  0  0  0
   -4.0491   -1.0435    0.6427 C   0  0  0  0  0  0  0  0  0  0  0  0
   -3.3476   -1.7370    1.7908 C   0  0  0  0  0  0  0  0  0  0  0  0
   -4.4602   -2.3436    2.6621 C   0  0  0  0  0  0  0  0  0  0  0  0
   -5.1365   -3.4287    1.8903 C   0  0  0  0  0  0  0  0  0  0  0  0
   -6.5015   -3.1546    1.6855 O   0  0  0  0  0  0  0  0  0  0  0  0
   -4.5318   -3.5260    0.5043 C   0  0  0  0  0  0  0  0  0  0  0  0
   -4.5587   -2.2101   -0.2321 C   0  0  0  0  0  0  0  0  0  0  0  0
    4.0441   -0.7632    1.3085 H   0  0  0  0  0  0  0  0  0  0  0  0
    5.3814   -2.2951    2.7915 H   0  0  0  0  0  0  0  0  0  0  0  0
    4.8395   -3.0974    1.2793 H   0  0  0  0  0  0  0  0  0  0  0  0
    7.2029   -3.5932    1.9307 H   0  0  0  0  0  0  0  0  0  0  0  0
    6.9101   -2.9952    0.2291 H   0  0  0  0  0  0  0  0  0  0  0  0
    8.3895   -1.2461    0.5285 H   0  0  0  0  0  0  0  0  0  0  0  0
    8.7622   -1.9065    2.1730 H   0  0  0  0  0  0  0  0  0  0  0  0
    7.9646    0.3608    2.3565 H   0  0  0  0  0  0  0  0  0  0  0  0
    6.8434   -0.8356    3.1373 H   0  0  0  0  0  0  0  0  0  0  0  0
    5.7498    1.1027    1.5084 H   0  0  0  0  0  0  0  0  0  0  0  0
    6.5405    0.6892   -1.5167 H   0  0  0  0  0  0  0  0  0  0  0  0
    5.1390    1.2982   -0.6499 H   0  0  0  0  0  0  0  0  0  0  0  0
    5.2326   -1.1881   -2.5036 H   0  0  0  0  0  0  0  0  0  0  0  0
    4.7867    0.4103   -3.0860 H   0  0  0  0  0  0  0  0  0  0  0  0
    3.2795    1.3950   -1.4398 H   0  0  0  0  0  0  0  0  0  0  0  0
    2.1669    0.4512   -3.5344 H   0  0  0  0  0  0  0  0  0  0  0  0
    1.5278    1.8766   -2.6808 H   0  0  0  0  0  0  0  0  0  0  0  0
    0.4720   -1.0124   -2.8496 H   0  0  0  0  0  0  0  0  0  0  0  0
   -0.3437    0.5063   -3.2653 H   0  0  0  0  0  0  0  0  0  0  0  0
    2.4688    0.8661    0.6570 H   0  0  0  0  0  0  0  0  0  0  0  0
    1.7517   -0.7371    0.1070 H   0  0  0  0  0  0  0  0  0  0  0  0
    0.7523    1.9907   -0.8312 H   0  0  0  0  0  0  0  0  0  0  0  0
    0.0965    1.2345    0.6720 H   0  0  0  0  0  0  0  0  0  0  0  0
   -0.3867   -0.8270   -0.7461 H   0  0  0  0  0  0  0  0  0  0  0  0
   -2.2344    0.3640   -2.0167 H   0  0  0  0  0  0  0  0  0  0  0  0
   -1.3707    1.9172   -1.6320 H   0  0  0  0  0  0  0  0  0  0  0  0
   -3.3336    1.9321    1.3793 H   0  0  0  0  0  0  0  0  0  0  0  0
   -3.4363    3.9569    0.5420 H   0  0  0  0  0  0  0  0  0  0  0  0
   -1.9035    3.4190   -0.1591 H   0  0  0  0  0  0  0  0  0  0  0  0
   -3.4511    4.6911   -1.7182 H   0  0  0  0  0  0  0  0  0  0  0  0
   -3.3597    2.9893   -2.3711 H   0  0  0  0  0  0  0  0  0  0  0  0
   -5.3624    4.0545   -0.4068 H   0  0  0  0  0  0  0  0  0  0  0  0
   -5.2340    4.8279   -2.6960 H   0  0  0  0  0  0  0  0  0  0  0  0
   -5.4126    1.5092   -2.0917 H   0  0  0  0  0  0  0  0  0  0  0  0
   -6.5362    1.9429   -0.7790 H   0  0  0  0  0  0  0  0  0  0  0  0
   -5.2330    1.0293    0.7544 H   0  0  0  0  0  0  0  0  0  0  0  0
   -4.0547   -0.0935   -1.7792 H   0  0  0  0  0  0  0  0  0  0  0  0
   -6.1453   -0.7125   -1.2349 H   0  0  0  0  0  0  0  0  0  0  0  0
   -5.9184   -0.7833    0.5025 H   0  0  0  0  0  0  0  0  0  0  0  0
   -5.2010   -2.0702   -0.6380 H   0  0  0  0  0  0  0  0  0  0  0  0
   -2.3751   -1.1707   -0.5283 H   0  0  0  0  0  0  0  0  0  0  0  0
   -3.7488   -0.3598    2.1175 H   0  0  0  0  0  0  0  0  0  0  0  0
   -1.0841   -0.2383    1.8756 H   0  0  0  0  0  0  0  0  0  0  0  0
   -1.2548   -1.9850    1.7894 H   0  0  0  0  0  0  0  0  0  0  0  0
   -1.0246   -1.3589    4.1377 H   0  0  0  0  0  0  0  0  0  0  0  0
   -2.4840   -0.2262    3.9777 H   0  0  0  0  0  0  0  0  0  0  0  0
   -2.6609   -2.9231    4.6959 H   0  0  0  0  0  0  0  0  0  0  0  0
   -3.7446   -4.0037    2.8781 H   0  0  0  0  0  0  0  0  0  0  0  0
   -2.1034   -3.7005    2.3294 H   0  0  0  0  0  0  0  0  0  0  0  0
   -3.3393   -2.9146    0.5152 H   0  0  0  0  0  0  0  0  0  0  0  0
   -4.7291   -2.4238    1.6402 H   0  0  0  0  0  0  0  0  0  0  0  0
    5.2905    1.7227   -0.0325 H   0  0  0  0  0  0  0  0  0  0  0  0
    7.5917    2.4015    1.3327 H   0  0  0  0  0  0  0  0  0  0  0  0
    6.0880    2.1119    2.2784 H   0  0  0  0  0  0  0  0  0  0  0  0
    6.5908   -0.2189    2.5887 H   0  0  0  0  0  0  0  0  0  0  0  0
    7.9240    0.7697    3.2925 H   0  0  0  0  0  0  0  0  0  0  0  0
    9.4045   -0.1732    1.8154 H   0  0  0  0  0  0  0  0  0  0  0  0
    8.0828   -1.3776    1.3539 H   0  0  0  0  0  0  0  0  0  0  0  0
    8.9565   -0.4472   -0.5916 H   0  0  0  0  0  0  0  0  0  0  0  0
    8.8209    1.2451    0.0183 H   0  0  0  0  0  0  0  0  0  0  0  0
    6.8320    0.3834   -1.5984 H   0  0  0  0  0  0  0  0  0  0  0  0
    3.8863   -0.4199    0.2026 H   0  0  0  0  0  0  0  0  0  0  0  0
    4.7229   -1.9528   -0.0640 H   0  0  0  0  0  0  0  0  0  0  0  0
    4.8188    0.4617   -2.0265 H   0  0  0  0  0  0  0  0  0  0  0  0
    5.6138   -1.1288   -2.2182 H   0  0  0  0  0  0  0  0  0  0  0  0
    2.5090    0.0692   -1.1455 H   0  0  0  0  0  0  0  0  0  0  0  0
    1.6448   -2.7846   -1.8916 H   0  0  0  0  0  0  0  0  0  0  0  0
    2.2776   -2.1552   -0.3565 H   0  0  0  0  0  0  0  0  0  0  0  0
    0.4218   -0.8746    0.1524 H   0  0  0  0  0  0  0  0  0  0  0  0
   -0.2255   -2.4487   -0.4656 H   0  0  0  0  0  0  0  0  0  0  0  0
    2.0221    0.8091   -3.3554 H   0  0  0  0  0  0  0  0  0  0  0  0
    1.2395   -0.7900   -3.7866 H   0  0  0  0  0  0  0  0  0  0  0  0
   -0.3529    0.9715   -3.0611 H   0  0  0  0  0  0  0  0  0  0  0  0
    0.5329    0.9904   -1.4545 H   0  0  0  0  0  0  0  0  0  0  0  0
   -0.3610   -1.5767   -2.7313 H   0  0  0  0  0  0  0  0  0  0  0  0
   -2.3726   -1.7969   -1.6415 H   0  0  0  0  0  0  0  0  0  0  0  0
   -2.3895   -0.2849   -2.5299 H   0  0  0  0  0  0  0  0  0  0  0  0
   -1.6842    1.7218   -1.3345 H   0  0  0  0  0  0  0  0  0  0  0  0
   -0.4235    1.4627    0.6684 H   0  0  0  0  0  0  0  0  0  0  0  0
   -1.8683    1.5138    1.7118 H   0  0  0  0  0  0  0  0  0  0  0  0
   -0.7055    3.6935   -0.1064 H   0  0  0  0  0  0  0  0  0  0  0  0
   -0.9134    3.6735    1.7115 H   0  0  0  0  0  0  0  0  0  0  0  0
   -2.8575    4.7660    1.4223 H   0  0  0  0  0  0  0  0  0  0  0  0
   -3.5037    5.4139   -0.5189 H   0  0  0  0  0  0  0  0  0  0  0  0
   -3.6497    2.4369    1.7065 H   0  0  0  0  0  0  0  0  0  0  0  0
   -4.7708    3.3962    0.6654 H   0  0  0  0  0  0  0  0  0  0  0  0
   -3.6723    2.6466   -1.3677 H   0  0  0  0  0  0  0  0  0  0  0  0
   -5.4360    1.0784    0.1212 H   0  0  0  0  0  0  0  0  0  0  0  0
   -5.9885    1.3964   -2.0178 H   0  0  0  0  0  0  0  0  0  0  0  0
   -5.3100   -0.2732   -2.1727 H   0  0  0  0  0  0  0  0  0  0  0  0
   -4.3047    1.1507   -2.6668 H   0  0  0  0  0  0  0  0  0  0  0  0
   -4.1508   -1.1622   -0.8746 H   0  0  0  0  0  0  0  0  0  0  0  0
   -3.5468   -0.1783    1.9662 H   0  0  0  0  0  0  0  0  0  0  0  0
   -6.1312   -0.4112    1.3215 H   0  0  0  0  0  0  0  0  0  0  0  0
   -5.4098   -1.2413    2.7070 H   0  0  0  0  0  0  0  0  0  0  0  0
   -5.3661   -2.7054    0.0390 H   0  0  0  0  0  0  0  0  0  0  0  0
   -6.8151   -2.7508    1.0769 H   0  0  0  0  0  0  0  0  0  0  0  0
   -5.0383   -4.5341    1.5332 H   0  0  0  0  0  0  0  0  0  0  0  0
   -5.7439   -2.9578    3.7754 H   0  0  0  0  0  0  0  0  0  0  0  0
   -3.6896   -2.5405    3.3939 H   0  0  0  0  0  0  0  0  0  0  0  0
   -3.0493   -3.9100    2.4621 H   0  0  0  0  0  0  0  0  0  0  0  0
   -3.3203   -2.7316    0.3560 H   0  0  0  0  0  0  0  0  0  0  0  0
   -2.1092   -1.9741    1.4115 H   0  0  0  0  0  0  0  0  0  0  0  0
    6.2310   -2.2723   -0.0290 H   0  0  0  0  0  0  0  0  0  0  0  0
    6.6185   -1.6823   -1.7061 H   0  0  0  0  0  0  0  0  0  0  0  0
    8.9589   -1.4993   -1.2416 H   0  0  0  0  0  0  0  0  0  0  0  0
    8.3678   -3.0550   -0.6368 H   0  0  0  0  0  0  0  0  0  0  0  0
    9.8590   -2.0296    1.0099 H   0  0  0  0  0  0  0  0  0  0  0  0
    8.1695   -2.3333    1.6100 H   0  0  0  0  0  0  0  0  0  0  0  0
    9.3251   -0.0215    2.1668 H   0  0  0  0  0  0  0  0  0  0  0  0
    7.5993   -0.0805    1.7417 H   0  0  0  0  0  0  0  0  0  0  0  0
    8.8466    1.7092    0.6637 H   0  0  0  0  0  0  0  0  0  0  0  0
    9.8341    0.5512   -0.2698 H   0  0  0  0  0  0  0  0  0  0  0  0
    8.0516    0.2493   -1.7420 H   0  0  0  0  0  0  0  0  0  0  0  0
    7.2685    1.6668   -0.9233 H   0  0  0  0  0  0  0  0  0  0  0  0
    5.4469    1.4074    0.0360 H   0  0  0  0  0  0  0  0  0  0  0  0
    4.9262    0.1717   -1.2044 H   0  0  0  0  0  0  0  0  0  0  0  0
    4.3749   -1.3882    0.7195 H   0  0  0  0  0  0  0  0  0  0  0  0
    4.9902   -0.1641    1.8764 H   0  0  0  0  0  0  0  0  0  0  0  0
    3.1324   -0.6924   -0.9569 H   0  0  0  0  0  0  0  0  0  0  0  0
    2.9869    1.5468   -1.6948 H   0  0  0  0  0  0  0  0  0  0  0  0
    1.8620    1.9550   -0.3649 H   0  0  0  0  0  0  0  0  0  0  0  0
    1.0363   -0.1944   -2.3011 H   0  0  0  0  0  0  0  0  0  0  0  0
    0.8792    1.5906   -2.7143 H   0  0  0  0  0  0  0  0  0  0  0  0
    1.3291   -1.2874    1.0060 H   0  0  0  0  0  0  0  0  0  0  0  0
    0.9382   -1.4586   -0.7232 H   0  0  0  0  0  0  0  0  0  0  0  0
    0.6207    1.0519    1.0086 H   0  0  0  0  0  0  0  0  0  0  0  0
   -0.6544   -0.1732    0.8502 H   0  0  0  0  0  0  0  0  0  0  0  0
   -0.3715    2.0766   -0.8759 H   0  0  0  0  0  0  0  0  0  0  0  0
   -1.2196   -0.6798   -1.7723 H   0  0  0  0  0  0  0  0  0  0  0  0
   -1.7437    0.8938   -2.4949 H   0  0  0  0  0  0  0  0  0  0  0  0
   -4.2207    1.7947   -0.9171 H   0  0  0  0  0  0  0  0  0  0  0  0
   -1.9036    3.1356    0.4804 H   0  0  0  0  0  0  0  0  0  0  0  0
   -2.3305    3.2712   -1.3166 H   0  0  0  0  0  0  0  0  0  0  0  0
   -3.4718    4.9506    0.0325 H   0  0  0  0  0  0  0  0  0  0  0  0
   -4.5796    3.8152   -0.8290 H   0  0  0  0  0  0  0  0  0  0  0  0
   -5.4174    4.1708    1.3761 H   0  0  0  0  0  0  0  0  0  0  0  0
   -4.1013    4.3240    3.0857 H   0  0  0  0  0  0  0  0  0  0  0  0
   -5.6654    1.9025    0.8774 H   0  0  0  0  0  0  0  0  0  0  0  0
   -5.0564    2.0227    2.5851 H   0  0  0  0  0  0  0  0  0  0  0  0
   -2.7337    1.8005    1.7210 H   0  0  0  0  0  0  0  0  0  0  0  0
   -2.7772   -0.4077    1.8283 H   0  0  0  0  0  0  0  0  0  0  0  0
   -4.9894   -0.0465    2.8456 H   0  0  0  0  0  0  0  0  0  0  0  0
   -4.5048   -1.6627    2.3775 H   0  0  0  0  0  0  0  0  0  0  0  0
   -5.7772   -0.7008    1.4194 H   0  0  0  0  0  0  0  0  0  0  0  0
   -2.4648   -1.4116   -0.0783 H   0  0  0  0  0  0  0  0  0  0  0  0
   -3.5608   -1.0754   -2.1030 H   0  0  0  0  0  0  0  0  0  0  0  0
   -5.5456   -0.5917   -2.6738 H   0  0  0  0  0  0  0  0  0  0  0  0
   -5.8249    0.3163   -1.2170 H   0  0  0  0  0  0  0  0  0  0  0  0
   -7.3317   -1.1103   -0.3744 H   0  0  0  0  0  0  0  0  0  0  0  0
   -7.5182   -1.4202   -2.0850 H   0  0  0  0  0  0  0  0  0  0  0  0
   -7.4079   -3.3611   -0.3499 H   0  0  0  0  0  0  0  0  0  0  0  0
   -6.6560   -3.0526   -2.9671 H   0  0  0  0  0  0  0  0  0  0  0  0
   -5.2889   -3.1767    0.7324 H   0  0  0  0  0  0  0  0  0  0  0  0
   -5.2149   -4.4810   -0.4974 H   0  0  0  0  0  0  0  0  0  0  0  0
   -4.3644   -3.0599   -2.2145 H   0  0  0  0  0  0  0  0  0  0  0  0
   -3.2275   -3.1582   -0.8632 H   0  0  0  0  0  0  0  0  0  0  0  0
    4.6098   -0.0815   -0.8349 H   0  0  0  0  0  0  0  0  0  0  0  0
    5.9937    2.2094   -0.9670 H   0  0  0  0  0  0  0  0  0  0  0  0
    6.2077    1.0774   -2.3113 H   0  0  0  0  0  0  0  0  0  0  0  0
    8.2266    0.1884   -1.4234 H   0  0  0  0  0  0  0  0  0  0  0  0
    8.3031    2.0257   -1.4238 H   0  0  0  0  0  0  0  0  0  0  0  0
    8.6766    0.2600    0.8323 H   0  0  0  0  0  0  0  0  0  0  0  0
    8.7293    2.0861    0.7853 H   0  0  0  0  0  0  0  0  0  0  0  0
    6.3418    2.2259    1.0541 H   0  0  0  0  0  0  0  0  0  0  0  0
    7.0797    1.3244    2.4054 H   0  0  0  0  0  0  0  0  0  0  0  0
    5.1265   -0.0182    1.7798 H   0  0  0  0  0  0  0  0  0  0  0  0
    6.7418   -2.9205    0.5327 H   0  0  0  0  0  0  0  0  0  0  0  0
    5.7829   -2.5579   -0.9057 H   0  0  0  0  0  0  0  0  0  0  0  0
    5.0453   -2.3487    2.0521 H   0  0  0  0  0  0  0  0  0  0  0  0
    4.7050   -3.7121    0.9963 H   0  0  0  0  0  0  0  0  0  0  0  0
    2.5715   -0.3089    0.6639 H   0  0  0  0  0  0  0  0  0  0  0  0
    1.4858   -2.5148   -1.0914 H   0  0  0  0  0  0  0  0  0  0  0  0
    2.8082   -1.3879   -1.6125 H   0  0  0  0  0  0  0  0  0  0  0  0
    0.6577   -0.3042   -2.1281 H   0  0  0  0  0  0  0  0  0  0  0  0
    1.5289    0.5123   -0.7010 H   0  0  0  0  0  0  0  0  0  0  0  0
    1.6085   -1.9124    2.4318 H   0  0  0  0  0  0  0  0  0  0  0  0
    0.8679   -2.7917    1.0332 H   0  0  0  0  0  0  0  0  0  0  0  0
    0.7912    0.2244    1.4956 H   0  0  0  0  0  0  0  0  0  0  0  0
   -0.5724   -0.8896    1.8931 H   0  0  0  0  0  0  0  0  0  0  0  0
   -0.7276   -1.4901   -0.4919 H   0  0  0  0  0  0  0  0  0  0  0  0
   -1.2405    0.9392   -1.2627 H   0  0  0  0  0  0  0  0  0  0  0  0
   -0.2935    1.4837    0.1170 H   0  0  0  0  0  0  0  0  0  0  0  0
   -3.2873    1.7629    1.8490 H   0  0  0  0  0  0  0  0  0  0  0  0
   -2.5827    3.8347    1.5015 H   0  0  0  0  0  0  0  0  0  0  0  0
   -1.0902    2.9840    1.2017 H   0  0  0  0  0  0  0  0  0  0  0  0
   -1.4999    4.7343   -0.5333 H   0  0  0  0  0  0  0  0  0  0  0  0
   -1.9403    3.2122   -1.4036 H   0  0  0  0  0  0  0  0  0  0  0  0
   -3.7574    4.8910    0.2790 H   0  0  0  0  0  0  0  0  0  0  0  0
   -4.2044    4.7820   -2.4989 H   0  0  0  0  0  0  0  0  0  0  0  0
   -4.7033    2.9470   -1.8063 H   0  0  0  0  0  0  0  0  0  0  0  0
   -5.5177    3.5052   -0.3321 H   0  0  0  0  0  0  0  0  0  0  0  0
   -5.0185    1.4730    0.4684 H   0  0  0  0  0  0  0  0  0  0  0  0
   -3.1337    1.0827   -1.8882 H   0  0  0  0  0  0  0  0  0  0  0  0
   -5.3756    1.1046   -2.4458 H   0  0  0  0  0  0  0  0  0  0  0  0
   -5.9280    0.2148   -1.0373 H   0  0  0  0  0  0  0  0  0  0  0  0
   -4.8802   -0.5833   -2.3597 H   0  0  0  0  0  0  0  0  0  0  0  0
   -2.5457   -0.9215   -0.8587 H   0  0  0  0  0  0  0  0  0  0  0  0
   -4.8545   -0.4405    1.0534 H   0  0  0  0  0  0  0  0  0  0  0  0
   -2.8444   -1.0022    2.4610 H   0  0  0  0  0  0  0  0  0  0  0  0
   -2.6239   -2.5008    1.4739 H   0  0  0  0  0  0  0  0  0  0  0  0
   -4.1034   -2.6212    3.6638 H   0  0  0  0  0  0  0  0  0  0  0  0
   -5.2011   -1.5025    2.7876 H   0  0  0  0  0  0  0  0  0  0  0  0
   -5.0872   -4.4104    2.3603 H   0  0  0  0  0  0  0  0  0  0  0  0
   -5.1760   -4.2248   -0.1048 H   0  0  0  0  0  0  0  0  0  0  0  0
   -3.5318   -4.0135    0.5177 H   0  0  0  0  0  0  0  0  0  0  0  0
   -5.5688   -2.0573   -0.5998 H   0  0  0  0  0  0  0  0  0  0  0  0
   -3.8711   -2.3017   -1.1081 H   0  0  0  0  0  0  0  0  0  0  0  0
  1  2  1  0
  2  3  1  0
  3  4  1  0
  4  5  1  0
  5  6  1  0
  6  1  1  0
  1  7  1  0
  6  7  1  0
  7  8  1  0
  8  9  1  0
  9 10  1  0
 10 11  1  0
 11 12  1  0
 12 13  1  0
 11 14  1  0
 14 15  1  0
 13 16  1  0
 15 16  1  0
 16 17  1  0
 17 18  1  0
 18 19  1  0
 19 20  1  0
 20 21  1  0
 21 22  1  0
 22 23  1  0
 22 24  1  0
 19 25  1  0
 24 25  1  0
 25 26  1  0
 26 27  1  0
 18 28  1  0
 26 28  1  0
 28 29  1  0
 29 30  1  0
 30 31  1  0
 31 32  1  0
 32 33  1  0
 32 34  1  0
 29 35  1  0
 34 35  1  0
 36 37  1  0
 37 38  1  0
 38 39  1  0
 39 40  1  0
 40 41  1  0
 41 36  1  0
 36 42  1  0
 41 42  1  0
 42 43  1  0
 43 44  1  0
 44 45  1  0
 45 46  1  0
 46 47  1  0
 47 48  1  0
 46 49  1  0
 49 50  1  0
 48 51  1  0
 50 51  1  0
 51 52  1  0
 52 53  1  0
 53 54  1  0
 54 55  1  0
 55 56  1  0
 56 57  1  0
 57 58  1  0
 57 59  1  0
 54 60  1  0
 59 60  1  0
 60 61  1  0
 61 62  1  0
 53 63  1  0
 61 63  1  0
 63 64  1  0
 64 65  1  0
 65 66  1  0
 66 67  1  0
 67 68  1  0
 67 69  1  0
 64 70  1  0
 69 70  1  0
 71 72  1  0
 72 73  1  0
 73 74  1  0
 74 75  1  0
 75 76  1  0
 71 77  1  0
 76 77  1  0
 77 78  1  0
 78 79  1  0
 79 80  1  0
 80 81  1  0
 81 82  1  0
 82 83  1  0
 81 84  1  0
 84 85  1  0
 83 86  1  0
 85 86  1  0
 86 87  1  0
 87 88  1  0
 88 89  1  0
 89 90  1  0
 90 91  1  0
 91 92  1  0
 92 93  1  0
 92 94  1  0
 89 95  1  0
 94 95  1  0
 95 96  1  0
 96 97  1  0
 88 98  1  0
 96 98  1  0
 98 99  1  0
 99100  1  0
100101  1  0
101102  1  0
102103  1  0
102104  1  0
 99105  1  0
104105  1  0
106107  1  0
107108  1  0
108109  1  0
109110  1  0
110111  1  0
111106  1  0
106112  1  0
111112  1  0
112113  1  0
113114  1  0
114115  1  0
115116  1  0
116117  1  0
117118  1  0
116119  1  0
119120  1  0
118121  1  0
120121  1  0
121122  1  0
122123  1  0
123124  1  0
124125  1  0
125126  1  0
126127  1  0
127128  1  0
127129  1  0
124130  1  0
129130  1  0
130131  1  0
131132  1  0
123133  1  0
131133  1  0
133134  1  0
134135  1  0
135136  1  0
136137  1  0
137138  1  0
137139  1  0
134140  1  0
139140  1  0
  1141  1  6
  2142  1  0
  2143  1  0
  3144  1  0
  3145  1  0
  4146  1  0
  4147  1  0
  5148  1  0
  5149  1  0
  6150  1  6
  8151  1  0
  8152  1  0
  9153  1  0
  9154  1  0
 11155  1  0
 12156  1  0
 12157  1  0
 13158  1  0
 13159  1  0
 14160  1  0
 14161  1  0
 15162  1  0
 15163  1  0
 16164  1  0
 17165  1  0
 17166  1  0
 19167  1  0
 20168  1  0
 20169  1  0
 21170  1  0
 21171  1  0
 22172  1  0
 23173  1  0
 24174  1  0
 24175  1  0
 25176  1  0
 26177  1  0
 27178  1  0
 27179  1  0
 27180  1  0
 28181  1  6
 29182  1  0
 30183  1  0
 30184  1  0
 31185  1  0
 31186  1  0
 32187  1  0
 34188  1  0
 34189  1  0
 35190  1  0
 35191  1  0
 36192  1  6
 37193  1  0
 37194  1  0
 38195  1  0
 38196  1  0
 39197  1  0
 39198  1  0
 40199  1  0
 40200  1  0
 41201  1  6
 43202  1  0
 43203  1  0
 44204  1  0
 44205  1  0
 46206  1  0
 47207  1  0
 47208  1  0
 48209  1  0
 48210  1  0
 49211  1  0
 49212  1  0
 50213  1  0
 50214  1  0
 51215  1  0
 52216  1  0
 52217  1  0
 54218  1  0
 55219  1  0
 55220  1  0
 56221  1  0
 56222  1  0
 57223  1  0
 58224  1  0
 59225  1  0
 59226  1  0
 60227  1  0
 61228  1  1
 62229  1  0
 62230  1  0
 62231  1  0
 63232  1  6
 64233  1  0
 65234  1  0
 65235  1  0
 66236  1  0
 66237  1  0
 67238  1  0
 68239  1  0
 69240  1  0
 69241  1  0
 70242  1  0
 70243  1  0
 71244  1  0
 71245  1  0
 72246  1  0
 72247  1  0
 73248  1  0
 73249  1  0
 74250  1  0
 74251  1  0
 75252  1  0
 75253  1  0
 76254  1  0
 76255  1  0
 78256  1  0
 78257  1  0
 79258  1  0
 79259  1  0
 81260  1  0
 82261  1  0
 82262  1  0
 83263  1  0
 83264  1  0
 84265  1  0
 84266  1  0
 85267  1  0
 85268  1  0
 86269  1  0
 87270  1  0
 87271  1  0
 89272  1  0
 90273  1  0
 90274  1  0
 91275  1  0
 91276  1  0
 92277  1  0
 93278  1  0
 94279  1  0
 94280  1  0
 95281  1  0
 96282  1  0
 97283  1  0
 97284  1  0
 97285  1  0
 98286  1  1
 99287  1  0
100288  1  0
100289  1  0
101290  1  0
101291  1  0
102292  1  0
103293  1  0
104294  1  0
104295  1  0
105296  1  0
105297  1  0
106298  1  1
107299  1  0
107300  1  0
108301  1  0
108302  1  0
109303  1  0
109304  1  0
110305  1  0
110306  1  0
111307  1  1
113308  1  0
113309  1  0
114310  1  0
114311  1  0
116312  1  0
117313  1  0
117314  1  0
118315  1  0
118316  1  0
119317  1  0
119318  1  0
120319  1  0
120320  1  0
121321  1  0
122322  1  0
122323  1  0
124324  1  0
125325  1  0
125326  1  0
126327  1  0
126328  1  0
127329  1  0
128330  1  0
129331  1  0
129332  1  0
130333  1  0
131334  1  0
132335  1  0
132336  1  0
132337  1  0
133338  1  6
134339  1  0
135340  1  0
135341  1  0
136342  1  0
136343  1  0
137344  1  0
139345  1  0
139346  1  0
140347  1  0
140348  1  0
M  END
>  <PDBID>  (1) 
4XI3

>  <PDB ID>  (1) 
4XI3

>  <Generic Name>  (1) 
Bazedoxifene

>  <Brand Name>  (1) 
Duavee#Duavive#Aprela#Viviant

>  <DrugBank ID>  (1) 
DB06401

>  <ATC Codes>  (1) 
G03CC07#G03XC02

>  <Ligand ID>  (1) 
29S

>  <Target Name>  (1) 
Estrogen receptor

>  <UniProt ID>  (1) 
P03372

>  <PDB ID.1>  (1) 
4XI3

>  <Seq. Identity>  (1) 
92%

$$$$
