PDB_DB05015_05
     RDKit          3D

108110  0  0  0  0  0  0  0  0999 V2000
    5.8960   -1.1546    1.1511 O   0  0  0  0  0  0  0  0  0  0  0  0
    5.8011    0.1835    0.8109 C   0  0  0  0  0  0  0  0  0  0  0  0
    6.9929    0.5855    0.0878 N   0  0  0  0  0  0  0  0  0  0  0  0
    6.8412    1.9076   -0.2187 O   0  0  0  0  0  0  0  0  0  0  0  0
    4.5844    0.4741   -0.0484 C   0  0  0  0  0  0  0  0  0  0  0  0
    3.3035    0.1072    0.6689 C   0  0  0  0  0  0  0  0  0  0  0  0
    2.1413    0.4157   -0.2271 C   0  0  0  0  0  0  0  0  0  0  0  0
    0.8155    0.0930    0.3779 C   0  0  0  0  0  0  0  0  0  0  0  0
    2.2960   -0.2870   -1.5676 C   0  0  0  0  0  0  0  0  0  0  0  0
    0.9658   -0.1678   -2.2819 C   0  0  0  0  0  0  0  0  0  0  0  0
    0.0360   -1.1847   -1.6275 C   0  0  0  0  0  0  0  0  0  0  0  0
    0.2362   -1.2208   -0.1333 C   0  0  2  0  0  0  0  0  0  0  0  0
   -1.3914   -1.3522    0.5718 S   0  0  0  0  0  0  0  0  0  0  0  0
   -1.0365   -1.3057    2.2542 O   0  0  0  0  0  0  0  0  0  0  0  0
   -2.1401   -2.5507    0.2396 O   0  0  0  0  0  0  0  0  0  0  0  0
   -2.0856    0.1379    0.2048 N   0  0  0  0  0  0  0  0  0  0  0  0
   -3.4415    0.0104   -0.3062 C   0  0  0  0  0  0  0  0  0  0  0  0
   -3.9437    1.4008   -0.5926 C   0  0  0  0  0  0  0  0  0  0  0  0
   -4.4575    1.9843    0.6899 C   0  0  0  0  0  0  0  0  0  0  0  0
   -5.7228    1.2638    1.0675 C   0  0  0  0  0  0  0  0  0  0  0  0
   -5.6423   -0.2192    0.8868 C   0  0  0  0  0  0  0  0  0  0  0  0
   -4.2661   -0.7481    0.6677 C   0  0  0  0  0  0  0  0  0  0  0  0
    5.9113   -1.1371    1.1573 O   0  0  0  0  0  0  0  0  0  0  0  0
    5.7996    0.1949    0.8076 C   0  0  0  0  0  0  0  0  0  0  0  0
    6.9852    0.6130    0.0838 N   0  0  0  0  0  0  0  0  0  0  0  0
    6.8108    1.9305   -0.2307 O   0  0  0  0  0  0  0  0  0  0  0  0
    4.5781    0.4743   -0.0494 C   0  0  0  0  0  0  0  0  0  0  0  0
    3.3020    0.1024    0.6735 C   0  0  0  0  0  0  0  0  0  0  0  0
    2.1356    0.3994   -0.2192 C   0  0  0  0  0  0  0  0  0  0  0  0
    0.8132    0.0717    0.3896 C   0  0  0  0  0  0  0  0  0  0  0  0
    2.2893   -0.3084   -1.5590 C   0  0  0  0  0  0  0  0  0  0  0  0
    0.9614   -0.1778   -2.2768 C   0  0  0  0  0  0  0  0  0  0  0  0
    0.0214   -1.1861   -1.6229 C   0  0  0  0  0  0  0  0  0  0  0  0
    0.2295   -1.2357   -0.1307 C   0  0  2  0  0  0  0  0  0  0  0  0
   -1.3960   -1.3677    0.5815 S   0  0  0  0  0  0  0  0  0  0  0  0
   -1.0431   -1.3246    2.2543 O   0  0  0  0  0  0  0  0  0  0  0  0
   -2.1508   -2.5598    0.2360 O   0  0  0  0  0  0  0  0  0  0  0  0
   -2.0807    0.1251    0.2030 N   0  0  0  0  0  0  0  0  0  0  0  0
   -3.4460   -0.0012   -0.3024 C   0  0  0  0  0  0  0  0  0  0  0  0
   -3.9432    1.3777   -0.6011 C   0  0  0  0  0  0  0  0  0  0  0  0
   -4.4429    1.9939    0.6714 C   0  0  0  0  0  0  0  0  0  0  0  0
   -5.7059    1.2852    1.0783 C   0  0  0  0  0  0  0  0  0  0  0  0
   -5.6400   -0.1992    0.9081 C   0  0  0  0  0  0  0  0  0  0  0  0
   -4.2589   -0.7397    0.7105 C   0  0  0  0  0  0  0  0  0  0  0  0
    5.7217   -1.7252    0.3404 H   0  0  0  0  0  0  0  0  0  0  0  0
    5.7762    0.7706    1.7494 H   0  0  0  0  0  0  0  0  0  0  0  0
    7.0370    0.0974   -0.8483 H   0  0  0  0  0  0  0  0  0  0  0  0
    6.4254    2.0170   -1.1253 H   0  0  0  0  0  0  0  0  0  0  0  0
    4.7058   -0.0636   -1.0107 H   0  0  0  0  0  0  0  0  0  0  0  0
    4.6117    1.5613   -0.2642 H   0  0  0  0  0  0  0  0  0  0  0  0
    3.3218   -0.9086    1.0664 H   0  0  0  0  0  0  0  0  0  0  0  0
    3.2361    0.8180    1.5437 H   0  0  0  0  0  0  0  0  0  0  0  0
    2.2119    1.5169   -0.4669 H   0  0  0  0  0  0  0  0  0  0  0  0
    0.8653    0.0311    1.4729 H   0  0  0  0  0  0  0  0  0  0  0  0
    0.0554    0.8857    0.1484 H   0  0  0  0  0  0  0  0  0  0  0  0
    3.0603    0.2003   -2.2026 H   0  0  0  0  0  0  0  0  0  0  0  0
    2.5460   -1.3595   -1.4531 H   0  0  0  0  0  0  0  0  0  0  0  0
    0.5644    0.8590   -2.1001 H   0  0  0  0  0  0  0  0  0  0  0  0
    1.0659   -0.3770   -3.3560 H   0  0  0  0  0  0  0  0  0  0  0  0
    0.3221   -2.1830   -2.0190 H   0  0  0  0  0  0  0  0  0  0  0  0
   -0.9874   -0.8802   -1.8920 H   0  0  0  0  0  0  0  0  0  0  0  0
    0.8353   -2.0705    0.2151 H   0  0  0  0  0  0  0  0  0  0  0  0
   -0.6424   -2.1708    2.4677 H   0  0  0  0  0  0  0  0  0  0  0  0
   -1.7772   -3.3656   -0.1848 H   0  0  0  0  0  0  0  0  0  0  0  0
   -2.1365    0.6922    1.0884 H   0  0  0  0  0  0  0  0  0  0  0  0
   -3.4007   -0.5179   -1.3021 H   0  0  0  0  0  0  0  0  0  0  0  0
   -3.0709    2.0081   -0.9195 H   0  0  0  0  0  0  0  0  0  0  0  0
   -4.7165    1.4268   -1.3785 H   0  0  0  0  0  0  0  0  0  0  0  0
   -3.7050    1.9372    1.4801 H   0  0  0  0  0  0  0  0  0  0  0  0
   -4.7174    3.0660    0.5581 H   0  0  0  0  0  0  0  0  0  0  0  0
   -6.5301    1.6582    0.4065 H   0  0  0  0  0  0  0  0  0  0  0  0
   -5.9937    1.5657    2.0951 H   0  0  0  0  0  0  0  0  0  0  0  0
   -6.3318   -0.5739    0.0928 H   0  0  0  0  0  0  0  0  0  0  0  0
   -6.0281   -0.6838    1.8399 H   0  0  0  0  0  0  0  0  0  0  0  0
   -3.7533   -0.8032    1.6676 H   0  0  0  0  0  0  0  0  0  0  0  0
   -4.3538   -1.8017    0.3259 H   0  0  0  0  0  0  0  0  0  0  0  0
    5.8120   -1.7185    0.3556 H   0  0  0  0  0  0  0  0  0  0  0  0
    5.7690    0.7798    1.7481 H   0  0  0  0  0  0  0  0  0  0  0  0
    7.0450    0.1187   -0.8488 H   0  0  0  0  0  0  0  0  0  0  0  0
    6.3854    2.0324   -1.1312 H   0  0  0  0  0  0  0  0  0  0  0  0
    4.7009   -0.0675   -1.0090 H   0  0  0  0  0  0  0  0  0  0  0  0
    4.5977    1.5609   -0.2690 H   0  0  0  0  0  0  0  0  0  0  0  0
    3.3281   -0.9107    1.0773 H   0  0  0  0  0  0  0  0  0  0  0  0
    3.2362    0.8125    1.5492 H   0  0  0  0  0  0  0  0  0  0  0  0
    2.1986    1.4999   -0.4657 H   0  0  0  0  0  0  0  0  0  0  0  0
    0.8410    0.0210    1.4785 H   0  0  0  0  0  0  0  0  0  0  0  0
    0.0501    0.8582    0.1276 H   0  0  0  0  0  0  0  0  0  0  0  0
    3.0554    0.1833   -2.1880 H   0  0  0  0  0  0  0  0  0  0  0  0
    2.5333   -1.3763   -1.4413 H   0  0  0  0  0  0  0  0  0  0  0  0
    0.5752    0.8556   -2.1101 H   0  0  0  0  0  0  0  0  0  0  0  0
    1.0734   -0.3930   -3.3526 H   0  0  0  0  0  0  0  0  0  0  0  0
    0.2933   -2.1885   -2.0223 H   0  0  0  0  0  0  0  0  0  0  0  0
   -1.0019   -0.8766   -1.8803 H   0  0  0  0  0  0  0  0  0  0  0  0
    0.8423   -2.0812    0.2056 H   0  0  0  0  0  0  0  0  0  0  0  0
   -0.5769   -2.1711    2.4504 H   0  0  0  0  0  0  0  0  0  0  0  0
   -1.8572   -3.3417   -0.2738 H   0  0  0  0  0  0  0  0  0  0  0  0
   -2.1313    0.6811    1.0879 H   0  0  0  0  0  0  0  0  0  0  0  0
   -3.4058   -0.5500   -1.2889 H   0  0  0  0  0  0  0  0  0  0  0  0
   -3.0686    1.9925   -0.9481 H   0  0  0  0  0  0  0  0  0  0  0  0
   -4.7198    1.4055   -1.3879 H   0  0  0  0  0  0  0  0  0  0  0  0
   -3.6771    1.9659    1.4437 H   0  0  0  0  0  0  0  0  0  0  0  0
   -4.7105    3.0664    0.5153 H   0  0  0  0  0  0  0  0  0  0  0  0
   -6.5265    1.6835    0.4250 H   0  0  0  0  0  0  0  0  0  0  0  0
   -5.9537    1.5943    2.1114 H   0  0  0  0  0  0  0  0  0  0  0  0
   -6.2839   -0.5399    0.0678 H   0  0  0  0  0  0  0  0  0  0  0  0
   -6.0560   -0.6646    1.8289 H   0  0  0  0  0  0  0  0  0  0  0  0
   -3.7417   -0.7639    1.7020 H   0  0  0  0  0  0  0  0  0  0  0  0
   -4.3555   -1.7989    0.3903 H   0  0  0  0  0  0  0  0  0  0  0  0
  1  2  1  0
  2  3  1  0
  3  4  1  0
  2  5  1  0
  5  6  1  0
  6  7  1  0
  7  8  1  0
  7  9  1  0
  9 10  1  0
 10 11  1  0
  8 12  1  0
 11 12  1  0
 12 13  1  0
 13 14  1  0
 13 15  1  0
 13 16  1  0
 16 17  1  0
 17 18  1  0
 18 19  1  0
 19 20  1  0
 20 21  1  0
 17 22  1  0
 21 22  1  0
 24 23  1  0
 24 25  1  0
 26 25  1  0
 24 27  1  0
 27 28  1  0
 28 29  1  0
 29 30  1  0
 29 31  1  0
 31 32  1  0
 32 33  1  0
 30 34  1  0
 33 34  1  0
 34 35  1  0
 35 36  1  0
 35 37  1  0
 35 38  1  0
 38 39  1  0
 39 40  1  0
 40 41  1  0
 41 42  1  0
 42 43  1  0
 39 44  1  0
 43 44  1  0
  1 45  1  0
  2 46  1  0
  3 47  1  0
  4 48  1  0
  5 49  1  0
  5 50  1  0
  6 51  1  0
  6 52  1  0
  7 53  1  0
  8 54  1  0
  8 55  1  0
  9 56  1  0
  9 57  1  0
 10 58  1  0
 10 59  1  0
 11 60  1  0
 11 61  1  0
 12 62  1  6
 14 63  1  0
 15 64  1  0
 16 65  1  0
 17 66  1  0
 18 67  1  0
 18 68  1  0
 19 69  1  0
 19 70  1  0
 20 71  1  0
 20 72  1  0
 21 73  1  0
 21 74  1  0
 22 75  1  0
 22 76  1  0
 23 77  1  0
 24 78  1  0
 25 79  1  0
 26 80  1  0
 27 81  1  0
 27 82  1  0
 28 83  1  0
 28 84  1  0
 29 85  1  0
 30 86  1  0
 30 87  1  0
 31 88  1  0
 31 89  1  0
 32 90  1  0
 32 91  1  0
 33 92  1  0
 33 93  1  0
 34 94  1  6
 36 95  1  0
 37 96  1  0
 38 97  1  0
 39 98  1  0
 40 99  1  0
 40100  1  0
 41101  1  0
 41102  1  0
 42103  1  0
 42104  1  0
 43105  1  0
 43106  1  0
 44107  1  0
 44108  1  0
M  END
>  <PDBID>  (1) 
5EEN

>  <PDB ID>  (1) 
5EEN

>  <Generic Name>  (1) 
Belinostat

>  <Brand Name>  (1) 
Beleodaq

>  <DrugBank ID>  (1) 
DB05015

>  <ATC Codes>  (1) 
L01XX49

>  <Ligand ID>  (1) 
5OG

>  <Target Name>  (1) 
Histone deacetylase 9

>  <UniProt ID>  (1) 
Q9UKV0

>  <PDB ID.1>  (1) 
5EEN

>  <Seq. Identity>  (1) 
46%

$$$$
