PDB_DB00293_00
     RDKit          3D

296304  0  0  0  0  0  0  0  0999 V2000
   -7.3245    0.6248   -0.0781 N   0  0  0  0  0  0  0  0  0  0  0  0
   -8.1383   -0.5142    0.0957 C   0  0  0  0  0  0  0  0  0  0  0  0
   -8.7398   -0.5417    1.4646 C   0  0  0  0  0  0  0  0  0  0  0  0
   -7.5308   -1.7808   -0.2063 N   0  0  0  0  0  0  0  0  0  0  0  0
   -6.6222   -1.7179   -1.3201 C   0  0  0  0  0  0  0  0  0  0  0  0
   -7.4229   -1.5475   -2.4705 O   0  0  0  0  0  0  0  0  0  0  0  0
   -5.6089   -0.6374   -1.1811 C   0  0  0  0  0  0  0  0  0  0  0  0
   -4.2344   -1.2464   -0.9181 C   0  0  0  0  0  0  0  0  0  0  0  0
   -3.3629   -0.1172   -0.4030 C   0  0  0  0  0  0  0  0  0  0  0  0
   -3.7680    0.0523    1.0625 C   0  0  0  0  0  0  0  0  0  0  0  0
   -5.2411    0.2843    1.1213 C   0  0  0  0  0  0  0  0  0  0  0  0
   -5.9239    0.4447   -0.2080 C   0  0  0  0  0  0  0  0  0  0  0  0
   -1.8912   -0.4569   -0.5012 C   0  0  0  0  0  0  0  0  0  0  0  0
   -1.0947    0.6247   -0.0341 N   0  0  0  0  0  0  0  0  0  0  0  0
    2.7067    1.4453   -0.7639 C   0  0  0  0  0  0  0  0  0  0  0  0
    1.2677    1.8872    0.2943 S   0  0  0  0  0  0  0  0  0  0  0  0
    0.3088    0.3437   -0.0187 C   0  0  0  0  0  0  0  0  0  0  0  0
    0.8729    0.0173   -1.3880 C   0  0  0  0  0  0  0  0  0  0  0  0
    2.3807    0.0723   -1.2268 C   0  0  0  0  0  0  0  0  0  0  0  0
    3.8959    1.4479    0.1558 C   0  0  0  0  0  0  0  0  0  0  0  0
    3.9826    2.7637    0.6678 O   0  0  0  0  0  0  0  0  0  0  0  0
    5.1109    0.9627   -0.3938 N   0  0  0  0  0  0  0  0  0  0  0  0
    5.7642    0.0788    0.5988 C   0  0  1  0  0  0  0  0  0  0  0  0
    6.8737   -0.5955   -0.1295 C   0  0  0  0  0  0  0  0  0  0  0  0
    7.6984   -1.5434    0.6825 C   0  0  0  0  0  0  0  0  0  0  0  0
    8.7830   -2.2062   -0.1472 C   0  0  0  0  0  0  0  0  0  0  0  0
    9.6624   -1.2936   -0.6985 O   0  0  0  0  0  0  0  0  0  0  0  0
    9.5236   -2.9994    0.7446 O   0  0  0  0  0  0  0  0  0  0  0  0
    6.2014    0.9898    1.7173 C   0  0  0  0  0  0  0  0  0  0  0  0
    6.8277    0.3673    2.7654 O   0  0  0  0  0  0  0  0  0  0  0  0
    6.9280    2.0601    1.1865 O   0  0  0  0  0  0  0  0  0  0  0  0
   -1.4392    1.9227   -0.5355 C   0  0  0  0  0  0  0  0  0  0  0  0
   -7.3245    0.6248   -0.0781 N   0  0  0  0  0  0  0  0  0  0  0  0
   -8.1383   -0.5142    0.0957 C   0  0  0  0  0  0  0  0  0  0  0  0
   -8.7398   -0.5417    1.4646 C   0  0  0  0  0  0  0  0  0  0  0  0
   -7.5308   -1.7808   -0.2063 N   0  0  0  0  0  0  0  0  0  0  0  0
   -6.6222   -1.7179   -1.3201 C   0  0  0  0  0  0  0  0  0  0  0  0
   -7.4229   -1.5475   -2.4705 O   0  0  0  0  0  0  0  0  0  0  0  0
   -5.6089   -0.6374   -1.1811 C   0  0  0  0  0  0  0  0  0  0  0  0
   -4.2344   -1.2464   -0.9181 C   0  0  0  0  0  0  0  0  0  0  0  0
   -3.3629   -0.1172   -0.4030 C   0  0  0  0  0  0  0  0  0  0  0  0
   -3.7680    0.0523    1.0625 C   0  0  0  0  0  0  0  0  0  0  0  0
   -5.2411    0.2843    1.1213 C   0  0  0  0  0  0  0  0  0  0  0  0
   -5.9239    0.4447   -0.2080 C   0  0  0  0  0  0  0  0  0  0  0  0
   -1.8912   -0.4569   -0.5012 C   0  0  0  0  0  0  0  0  0  0  0  0
   -1.0947    0.6247   -0.0341 N   0  0  0  0  0  0  0  0  0  0  0  0
    2.7067    1.4453   -0.7639 C   0  0  0  0  0  0  0  0  0  0  0  0
    1.2677    1.8872    0.2943 S   0  0  0  0  0  0  0  0  0  0  0  0
    0.3088    0.3437   -0.0187 C   0  0  0  0  0  0  0  0  0  0  0  0
    0.8729    0.0173   -1.3880 C   0  0  0  0  0  0  0  0  0  0  0  0
    2.3807    0.0723   -1.2268 C   0  0  0  0  0  0  0  0  0  0  0  0
    3.8959    1.4479    0.1558 C   0  0  0  0  0  0  0  0  0  0  0  0
    3.9826    2.7637    0.6678 O   0  0  0  0  0  0  0  0  0  0  0  0
    5.1109    0.9627   -0.3938 N   0  0  0  0  0  0  0  0  0  0  0  0
    5.7642    0.0788    0.5988 C   0  0  1  0  0  0  0  0  0  0  0  0
    6.8737   -0.5955   -0.1295 C   0  0  0  0  0  0  0  0  0  0  0  0
    7.6984   -1.5434    0.6825 C   0  0  0  0  0  0  0  0  0  0  0  0
    8.7830   -2.2062   -0.1472 C   0  0  0  0  0  0  0  0  0  0  0  0
    9.6624   -1.2936   -0.6985 O   0  0  0  0  0  0  0  0  0  0  0  0
    9.5236   -2.9994    0.7446 O   0  0  0  0  0  0  0  0  0  0  0  0
    6.2014    0.9898    1.7173 C   0  0  0  0  0  0  0  0  0  0  0  0
    6.8277    0.3673    2.7654 O   0  0  0  0  0  0  0  0  0  0  0  0
    6.9280    2.0601    1.1865 O   0  0  0  0  0  0  0  0  0  0  0  0
   -1.4392    1.9227   -0.5355 C   0  0  0  0  0  0  0  0  0  0  0  0
   -7.3245    0.6248   -0.0781 N   0  0  0  0  0  0  0  0  0  0  0  0
   -8.1383   -0.5142    0.0957 C   0  0  0  0  0  0  0  0  0  0  0  0
   -8.7398   -0.5417    1.4646 C   0  0  0  0  0  0  0  0  0  0  0  0
   -7.5308   -1.7808   -0.2063 N   0  0  0  0  0  0  0  0  0  0  0  0
   -6.6222   -1.7179   -1.3201 C   0  0  0  0  0  0  0  0  0  0  0  0
   -7.4229   -1.5475   -2.4705 O   0  0  0  0  0  0  0  0  0  0  0  0
   -5.6089   -0.6374   -1.1811 C   0  0  0  0  0  0  0  0  0  0  0  0
   -4.2344   -1.2464   -0.9181 C   0  0  0  0  0  0  0  0  0  0  0  0
   -3.3629   -0.1172   -0.4030 C   0  0  0  0  0  0  0  0  0  0  0  0
   -3.7680    0.0523    1.0625 C   0  0  0  0  0  0  0  0  0  0  0  0
   -5.2411    0.2843    1.1213 C   0  0  0  0  0  0  0  0  0  0  0  0
   -5.9239    0.4447   -0.2080 C   0  0  0  0  0  0  0  0  0  0  0  0
   -1.8912   -0.4569   -0.5012 C   0  0  0  0  0  0  0  0  0  0  0  0
   -1.0947    0.6247   -0.0341 N   0  0  0  0  0  0  0  0  0  0  0  0
    2.7067    1.4453   -0.7639 C   0  0  0  0  0  0  0  0  0  0  0  0
    1.2677    1.8872    0.2943 S   0  0  0  0  0  0  0  0  0  0  0  0
    0.3088    0.3437   -0.0187 C   0  0  0  0  0  0  0  0  0  0  0  0
    0.8729    0.0173   -1.3880 C   0  0  0  0  0  0  0  0  0  0  0  0
    2.3807    0.0723   -1.2268 C   0  0  0  0  0  0  0  0  0  0  0  0
    3.8959    1.4479    0.1558 C   0  0  0  0  0  0  0  0  0  0  0  0
    3.9826    2.7637    0.6678 O   0  0  0  0  0  0  0  0  0  0  0  0
    5.1109    0.9627   -0.3938 N   0  0  0  0  0  0  0  0  0  0  0  0
    5.7642    0.0788    0.5988 C   0  0  1  0  0  0  0  0  0  0  0  0
    6.8737   -0.5955   -0.1295 C   0  0  0  0  0  0  0  0  0  0  0  0
    7.6984   -1.5434    0.6825 C   0  0  0  0  0  0  0  0  0  0  0  0
    8.7830   -2.2062   -0.1472 C   0  0  0  0  0  0  0  0  0  0  0  0
    9.6624   -1.2936   -0.6985 O   0  0  0  0  0  0  0  0  0  0  0  0
    9.5236   -2.9994    0.7446 O   0  0  0  0  0  0  0  0  0  0  0  0
    6.2014    0.9898    1.7173 C   0  0  0  0  0  0  0  0  0  0  0  0
    6.8277    0.3673    2.7654 O   0  0  0  0  0  0  0  0  0  0  0  0
    6.9280    2.0601    1.1865 O   0  0  0  0  0  0  0  0  0  0  0  0
   -1.4392    1.9227   -0.5355 C   0  0  0  0  0  0  0  0  0  0  0  0
   -7.3245    0.6248   -0.0781 N   0  0  0  0  0  0  0  0  0  0  0  0
   -8.1383   -0.5142    0.0957 C   0  0  0  0  0  0  0  0  0  0  0  0
   -8.7398   -0.5417    1.4646 C   0  0  0  0  0  0  0  0  0  0  0  0
   -7.5308   -1.7808   -0.2063 N   0  0  0  0  0  0  0  0  0  0  0  0
   -6.6222   -1.7179   -1.3201 C   0  0  0  0  0  0  0  0  0  0  0  0
   -7.4229   -1.5475   -2.4705 O   0  0  0  0  0  0  0  0  0  0  0  0
   -5.6089   -0.6374   -1.1811 C   0  0  0  0  0  0  0  0  0  0  0  0
   -4.2344   -1.2464   -0.9181 C   0  0  0  0  0  0  0  0  0  0  0  0
   -3.3629   -0.1172   -0.4030 C   0  0  0  0  0  0  0  0  0  0  0  0
   -3.7680    0.0523    1.0625 C   0  0  0  0  0  0  0  0  0  0  0  0
   -5.2411    0.2843    1.1213 C   0  0  0  0  0  0  0  0  0  0  0  0
   -5.9239    0.4447   -0.2080 C   0  0  0  0  0  0  0  0  0  0  0  0
   -1.8912   -0.4569   -0.5012 C   0  0  0  0  0  0  0  0  0  0  0  0
   -1.0947    0.6247   -0.0341 N   0  0  0  0  0  0  0  0  0  0  0  0
    2.7067    1.4453   -0.7639 C   0  0  0  0  0  0  0  0  0  0  0  0
    1.2677    1.8872    0.2943 S   0  0  0  0  0  0  0  0  0  0  0  0
    0.3088    0.3437   -0.0187 C   0  0  0  0  0  0  0  0  0  0  0  0
    0.8729    0.0173   -1.3880 C   0  0  0  0  0  0  0  0  0  0  0  0
    2.3807    0.0723   -1.2268 C   0  0  0  0  0  0  0  0  0  0  0  0
    3.8959    1.4479    0.1558 C   0  0  0  0  0  0  0  0  0  0  0  0
    3.9826    2.7637    0.6678 O   0  0  0  0  0  0  0  0  0  0  0  0
    5.1109    0.9627   -0.3938 N   0  0  0  0  0  0  0  0  0  0  0  0
    5.7642    0.0788    0.5988 C   0  0  1  0  0  0  0  0  0  0  0  0
    6.8737   -0.5955   -0.1295 C   0  0  0  0  0  0  0  0  0  0  0  0
    7.6984   -1.5434    0.6825 C   0  0  0  0  0  0  0  0  0  0  0  0
    8.7830   -2.2062   -0.1472 C   0  0  0  0  0  0  0  0  0  0  0  0
    9.6624   -1.2936   -0.6985 O   0  0  0  0  0  0  0  0  0  0  0  0
    9.5236   -2.9994    0.7446 O   0  0  0  0  0  0  0  0  0  0  0  0
    6.2014    0.9898    1.7173 C   0  0  0  0  0  0  0  0  0  0  0  0
    6.8277    0.3673    2.7654 O   0  0  0  0  0  0  0  0  0  0  0  0
    6.9280    2.0601    1.1865 O   0  0  0  0  0  0  0  0  0  0  0  0
   -1.4392    1.9227   -0.5355 C   0  0  0  0  0  0  0  0  0  0  0  0
   -7.7016    1.3668   -0.6713 H   0  0  0  0  0  0  0  0  0  0  0  0
   -8.9975   -0.4154   -0.6355 H   0  0  0  0  0  0  0  0  0  0  0  0
   -9.8534   -0.3566    1.4422 H   0  0  0  0  0  0  0  0  0  0  0  0
   -8.3396    0.2485    2.1297 H   0  0  0  0  0  0  0  0  0  0  0  0
   -8.5965   -1.5133    1.9880 H   0  0  0  0  0  0  0  0  0  0  0  0
   -7.2214   -2.3256    0.5997 H   0  0  0  0  0  0  0  0  0  0  0  0
   -6.1398   -2.7122   -1.4269 H   0  0  0  0  0  0  0  0  0  0  0  0
   -7.7493   -2.4258   -2.7377 H   0  0  0  0  0  0  0  0  0  0  0  0
   -5.5179   -0.1620   -2.2017 H   0  0  0  0  0  0  0  0  0  0  0  0
   -4.2828   -2.0149   -0.1409 H   0  0  0  0  0  0  0  0  0  0  0  0
   -3.7650   -1.6547   -1.8205 H   0  0  0  0  0  0  0  0  0  0  0  0
   -3.6108    0.7900   -0.9284 H   0  0  0  0  0  0  0  0  0  0  0  0
   -3.4930   -0.9245    1.5580 H   0  0  0  0  0  0  0  0  0  0  0  0
   -3.1885    0.8603    1.5576 H   0  0  0  0  0  0  0  0  0  0  0  0
   -5.7652   -0.4636    1.7739 H   0  0  0  0  0  0  0  0  0  0  0  0
   -5.3965    1.2586    1.6735 H   0  0  0  0  0  0  0  0  0  0  0  0
   -5.5334    1.4145   -0.6549 H   0  0  0  0  0  0  0  0  0  0  0  0
   -1.6800   -0.7882   -1.5419 H   0  0  0  0  0  0  0  0  0  0  0  0
   -1.7264   -1.3203    0.1778 H   0  0  0  0  0  0  0  0  0  0  0  0
    2.8077    2.1835   -1.5891 H   0  0  0  0  0  0  0  0  0  0  0  0
    0.6048   -0.4489    0.6659 H   0  0  0  0  0  0  0  0  0  0  0  0
    0.6249   -0.9866   -1.7322 H   0  0  0  0  0  0  0  0  0  0  0  0
    0.5874    0.7917   -2.1339 H   0  0  0  0  0  0  0  0  0  0  0  0
    2.8008   -0.0335   -2.2608 H   0  0  0  0  0  0  0  0  0  0  0  0
    2.7844   -0.7500   -0.6369 H   0  0  0  0  0  0  0  0  0  0  0  0
    3.5877    0.8328    1.0611 H   0  0  0  0  0  0  0  0  0  0  0  0
    3.2199    2.9584    1.2594 H   0  0  0  0  0  0  0  0  0  0  0  0
    4.9998    0.4776   -1.3067 H   0  0  0  0  0  0  0  0  0  0  0  0
    5.0603   -0.6789    0.9610 H   0  0  0  0  0  0  0  0  0  0  0  0
    6.3766   -1.2291   -0.9273 H   0  0  0  0  0  0  0  0  0  0  0  0
    7.5196    0.0979   -0.7216 H   0  0  0  0  0  0  0  0  0  0  0  0
    8.2197   -0.9625    1.4919 H   0  0  0  0  0  0  0  0  0  0  0  0
    7.1319   -2.3399    1.1887 H   0  0  0  0  0  0  0  0  0  0  0  0
    8.3652   -2.8206   -0.9677 H   0  0  0  0  0  0  0  0  0  0  0  0
   10.1235   -0.7805    0.0175 H   0  0  0  0  0  0  0  0  0  0  0  0
    9.5946   -2.4957    1.6096 H   0  0  0  0  0  0  0  0  0  0  0  0
    5.2577    1.4570    2.1129 H   0  0  0  0  0  0  0  0  0  0  0  0
    6.3711    0.5572    3.6108 H   0  0  0  0  0  0  0  0  0  0  0  0
    6.6478    2.1562    0.2369 H   0  0  0  0  0  0  0  0  0  0  0  0
   -0.5517    2.5712   -0.7658 H   0  0  0  0  0  0  0  0  0  0  0  0
   -2.0042    1.8642   -1.4997 H   0  0  0  0  0  0  0  0  0  0  0  0
   -2.0167    2.4916    0.2505 H   0  0  0  0  0  0  0  0  0  0  0  0
   -7.7016    1.3668   -0.6713 H   0  0  0  0  0  0  0  0  0  0  0  0
   -8.9975   -0.4154   -0.6355 H   0  0  0  0  0  0  0  0  0  0  0  0
   -9.8534   -0.3566    1.4422 H   0  0  0  0  0  0  0  0  0  0  0  0
   -8.3396    0.2485    2.1297 H   0  0  0  0  0  0  0  0  0  0  0  0
   -8.5965   -1.5133    1.9880 H   0  0  0  0  0  0  0  0  0  0  0  0
   -7.2214   -2.3256    0.5997 H   0  0  0  0  0  0  0  0  0  0  0  0
   -6.1398   -2.7122   -1.4269 H   0  0  0  0  0  0  0  0  0  0  0  0
   -7.7493   -2.4258   -2.7377 H   0  0  0  0  0  0  0  0  0  0  0  0
   -5.5179   -0.1620   -2.2017 H   0  0  0  0  0  0  0  0  0  0  0  0
   -4.2828   -2.0149   -0.1409 H   0  0  0  0  0  0  0  0  0  0  0  0
   -3.7650   -1.6547   -1.8205 H   0  0  0  0  0  0  0  0  0  0  0  0
   -3.6108    0.7900   -0.9284 H   0  0  0  0  0  0  0  0  0  0  0  0
   -3.4930   -0.9245    1.5580 H   0  0  0  0  0  0  0  0  0  0  0  0
   -3.1885    0.8603    1.5576 H   0  0  0  0  0  0  0  0  0  0  0  0
   -5.7652   -0.4636    1.7739 H   0  0  0  0  0  0  0  0  0  0  0  0
   -5.3965    1.2586    1.6735 H   0  0  0  0  0  0  0  0  0  0  0  0
   -5.5334    1.4145   -0.6549 H   0  0  0  0  0  0  0  0  0  0  0  0
   -1.6800   -0.7882   -1.5419 H   0  0  0  0  0  0  0  0  0  0  0  0
   -1.7264   -1.3203    0.1778 H   0  0  0  0  0  0  0  0  0  0  0  0
    2.8077    2.1835   -1.5891 H   0  0  0  0  0  0  0  0  0  0  0  0
    0.6048   -0.4489    0.6659 H   0  0  0  0  0  0  0  0  0  0  0  0
    0.6249   -0.9866   -1.7322 H   0  0  0  0  0  0  0  0  0  0  0  0
    0.5874    0.7917   -2.1339 H   0  0  0  0  0  0  0  0  0  0  0  0
    2.8008   -0.0335   -2.2608 H   0  0  0  0  0  0  0  0  0  0  0  0
    2.7844   -0.7500   -0.6369 H   0  0  0  0  0  0  0  0  0  0  0  0
    3.5877    0.8328    1.0611 H   0  0  0  0  0  0  0  0  0  0  0  0
    3.2199    2.9584    1.2594 H   0  0  0  0  0  0  0  0  0  0  0  0
    4.9998    0.4776   -1.3067 H   0  0  0  0  0  0  0  0  0  0  0  0
    5.0603   -0.6789    0.9610 H   0  0  0  0  0  0  0  0  0  0  0  0
    6.3766   -1.2291   -0.9273 H   0  0  0  0  0  0  0  0  0  0  0  0
    7.5196    0.0979   -0.7216 H   0  0  0  0  0  0  0  0  0  0  0  0
    8.2197   -0.9625    1.4919 H   0  0  0  0  0  0  0  0  0  0  0  0
    7.1319   -2.3399    1.1887 H   0  0  0  0  0  0  0  0  0  0  0  0
    8.3652   -2.8206   -0.9677 H   0  0  0  0  0  0  0  0  0  0  0  0
   10.1235   -0.7805    0.0175 H   0  0  0  0  0  0  0  0  0  0  0  0
    9.5946   -2.4957    1.6096 H   0  0  0  0  0  0  0  0  0  0  0  0
    5.2577    1.4570    2.1129 H   0  0  0  0  0  0  0  0  0  0  0  0
    6.3711    0.5572    3.6108 H   0  0  0  0  0  0  0  0  0  0  0  0
    6.6478    2.1562    0.2369 H   0  0  0  0  0  0  0  0  0  0  0  0
   -0.5517    2.5712   -0.7658 H   0  0  0  0  0  0  0  0  0  0  0  0
   -2.0042    1.8642   -1.4997 H   0  0  0  0  0  0  0  0  0  0  0  0
   -2.0167    2.4916    0.2505 H   0  0  0  0  0  0  0  0  0  0  0  0
   -7.7016    1.3668   -0.6713 H   0  0  0  0  0  0  0  0  0  0  0  0
   -8.9975   -0.4154   -0.6355 H   0  0  0  0  0  0  0  0  0  0  0  0
   -9.8534   -0.3566    1.4422 H   0  0  0  0  0  0  0  0  0  0  0  0
   -8.3396    0.2485    2.1297 H   0  0  0  0  0  0  0  0  0  0  0  0
   -8.5965   -1.5133    1.9880 H   0  0  0  0  0  0  0  0  0  0  0  0
   -7.2214   -2.3256    0.5997 H   0  0  0  0  0  0  0  0  0  0  0  0
   -6.1398   -2.7122   -1.4269 H   0  0  0  0  0  0  0  0  0  0  0  0
   -7.7493   -2.4258   -2.7377 H   0  0  0  0  0  0  0  0  0  0  0  0
   -5.5179   -0.1620   -2.2017 H   0  0  0  0  0  0  0  0  0  0  0  0
   -4.2828   -2.0149   -0.1409 H   0  0  0  0  0  0  0  0  0  0  0  0
   -3.7650   -1.6547   -1.8205 H   0  0  0  0  0  0  0  0  0  0  0  0
   -3.6108    0.7900   -0.9284 H   0  0  0  0  0  0  0  0  0  0  0  0
   -3.4930   -0.9245    1.5580 H   0  0  0  0  0  0  0  0  0  0  0  0
   -3.1885    0.8603    1.5576 H   0  0  0  0  0  0  0  0  0  0  0  0
   -5.7652   -0.4636    1.7739 H   0  0  0  0  0  0  0  0  0  0  0  0
   -5.3965    1.2586    1.6735 H   0  0  0  0  0  0  0  0  0  0  0  0
   -5.5334    1.4145   -0.6549 H   0  0  0  0  0  0  0  0  0  0  0  0
   -1.6800   -0.7882   -1.5419 H   0  0  0  0  0  0  0  0  0  0  0  0
   -1.7264   -1.3203    0.1778 H   0  0  0  0  0  0  0  0  0  0  0  0
    2.8077    2.1835   -1.5891 H   0  0  0  0  0  0  0  0  0  0  0  0
    0.6048   -0.4489    0.6659 H   0  0  0  0  0  0  0  0  0  0  0  0
    0.6249   -0.9866   -1.7322 H   0  0  0  0  0  0  0  0  0  0  0  0
    0.5874    0.7917   -2.1339 H   0  0  0  0  0  0  0  0  0  0  0  0
    2.8008   -0.0335   -2.2608 H   0  0  0  0  0  0  0  0  0  0  0  0
    2.7844   -0.7500   -0.6369 H   0  0  0  0  0  0  0  0  0  0  0  0
    3.5877    0.8328    1.0611 H   0  0  0  0  0  0  0  0  0  0  0  0
    3.2199    2.9584    1.2594 H   0  0  0  0  0  0  0  0  0  0  0  0
    4.9998    0.4776   -1.3067 H   0  0  0  0  0  0  0  0  0  0  0  0
    5.0603   -0.6789    0.9610 H   0  0  0  0  0  0  0  0  0  0  0  0
    6.3766   -1.2291   -0.9273 H   0  0  0  0  0  0  0  0  0  0  0  0
    7.5196    0.0979   -0.7216 H   0  0  0  0  0  0  0  0  0  0  0  0
    8.2197   -0.9625    1.4919 H   0  0  0  0  0  0  0  0  0  0  0  0
    7.1319   -2.3399    1.1887 H   0  0  0  0  0  0  0  0  0  0  0  0
    8.3652   -2.8206   -0.9677 H   0  0  0  0  0  0  0  0  0  0  0  0
   10.1235   -0.7805    0.0175 H   0  0  0  0  0  0  0  0  0  0  0  0
    9.5946   -2.4957    1.6096 H   0  0  0  0  0  0  0  0  0  0  0  0
    5.2577    1.4570    2.1129 H   0  0  0  0  0  0  0  0  0  0  0  0
    6.3711    0.5572    3.6108 H   0  0  0  0  0  0  0  0  0  0  0  0
    6.6478    2.1562    0.2369 H   0  0  0  0  0  0  0  0  0  0  0  0
   -0.5517    2.5712   -0.7658 H   0  0  0  0  0  0  0  0  0  0  0  0
   -2.0042    1.8642   -1.4997 H   0  0  0  0  0  0  0  0  0  0  0  0
   -2.0167    2.4916    0.2505 H   0  0  0  0  0  0  0  0  0  0  0  0
   -7.7016    1.3668   -0.6713 H   0  0  0  0  0  0  0  0  0  0  0  0
   -8.9975   -0.4154   -0.6355 H   0  0  0  0  0  0  0  0  0  0  0  0
   -9.8534   -0.3566    1.4422 H   0  0  0  0  0  0  0  0  0  0  0  0
   -8.3396    0.2485    2.1297 H   0  0  0  0  0  0  0  0  0  0  0  0
   -8.5965   -1.5133    1.9880 H   0  0  0  0  0  0  0  0  0  0  0  0
   -7.2214   -2.3256    0.5997 H   0  0  0  0  0  0  0  0  0  0  0  0
   -6.1398   -2.7122   -1.4269 H   0  0  0  0  0  0  0  0  0  0  0  0
   -7.7493   -2.4258   -2.7377 H   0  0  0  0  0  0  0  0  0  0  0  0
   -5.5179   -0.1620   -2.2017 H   0  0  0  0  0  0  0  0  0  0  0  0
   -4.2828   -2.0149   -0.1409 H   0  0  0  0  0  0  0  0  0  0  0  0
   -3.7650   -1.6547   -1.8205 H   0  0  0  0  0  0  0  0  0  0  0  0
   -3.6108    0.7900   -0.9284 H   0  0  0  0  0  0  0  0  0  0  0  0
   -3.4930   -0.9245    1.5580 H   0  0  0  0  0  0  0  0  0  0  0  0
   -3.1885    0.8603    1.5576 H   0  0  0  0  0  0  0  0  0  0  0  0
   -5.7652   -0.4636    1.7739 H   0  0  0  0  0  0  0  0  0  0  0  0
   -5.3965    1.2586    1.6735 H   0  0  0  0  0  0  0  0  0  0  0  0
   -5.5334    1.4145   -0.6549 H   0  0  0  0  0  0  0  0  0  0  0  0
   -1.6800   -0.7882   -1.5419 H   0  0  0  0  0  0  0  0  0  0  0  0
   -1.7264   -1.3203    0.1778 H   0  0  0  0  0  0  0  0  0  0  0  0
    2.8077    2.1835   -1.5891 H   0  0  0  0  0  0  0  0  0  0  0  0
    0.6048   -0.4489    0.6659 H   0  0  0  0  0  0  0  0  0  0  0  0
    0.6249   -0.9866   -1.7322 H   0  0  0  0  0  0  0  0  0  0  0  0
    0.5874    0.7917   -2.1339 H   0  0  0  0  0  0  0  0  0  0  0  0
    2.8008   -0.0335   -2.2608 H   0  0  0  0  0  0  0  0  0  0  0  0
    2.7844   -0.7500   -0.6369 H   0  0  0  0  0  0  0  0  0  0  0  0
    3.5877    0.8328    1.0611 H   0  0  0  0  0  0  0  0  0  0  0  0
    3.2199    2.9584    1.2594 H   0  0  0  0  0  0  0  0  0  0  0  0
    4.9998    0.4776   -1.3067 H   0  0  0  0  0  0  0  0  0  0  0  0
    5.0603   -0.6789    0.9610 H   0  0  0  0  0  0  0  0  0  0  0  0
    6.3766   -1.2291   -0.9273 H   0  0  0  0  0  0  0  0  0  0  0  0
    7.5196    0.0979   -0.7216 H   0  0  0  0  0  0  0  0  0  0  0  0
    8.2197   -0.9625    1.4919 H   0  0  0  0  0  0  0  0  0  0  0  0
    7.1319   -2.3399    1.1887 H   0  0  0  0  0  0  0  0  0  0  0  0
    8.3652   -2.8206   -0.9677 H   0  0  0  0  0  0  0  0  0  0  0  0
   10.1235   -0.7805    0.0175 H   0  0  0  0  0  0  0  0  0  0  0  0
    9.5946   -2.4957    1.6096 H   0  0  0  0  0  0  0  0  0  0  0  0
    5.2577    1.4570    2.1129 H   0  0  0  0  0  0  0  0  0  0  0  0
    6.3711    0.5572    3.6108 H   0  0  0  0  0  0  0  0  0  0  0  0
    6.6478    2.1562    0.2369 H   0  0  0  0  0  0  0  0  0  0  0  0
   -0.5517    2.5712   -0.7658 H   0  0  0  0  0  0  0  0  0  0  0  0
   -2.0042    1.8642   -1.4997 H   0  0  0  0  0  0  0  0  0  0  0  0
   -2.0167    2.4916    0.2505 H   0  0  0  0  0  0  0  0  0  0  0  0
  1  2  1  0
  2  3  1  0
  2  4  1  0
  4  5  1  0
  5  6  1  0
  5  7  1  0
  7  8  1  0
  8  9  1  0
  9 10  1  0
 10 11  1  0
  1 12  1  0
  7 12  1  0
 11 12  1  0
  9 13  1  0
 13 14  1  0
 15 16  1  0
 14 17  1  0
 16 17  1  0
 17 18  1  0
 15 19  1  0
 18 19  1  0
 15 20  1  0
 20 21  1  0
 20 22  1  0
 22 23  1  0
 23 24  1  0
 24 25  1  0
 25 26  1  0
 26 27  1  0
 26 28  1  0
 23 29  1  0
 29 30  1  0
 29 31  1  0
 14 32  1  0
 33 34  1  0
 34 35  1  0
 34 36  1  0
 36 37  1  0
 37 38  1  0
 37 39  1  0
 39 40  1  0
 40 41  1  0
 41 42  1  0
 42 43  1  0
 33 44  1  0
 39 44  1  0
 43 44  1  0
 41 45  1  0
 45 46  1  0
 47 48  1  0
 46 49  1  0
 48 49  1  0
 49 50  1  0
 47 51  1  0
 50 51  1  0
 47 52  1  0
 52 53  1  0
 52 54  1  0
 54 55  1  0
 55 56  1  0
 56 57  1  0
 57 58  1  0
 58 59  1  0
 58 60  1  0
 55 61  1  0
 61 62  1  0
 61 63  1  0
 46 64  1  0
 65 66  1  0
 66 67  1  0
 66 68  1  0
 68 69  1  0
 69 70  1  0
 69 71  1  0
 71 72  1  0
 72 73  1  0
 73 74  1  0
 74 75  1  0
 65 76  1  0
 71 76  1  0
 75 76  1  0
 73 77  1  0
 77 78  1  0
 79 80  1  0
 78 81  1  0
 80 81  1  0
 81 82  1  0
 79 83  1  0
 82 83  1  0
 79 84  1  0
 84 85  1  0
 84 86  1  0
 86 87  1  0
 87 88  1  0
 88 89  1  0
 89 90  1  0
 90 91  1  0
 90 92  1  0
 87 93  1  0
 93 94  1  0
 93 95  1  0
 78 96  1  0
 97 98  1  0
 98 99  1  0
 98100  1  0
100101  1  0
101102  1  0
101103  1  0
103104  1  0
104105  1  0
105106  1  0
106107  1  0
 97108  1  0
103108  1  0
107108  1  0
105109  1  0
109110  1  0
111112  1  0
110113  1  0
112113  1  0
113114  1  0
111115  1  0
114115  1  0
111116  1  0
116117  1  0
116118  1  0
118119  1  0
119120  1  0
120121  1  0
121122  1  0
122123  1  0
122124  1  0
119125  1  0
125126  1  0
125127  1  0
110128  1  0
  1129  1  0
  2130  1  0
  3131  1  0
  3132  1  0
  3133  1  0
  4134  1  0
  5135  1  0
  6136  1  0
  7137  1  0
  8138  1  0
  8139  1  0
  9140  1  0
 10141  1  0
 10142  1  0
 11143  1  0
 11144  1  0
 12145  1  0
 13146  1  0
 13147  1  0
 15148  1  0
 17149  1  0
 18150  1  0
 18151  1  0
 19152  1  0
 19153  1  0
 20154  1  0
 21155  1  0
 22156  1  0
 23157  1  1
 24158  1  0
 24159  1  0
 25160  1  0
 25161  1  0
 26162  1  0
 27163  1  0
 28164  1  0
 29165  1  0
 30166  1  0
 31167  1  0
 32168  1  0
 32169  1  0
 32170  1  0
 33171  1  0
 34172  1  0
 35173  1  0
 35174  1  0
 35175  1  0
 36176  1  0
 37177  1  0
 38178  1  0
 39179  1  0
 40180  1  0
 40181  1  0
 41182  1  0
 42183  1  0
 42184  1  0
 43185  1  0
 43186  1  0
 44187  1  0
 45188  1  0
 45189  1  0
 47190  1  0
 49191  1  0
 50192  1  0
 50193  1  0
 51194  1  0
 51195  1  0
 52196  1  0
 53197  1  0
 54198  1  0
 55199  1  1
 56200  1  0
 56201  1  0
 57202  1  0
 57203  1  0
 58204  1  0
 59205  1  0
 60206  1  0
 61207  1  0
 62208  1  0
 63209  1  0
 64210  1  0
 64211  1  0
 64212  1  0
 65213  1  0
 66214  1  0
 67215  1  0
 67216  1  0
 67217  1  0
 68218  1  0
 69219  1  0
 70220  1  0
 71221  1  0
 72222  1  0
 72223  1  0
 73224  1  0
 74225  1  0
 74226  1  0
 75227  1  0
 75228  1  0
 76229  1  0
 77230  1  0
 77231  1  0
 79232  1  0
 81233  1  0
 82234  1  0
 82235  1  0
 83236  1  0
 83237  1  0
 84238  1  0
 85239  1  0
 86240  1  0
 87241  1  1
 88242  1  0
 88243  1  0
 89244  1  0
 89245  1  0
 90246  1  0
 91247  1  0
 92248  1  0
 93249  1  0
 94250  1  0
 95251  1  0
 96252  1  0
 96253  1  0
 96254  1  0
 97255  1  0
 98256  1  0
 99257  1  0
 99258  1  0
 99259  1  0
100260  1  0
101261  1  0
102262  1  0
103263  1  0
104264  1  0
104265  1  0
105266  1  0
106267  1  0
106268  1  0
107269  1  0
107270  1  0
108271  1  0
109272  1  0
109273  1  0
111274  1  0
113275  1  0
114276  1  0
114277  1  0
115278  1  0
115279  1  0
116280  1  0
117281  1  0
118282  1  0
119283  1  1
120284  1  0
120285  1  0
121286  1  0
121287  1  0
122288  1  0
123289  1  0
124290  1  0
125291  1  0
126292  1  0
127293  1  0
128294  1  0
128295  1  0
128296  1  0
M  END
>  <PDBID>  (1) 
1HVY

>  <PDB ID>  (1) 
1HVY

>  <Generic Name>  (1) 
Raltitrexed

>  <Brand Name>  (1) 
Tomudex

>  <DrugBank ID>  (1) 
DB00293

>  <ATC Codes>  (1) 
L01BA03

>  <Ligand ID>  (1) 
D16

>  <Target Name>  (1) 
Thymidylate synthase

>  <UniProt ID>  (1) 
P04818

>  <PDB ID.1>  (1) 
1HVY

>  <Seq. Identity>  (1) 
100%

$$$$
