PDB_DB00476_03
     RDKit          3D

 54 56  0  0  0  0  0  0  0  0999 V2000
   -1.2706    1.4018   -4.6679 C   0  0  0  0  0  0  0  0  0  0  0  0
   -1.8735    0.3877   -3.8225 N   0  0  0  0  0  0  0  0  0  0  0  0
   -1.4124    0.5429   -2.4304 C   0  0  0  0  0  0  0  0  0  0  0  0
   -2.1044   -0.5223   -1.6378 C   0  0  0  0  0  0  0  0  0  0  0  0
   -1.7697   -0.5007   -0.1461 C   0  0  1  0  0  0  0  0  0  0  0  0
   -2.5706   -1.6305    0.4874 C   0  0  0  0  0  0  0  0  0  0  0  0
   -4.3803   -1.3745    0.1800 S   0  0  0  0  0  0  0  0  0  0  0  0
   -4.8842   -2.3409    1.6776 C   0  0  0  0  0  0  0  0  0  0  0  0
   -3.8121   -1.8916    2.6065 C   0  0  0  0  0  0  0  0  0  0  0  0
   -2.5070   -1.7129    1.9560 C   0  0  0  0  0  0  0  0  0  0  0  0
   -0.5431   -0.5113    0.1992 O   0  0  0  0  0  0  0  0  0  0  0  0
    0.4644    0.0279    0.7470 C   0  0  0  0  0  0  0  0  0  0  0  0
    1.6224    0.3922   -0.2102 C   0  0  0  0  0  0  0  0  0  0  0  0
    1.5089    1.7980   -0.7155 C   0  0  0  0  0  0  0  0  0  0  0  0
    2.5766    2.1225   -1.7234 C   0  0  0  0  0  0  0  0  0  0  0  0
    3.9528    1.8019   -1.2279 C   0  0  0  0  0  0  0  0  0  0  0  0
    4.0662    0.4889   -0.5308 C   0  0  0  0  0  0  0  0  0  0  0  0
    2.9648    0.0870    0.3641 C   0  0  0  0  0  0  0  0  0  0  0  0
    3.0777    0.5604    1.7977 C   0  0  0  0  0  0  0  0  0  0  0  0
    2.1186   -0.2188    2.6721 C   0  0  0  0  0  0  0  0  0  0  0  0
    1.0069   -0.8356    1.8769 C   0  0  0  0  0  0  0  0  0  0  0  0
   -1.7711    1.2982   -5.6630 H   0  0  0  0  0  0  0  0  0  0  0  0
   -1.4640    2.3920   -4.2097 H   0  0  0  0  0  0  0  0  0  0  0  0
   -0.1988    1.2292   -4.8379 H   0  0  0  0  0  0  0  0  0  0  0  0
   -1.5457   -0.5441   -4.1943 H   0  0  0  0  0  0  0  0  0  0  0  0
   -1.5992    1.5558   -2.0817 H   0  0  0  0  0  0  0  0  0  0  0  0
   -0.3284    0.2770   -2.4579 H   0  0  0  0  0  0  0  0  0  0  0  0
   -3.2018   -0.3647   -1.7352 H   0  0  0  0  0  0  0  0  0  0  0  0
   -1.8959   -1.4959   -2.1052 H   0  0  0  0  0  0  0  0  0  0  0  0
   -2.2844    0.4510    0.2038 H   0  0  0  0  0  0  0  0  0  0  0  0
   -2.3562   -2.6160    0.0443 H   0  0  0  0  0  0  0  0  0  0  0  0
   -5.8622   -1.9872    2.0335 H   0  0  0  0  0  0  0  0  0  0  0  0
   -4.8709   -3.4077    1.4287 H   0  0  0  0  0  0  0  0  0  0  0  0
   -4.1744   -1.0037    3.1763 H   0  0  0  0  0  0  0  0  0  0  0  0
   -3.7132   -2.7001    3.3880 H   0  0  0  0  0  0  0  0  0  0  0  0
   -1.7503   -2.4461    2.3417 H   0  0  0  0  0  0  0  0  0  0  0  0
   -2.1048   -0.7176    2.3229 H   0  0  0  0  0  0  0  0  0  0  0  0
    0.2505    1.0511    1.2055 H   0  0  0  0  0  0  0  0  0  0  0  0
    1.4869   -0.2813   -1.0731 H   0  0  0  0  0  0  0  0  0  0  0  0
    0.5451    2.0963   -1.1211 H   0  0  0  0  0  0  0  0  0  0  0  0
    1.6905    2.4843    0.1642 H   0  0  0  0  0  0  0  0  0  0  0  0
    2.4828    3.1623   -2.0580 H   0  0  0  0  0  0  0  0  0  0  0  0
    2.3718    1.4821   -2.6028 H   0  0  0  0  0  0  0  0  0  0  0  0
    4.6469    1.7518   -2.1222 H   0  0  0  0  0  0  0  0  0  0  0  0
    4.3335    2.6164   -0.5946 H   0  0  0  0  0  0  0  0  0  0  0  0
    5.0226    0.4820    0.0516 H   0  0  0  0  0  0  0  0  0  0  0  0
    4.1890   -0.3104   -1.3030 H   0  0  0  0  0  0  0  0  0  0  0  0
    3.0158   -1.0506    0.4513 H   0  0  0  0  0  0  0  0  0  0  0  0
    4.0803    0.4844    2.2241 H   0  0  0  0  0  0  0  0  0  0  0  0
    2.7628    1.6173    1.8243 H   0  0  0  0  0  0  0  0  0  0  0  0
    2.7140   -1.0573    3.1062 H   0  0  0  0  0  0  0  0  0  0  0  0
    1.7315    0.3529    3.5277 H   0  0  0  0  0  0  0  0  0  0  0  0
    1.3663   -1.7922    1.4339 H   0  0  0  0  0  0  0  0  0  0  0  0
    0.1998   -1.0810    2.5729 H   0  0  0  0  0  0  0  0  0  0  0  0
  1  2  1  0
  2  3  1  0
  3  4  1  0
  4  5  1  0
  5  6  1  0
  6  7  1  0
  7  8  1  0
  8  9  1  0
  6 10  1  0
  9 10  1  0
  5 11  1  0
 11 12  1  0
 12 13  1  0
 13 14  1  0
 14 15  1  0
 15 16  1  0
 16 17  1  0
 13 18  1  0
 17 18  1  0
 18 19  1  0
 19 20  1  0
 12 21  1  0
 20 21  1  0
  1 22  1  0
  1 23  1  0
  1 24  1  0
  2 25  1  0
  3 26  1  0
  3 27  1  0
  4 28  1  0
  4 29  1  0
  5 30  1  1
  6 31  1  0
  8 32  1  0
  8 33  1  0
  9 34  1  0
  9 35  1  0
 10 36  1  0
 10 37  1  0
 12 38  1  0
 13 39  1  0
 14 40  1  0
 14 41  1  0
 15 42  1  0
 15 43  1  0
 16 44  1  0
 16 45  1  0
 17 46  1  0
 17 47  1  0
 18 48  1  0
 19 49  1  0
 19 50  1  0
 20 51  1  0
 20 52  1  0
 21 53  1  0
 21 54  1  0
M  END
>  <PDBID>  (1) 
4MM6

>  <PDB ID>  (1) 
4MM6

>  <Generic Name>  (1) 
Duloxetine

>  <Brand Name>  (1) 
Act Duloxetine#Apo-duloxetine#Auro-duloxetine#Cymbalta#Dom-duloxetine#Duloxetine#Duloxetine Delayed-release#Duloxetine Dr#Duloxetine Hydrochloride#Duloxetine Hydrochloride 20 mg#Duloxetine Hydrochloride 30 mg#Duloxetine Hydrochloride 60 mg#Ipg-duloxetine#Irenka#Jamp-duloxetine#Mar-duloxetine#Mint-duloxetine#Mylan-duloxetine#PMS-duloxetine#Ran-duloxetine#Riva-duloxetine#Sandoz Duloxetine#Taro-duloxetine#Teva-duloxetine Dr#Torrent-duloxetine#Ariclaim#Dulane#Duzela#Xeristar#Yentreve

>  <DrugBank ID>  (1) 
DB00476

>  <ATC Codes>  (1) 
N06AX21

>  <Ligand ID>  (1) 
29E

>  <Target Name>  (1) 
Sodium-dependent noradrenaline transporter

>  <UniProt ID>  (1) 
P23975

>  <PDB ID.1>  (1) 
4MM6

>  <Seq. Identity>  (1) 
30%

$$$$
