PDB_DB00814_00
     RDKit          3D

104109  0  0  0  0  0  0  0  0999 V2000
    6.1849    1.8208    0.9852 C   0  0  0  0  0  0  0  0  0  0  0  0
    5.5302    0.6837    0.2569 C   0  0  0  0  0  0  0  0  0  0  0  0
    3.9039    1.1712   -0.4117 S   0  0  0  0  0  0  0  0  0  0  0  0
    5.0601   -0.3943    1.2063 C   0  0  0  0  0  0  0  0  0  0  0  0
    4.0194   -1.1223    0.6785 N   0  0  0  0  0  0  0  0  0  0  0  0
    3.0626   -0.4071   -0.0667 C   0  0  0  0  0  0  0  0  0  0  0  0
    1.7903   -0.2372    0.5611 N   0  0  0  0  0  0  0  0  0  0  0  0
    0.9362   -1.3752    0.3301 C   0  0  1  0  0  0  0  0  0  0  0  0
    0.7048   -2.0159    1.5381 O   0  0  0  0  0  0  0  0  0  0  0  0
   -0.3901   -0.9920   -0.2852 C   0  0  1  0  0  0  0  0  0  0  0  0
   -1.2128   -0.4180    0.8162 C   0  0  2  0  0  0  0  0  0  0  0  0
   -1.3629   -1.4242    1.7954 O   0  0  0  0  0  0  0  0  0  0  0  0
   -2.5644    0.0527    0.4835 C   0  0  1  0  0  0  0  0  0  0  0  0
   -2.9130    1.2096    1.4187 C   0  0  0  0  0  0  0  0  0  0  0  0
   -4.3452    1.6031    1.2064 C   0  0  0  0  0  0  0  0  0  0  0  0
   -4.7025    1.8643   -0.2260 C   0  0  0  0  0  0  0  0  0  0  0  0
   -4.2709    0.6920   -1.0963 C   0  0  0  0  0  0  0  0  0  0  0  0
   -2.7766    0.5579   -0.9011 C   0  0  2  0  0  0  0  0  0  0  0  0
   -2.1003   -0.4201   -2.0447 S   0  0  0  0  0  0  0  0  0  0  0  0
   -2.4093   -2.0192   -2.3010 O   0  0  0  0  0  0  0  0  0  0  0  0
   -2.0338    0.4659   -3.7044 O   0  0  0  0  0  0  0  0  0  0  0  0
   -0.2733   -0.1799   -1.4497 N   0  0  0  0  0  0  0  0  0  0  0  0
    0.4420   -0.7856   -2.5127 C   0  0  0  0  0  0  0  0  0  0  0  0
    6.4689    0.1919    0.4038 C   0  0  0  0  0  0  0  0  0  0  0  0
    5.1631    0.1372   -0.2944 C   0  0  0  0  0  0  0  0  0  0  0  0
    3.7557    0.5322    0.8291 S   0  0  0  0  0  0  0  0  0  0  0  0
    4.7170   -1.2817   -0.6181 C   0  0  0  0  0  0  0  0  0  0  0  0
    3.3792   -1.2739   -0.9991 N   0  0  0  0  0  0  0  0  0  0  0  0
    2.5613   -0.3752   -0.2419 C   0  0  1  0  0  0  0  0  0  0  0  0
    1.4996   -0.9372    0.4394 N   0  0  0  0  0  0  0  0  0  0  0  0
    0.5227   -0.2235    1.1329 C   0  0  1  0  0  0  0  0  0  0  0  0
    1.1634    0.6832    2.0660 O   0  0  0  0  0  0  0  0  0  0  0  0
   -0.4339    0.5881    0.2908 C   0  0  2  0  0  0  0  0  0  0  0  0
   -1.6260    0.9163    1.1865 C   0  0  2  0  0  0  0  0  0  0  0  0
   -1.3337    0.9244    2.5126 O   0  0  0  0  0  0  0  0  0  0  0  0
   -2.3510   -0.3793    0.7435 C   0  0  1  0  0  0  0  0  0  0  0  0
   -3.6098   -0.4873    1.4885 C   0  0  0  0  0  0  0  0  0  0  0  0
   -4.8011   -0.9730    0.7088 C   0  0  0  0  0  0  0  0  0  0  0  0
   -4.2841   -1.6539   -0.5289 C   0  0  0  0  0  0  0  0  0  0  0  0
   -3.5870   -0.6095   -1.3525 C   0  0  0  0  0  0  0  0  0  0  0  0
   -2.5101    0.1354   -0.6898 C   0  0  2  0  0  0  0  0  0  0  0  0
   -0.9861    0.2197   -1.2746 S   0  0  0  0  0  0  0  0  0  0  0  0
   -0.4970   -1.5933   -1.7170 O   0  0  0  0  0  0  0  0  0  0  0  0
   -1.3132    1.1579   -2.9941 O   0  0  0  0  0  0  0  0  0  0  0  0
    0.2754    1.4610   -0.3981 N   0  0  0  0  0  0  0  0  0  0  0  0
   -0.2375    2.7477   -0.3254 C   0  0  0  0  0  0  0  0  0  0  0  0
    5.9378    2.8158    0.5537 H   0  0  0  0  0  0  0  0  0  0  0  0
    5.8616    1.7582    2.0472 H   0  0  0  0  0  0  0  0  0  0  0  0
    7.2952    1.7018    0.9535 H   0  0  0  0  0  0  0  0  0  0  0  0
    6.1333    0.3027   -0.5776 H   0  0  0  0  0  0  0  0  0  0  0  0
    5.9482   -1.0525    1.3800 H   0  0  0  0  0  0  0  0  0  0  0  0
    4.8603    0.0876    2.1865 H   0  0  0  0  0  0  0  0  0  0  0  0
    4.0486   -2.1375    0.6425 H   0  0  0  0  0  0  0  0  0  0  0  0
    2.9297   -0.9090   -1.0404 H   0  0  0  0  0  0  0  0  0  0  0  0
    1.8348    0.0163    1.5803 H   0  0  0  0  0  0  0  0  0  0  0  0
    1.4752   -2.1286   -0.2934 H   0  0  0  0  0  0  0  0  0  0  0  0
    0.3746   -2.9200    1.3165 H   0  0  0  0  0  0  0  0  0  0  0  0
   -0.8649   -1.9691   -0.6043 H   0  0  0  0  0  0  0  0  0  0  0  0
   -0.6034    0.3814    1.3136 H   0  0  0  0  0  0  0  0  0  0  0  0
   -2.0627   -2.0432    1.4362 H   0  0  0  0  0  0  0  0  0  0  0  0
   -3.3489   -0.7264    0.6730 H   0  0  0  0  0  0  0  0  0  0  0  0
   -2.2715    2.0584    1.0838 H   0  0  0  0  0  0  0  0  0  0  0  0
   -2.7799    0.9493    2.4756 H   0  0  0  0  0  0  0  0  0  0  0  0
   -4.5248    2.5506    1.7653 H   0  0  0  0  0  0  0  0  0  0  0  0
   -4.9755    0.7858    1.6101 H   0  0  0  0  0  0  0  0  0  0  0  0
   -4.1099    2.7441   -0.5801 H   0  0  0  0  0  0  0  0  0  0  0  0
   -5.7901    2.0333   -0.2747 H   0  0  0  0  0  0  0  0  0  0  0  0
   -4.5720    0.8193   -2.1378 H   0  0  0  0  0  0  0  0  0  0  0  0
   -4.7915   -0.2254   -0.7195 H   0  0  0  0  0  0  0  0  0  0  0  0
   -2.3728    1.6039   -0.9343 H   0  0  0  0  0  0  0  0  0  0  0  0
   -2.9177   -2.4303   -1.5597 H   0  0  0  0  0  0  0  0  0  0  0  0
   -2.9938    0.3752   -3.8887 H   0  0  0  0  0  0  0  0  0  0  0  0
   -0.1880   -1.2388   -3.3016 H   0  0  0  0  0  0  0  0  0  0  0  0
    1.1601   -1.5541   -2.2230 H   0  0  0  0  0  0  0  0  0  0  0  0
    1.0288    0.0209   -3.0264 H   0  0  0  0  0  0  0  0  0  0  0  0
    6.6015    1.0194    1.1008 H   0  0  0  0  0  0  0  0  0  0  0  0
    7.2662    0.2968   -0.3872 H   0  0  0  0  0  0  0  0  0  0  0  0
    6.6799   -0.8102    0.8620 H   0  0  0  0  0  0  0  0  0  0  0  0
    5.0804    0.7691   -1.1951 H   0  0  0  0  0  0  0  0  0  0  0  0
    4.9232   -1.8657    0.3286 H   0  0  0  0  0  0  0  0  0  0  0  0
    5.3496   -1.7125   -1.4187 H   0  0  0  0  0  0  0  0  0  0  0  0
    3.1245   -1.4060   -1.9822 H   0  0  0  0  0  0  0  0  0  0  0  0
    2.2371    0.4091   -0.9434 H   0  0  0  0  0  0  0  0  0  0  0  0
    1.2673   -1.8788    0.0698 H   0  0  0  0  0  0  0  0  0  0  0  0
    0.0044   -0.9338    1.8258 H   0  0  0  0  0  0  0  0  0  0  0  0
    1.4508    1.4705    1.5358 H   0  0  0  0  0  0  0  0  0  0  0  0
   -2.2072    1.7768    0.8416 H   0  0  0  0  0  0  0  0  0  0  0  0
   -1.3990    1.8314    2.9185 H   0  0  0  0  0  0  0  0  0  0  0  0
   -1.6900   -1.2402    0.7652 H   0  0  0  0  0  0  0  0  0  0  0  0
   -3.8853    0.4435    2.0511 H   0  0  0  0  0  0  0  0  0  0  0  0
   -3.4597   -1.2537    2.3049 H   0  0  0  0  0  0  0  0  0  0  0  0
   -5.4609   -1.6526    1.3114 H   0  0  0  0  0  0  0  0  0  0  0  0
   -5.3958   -0.1020    0.3825 H   0  0  0  0  0  0  0  0  0  0  0  0
   -3.6185   -2.5027   -0.3356 H   0  0  0  0  0  0  0  0  0  0  0  0
   -5.1294   -2.0408   -1.1484 H   0  0  0  0  0  0  0  0  0  0  0  0
   -3.1367   -1.1596   -2.2301 H   0  0  0  0  0  0  0  0  0  0  0  0
   -4.3847    0.0282   -1.8378 H   0  0  0  0  0  0  0  0  0  0  0  0
   -2.9688    1.1540   -0.4962 H   0  0  0  0  0  0  0  0  0  0  0  0
    0.4758    0.1388   -2.3013 H   0  0  0  0  0  0  0  0  0  0  0  0
   -0.8148   -2.1714   -1.0801 H   0  0  0  0  0  0  0  0  0  0  0  0
   -1.6648    1.9863   -2.7347 H   0  0  0  0  0  0  0  0  0  0  0  0
   -1.2947    2.8843   -0.6805 H   0  0  0  0  0  0  0  0  0  0  0  0
   -0.2721    3.0744    0.7490 H   0  0  0  0  0  0  0  0  0  0  0  0
    0.3860    3.5401   -0.8356 H   0  0  0  0  0  0  0  0  0  0  0  0
  1  2  1  0
  2  3  1  0
  2  4  1  0
  4  5  1  0
  3  6  1  0
  5  6  1  0
  6  7  1  0
  7  8  1  0
  8  9  1  0
  8 10  1  0
 10 11  1  0
 11 12  1  0
 11 13  1  0
 13 14  1  0
 14 15  1  0
 15 16  1  0
 16 17  1  0
 13 18  1  0
 17 18  1  0
 18 19  1  0
 19 20  1  0
 19 21  1  0
 10 22  1  0
 19 22  1  0
 22 23  1  0
 24 25  1  0
 25 26  1  0
 25 27  1  0
 27 28  1  0
 26 29  1  0
 28 29  1  0
 29 30  1  0
 30 31  1  0
 31 32  1  0
 31 33  1  0
 33 34  1  0
 34 35  1  0
 34 36  1  0
 36 37  1  0
 37 38  1  0
 38 39  1  0
 39 40  1  0
 36 41  1  0
 40 41  1  0
 41 42  1  0
 42 33  1  0
 42 43  1  0
 42 44  1  0
 33 45  1  6
 42 45  1  0
 45 46  1  0
  1 47  1  0
  1 48  1  0
  1 49  1  0
  2 50  1  0
  4 51  1  0
  4 52  1  0
  5 53  1  0
  6 54  1  0
  7 55  1  0
  8 56  1  6
  9 57  1  0
 10 58  1  6
 11 59  1  1
 12 60  1  0
 13 61  1  1
 14 62  1  0
 14 63  1  0
 15 64  1  0
 15 65  1  0
 16 66  1  0
 16 67  1  0
 17 68  1  0
 17 69  1  0
 18 70  1  1
 20 71  1  0
 21 72  1  0
 23 73  1  0
 23 74  1  0
 23 75  1  0
 24 76  1  0
 24 77  1  0
 24 78  1  0
 25 79  1  0
 27 80  1  0
 27 81  1  0
 28 82  1  0
 29 83  1  6
 30 84  1  0
 31 85  1  1
 32 86  1  0
 34 87  1  6
 35 88  1  0
 36 89  1  6
 37 90  1  0
 37 91  1  0
 38 92  1  0
 38 93  1  0
 39 94  1  0
 39 95  1  0
 40 96  1  0
 40 97  1  0
 41 98  1  1
 42 99  1  0
 43100  1  0
 44101  1  0
 46102  1  0
 46103  1  0
 46104  1  0
M  END
>  <PDBID>  (1) 
4O1Z

>  <PDB ID>  (1) 
4O1Z

>  <Generic Name>  (1) 
Meloxicam

>  <Brand Name>  (1) 
Act Meloxicam#Apo-meloxicam#Auro-meloxicam#Ava-meloxicam#Comfort Pac With Meloxicam#Dom-meloxicam#Meloxicam#Mobic#Mobicox#Mylan-meloxicam#Nu-meloxicam#PHL-meloxicam#PMS-meloxicam#Ratio-meloxicam#Teva-meloxicam#Trepoxicam-7.5#Vivlodex#Achefree#Acticam#Aflamid#Afloxx#Aglan#Ainecox#Aldoron#Alentum#Algiflex#Aliviodol#Anaxicam#Anposel#Antrend#Aponip#Areloger#Aremil#Armex#Arrox#Arsitec#Artex#Arthrobic#Arthrox#Articam#Artipro#Artriclox#Artrifilm#Artriflam#Artrilom#Artrilox#Artrox#Aspicam#Atiflam#Atrozan#Auroxicam#Axius

>  <DrugBank ID>  (1) 
DB00814

>  <ATC Codes>  (1) 
M01AC56#M01AC06

>  <Ligand ID>  (1) 
MXM

>  <Target Name>  (1) 
Prostaglandin G/H synthase 2

>  <UniProt ID>  (1) 
P35354

>  <PDB ID.1>  (1) 
4O1Z

>  <Seq. Identity>  (1) 
61%

$$$$
