PDB_DB00276_09
     RDKit          3D

138144  0  0  0  0  0  0  0  0999 V2000
    1.5817   -1.7604    2.2667 C   0  0  0  0  0  0  0  0  0  0  0  0
    1.5898   -0.3700    2.0470 O   0  0  0  0  0  0  0  0  0  0  0  0
    1.9991   -0.1013    0.7719 C   0  0  0  0  0  0  0  0  0  0  0  0
    3.2984    0.6905    0.7297 C   0  0  0  0  0  0  0  0  0  0  0  0
    3.9204    0.6579   -0.6268 C   0  0  0  0  0  0  0  0  0  0  0  0
    4.8467   -0.4001   -0.8637 N   0  0  0  0  0  0  0  0  0  0  0  0
    6.1757   -0.5270   -0.0188 S   0  0  0  0  0  0  0  0  0  0  0  0
    6.9895    0.9550    0.1353 C   0  0  0  0  0  0  0  0  0  0  0  0
    7.1850   -1.5863   -0.7459 O   0  0  0  0  0  0  0  0  0  0  0  0
    5.8732   -1.1599    1.4620 O   0  0  0  0  0  0  0  0  0  0  0  0
    2.8297    0.6252   -1.7088 C   0  0  0  0  0  0  0  0  0  0  0  0
    1.6360    1.3370   -1.1686 C   0  0  0  0  0  0  0  0  0  0  0  0
    0.9084    0.6031   -0.0707 C   0  0  0  0  0  0  0  0  0  0  0  0
    0.0996   -0.3849   -0.5825 N   0  0  0  0  0  0  0  0  0  0  0  0
   -1.2826   -0.4271   -0.5922 C   0  0  0  0  0  0  0  0  0  0  0  0
   -2.0312    0.5659   -1.4419 C   0  0  0  0  0  0  0  0  0  0  0  0
   -1.9781    1.9856   -1.1466 C   0  0  0  0  0  0  0  0  0  0  0  0
   -3.2682    2.7490   -1.2294 C   0  0  0  0  0  0  0  0  0  0  0  0
   -4.3180    2.2052   -2.1196 C   0  0  0  0  0  0  0  0  0  0  0  0
   -4.1270    0.8115   -2.5909 C   0  0  0  0  0  0  0  0  0  0  0  0
   -3.4605    0.0302   -1.4824 C   0  0  0  0  0  0  0  0  0  0  0  0
   -4.0640    0.2077   -0.2101 N   0  0  0  0  0  0  0  0  0  0  0  0
   -3.2291    0.1232    0.9221 C   0  0  0  0  0  0  0  0  0  0  0  0
   -4.0293   -0.4712    2.0683 C   0  0  0  0  0  0  0  0  0  0  0  0
   -4.5008   -1.8583    1.7930 C   0  0  0  0  0  0  0  0  0  0  0  0
   -3.4893   -2.6098    0.9868 C   0  0  0  0  0  0  0  0  0  0  0  0
   -2.1060   -2.0704    1.1256 C   0  0  0  0  0  0  0  0  0  0  0  0
   -1.9465   -0.6093    0.7676 C   0  0  0  0  0  0  0  0  0  0  0  0
    1.5817   -1.7604    2.2667 C   0  0  0  0  0  0  0  0  0  0  0  0
    1.5898   -0.3700    2.0470 O   0  0  0  0  0  0  0  0  0  0  0  0
    1.9991   -0.1013    0.7719 C   0  0  0  0  0  0  0  0  0  0  0  0
    3.2984    0.6905    0.7297 C   0  0  0  0  0  0  0  0  0  0  0  0
    3.9204    0.6579   -0.6268 C   0  0  0  0  0  0  0  0  0  0  0  0
    4.8467   -0.4001   -0.8637 N   0  0  0  0  0  0  0  0  0  0  0  0
    6.1757   -0.5270   -0.0188 S   0  0  0  0  0  0  0  0  0  0  0  0
    6.9895    0.9550    0.1353 C   0  0  0  0  0  0  0  0  0  0  0  0
    7.1850   -1.5863   -0.7459 O   0  0  0  0  0  0  0  0  0  0  0  0
    5.8732   -1.1599    1.4620 O   0  0  0  0  0  0  0  0  0  0  0  0
    2.8297    0.6252   -1.7088 C   0  0  0  0  0  0  0  0  0  0  0  0
    1.6360    1.3370   -1.1686 C   0  0  0  0  0  0  0  0  0  0  0  0
    0.9084    0.6031   -0.0707 C   0  0  0  0  0  0  0  0  0  0  0  0
    0.0996   -0.3849   -0.5825 N   0  0  0  0  0  0  0  0  0  0  0  0
   -1.2826   -0.4271   -0.5922 C   0  0  0  0  0  0  0  0  0  0  0  0
   -2.0312    0.5659   -1.4419 C   0  0  0  0  0  0  0  0  0  0  0  0
   -1.9781    1.9856   -1.1466 C   0  0  0  0  0  0  0  0  0  0  0  0
   -3.2682    2.7490   -1.2294 C   0  0  0  0  0  0  0  0  0  0  0  0
   -4.3180    2.2052   -2.1196 C   0  0  0  0  0  0  0  0  0  0  0  0
   -4.1270    0.8115   -2.5909 C   0  0  0  0  0  0  0  0  0  0  0  0
   -3.4605    0.0302   -1.4824 C   0  0  0  0  0  0  0  0  0  0  0  0
   -4.0640    0.2077   -0.2101 N   0  0  0  0  0  0  0  0  0  0  0  0
   -3.2291    0.1232    0.9221 C   0  0  0  0  0  0  0  0  0  0  0  0
   -4.0293   -0.4712    2.0683 C   0  0  0  0  0  0  0  0  0  0  0  0
   -4.5008   -1.8583    1.7930 C   0  0  0  0  0  0  0  0  0  0  0  0
   -3.4893   -2.6098    0.9868 C   0  0  0  0  0  0  0  0  0  0  0  0
   -2.1060   -2.0704    1.1256 C   0  0  0  0  0  0  0  0  0  0  0  0
   -1.9465   -0.6093    0.7676 C   0  0  0  0  0  0  0  0  0  0  0  0
    1.2516   -2.0059    3.2972 H   0  0  0  0  0  0  0  0  0  0  0  0
    0.8215   -2.1520    1.5364 H   0  0  0  0  0  0  0  0  0  0  0  0
    2.5421   -2.2386    1.9913 H   0  0  0  0  0  0  0  0  0  0  0  0
    2.2305   -1.0688    0.2326 H   0  0  0  0  0  0  0  0  0  0  0  0
    3.1033    1.7137    1.1219 H   0  0  0  0  0  0  0  0  0  0  0  0
    3.9814    0.1661    1.4378 H   0  0  0  0  0  0  0  0  0  0  0  0
    4.4329    1.6299   -0.7739 H   0  0  0  0  0  0  0  0  0  0  0  0
    4.3695   -1.2872   -1.1124 H   0  0  0  0  0  0  0  0  0  0  0  0
    6.5941    1.5755    0.9699 H   0  0  0  0  0  0  0  0  0  0  0  0
    6.9618    1.5259   -0.8206 H   0  0  0  0  0  0  0  0  0  0  0  0
    8.0746    0.7731    0.3452 H   0  0  0  0  0  0  0  0  0  0  0  0
    7.2543   -1.5109   -1.7294 H   0  0  0  0  0  0  0  0  0  0  0  0
    6.5276   -1.8620    1.7053 H   0  0  0  0  0  0  0  0  0  0  0  0
    3.1525    1.1481   -2.6307 H   0  0  0  0  0  0  0  0  0  0  0  0
    2.5628   -0.4351   -1.8931 H   0  0  0  0  0  0  0  0  0  0  0  0
    0.8842    1.5698   -1.9581 H   0  0  0  0  0  0  0  0  0  0  0  0
    1.9967    2.3177   -0.7282 H   0  0  0  0  0  0  0  0  0  0  0  0
    0.4623    1.3662    0.5839 H   0  0  0  0  0  0  0  0  0  0  0  0
    0.5032   -0.9850   -1.3397 H   0  0  0  0  0  0  0  0  0  0  0  0
   -1.5591   -1.4114   -1.1158 H   0  0  0  0  0  0  0  0  0  0  0  0
   -1.6650    0.3638   -2.5066 H   0  0  0  0  0  0  0  0  0  0  0  0
   -1.3040    2.4804   -1.9164 H   0  0  0  0  0  0  0  0  0  0  0  0
   -1.5067    2.2628   -0.1881 H   0  0  0  0  0  0  0  0  0  0  0  0
   -3.0479    3.8066   -1.5696 H   0  0  0  0  0  0  0  0  0  0  0  0
   -3.6668    2.9026   -0.2032 H   0  0  0  0  0  0  0  0  0  0  0  0
   -4.4577    2.8369   -3.0481 H   0  0  0  0  0  0  0  0  0  0  0  0
   -5.3205    2.2526   -1.6142 H   0  0  0  0  0  0  0  0  0  0  0  0
   -5.1061    0.3921   -2.8920 H   0  0  0  0  0  0  0  0  0  0  0  0
   -3.4178    0.7973   -3.4629 H   0  0  0  0  0  0  0  0  0  0  0  0
   -3.4063   -1.0616   -1.7170 H   0  0  0  0  0  0  0  0  0  0  0  0
   -4.9800   -0.2868   -0.1258 H   0  0  0  0  0  0  0  0  0  0  0  0
   -3.0174    1.1779    1.2793 H   0  0  0  0  0  0  0  0  0  0  0  0
   -3.5218   -0.3540    3.0365 H   0  0  0  0  0  0  0  0  0  0  0  0
   -4.9531    0.1843    2.1262 H   0  0  0  0  0  0  0  0  0  0  0  0
   -4.6786   -2.3339    2.7961 H   0  0  0  0  0  0  0  0  0  0  0  0
   -5.4981   -1.8622    1.2699 H   0  0  0  0  0  0  0  0  0  0  0  0
   -3.7836   -2.7985   -0.0627 H   0  0  0  0  0  0  0  0  0  0  0  0
   -3.4456   -3.6500    1.4376 H   0  0  0  0  0  0  0  0  0  0  0  0
   -1.7536   -2.3139    2.1495 H   0  0  0  0  0  0  0  0  0  0  0  0
   -1.4568   -2.6327    0.3999 H   0  0  0  0  0  0  0  0  0  0  0  0
   -1.2629   -0.2038    1.5779 H   0  0  0  0  0  0  0  0  0  0  0  0
    1.2516   -2.0059    3.2972 H   0  0  0  0  0  0  0  0  0  0  0  0
    0.8215   -2.1520    1.5364 H   0  0  0  0  0  0  0  0  0  0  0  0
    2.5421   -2.2386    1.9913 H   0  0  0  0  0  0  0  0  0  0  0  0
    2.2305   -1.0688    0.2326 H   0  0  0  0  0  0  0  0  0  0  0  0
    3.1033    1.7137    1.1219 H   0  0  0  0  0  0  0  0  0  0  0  0
    3.9814    0.1661    1.4378 H   0  0  0  0  0  0  0  0  0  0  0  0
    4.4329    1.6299   -0.7739 H   0  0  0  0  0  0  0  0  0  0  0  0
    4.3695   -1.2872   -1.1124 H   0  0  0  0  0  0  0  0  0  0  0  0
    6.5941    1.5755    0.9699 H   0  0  0  0  0  0  0  0  0  0  0  0
    6.9618    1.5259   -0.8206 H   0  0  0  0  0  0  0  0  0  0  0  0
    8.0746    0.7731    0.3452 H   0  0  0  0  0  0  0  0  0  0  0  0
    7.2543   -1.5109   -1.7294 H   0  0  0  0  0  0  0  0  0  0  0  0
    6.5276   -1.8620    1.7053 H   0  0  0  0  0  0  0  0  0  0  0  0
    3.1525    1.1481   -2.6307 H   0  0  0  0  0  0  0  0  0  0  0  0
    2.5628   -0.4351   -1.8931 H   0  0  0  0  0  0  0  0  0  0  0  0
    0.8842    1.5698   -1.9581 H   0  0  0  0  0  0  0  0  0  0  0  0
    1.9967    2.3177   -0.7282 H   0  0  0  0  0  0  0  0  0  0  0  0
    0.4623    1.3662    0.5839 H   0  0  0  0  0  0  0  0  0  0  0  0
    0.5032   -0.9850   -1.3397 H   0  0  0  0  0  0  0  0  0  0  0  0
   -1.5591   -1.4114   -1.1158 H   0  0  0  0  0  0  0  0  0  0  0  0
   -1.6650    0.3638   -2.5066 H   0  0  0  0  0  0  0  0  0  0  0  0
   -1.3040    2.4804   -1.9164 H   0  0  0  0  0  0  0  0  0  0  0  0
   -1.5067    2.2628   -0.1881 H   0  0  0  0  0  0  0  0  0  0  0  0
   -3.0479    3.8066   -1.5696 H   0  0  0  0  0  0  0  0  0  0  0  0
   -3.6668    2.9026   -0.2032 H   0  0  0  0  0  0  0  0  0  0  0  0
   -4.4577    2.8369   -3.0481 H   0  0  0  0  0  0  0  0  0  0  0  0
   -5.3205    2.2526   -1.6142 H   0  0  0  0  0  0  0  0  0  0  0  0
   -5.1061    0.3921   -2.8920 H   0  0  0  0  0  0  0  0  0  0  0  0
   -3.4178    0.7973   -3.4629 H   0  0  0  0  0  0  0  0  0  0  0  0
   -3.4063   -1.0616   -1.7170 H   0  0  0  0  0  0  0  0  0  0  0  0
   -4.9800   -0.2868   -0.1258 H   0  0  0  0  0  0  0  0  0  0  0  0
   -3.0174    1.1779    1.2793 H   0  0  0  0  0  0  0  0  0  0  0  0
   -3.5218   -0.3540    3.0365 H   0  0  0  0  0  0  0  0  0  0  0  0
   -4.9531    0.1843    2.1262 H   0  0  0  0  0  0  0  0  0  0  0  0
   -4.6786   -2.3339    2.7961 H   0  0  0  0  0  0  0  0  0  0  0  0
   -5.4981   -1.8622    1.2699 H   0  0  0  0  0  0  0  0  0  0  0  0
   -3.7836   -2.7985   -0.0627 H   0  0  0  0  0  0  0  0  0  0  0  0
   -3.4456   -3.6500    1.4376 H   0  0  0  0  0  0  0  0  0  0  0  0
   -1.7536   -2.3139    2.1495 H   0  0  0  0  0  0  0  0  0  0  0  0
   -1.4568   -2.6327    0.3999 H   0  0  0  0  0  0  0  0  0  0  0  0
   -1.2629   -0.2038    1.5779 H   0  0  0  0  0  0  0  0  0  0  0  0
  1  2  1  0
  2  3  1  0
  3  4  1  0
  4  5  1  0
  5  6  1  0
  6  7  1  0
  7  8  1  0
  7  9  1  0
  7 10  1  0
  5 11  1  0
 11 12  1  0
  3 13  1  0
 12 13  1  0
 13 14  1  0
 14 15  1  0
 15 16  1  0
 16 17  1  0
 17 18  1  0
 18 19  1  0
 19 20  1  0
 16 21  1  0
 20 21  1  0
 21 22  1  0
 22 23  1  0
 23 24  1  0
 24 25  1  0
 25 26  1  0
 26 27  1  0
 15 28  1  0
 23 28  1  0
 27 28  1  0
 29 30  1  0
 30 31  1  0
 31 32  1  0
 32 33  1  0
 33 34  1  0
 34 35  1  0
 35 36  1  0
 35 37  1  0
 35 38  1  0
 33 39  1  0
 39 40  1  0
 31 41  1  0
 40 41  1  0
 41 42  1  0
 42 43  1  0
 43 44  1  0
 44 45  1  0
 45 46  1  0
 46 47  1  0
 47 48  1  0
 44 49  1  0
 48 49  1  0
 49 50  1  0
 50 51  1  0
 51 52  1  0
 52 53  1  0
 53 54  1  0
 54 55  1  0
 43 56  1  0
 51 56  1  0
 55 56  1  0
  1 57  1  0
  1 58  1  0
  1 59  1  0
  3 60  1  0
  4 61  1  0
  4 62  1  0
  5 63  1  0
  6 64  1  0
  8 65  1  0
  8 66  1  0
  8 67  1  0
  9 68  1  0
 10 69  1  0
 11 70  1  0
 11 71  1  0
 12 72  1  0
 12 73  1  0
 13 74  1  0
 14 75  1  0
 15 76  1  0
 16 77  1  0
 17 78  1  0
 17 79  1  0
 18 80  1  0
 18 81  1  0
 19 82  1  0
 19 83  1  0
 20 84  1  0
 20 85  1  0
 21 86  1  0
 22 87  1  0
 23 88  1  0
 24 89  1  0
 24 90  1  0
 25 91  1  0
 25 92  1  0
 26 93  1  0
 26 94  1  0
 27 95  1  0
 27 96  1  0
 28 97  1  0
 29 98  1  0
 29 99  1  0
 29100  1  0
 31101  1  0
 32102  1  0
 32103  1  0
 33104  1  0
 34105  1  0
 36106  1  0
 36107  1  0
 36108  1  0
 37109  1  0
 38110  1  0
 39111  1  0
 39112  1  0
 40113  1  0
 40114  1  0
 41115  1  0
 42116  1  0
 43117  1  0
 44118  1  0
 45119  1  0
 45120  1  0
 46121  1  0
 46122  1  0
 47123  1  0
 47124  1  0
 48125  1  0
 48126  1  0
 49127  1  0
 50128  1  0
 51129  1  0
 52130  1  0
 52131  1  0
 53132  1  0
 53133  1  0
 54134  1  0
 54135  1  0
 55136  1  0
 55137  1  0
 56138  1  0
M  END
>  <PDBID>  (1) 
4G0U

>  <PDB ID>  (1) 
4G0U

>  <Generic Name>  (1) 
Amsacrine

>  <Brand Name>  (1) 
Amsa Pd Inj 50mg/ml#AMSA P-D#Amekrin#Amsidine#Amsidyl

>  <DrugBank ID>  (1) 
DB00276

>  <ATC Codes>  (1) 
L01XX01

>  <Ligand ID>  (1) 
ASW

>  <Target Name>  (1) 
DNA topoisomerase 2-alpha

>  <UniProt ID>  (1) 
P11388

>  <PDB ID.1>  (1) 
4G0U

>  <Seq. Identity>  (1) 
78%

$$$$
