PDB_DB00278_09
     RDKit          3D

170174  0  0  0  0  0  0  0  0999 V2000
    1.4682   -0.2922   -0.7327 S   0  0  0  0  0  0  0  0  0  0  0  0
    1.8117   -0.9457   -2.1656 O   0  0  0  0  0  0  0  0  0  0  0  0
    1.5111   -1.4371    0.4176 O   0  0  0  0  0  0  0  0  0  0  0  0
    5.2498   -2.0145    0.3047 C   0  0  0  0  0  0  0  0  0  0  0  0
    6.4552   -1.2040    0.7524 C   0  0  2  0  0  0  0  0  0  0  0  0
    6.5958   -0.0409   -0.2002 C   0  0  0  0  0  0  0  0  0  0  0  0
    5.3109    0.7724   -0.1452 C   0  0  0  0  0  0  0  0  0  0  0  0
    5.4328    1.8448   -1.2046 C   0  0  0  0  0  0  0  0  0  0  0  0
    4.1697    2.6343   -1.3675 C   0  0  0  0  0  0  0  0  0  0  0  0
    2.9366    1.7855   -1.4337 C   0  0  0  0  0  0  0  0  0  0  0  0
    2.8740    0.7376   -0.3506 C   0  0  0  0  0  0  0  0  0  0  0  0
    4.1170   -0.1018   -0.4176 C   0  0  0  0  0  0  0  0  0  0  0  0
    7.6837   -2.0523    0.7560 C   0  0  0  0  0  0  0  0  0  0  0  0
    4.0797   -1.1978    0.5381 N   0  0  0  0  0  0  0  0  0  0  0  0
    0.1540    0.6309   -0.7162 N   0  0  0  0  0  0  0  0  0  0  0  0
   -0.9965    0.1510    0.0385 C   0  0  2  0  0  0  0  0  0  0  0  0
   -1.6483   -0.9912   -0.6386 C   0  0  0  0  0  0  0  0  0  0  0  0
   -0.6476   -2.0045   -0.7729 O   0  0  0  0  0  0  0  0  0  0  0  0
   -1.9596    1.3639   -0.0180 C   0  0  0  0  0  0  0  0  0  0  0  0
   -1.2724    2.5519    0.5899 C   0  0  0  0  0  0  0  0  0  0  0  0
   -2.0674    3.8103    0.6165 C   0  0  0  0  0  0  0  0  0  0  0  0
   -3.2859    3.7402    1.4041 N   0  0  0  0  0  0  0  0  0  0  0  0
   -3.9253    5.0549    1.4389 C   0  0  0  0  0  0  0  0  0  0  0  0
   -2.9735    6.0525    1.9451 N   0  0  0  0  0  0  0  0  0  0  0  0
   -5.0063    5.0280    2.4058 N   0  0  0  0  0  0  0  0  0  0  0  0
   -2.7446   -1.6089   -0.0725 N   0  0  0  0  0  0  0  0  0  0  0  0
   -3.7908   -1.9065   -0.9957 C   0  0  2  0  0  0  0  0  0  0  0  0
   -4.8872   -2.7460   -0.3407 C   0  0  0  0  0  0  0  0  0  0  0  0
   -4.2175   -3.6096    0.7012 C   0  0  1  0  0  0  0  0  0  0  0  0
   -3.6878   -2.7143    1.7859 C   0  0  0  0  0  0  0  0  0  0  0  0
   -3.2263   -1.3532    1.2099 C   0  0  0  0  0  0  0  0  0  0  0  0
   -3.3424   -2.6592   -2.2340 C   0  0  0  0  0  0  0  0  0  0  0  0
   -4.5205   -2.8430   -3.0030 O   0  0  0  0  0  0  0  0  0  0  0  0
   -2.8593   -3.9185   -1.9726 O   0  0  0  0  0  0  0  0  0  0  0  0
   -5.2616   -4.5813    1.1989 C   0  0  0  0  0  0  0  0  0  0  0  0
    1.4682   -0.2922   -0.7327 S   0  0  0  0  0  0  0  0  0  0  0  0
    1.8117   -0.9457   -2.1656 O   0  0  0  0  0  0  0  0  0  0  0  0
    1.5111   -1.4371    0.4176 O   0  0  0  0  0  0  0  0  0  0  0  0
    5.2498   -2.0145    0.3047 C   0  0  0  0  0  0  0  0  0  0  0  0
    6.4552   -1.2040    0.7524 C   0  0  2  0  0  0  0  0  0  0  0  0
    6.5958   -0.0409   -0.2002 C   0  0  0  0  0  0  0  0  0  0  0  0
    5.3109    0.7724   -0.1452 C   0  0  0  0  0  0  0  0  0  0  0  0
    5.4328    1.8448   -1.2046 C   0  0  0  0  0  0  0  0  0  0  0  0
    4.1697    2.6343   -1.3675 C   0  0  0  0  0  0  0  0  0  0  0  0
    2.9366    1.7855   -1.4337 C   0  0  0  0  0  0  0  0  0  0  0  0
    2.8740    0.7376   -0.3506 C   0  0  0  0  0  0  0  0  0  0  0  0
    4.1170   -0.1018   -0.4176 C   0  0  0  0  0  0  0  0  0  0  0  0
    7.6837   -2.0523    0.7560 C   0  0  0  0  0  0  0  0  0  0  0  0
    4.0797   -1.1978    0.5381 N   0  0  0  0  0  0  0  0  0  0  0  0
    0.1540    0.6309   -0.7162 N   0  0  0  0  0  0  0  0  0  0  0  0
   -0.9965    0.1510    0.0385 C   0  0  2  0  0  0  0  0  0  0  0  0
   -1.6483   -0.9912   -0.6386 C   0  0  0  0  0  0  0  0  0  0  0  0
   -0.6476   -2.0045   -0.7729 O   0  0  0  0  0  0  0  0  0  0  0  0
   -1.9596    1.3639   -0.0180 C   0  0  0  0  0  0  0  0  0  0  0  0
   -1.2724    2.5519    0.5899 C   0  0  0  0  0  0  0  0  0  0  0  0
   -2.0674    3.8103    0.6165 C   0  0  0  0  0  0  0  0  0  0  0  0
   -3.2859    3.7402    1.4041 N   0  0  0  0  0  0  0  0  0  0  0  0
   -3.9253    5.0549    1.4389 C   0  0  0  0  0  0  0  0  0  0  0  0
   -2.9735    6.0525    1.9451 N   0  0  0  0  0  0  0  0  0  0  0  0
   -5.0063    5.0280    2.4058 N   0  0  0  0  0  0  0  0  0  0  0  0
   -2.7446   -1.6089   -0.0725 N   0  0  0  0  0  0  0  0  0  0  0  0
   -3.7908   -1.9065   -0.9957 C   0  0  2  0  0  0  0  0  0  0  0  0
   -4.8872   -2.7460   -0.3407 C   0  0  0  0  0  0  0  0  0  0  0  0
   -4.2175   -3.6096    0.7012 C   0  0  1  0  0  0  0  0  0  0  0  0
   -3.6878   -2.7143    1.7859 C   0  0  0  0  0  0  0  0  0  0  0  0
   -3.2263   -1.3532    1.2099 C   0  0  0  0  0  0  0  0  0  0  0  0
   -3.3424   -2.6592   -2.2340 C   0  0  0  0  0  0  0  0  0  0  0  0
   -4.5205   -2.8430   -3.0030 O   0  0  0  0  0  0  0  0  0  0  0  0
   -2.8593   -3.9185   -1.9726 O   0  0  0  0  0  0  0  0  0  0  0  0
   -5.2616   -4.5813    1.1989 C   0  0  0  0  0  0  0  0  0  0  0  0
    1.2669   -0.6615   -2.9387 H   0  0  0  0  0  0  0  0  0  0  0  0
    1.3846   -1.1215    1.3434 H   0  0  0  0  0  0  0  0  0  0  0  0
    5.2326   -2.9588    0.8968 H   0  0  0  0  0  0  0  0  0  0  0  0
    5.3686   -2.2974   -0.7582 H   0  0  0  0  0  0  0  0  0  0  0  0
    6.2552   -0.7696    1.7531 H   0  0  0  0  0  0  0  0  0  0  0  0
    6.8132   -0.3956   -1.2393 H   0  0  0  0  0  0  0  0  0  0  0  0
    7.4024    0.6478    0.1159 H   0  0  0  0  0  0  0  0  0  0  0  0
    5.2244    1.2079    0.8565 H   0  0  0  0  0  0  0  0  0  0  0  0
    6.2168    2.5624   -0.8366 H   0  0  0  0  0  0  0  0  0  0  0  0
    5.8320    1.4267   -2.1549 H   0  0  0  0  0  0  0  0  0  0  0  0
    4.2374    3.1426   -2.3742 H   0  0  0  0  0  0  0  0  0  0  0  0
    4.0687    3.4429   -0.6253 H   0  0  0  0  0  0  0  0  0  0  0  0
    2.8959    1.2596   -2.3988 H   0  0  0  0  0  0  0  0  0  0  0  0
    2.0666    2.4768   -1.3705 H   0  0  0  0  0  0  0  0  0  0  0  0
    2.7045    1.2095    0.6525 H   0  0  0  0  0  0  0  0  0  0  0  0
    4.1937   -0.5006   -1.4428 H   0  0  0  0  0  0  0  0  0  0  0  0
    7.7655   -2.5782   -0.2204 H   0  0  0  0  0  0  0  0  0  0  0  0
    8.5554   -1.3544    0.8724 H   0  0  0  0  0  0  0  0  0  0  0  0
    7.6391   -2.7380    1.6219 H   0  0  0  0  0  0  0  0  0  0  0  0
    4.1940   -0.7820    1.4940 H   0  0  0  0  0  0  0  0  0  0  0  0
   -0.0954    1.0537   -1.6180 H   0  0  0  0  0  0  0  0  0  0  0  0
   -0.6602   -0.0331    1.0576 H   0  0  0  0  0  0  0  0  0  0  0  0
   -1.8927   -0.7208   -1.7128 H   0  0  0  0  0  0  0  0  0  0  0  0
   -0.5448   -2.2641   -1.7062 H   0  0  0  0  0  0  0  0  0  0  0  0
   -2.9039    1.1086    0.4497 H   0  0  0  0  0  0  0  0  0  0  0  0
   -2.1476    1.5995   -1.0873 H   0  0  0  0  0  0  0  0  0  0  0  0
   -0.2520    2.6952    0.1557 H   0  0  0  0  0  0  0  0  0  0  0  0
   -1.0877    2.2715    1.6694 H   0  0  0  0  0  0  0  0  0  0  0  0
   -1.4434    4.6944    0.9017 H   0  0  0  0  0  0  0  0  0  0  0  0
   -2.4004    4.0023   -0.4374 H   0  0  0  0  0  0  0  0  0  0  0  0
   -3.9621    3.0869    0.9808 H   0  0  0  0  0  0  0  0  0  0  0  0
   -4.2851    5.3971    0.4607 H   0  0  0  0  0  0  0  0  0  0  0  0
   -3.0959    6.2358    2.9485 H   0  0  0  0  0  0  0  0  0  0  0  0
   -2.9702    6.8702    1.3313 H   0  0  0  0  0  0  0  0  0  0  0  0
   -5.9404    5.1694    1.9970 H   0  0  0  0  0  0  0  0  0  0  0  0
   -4.9173    4.2440    3.0851 H   0  0  0  0  0  0  0  0  0  0  0  0
   -4.2838   -0.9717   -1.3306 H   0  0  0  0  0  0  0  0  0  0  0  0
   -5.3551   -3.3386   -1.1562 H   0  0  0  0  0  0  0  0  0  0  0  0
   -5.6760   -2.1565    0.1229 H   0  0  0  0  0  0  0  0  0  0  0  0
   -3.4100   -4.2419    0.2565 H   0  0  0  0  0  0  0  0  0  0  0  0
   -4.4348   -2.5933    2.5757 H   0  0  0  0  0  0  0  0  0  0  0  0
   -2.7747   -3.1848    2.2357 H   0  0  0  0  0  0  0  0  0  0  0  0
   -4.1444   -0.6994    1.2851 H   0  0  0  0  0  0  0  0  0  0  0  0
   -2.5075   -0.9573    1.9481 H   0  0  0  0  0  0  0  0  0  0  0  0
   -2.6859   -2.0706   -2.9000 H   0  0  0  0  0  0  0  0  0  0  0  0
   -4.3885   -3.6628   -3.5695 H   0  0  0  0  0  0  0  0  0  0  0  0
   -1.9547   -4.1146   -2.2579 H   0  0  0  0  0  0  0  0  0  0  0  0
   -5.8353   -4.8954    0.2752 H   0  0  0  0  0  0  0  0  0  0  0  0
   -5.9892   -4.1528    1.8918 H   0  0  0  0  0  0  0  0  0  0  0  0
   -4.8077   -5.5249    1.5790 H   0  0  0  0  0  0  0  0  0  0  0  0
    1.2669   -0.6615   -2.9387 H   0  0  0  0  0  0  0  0  0  0  0  0
    1.3846   -1.1215    1.3434 H   0  0  0  0  0  0  0  0  0  0  0  0
    5.2326   -2.9588    0.8968 H   0  0  0  0  0  0  0  0  0  0  0  0
    5.3686   -2.2974   -0.7582 H   0  0  0  0  0  0  0  0  0  0  0  0
    6.2552   -0.7696    1.7531 H   0  0  0  0  0  0  0  0  0  0  0  0
    6.8132   -0.3956   -1.2393 H   0  0  0  0  0  0  0  0  0  0  0  0
    7.4024    0.6478    0.1159 H   0  0  0  0  0  0  0  0  0  0  0  0
    5.2244    1.2079    0.8565 H   0  0  0  0  0  0  0  0  0  0  0  0
    6.2168    2.5624   -0.8366 H   0  0  0  0  0  0  0  0  0  0  0  0
    5.8320    1.4267   -2.1549 H   0  0  0  0  0  0  0  0  0  0  0  0
    4.2374    3.1426   -2.3742 H   0  0  0  0  0  0  0  0  0  0  0  0
    4.0687    3.4429   -0.6253 H   0  0  0  0  0  0  0  0  0  0  0  0
    2.8959    1.2596   -2.3988 H   0  0  0  0  0  0  0  0  0  0  0  0
    2.0666    2.4768   -1.3705 H   0  0  0  0  0  0  0  0  0  0  0  0
    2.7045    1.2095    0.6525 H   0  0  0  0  0  0  0  0  0  0  0  0
    4.1937   -0.5006   -1.4428 H   0  0  0  0  0  0  0  0  0  0  0  0
    7.7655   -2.5782   -0.2204 H   0  0  0  0  0  0  0  0  0  0  0  0
    8.5554   -1.3544    0.8724 H   0  0  0  0  0  0  0  0  0  0  0  0
    7.6391   -2.7380    1.6219 H   0  0  0  0  0  0  0  0  0  0  0  0
    4.1940   -0.7820    1.4940 H   0  0  0  0  0  0  0  0  0  0  0  0
   -0.0954    1.0537   -1.6180 H   0  0  0  0  0  0  0  0  0  0  0  0
   -0.6602   -0.0331    1.0576 H   0  0  0  0  0  0  0  0  0  0  0  0
   -1.8927   -0.7208   -1.7128 H   0  0  0  0  0  0  0  0  0  0  0  0
   -0.5448   -2.2641   -1.7062 H   0  0  0  0  0  0  0  0  0  0  0  0
   -2.9039    1.1086    0.4497 H   0  0  0  0  0  0  0  0  0  0  0  0
   -2.1476    1.5995   -1.0873 H   0  0  0  0  0  0  0  0  0  0  0  0
   -0.2520    2.6952    0.1557 H   0  0  0  0  0  0  0  0  0  0  0  0
   -1.0877    2.2715    1.6694 H   0  0  0  0  0  0  0  0  0  0  0  0
   -1.4434    4.6944    0.9017 H   0  0  0  0  0  0  0  0  0  0  0  0
   -2.4004    4.0023   -0.4374 H   0  0  0  0  0  0  0  0  0  0  0  0
   -3.9621    3.0869    0.9808 H   0  0  0  0  0  0  0  0  0  0  0  0
   -4.2851    5.3971    0.4607 H   0  0  0  0  0  0  0  0  0  0  0  0
   -3.0959    6.2358    2.9485 H   0  0  0  0  0  0  0  0  0  0  0  0
   -2.9702    6.8702    1.3313 H   0  0  0  0  0  0  0  0  0  0  0  0
   -5.9404    5.1694    1.9970 H   0  0  0  0  0  0  0  0  0  0  0  0
   -4.9173    4.2440    3.0851 H   0  0  0  0  0  0  0  0  0  0  0  0
   -4.2838   -0.9717   -1.3306 H   0  0  0  0  0  0  0  0  0  0  0  0
   -5.3551   -3.3386   -1.1562 H   0  0  0  0  0  0  0  0  0  0  0  0
   -5.6760   -2.1565    0.1229 H   0  0  0  0  0  0  0  0  0  0  0  0
   -3.4100   -4.2419    0.2565 H   0  0  0  0  0  0  0  0  0  0  0  0
   -4.4348   -2.5933    2.5757 H   0  0  0  0  0  0  0  0  0  0  0  0
   -2.7747   -3.1848    2.2357 H   0  0  0  0  0  0  0  0  0  0  0  0
   -4.1444   -0.6994    1.2851 H   0  0  0  0  0  0  0  0  0  0  0  0
   -2.5075   -0.9573    1.9481 H   0  0  0  0  0  0  0  0  0  0  0  0
   -2.6859   -2.0706   -2.9000 H   0  0  0  0  0  0  0  0  0  0  0  0
   -4.3885   -3.6628   -3.5695 H   0  0  0  0  0  0  0  0  0  0  0  0
   -1.9547   -4.1146   -2.2579 H   0  0  0  0  0  0  0  0  0  0  0  0
   -5.8353   -4.8954    0.2752 H   0  0  0  0  0  0  0  0  0  0  0  0
   -5.9892   -4.1528    1.8918 H   0  0  0  0  0  0  0  0  0  0  0  0
   -4.8077   -5.5249    1.5790 H   0  0  0  0  0  0  0  0  0  0  0  0
  1  2  1  0
  1  3  1  0
  4  5  1  0
  5  6  1  0
  6  7  1  0
  7  8  1  0
  8  9  1  0
  9 10  1  0
  1 11  1  0
 10 11  1  0
  7 12  1  0
 11 12  1  0
  5 13  1  0
  4 14  1  0
 12 14  1  0
  1 15  1  0
 15 16  1  0
 16 17  1  0
 17 18  1  0
 16 19  1  0
 19 20  1  0
 20 21  1  0
 21 22  1  0
 22 23  1  0
 23 24  1  0
 23 25  1  0
 17 26  1  0
 26 27  1  0
 27 28  1  0
 28 29  1  0
 29 30  1  0
 26 31  1  0
 30 31  1  0
 27 32  1  0
 32 33  1  0
 32 34  1  0
 29 35  1  0
 36 37  1  0
 36 38  1  0
 39 40  1  0
 40 41  1  0
 41 42  1  0
 42 43  1  0
 43 44  1  0
 44 45  1  0
 36 46  1  0
 45 46  1  0
 42 47  1  0
 46 47  1  0
 40 48  1  0
 39 49  1  0
 47 49  1  0
 36 50  1  0
 50 51  1  0
 51 52  1  0
 52 53  1  0
 51 54  1  0
 54 55  1  0
 55 56  1  0
 56 57  1  0
 57 58  1  0
 58 59  1  0
 58 60  1  0
 52 61  1  0
 61 62  1  0
 62 63  1  0
 63 64  1  0
 64 65  1  0
 61 66  1  0
 65 66  1  0
 62 67  1  0
 67 68  1  0
 67 69  1  0
 64 70  1  0
  2 71  1  0
  3 72  1  0
  4 73  1  0
  4 74  1  0
  5 75  1  1
  6 76  1  0
  6 77  1  0
  7 78  1  0
  8 79  1  0
  8 80  1  0
  9 81  1  0
  9 82  1  0
 10 83  1  0
 10 84  1  0
 11 85  1  0
 12 86  1  0
 13 87  1  0
 13 88  1  0
 13 89  1  0
 14 90  1  0
 15 91  1  0
 16 92  1  1
 17 93  1  0
 18 94  1  0
 19 95  1  0
 19 96  1  0
 20 97  1  0
 20 98  1  0
 21 99  1  0
 21100  1  0
 22101  1  0
 23102  1  0
 24103  1  0
 24104  1  0
 25105  1  0
 25106  1  0
 27107  1  6
 28108  1  0
 28109  1  0
 29110  1  6
 30111  1  0
 30112  1  0
 31113  1  0
 31114  1  0
 32115  1  0
 33116  1  0
 34117  1  0
 35118  1  0
 35119  1  0
 35120  1  0
 37121  1  0
 38122  1  0
 39123  1  0
 39124  1  0
 40125  1  1
 41126  1  0
 41127  1  0
 42128  1  0
 43129  1  0
 43130  1  0
 44131  1  0
 44132  1  0
 45133  1  0
 45134  1  0
 46135  1  0
 47136  1  0
 48137  1  0
 48138  1  0
 48139  1  0
 49140  1  0
 50141  1  0
 51142  1  1
 52143  1  0
 53144  1  0
 54145  1  0
 54146  1  0
 55147  1  0
 55148  1  0
 56149  1  0
 56150  1  0
 57151  1  0
 58152  1  0
 59153  1  0
 59154  1  0
 60155  1  0
 60156  1  0
 62157  1  6
 63158  1  0
 63159  1  0
 64160  1  6
 65161  1  0
 65162  1  0
 66163  1  0
 66164  1  0
 67165  1  0
 68166  1  0
 69167  1  0
 70168  1  0
 70169  1  0
 70170  1  0
M  END
>  <PDBID>  (1) 
4HFP

>  <PDB ID>  (1) 
4HFP

>  <Generic Name>  (1) 
Argatroban

>  <Brand Name>  (1) 
Argatroban

>  <DrugBank ID>  (1) 
DB00278

>  <ATC Codes>  (1) 
B01AE03

>  <Ligand ID>  (1) 
15U,MIT

>  <Target Name>  (1) 
Prothrombin

>  <UniProt ID>  (1) 
P00734

>  <PDB ID.1>  (1) 
4HFP

>  <Seq. Identity>  (1) 
100%

$$$$
