PDB_DB01409_08
     RDKit          3D

116124  0  0  0  0  0  0  0  0999 V2000
   -0.8331   -0.5571    1.0845 C   0  0  2  0  0  0  0  0  0  0  0  0
   -1.3159   -0.5252    2.3899 O   0  0  0  0  0  0  0  0  0  0  0  0
   -2.4304    1.2235    0.6551 C   0  0  0  0  0  0  0  0  0  0  0  0
   -3.1157   -1.1109    0.4682 C   0  0  0  0  0  0  0  0  0  0  0  0
   -3.5909    1.7675   -0.1418 C   0  0  0  0  0  0  0  0  0  0  0  0
   -3.5851    3.2616    0.0107 C   0  0  0  0  0  0  0  0  0  0  0  0
   -2.2429    3.7552   -0.4757 C   0  0  0  0  0  0  0  0  0  0  0  0
   -2.6914   -2.5507    0.1552 C   0  0  0  0  0  0  0  0  0  0  0  0
   -3.9737   -3.3384    0.0300 C   0  0  0  0  0  0  0  0  0  0  0  0
   -4.7480   -2.7070   -1.1242 C   0  0  0  0  0  0  0  0  0  0  0  0
    4.3005    2.4300   -0.0406 O   0  0  0  0  0  0  0  0  0  0  0  0
    0.2804    0.2219    0.8853 O   0  0  0  0  0  0  0  0  0  0  0  0
   -1.6621   -0.1355   -1.1476 O   0  0  0  0  0  0  0  0  0  0  0  0
   -1.1447    2.4684    0.2376 S   0  0  0  0  0  0  0  0  0  0  0  0
   -4.4710   -0.9272   -0.7583 S   0  0  0  0  0  0  0  0  0  0  0  0
    5.4595    0.3125   -0.5435 C   0  0  0  0  0  0  0  0  0  0  0  0
    3.7037    0.2985    1.1077 C   0  0  2  0  0  0  0  0  0  0  0  0
    2.4955   -0.4765    1.4840 C   0  0  0  0  0  0  0  0  0  0  0  0
    1.4069   -0.5118    0.4701 C   0  0  2  0  0  0  0  0  0  0  0  0
    1.7912   -0.1154   -0.9068 C   0  0  0  0  0  0  0  0  0  0  0  0
    3.1587    0.4473   -1.0625 C   0  0  1  0  0  0  0  0  0  0  0  0
    3.1602    1.8820   -0.5849 C   0  0  1  0  0  0  0  0  0  0  0  0
    3.4882    1.7585    0.9039 C   0  0  2  0  0  0  0  0  0  0  0  0
    4.1411   -1.6026   -0.2674 C   0  0  0  0  0  0  0  0  0  0  0  0
   -2.0048   -0.1471    0.1893 C   0  0  0  0  0  0  0  0  0  0  0  0
    4.1493   -0.1681   -0.2004 N   0  0  0  0  0  0  0  0  0  0  0  0
   -0.7791   -1.0804    0.4323 C   0  0  1  0  0  0  0  0  0  0  0  0
   -0.6381   -2.5488    0.5285 O   0  0  0  0  0  0  0  0  0  0  0  0
   -2.5083    0.4892   -0.3672 C   0  0  0  0  0  0  0  0  0  0  0  0
   -3.0504   -1.8425    0.3324 C   0  0  0  0  0  0  0  0  0  0  0  0
   -1.6347    1.5050   -0.9888 C   0  0  0  0  0  0  0  0  0  0  0  0
   -2.4714    2.6406   -1.5299 C   0  0  0  0  0  0  0  0  0  0  0  0
   -3.4930    2.0047   -2.4702 C   0  0  0  0  0  0  0  0  0  0  0  0
   -3.2705   -1.5383    1.7885 C   0  0  0  0  0  0  0  0  0  0  0  0
   -4.5549   -2.2618    2.1505 C   0  0  0  0  0  0  0  0  0  0  0  0
   -5.6468   -1.6563    1.2686 C   0  0  0  0  0  0  0  0  0  0  0  0
    4.7696    0.3378   -2.0674 O   0  0  0  0  0  0  0  0  0  0  0  0
    0.3464   -0.7912   -0.2185 O   0  0  0  0  0  0  0  0  0  0  0  0
   -1.9084   -1.4612   -1.6347 O   0  0  0  0  0  0  0  0  0  0  0  0
   -4.0637    0.6670   -1.3429 S   0  0  0  0  0  0  0  0  0  0  0  0
   -4.7326   -1.5862   -0.3264 S   0  0  0  0  0  0  0  0  0  0  0  0
    3.8220    0.9549    1.8145 C   0  0  0  0  0  0  0  0  0  0  0  0
    3.1511    1.3994   -0.4516 C   0  0  2  0  0  0  0  0  0  0  0  0
    1.7007    1.0843   -0.1913 C   0  0  0  0  0  0  0  0  0  0  0  0
    1.4223   -0.2527    0.4012 C   0  0  2  0  0  0  0  0  0  0  0  0
    2.6132   -1.1540    0.5362 C   0  0  0  0  0  0  0  0  0  0  0  0
    3.9016   -0.6235   -0.0124 C   0  0  1  0  0  0  0  0  0  0  0  0
    3.8964   -0.5628   -1.5133 C   0  0  1  0  0  0  0  0  0  0  0  0
    3.5276    0.8616   -1.8168 C   0  0  2  0  0  0  0  0  0  0  0  0
    5.4036    1.2439    0.1213 C   0  0  0  0  0  0  0  0  0  0  0  0
   -2.0479   -0.9056   -0.3304 C   0  0  0  0  0  0  0  0  0  0  0  0
    4.0649    0.7388    0.4272 N   0  0  0  0  0  0  0  0  0  0  0  0
   -0.5708   -1.6118    0.8635 H   0  0  0  0  0  0  0  0  0  0  0  0
   -1.0682    0.3027    2.8730 H   0  0  0  0  0  0  0  0  0  0  0  0
   -2.5756    1.2910    1.7315 H   0  0  0  0  0  0  0  0  0  0  0  0
   -3.5107   -1.0421    1.4860 H   0  0  0  0  0  0  0  0  0  0  0  0
   -4.5683    1.4126    0.2413 H   0  0  0  0  0  0  0  0  0  0  0  0
   -3.4912    1.4792   -1.1972 H   0  0  0  0  0  0  0  0  0  0  0  0
   -4.3470    3.6674   -0.6739 H   0  0  0  0  0  0  0  0  0  0  0  0
   -3.7756    3.5449    1.0466 H   0  0  0  0  0  0  0  0  0  0  0  0
   -2.0014    4.7099    0.0355 H   0  0  0  0  0  0  0  0  0  0  0  0
   -2.1609    3.7960   -1.5589 H   0  0  0  0  0  0  0  0  0  0  0  0
   -2.1097   -2.9873    0.9637 H   0  0  0  0  0  0  0  0  0  0  0  0
   -2.1873   -2.5665   -0.8126 H   0  0  0  0  0  0  0  0  0  0  0  0
   -3.7050   -4.3768   -0.1631 H   0  0  0  0  0  0  0  0  0  0  0  0
   -4.5760   -3.1840    0.9476 H   0  0  0  0  0  0  0  0  0  0  0  0
   -5.8256   -2.8659   -1.0514 H   0  0  0  0  0  0  0  0  0  0  0  0
   -4.3023   -2.9350   -2.1006 H   0  0  0  0  0  0  0  0  0  0  0  0
   -0.9995   -0.8554   -1.3429 H   0  0  0  0  0  0  0  0  0  0  0  0
    5.9667    0.8268    0.3054 H   0  0  0  0  0  0  0  0  0  0  0  0
    6.1473   -0.5448   -0.8034 H   0  0  0  0  0  0  0  0  0  0  0  0
    5.4600    0.9474   -1.4684 H   0  0  0  0  0  0  0  0  0  0  0  0
    4.4996    0.0923    1.8482 H   0  0  0  0  0  0  0  0  0  0  0  0
    2.8256   -1.4920    1.8109 H   0  0  0  0  0  0  0  0  0  0  0  0
    2.0691   -0.0059    2.4169 H   0  0  0  0  0  0  0  0  0  0  0  0
    1.0473   -1.5828    0.4193 H   0  0  0  0  0  0  0  0  0  0  0  0
    1.6937   -0.9584   -1.6465 H   0  0  0  0  0  0  0  0  0  0  0  0
    1.0697    0.6609   -1.2984 H   0  0  0  0  0  0  0  0  0  0  0  0
    3.4648    0.4075   -2.1125 H   0  0  0  0  0  0  0  0  0  0  0  0
    2.3092    2.5125   -0.8444 H   0  0  0  0  0  0  0  0  0  0  0  0
    2.9205    2.3651    1.6164 H   0  0  0  0  0  0  0  0  0  0  0  0
    4.9266   -1.9163   -1.0036 H   0  0  0  0  0  0  0  0  0  0  0  0
    3.1766   -2.0336   -0.5945 H   0  0  0  0  0  0  0  0  0  0  0  0
    4.4731   -2.0105    0.7122 H   0  0  0  0  0  0  0  0  0  0  0  0
   -0.9304   -0.8412    1.4704 H   0  0  0  0  0  0  0  0  0  0  0  0
    0.0496   -2.6768    1.2030 H   0  0  0  0  0  0  0  0  0  0  0  0
   -2.8138    0.8362    0.6625 H   0  0  0  0  0  0  0  0  0  0  0  0
   -2.6852   -2.8576    0.1824 H   0  0  0  0  0  0  0  0  0  0  0  0
   -1.0157    1.9694   -0.1764 H   0  0  0  0  0  0  0  0  0  0  0  0
   -1.0598    1.1207   -1.8306 H   0  0  0  0  0  0  0  0  0  0  0  0
   -3.0406    3.0581   -0.6813 H   0  0  0  0  0  0  0  0  0  0  0  0
   -1.8882    3.3933   -2.0541 H   0  0  0  0  0  0  0  0  0  0  0  0
   -4.3044    2.7083   -2.7013 H   0  0  0  0  0  0  0  0  0  0  0  0
   -2.9959    1.5458   -3.3235 H   0  0  0  0  0  0  0  0  0  0  0  0
   -2.4864   -2.0075    2.4187 H   0  0  0  0  0  0  0  0  0  0  0  0
   -3.2918   -0.4860    2.0446 H   0  0  0  0  0  0  0  0  0  0  0  0
   -4.7505   -2.0899    3.2116 H   0  0  0  0  0  0  0  0  0  0  0  0
   -4.4255   -3.3164    1.8728 H   0  0  0  0  0  0  0  0  0  0  0  0
   -5.9448   -0.6581    1.5951 H   0  0  0  0  0  0  0  0  0  0  0  0
   -6.4576   -2.3962    1.2121 H   0  0  0  0  0  0  0  0  0  0  0  0
   -1.6781   -0.7679   -2.2899 H   0  0  0  0  0  0  0  0  0  0  0  0
    3.9568    0.0320    2.3940 H   0  0  0  0  0  0  0  0  0  0  0  0
    4.5852    1.6776    2.2232 H   0  0  0  0  0  0  0  0  0  0  0  0
    2.8408    1.4077    2.0528 H   0  0  0  0  0  0  0  0  0  0  0  0
    3.2713    2.4853   -0.4216 H   0  0  0  0  0  0  0  0  0  0  0  0
    1.2144    1.2196   -1.2054 H   0  0  0  0  0  0  0  0  0  0  0  0
    1.2847    1.9293    0.4161 H   0  0  0  0  0  0  0  0  0  0  0  0
    1.0774   -0.0813    1.4672 H   0  0  0  0  0  0  0  0  0  0  0  0
    2.7985   -1.4282    1.5962 H   0  0  0  0  0  0  0  0  0  0  0  0
    2.4612   -2.1344    0.0378 H   0  0  0  0  0  0  0  0  0  0  0  0
    4.7153   -1.2619    0.3886 H   0  0  0  0  0  0  0  0  0  0  0  0
    3.4427   -1.3768   -2.1080 H   0  0  0  0  0  0  0  0  0  0  0  0
    2.9054    1.0892   -2.6930 H   0  0  0  0  0  0  0  0  0  0  0  0
    5.3772    2.0649   -0.6251 H   0  0  0  0  0  0  0  0  0  0  0  0
    5.8661    1.7277    1.0335 H   0  0  0  0  0  0  0  0  0  0  0  0
    6.1026    0.4533   -0.1625 H   0  0  0  0  0  0  0  0  0  0  0  0
  1  2  1  0
  3  5  1  0
  5  6  1  0
  6  7  1  0
  4  8  1  0
  8  9  1  0
  9 10  1  0
  1 12  1  0
  3 14  1  0
  7 14  1  0
  4 15  1  0
 10 15  1  0
 17 18  1  0
 12 19  1  0
 18 19  1  0
 19 20  1  0
 20 21  1  0
 11 22  1  0
 21 22  1  0
 11 23  1  0
 17 23  1  0
 22 23  1  0
  1 25  1  0
  3 25  1  0
  4 25  1  0
 25 13  1  0
 26 16  1  0
 17 26  1  0
 21 26  1  0
 24 26  1  0
 27 28  1  0
 29 31  1  0
 31 32  1  0
 32 33  1  0
 30 34  1  0
 34 35  1  0
 35 36  1  0
 27 38  1  0
 29 40  1  0
 33 40  1  0
 30 41  1  0
 36 41  1  0
 43 44  1  0
 38 45  1  0
 44 45  1  0
 45 46  1  0
 46 47  1  0
 37 48  1  0
 47 48  1  0
 37 49  1  0
 43 49  1  0
 48 49  1  0
 27 51  1  0
 29 51  1  0
 30 51  1  0
 51 39  1  0
 52 42  1  0
 43 52  1  0
 47 52  1  0
 50 52  1  0
  1 53  1  6
  2 54  1  0
  3 55  1  0
  4 56  1  0
  5 57  1  0
  5 58  1  0
  6 59  1  0
  6 60  1  0
  7 61  1  0
  7 62  1  0
  8 63  1  0
  8 64  1  0
  9 65  1  0
  9 66  1  0
 10 67  1  0
 10 68  1  0
 13 69  1  0
 16 70  1  0
 16 71  1  0
 16 72  1  0
 17 73  1  1
 18 74  1  0
 18 75  1  0
 19 76  1  6
 20 77  1  0
 20 78  1  0
 21 79  1  6
 22 80  1  1
 23 81  1  1
 24 82  1  0
 24 83  1  0
 24 84  1  0
 27 85  1  1
 28 86  1  0
 29 87  1  0
 30 88  1  0
 31 89  1  0
 31 90  1  0
 32 91  1  0
 32 92  1  0
 33 93  1  0
 33 94  1  0
 34 95  1  0
 34 96  1  0
 35 97  1  0
 35 98  1  0
 36 99  1  0
 36100  1  0
 39101  1  0
 42102  1  0
 42103  1  0
 42104  1  0
 43105  1  6
 44106  1  0
 44107  1  0
 45108  1  1
 46109  1  0
 46110  1  0
 47111  1  6
 48112  1  6
 49113  1  6
 50114  1  0
 50115  1  0
 50116  1  0
M  CHG  2  26   1  52   1
M  END
>  <PDBID>  (1) 
4U15

>  <PDB ID>  (1) 
4U15

>  <Generic Name>  (1) 
Tiotropium

>  <Brand Name>  (1) 
Inspiolto Respimat#Spiriva#Spiriva Respimat#Stiolto Respimat

>  <DrugBank ID>  (1) 
DB01409

>  <ATC Codes>  (1) 
R03AL06#R03BB54#R03BB04

>  <Ligand ID>  (1) 
0HK

>  <Target Name>  (1) 
Muscarinic acetylcholine receptor M3

>  <UniProt ID>  (1) 
P20309

>  <PDB ID.1>  (1) 
4U15

>  <Seq. Identity>  (1) 
98%

$$$$
