PDB_DB01222_08
     RDKit          3D

 73 77  0  0  0  0  0  0  0  0999 V2000
    3.8009    3.9178   -0.0805 C   0  0  0  0  0  0  0  0  0  0  0  0
    3.2962    2.5089   -0.2919 C   0  0  0  0  0  0  0  0  0  0  0  0
    4.3658    1.5262    0.0912 C   0  0  0  0  0  0  0  0  0  0  0  0
    2.6966   -1.2604   -1.3329 C   0  0  1  0  0  0  0  0  0  0  0  0
    1.4234   -0.8278   -2.0202 C   0  0  0  0  0  0  0  0  0  0  0  0
    0.5767   -0.4307   -0.8532 C   0  0  1  0  0  0  0  0  0  0  0  0
   -0.8664   -0.3061   -1.1281 C   0  0  2  0  0  0  0  0  0  0  0  0
   -1.1258    0.9178   -2.0142 C   0  0  0  0  0  0  0  0  0  0  0  0
   -2.6022    0.8008   -2.3872 C   0  0  0  0  0  0  0  0  0  0  0  0
   -3.4897    0.9504   -1.1779 C   0  0  0  0  0  0  0  0  0  0  0  0
   -3.7143    1.8459    1.5541 C   0  0  0  0  0  0  0  0  0  0  0  0
   -3.8056    0.3942    1.2117 C   0  0  0  0  0  0  0  0  0  0  0  0
   -3.1009    0.0150   -0.0593 C   0  0  2  0  0  0  0  0  0  0  0  0
    0.1497   -1.4159    1.3390 C   0  0  0  0  0  0  0  0  0  0  0  0
    3.1568   -2.5002    0.7725 C   0  0  0  0  0  0  0  0  0  0  0  0
    3.4424   -2.3480    2.2305 C   0  0  0  0  0  0  0  0  0  0  0  0
    0.6036   -2.9274   -0.6029 C   0  0  0  0  0  0  0  0  0  0  0  0
    3.9094    0.0875   -0.1033 C   0  0  2  0  0  0  0  0  0  0  0  0
    3.5735   -0.1936   -1.3931 O   0  0  0  0  0  0  0  0  0  0  0  0
   -3.5054    2.3893   -0.7867 C   0  0  0  0  0  0  0  0  0  0  0  0
   -4.4060    2.6056    0.4138 C   0  0  0  0  0  0  0  0  0  0  0  0
   -4.5898    3.9320    0.7112 O   0  0  0  0  0  0  0  0  0  0  0  0
   -1.5970   -0.0058    0.1585 C   0  0  1  0  0  0  0  0  0  0  0  0
   -1.2304   -0.8844    1.2881 C   0  0  1  0  0  0  0  0  0  0  0  0
    0.8762   -1.6067    0.0725 C   0  0  1  0  0  0  0  0  0  0  0  0
    2.3659   -1.4202    0.1603 C   0  0  2  0  0  0  0  0  0  0  0  0
    2.7641   -0.1789    0.6157 O   0  0  0  0  0  0  0  0  0  0  0  0
    2.7794   -3.7901    0.4845 O   0  0  0  0  0  0  0  0  0  0  0  0
    2.4091   -2.6575    3.0883 O   0  0  0  0  0  0  0  0  0  0  0  0
   -2.1292   -1.9612    1.4524 O   0  0  0  0  0  0  0  0  0  0  0  0
   -3.6297   -1.3576   -0.4429 C   0  0  0  0  0  0  0  0  0  0  0  0
    4.8987    3.9109   -0.2546 H   0  0  0  0  0  0  0  0  0  0  0  0
    3.6728    4.2112    1.0008 H   0  0  0  0  0  0  0  0  0  0  0  0
    3.3055    4.6545   -0.7305 H   0  0  0  0  0  0  0  0  0  0  0  0
    2.4600    2.3699    0.4529 H   0  0  0  0  0  0  0  0  0  0  0  0
    2.8624    2.3327   -1.2728 H   0  0  0  0  0  0  0  0  0  0  0  0
    5.2801    1.6946   -0.5110 H   0  0  0  0  0  0  0  0  0  0  0  0
    4.6559    1.6245    1.1554 H   0  0  0  0  0  0  0  0  0  0  0  0
    3.1277   -2.1925   -1.7532 H   0  0  0  0  0  0  0  0  0  0  0  0
    1.6245    0.0087   -2.7209 H   0  0  0  0  0  0  0  0  0  0  0  0
    0.9673   -1.6672   -2.5833 H   0  0  0  0  0  0  0  0  0  0  0  0
    1.0087    0.4592   -0.3934 H   0  0  0  0  0  0  0  0  0  0  0  0
   -1.2724   -1.1432   -1.6922 H   0  0  0  0  0  0  0  0  0  0  0  0
   -0.9158    1.8563   -1.4724 H   0  0  0  0  0  0  0  0  0  0  0  0
   -0.5567    0.8025   -2.9511 H   0  0  0  0  0  0  0  0  0  0  0  0
   -2.8998    1.5913   -3.1065 H   0  0  0  0  0  0  0  0  0  0  0  0
   -2.7436   -0.1899   -2.8454 H   0  0  0  0  0  0  0  0  0  0  0  0
   -4.5170    0.6722   -1.4942 H   0  0  0  0  0  0  0  0  0  0  0  0
   -4.2980    2.0300    2.4581 H   0  0  0  0  0  0  0  0  0  0  0  0
   -2.6972    2.2212    1.6733 H   0  0  0  0  0  0  0  0  0  0  0  0
   -3.5062   -0.1900    2.0760 H   0  0  0  0  0  0  0  0  0  0  0  0
   -4.9001    0.1713    1.0416 H   0  0  0  0  0  0  0  0  0  0  0  0
    0.7859   -0.7534    1.9936 H   0  0  0  0  0  0  0  0  0  0  0  0
    0.1003   -2.4123    1.8501 H   0  0  0  0  0  0  0  0  0  0  0  0
    4.1872   -2.4360    0.2064 H   0  0  0  0  0  0  0  0  0  0  0  0
    4.2739   -3.0697    2.4648 H   0  0  0  0  0  0  0  0  0  0  0  0
    3.7546   -1.3094    2.5003 H   0  0  0  0  0  0  0  0  0  0  0  0
    0.4072   -3.7233    0.1464 H   0  0  0  0  0  0  0  0  0  0  0  0
   -0.3258   -2.8896   -1.2320 H   0  0  0  0  0  0  0  0  0  0  0  0
    1.4173   -3.1872   -1.3087 H   0  0  0  0  0  0  0  0  0  0  0  0
    4.7860   -0.5568    0.1821 H   0  0  0  0  0  0  0  0  0  0  0  0
   -2.5048    2.7953   -0.5397 H   0  0  0  0  0  0  0  0  0  0  0  0
   -3.9587    2.9608   -1.6220 H   0  0  0  0  0  0  0  0  0  0  0  0
   -5.3976    2.1379    0.2514 H   0  0  0  0  0  0  0  0  0  0  0  0
   -4.5718    4.5287   -0.0614 H   0  0  0  0  0  0  0  0  0  0  0  0
   -1.3260    1.0508    0.4237 H   0  0  0  0  0  0  0  0  0  0  0  0
   -1.3828   -0.2851    2.2364 H   0  0  0  0  0  0  0  0  0  0  0  0
    2.9924   -4.4339    1.1854 H   0  0  0  0  0  0  0  0  0  0  0  0
    2.1082   -1.8936    3.6391 H   0  0  0  0  0  0  0  0  0  0  0  0
   -1.8920   -2.3800    2.3194 H   0  0  0  0  0  0  0  0  0  0  0  0
   -2.8517   -2.0507   -0.7645 H   0  0  0  0  0  0  0  0  0  0  0  0
   -4.1953   -1.8418    0.3770 H   0  0  0  0  0  0  0  0  0  0  0  0
   -4.3608   -1.2975   -1.2948 H   0  0  0  0  0  0  0  0  0  0  0  0
  1  2  1  0
  2  3  1  0
  4  5  1  0
  5  6  1  0
  6  7  1  0
  7  8  1  0
  8  9  1  0
  9 10  1  0
 11 12  1  0
 10 13  1  0
 12 13  1  0
 15 16  1  0
  3 18  1  0
  4 19  1  0
 18 19  1  0
 10 20  1  0
 11 21  1  0
 20 21  1  0
 21 22  1  0
  7 23  1  0
 13 23  1  0
 14 24  1  0
 23 24  1  0
  6 25  1  0
 14 25  1  0
 25 17  1  6
  4 26  1  0
 26 15  1  1
 25 26  1  0
 18 27  1  0
 26 27  1  0
 15 28  1  0
 16 29  1  0
 24 30  1  0
 13 31  1  6
  1 32  1  0
  1 33  1  0
  1 34  1  0
  2 35  1  0
  2 36  1  0
  3 37  1  0
  3 38  1  0
  4 39  1  6
  5 40  1  0
  5 41  1  0
  6 42  1  1
  7 43  1  6
  8 44  1  0
  8 45  1  0
  9 46  1  0
  9 47  1  0
 10 48  1  0
 11 49  1  0
 11 50  1  0
 12 51  1  0
 12 52  1  0
 14 53  1  0
 14 54  1  0
 15 55  1  0
 16 56  1  0
 16 57  1  0
 17 58  1  0
 17 59  1  0
 17 60  1  0
 18 61  1  1
 20 62  1  0
 20 63  1  0
 21 64  1  0
 22 65  1  0
 23 66  1  1
 24 67  1  1
 28 68  1  0
 29 69  1  0
 30 70  1  0
 31 71  1  0
 31 72  1  0
 31 73  1  0
M  END
>  <PDBID>  (1) 
5NFP

>  <PDB ID>  (1) 
5NFP

>  <Generic Name>  (1) 
Budesonide

>  <Brand Name>  (1) 
Budesonide#Budesonide (enteric Coated)#Budesonide Inhalation#Budesonide Nasal#Childrens Rhinocort Allergy#Cortiment#Entocort#Entocort EC#Entocort Enema#Mylan-budesonide AQ#Pulmicort Flexhaler#Pulmicort Nebuamp 0.125 mg/ml#Pulmicort Nebuamp 0.25 mg/ml#Pulmicort Nebuamp 0.5 mg/ml#Pulmicort Respules#Pulmicort Turbuhaler 100 Mcg/dose#Pulmicort Turbuhaler 200 Mcg/dose#Pulmicort Turbuhaler 400 Mcg/dose#Rhinocort Allergy#Rhinocort Aqua#Rhinocort Aqua 100mcg#Rhinocort Turbuhaler 100 Mcg/dose#Symbicort#Symbicort 100 Turbuhaler#Symbicort 200 Turbuhaler#Symbicort Forte Turbuhaler#Uceris#Bidien#Budeson#Budicort#ENTOCORT#Noex#Pulmicort#Rhinocort#Rhinosol#Spirocort

>  <DrugBank ID>  (1) 
DB01222

>  <ATC Codes>  (1) 
R03AK07#A07EA06#R03BA02#D07AC09#R03AK12#R01AD05

>  <Ligand ID>  (1) 
8W5

>  <Target Name>  (1) 
Glucocorticoid receptor

>  <UniProt ID>  (1) 
P04150

>  <PDB ID.1>  (1) 
5NFP

>  <Seq. Identity>  (1) 
98%

$$$$
