PDB_DB00773_03
     RDKit          3D

176188  0  0  0  0  0  0  0  0999 V2000
   -1.2325   -0.3299   -5.4758 C   0  0  0  0  0  0  0  0  0  0  0  0
   -0.0314   -0.2222   -4.7635 O   0  0  0  0  0  0  0  0  0  0  0  0
   -1.7153   -0.2688   -3.3247 C   0  0  0  0  0  0  0  0  0  0  0  0
   -2.2568   -0.5473   -4.5430 O   0  0  0  0  0  0  0  0  0  0  0  0
   -2.2870   -1.0246   -2.1851 C   0  0  0  0  0  0  0  0  0  0  0  0
   -0.5207    0.5480    2.9812 O   0  0  0  0  0  0  0  0  0  0  0  0
   -1.4721   -1.0737   -0.9270 C   0  0  0  0  0  0  0  0  0  0  0  0
    0.1408    2.3021    1.8342 O   0  0  0  0  0  0  0  0  0  0  0  0
   -2.0741   -0.1312    0.1214 C   0  0  2  0  0  0  0  0  0  0  0  0
   -6.5067   -1.5120    0.4586 O   0  0  0  0  0  0  0  0  0  0  0  0
   -0.9194    0.5233    0.7353 C   0  0  1  0  0  0  0  0  0  0  0  0
   -5.2557    1.3760   -0.9017 O   0  0  0  0  0  0  0  0  0  0  0  0
   -0.9431    1.3712    1.9057 C   0  0  1  0  0  0  0  0  0  0  0  0
   -5.1180    1.8745    2.2621 O   0  0  0  0  0  0  0  0  0  0  0  0
    0.6425   -0.0069    2.3741 C   0  0  0  0  0  0  0  0  0  0  0  0
    1.8724    0.1133   -0.2486 O   0  0  0  0  0  0  0  0  0  0  0  0
    0.0278   -0.5813    1.1575 C   0  0  2  0  0  0  0  0  0  0  0  0
    3.6870    0.3046    1.0681 O   0  0  0  0  0  0  0  0  0  0  0  0
    0.8862   -0.8433   -0.0246 C   0  0  1  0  0  0  0  0  0  0  0  0
    6.3272    1.0746    2.6624 O   0  0  0  0  0  0  0  0  0  0  0  0
   -0.0305   -1.0298   -1.1850 C   0  0  0  0  0  0  0  0  0  0  0  0
    7.1620    0.1311    0.7174 O   0  0  0  0  0  0  0  0  0  0  0  0
    0.4390   -0.1979   -2.3719 C   0  0  0  0  0  0  0  0  0  0  0  0
    5.8471    1.1540   -1.8683 O   0  0  0  0  0  0  0  0  0  0  0  0
   -0.2947   -0.8082   -3.5601 C   0  0  0  0  0  0  0  0  0  0  0  0
    3.9583   -1.4371   -1.9817 O   0  0  0  0  0  0  0  0  0  0  0  0
   -3.0199   -0.8568    1.0333 C   0  0  0  0  0  0  0  0  0  0  0  0
   -4.1041   -1.6106    0.3181 C   0  0  0  0  0  0  0  0  0  0  0  0
   -5.3415   -0.8654   -0.0218 C   0  0  0  0  0  0  0  0  0  0  0  0
   -5.3977    0.5751    0.2598 C   0  0  0  0  0  0  0  0  0  0  0  0
   -4.4412    1.1126    1.2776 C   0  0  0  0  0  0  0  0  0  0  0  0
   -3.7538    0.0127    1.9987 C   0  0  0  0  0  0  0  0  0  0  0  0
   -7.2999   -2.0037   -0.5514 C   0  0  0  0  0  0  0  0  0  0  0  0
   -4.7046    3.1756    2.3333 C   0  0  0  0  0  0  0  0  0  0  0  0
    3.1730   -0.3689   -0.0642 C   0  0  2  0  0  0  0  0  0  0  0  0
    4.9370   -0.2565    1.3214 C   0  0  2  0  0  0  0  0  0  0  0  0
    5.4418    0.0042    2.7028 C   0  0  0  0  0  0  0  0  0  0  0  0
    7.4506    0.8425    1.9052 C   0  0  2  0  0  0  0  0  0  0  0  0
    5.8817    0.4715    0.3573 C   0  0  2  0  0  0  0  0  0  0  0  0
    5.4798    0.0835   -1.0184 C   0  0  1  0  0  0  0  0  0  0  0  0
    4.0550   -0.2294   -1.2475 C   0  0  1  0  0  0  0  0  0  0  0  0
    8.5675    0.2179    2.6792 C   0  0  0  0  0  0  0  0  0  0  0  0
   -1.2325   -0.3299   -5.4758 C   0  0  0  0  0  0  0  0  0  0  0  0
   -0.0314   -0.2222   -4.7635 O   0  0  0  0  0  0  0  0  0  0  0  0
   -1.7153   -0.2688   -3.3247 C   0  0  0  0  0  0  0  0  0  0  0  0
   -2.2568   -0.5473   -4.5430 O   0  0  0  0  0  0  0  0  0  0  0  0
   -2.2870   -1.0246   -2.1851 C   0  0  0  0  0  0  0  0  0  0  0  0
   -0.5207    0.5480    2.9812 O   0  0  0  0  0  0  0  0  0  0  0  0
   -1.4721   -1.0737   -0.9270 C   0  0  0  0  0  0  0  0  0  0  0  0
    0.1408    2.3021    1.8342 O   0  0  0  0  0  0  0  0  0  0  0  0
   -2.0741   -0.1312    0.1214 C   0  0  2  0  0  0  0  0  0  0  0  0
   -6.5067   -1.5120    0.4586 O   0  0  0  0  0  0  0  0  0  0  0  0
   -0.9194    0.5233    0.7353 C   0  0  1  0  0  0  0  0  0  0  0  0
   -5.2557    1.3760   -0.9017 O   0  0  0  0  0  0  0  0  0  0  0  0
   -0.9431    1.3712    1.9057 C   0  0  1  0  0  0  0  0  0  0  0  0
   -5.1180    1.8745    2.2621 O   0  0  0  0  0  0  0  0  0  0  0  0
    0.6425   -0.0069    2.3741 C   0  0  0  0  0  0  0  0  0  0  0  0
    1.8724    0.1133   -0.2486 O   0  0  0  0  0  0  0  0  0  0  0  0
    0.0278   -0.5813    1.1575 C   0  0  2  0  0  0  0  0  0  0  0  0
    3.6870    0.3046    1.0681 O   0  0  0  0  0  0  0  0  0  0  0  0
    0.8862   -0.8433   -0.0246 C   0  0  1  0  0  0  0  0  0  0  0  0
    6.3272    1.0746    2.6624 O   0  0  0  0  0  0  0  0  0  0  0  0
   -0.0305   -1.0298   -1.1850 C   0  0  0  0  0  0  0  0  0  0  0  0
    7.1620    0.1311    0.7174 O   0  0  0  0  0  0  0  0  0  0  0  0
    0.4390   -0.1979   -2.3719 C   0  0  0  0  0  0  0  0  0  0  0  0
    5.8471    1.1540   -1.8683 O   0  0  0  0  0  0  0  0  0  0  0  0
   -0.2947   -0.8082   -3.5601 C   0  0  0  0  0  0  0  0  0  0  0  0
    3.9583   -1.4371   -1.9817 O   0  0  0  0  0  0  0  0  0  0  0  0
   -3.0199   -0.8568    1.0333 C   0  0  0  0  0  0  0  0  0  0  0  0
   -4.1041   -1.6106    0.3181 C   0  0  0  0  0  0  0  0  0  0  0  0
   -5.3415   -0.8654   -0.0218 C   0  0  0  0  0  0  0  0  0  0  0  0
   -5.3977    0.5751    0.2598 C   0  0  0  0  0  0  0  0  0  0  0  0
   -4.4412    1.1126    1.2776 C   0  0  0  0  0  0  0  0  0  0  0  0
   -3.7538    0.0127    1.9987 C   0  0  0  0  0  0  0  0  0  0  0  0
   -7.2999   -2.0037   -0.5514 C   0  0  0  0  0  0  0  0  0  0  0  0
   -4.7046    3.1756    2.3333 C   0  0  0  0  0  0  0  0  0  0  0  0
    3.1730   -0.3689   -0.0642 C   0  0  2  0  0  0  0  0  0  0  0  0
    4.9370   -0.2565    1.3214 C   0  0  2  0  0  0  0  0  0  0  0  0
    5.4418    0.0042    2.7028 C   0  0  0  0  0  0  0  0  0  0  0  0
    7.4506    0.8425    1.9052 C   0  0  2  0  0  0  0  0  0  0  0  0
    5.8817    0.4715    0.3573 C   0  0  2  0  0  0  0  0  0  0  0  0
    5.4798    0.0835   -1.0184 C   0  0  1  0  0  0  0  0  0  0  0  0
    4.0550   -0.2294   -1.2475 C   0  0  1  0  0  0  0  0  0  0  0  0
    8.5675    0.2179    2.6792 C   0  0  0  0  0  0  0  0  0  0  0  0
   -1.2078   -1.1419   -6.2225 H   0  0  0  0  0  0  0  0  0  0  0  0
   -1.4254    0.6671   -5.9286 H   0  0  0  0  0  0  0  0  0  0  0  0
   -1.6362    0.8229   -3.1726 H   0  0  0  0  0  0  0  0  0  0  0  0
   -2.5382   -2.0560   -2.5753 H   0  0  0  0  0  0  0  0  0  0  0  0
   -3.2410   -0.4569   -1.9590 H   0  0  0  0  0  0  0  0  0  0  0  0
   -1.6898   -2.0994   -0.4887 H   0  0  0  0  0  0  0  0  0  0  0  0
   -0.0967    3.0478    1.2317 H   0  0  0  0  0  0  0  0  0  0  0  0
   -2.6560    0.6125   -0.4543 H   0  0  0  0  0  0  0  0  0  0  0  0
   -0.4624    1.1447   -0.1006 H   0  0  0  0  0  0  0  0  0  0  0  0
   -4.5963    2.0941   -0.7756 H   0  0  0  0  0  0  0  0  0  0  0  0
   -1.7732    2.0040    2.1474 H   0  0  0  0  0  0  0  0  0  0  0  0
    1.3063    0.8446    2.2547 H   0  0  0  0  0  0  0  0  0  0  0  0
    1.0024   -0.8016    3.0311 H   0  0  0  0  0  0  0  0  0  0  0  0
   -0.4492   -1.5285    1.4251 H   0  0  0  0  0  0  0  0  0  0  0  0
    1.4735   -1.7795    0.2430 H   0  0  0  0  0  0  0  0  0  0  0  0
    0.2316   -2.0753   -1.5784 H   0  0  0  0  0  0  0  0  0  0  0  0
    1.4872   -0.4174   -2.5417 H   0  0  0  0  0  0  0  0  0  0  0  0
    0.1922    0.8473   -2.3522 H   0  0  0  0  0  0  0  0  0  0  0  0
    6.2200    0.8396   -2.7161 H   0  0  0  0  0  0  0  0  0  0  0  0
   -0.2668   -1.8995   -3.5475 H   0  0  0  0  0  0  0  0  0  0  0  0
    4.8016   -1.9579   -1.8591 H   0  0  0  0  0  0  0  0  0  0  0  0
   -2.4443   -1.5842    1.6368 H   0  0  0  0  0  0  0  0  0  0  0  0
   -3.7193   -2.2716   -0.5030 H   0  0  0  0  0  0  0  0  0  0  0  0
   -4.4351   -2.4061    1.0683 H   0  0  0  0  0  0  0  0  0  0  0  0
   -5.4377   -0.9642   -1.1514 H   0  0  0  0  0  0  0  0  0  0  0  0
   -6.4241    0.8323    0.6238 H   0  0  0  0  0  0  0  0  0  0  0  0
   -3.7210    1.8251    0.8246 H   0  0  0  0  0  0  0  0  0  0  0  0
   -3.2282    0.2893    2.9155 H   0  0  0  0  0  0  0  0  0  0  0  0
   -4.5966   -0.6243    2.4289 H   0  0  0  0  0  0  0  0  0  0  0  0
   -7.6669   -1.2191   -1.2562 H   0  0  0  0  0  0  0  0  0  0  0  0
   -6.6607   -2.6714   -1.2009 H   0  0  0  0  0  0  0  0  0  0  0  0
   -8.1029   -2.6655   -0.1787 H   0  0  0  0  0  0  0  0  0  0  0  0
   -5.3279    3.6512    3.1482 H   0  0  0  0  0  0  0  0  0  0  0  0
   -4.9991    3.7482    1.4096 H   0  0  0  0  0  0  0  0  0  0  0  0
   -3.6734    3.3570    2.6279 H   0  0  0  0  0  0  0  0  0  0  0  0
    3.1214   -1.4472    0.2259 H   0  0  0  0  0  0  0  0  0  0  0  0
    4.9673   -1.3376    1.0501 H   0  0  0  0  0  0  0  0  0  0  0  0
    4.6318    0.2541    3.4028 H   0  0  0  0  0  0  0  0  0  0  0  0
    5.9963   -0.8704    3.1250 H   0  0  0  0  0  0  0  0  0  0  0  0
    7.8202    1.8443    1.5379 H   0  0  0  0  0  0  0  0  0  0  0  0
    5.7552    1.5726    0.5520 H   0  0  0  0  0  0  0  0  0  0  0  0
    6.1241   -0.7632   -1.3664 H   0  0  0  0  0  0  0  0  0  0  0  0
    3.5797    0.5455   -1.9193 H   0  0  0  0  0  0  0  0  0  0  0  0
    8.4123   -0.8798    2.7514 H   0  0  0  0  0  0  0  0  0  0  0  0
    8.5276    0.6116    3.7158 H   0  0  0  0  0  0  0  0  0  0  0  0
    9.5694    0.4769    2.2705 H   0  0  0  0  0  0  0  0  0  0  0  0
   -1.2078   -1.1419   -6.2225 H   0  0  0  0  0  0  0  0  0  0  0  0
   -1.4254    0.6671   -5.9286 H   0  0  0  0  0  0  0  0  0  0  0  0
   -1.6362    0.8229   -3.1726 H   0  0  0  0  0  0  0  0  0  0  0  0
   -2.5382   -2.0560   -2.5753 H   0  0  0  0  0  0  0  0  0  0  0  0
   -3.2410   -0.4569   -1.9590 H   0  0  0  0  0  0  0  0  0  0  0  0
   -1.6898   -2.0994   -0.4887 H   0  0  0  0  0  0  0  0  0  0  0  0
   -0.0967    3.0478    1.2317 H   0  0  0  0  0  0  0  0  0  0  0  0
   -2.6560    0.6125   -0.4543 H   0  0  0  0  0  0  0  0  0  0  0  0
   -0.4624    1.1447   -0.1006 H   0  0  0  0  0  0  0  0  0  0  0  0
   -4.5963    2.0941   -0.7756 H   0  0  0  0  0  0  0  0  0  0  0  0
   -1.7732    2.0040    2.1474 H   0  0  0  0  0  0  0  0  0  0  0  0
    1.3063    0.8446    2.2547 H   0  0  0  0  0  0  0  0  0  0  0  0
    1.0024   -0.8016    3.0311 H   0  0  0  0  0  0  0  0  0  0  0  0
   -0.4492   -1.5285    1.4251 H   0  0  0  0  0  0  0  0  0  0  0  0
    1.4735   -1.7795    0.2430 H   0  0  0  0  0  0  0  0  0  0  0  0
    0.2316   -2.0753   -1.5784 H   0  0  0  0  0  0  0  0  0  0  0  0
    1.4872   -0.4174   -2.5417 H   0  0  0  0  0  0  0  0  0  0  0  0
    0.1922    0.8473   -2.3522 H   0  0  0  0  0  0  0  0  0  0  0  0
    6.2200    0.8396   -2.7161 H   0  0  0  0  0  0  0  0  0  0  0  0
   -0.2668   -1.8995   -3.5475 H   0  0  0  0  0  0  0  0  0  0  0  0
    4.8016   -1.9579   -1.8591 H   0  0  0  0  0  0  0  0  0  0  0  0
   -2.4443   -1.5842    1.6368 H   0  0  0  0  0  0  0  0  0  0  0  0
   -3.7193   -2.2716   -0.5030 H   0  0  0  0  0  0  0  0  0  0  0  0
   -4.4351   -2.4061    1.0683 H   0  0  0  0  0  0  0  0  0  0  0  0
   -5.4377   -0.9642   -1.1514 H   0  0  0  0  0  0  0  0  0  0  0  0
   -6.4241    0.8323    0.6238 H   0  0  0  0  0  0  0  0  0  0  0  0
   -3.7210    1.8251    0.8246 H   0  0  0  0  0  0  0  0  0  0  0  0
   -3.2282    0.2893    2.9155 H   0  0  0  0  0  0  0  0  0  0  0  0
   -4.5966   -0.6243    2.4289 H   0  0  0  0  0  0  0  0  0  0  0  0
   -7.6669   -1.2191   -1.2562 H   0  0  0  0  0  0  0  0  0  0  0  0
   -6.6607   -2.6714   -1.2009 H   0  0  0  0  0  0  0  0  0  0  0  0
   -8.1029   -2.6655   -0.1787 H   0  0  0  0  0  0  0  0  0  0  0  0
   -5.3279    3.6512    3.1482 H   0  0  0  0  0  0  0  0  0  0  0  0
   -4.9991    3.7482    1.4096 H   0  0  0  0  0  0  0  0  0  0  0  0
   -3.6734    3.3570    2.6279 H   0  0  0  0  0  0  0  0  0  0  0  0
    3.1214   -1.4472    0.2259 H   0  0  0  0  0  0  0  0  0  0  0  0
    4.9673   -1.3376    1.0501 H   0  0  0  0  0  0  0  0  0  0  0  0
    4.6318    0.2541    3.4028 H   0  0  0  0  0  0  0  0  0  0  0  0
    5.9963   -0.8704    3.1250 H   0  0  0  0  0  0  0  0  0  0  0  0
    7.8202    1.8443    1.5379 H   0  0  0  0  0  0  0  0  0  0  0  0
    5.7552    1.5726    0.5520 H   0  0  0  0  0  0  0  0  0  0  0  0
    6.1241   -0.7632   -1.3664 H   0  0  0  0  0  0  0  0  0  0  0  0
    3.5797    0.5455   -1.9193 H   0  0  0  0  0  0  0  0  0  0  0  0
    8.4123   -0.8798    2.7514 H   0  0  0  0  0  0  0  0  0  0  0  0
    8.5276    0.6116    3.7158 H   0  0  0  0  0  0  0  0  0  0  0  0
    9.5694    0.4769    2.2705 H   0  0  0  0  0  0  0  0  0  0  0  0
  1  2  1  0
  1  4  1  0
  3  4  1  0
  3  5  1  0
  5  7  1  0
  7  9  1  0
  9 11  1  0
  6 13  1  0
  8 13  1  0
 11 13  1  0
  6 15  1  0
 11 17  1  0
 15 17  1  0
 16 19  1  0
 17 19  1  0
  7 21  1  0
 19 21  1  0
 21 23  1  0
  2 25  1  0
  3 25  1  0
 23 25  1  0
  9 27  1  0
 27 28  1  0
 10 29  1  0
 28 29  1  0
 12 30  1  0
 29 30  1  0
 14 31  1  0
 30 31  1  0
 27 32  1  0
 31 32  1  0
 10 33  1  0
 14 34  1  0
 16 35  1  0
 18 35  1  0
 18 36  1  0
 20 37  1  0
 36 37  1  0
 20 38  1  0
 22 38  1  0
 22 39  1  0
 36 39  1  0
 24 40  1  0
 39 40  1  0
 26 41  1  0
 35 41  1  0
 40 41  1  0
 38 42  1  0
 43 44  1  0
 43 46  1  0
 45 46  1  0
 45 47  1  0
 47 49  1  0
 49 51  1  0
 51 53  1  0
 48 55  1  0
 50 55  1  0
 53 55  1  0
 48 57  1  0
 53 59  1  0
 57 59  1  0
 58 61  1  0
 59 61  1  0
 49 63  1  0
 61 63  1  0
 63 65  1  0
 44 67  1  0
 45 67  1  0
 65 67  1  0
 51 69  1  0
 69 70  1  0
 52 71  1  0
 70 71  1  0
 54 72  1  0
 71 72  1  0
 56 73  1  0
 72 73  1  0
 69 74  1  0
 73 74  1  0
 52 75  1  0
 56 76  1  0
 58 77  1  0
 60 77  1  0
 60 78  1  0
 62 79  1  0
 78 79  1  0
 62 80  1  0
 64 80  1  0
 64 81  1  0
 78 81  1  0
 66 82  1  0
 81 82  1  0
 68 83  1  0
 77 83  1  0
 82 83  1  0
 80 84  1  0
  1 85  1  0
  1 86  1  0
  3 87  1  0
  5 88  1  0
  5 89  1  0
  7 90  1  0
  8 91  1  0
  9 92  1  6
 11 93  1  6
 12 94  1  0
 13 95  1  1
 15 96  1  0
 15 97  1  0
 17 98  1  1
 19 99  1  1
 21100  1  0
 23101  1  0
 23102  1  0
 24103  1  0
 25104  1  0
 26105  1  0
 27106  1  0
 28107  1  0
 28108  1  0
 29109  1  0
 30110  1  0
 31111  1  0
 32112  1  0
 32113  1  0
 33114  1  0
 33115  1  0
 33116  1  0
 34117  1  0
 34118  1  0
 34119  1  0
 35120  1  1
 36121  1  6
 37122  1  0
 37123  1  0
 38124  1  6
 39125  1  6
 40126  1  6
 41127  1  6
 42128  1  0
 42129  1  0
 42130  1  0
 43131  1  0
 43132  1  0
 45133  1  0
 47134  1  0
 47135  1  0
 49136  1  0
 50137  1  0
 51138  1  6
 53139  1  6
 54140  1  0
 55141  1  1
 57142  1  0
 57143  1  0
 59144  1  1
 61145  1  1
 63146  1  0
 65147  1  0
 65148  1  0
 66149  1  0
 67150  1  0
 68151  1  0
 69152  1  0
 70153  1  0
 70154  1  0
 71155  1  0
 72156  1  0
 73157  1  0
 74158  1  0
 74159  1  0
 75160  1  0
 75161  1  0
 75162  1  0
 76163  1  0
 76164  1  0
 76165  1  0
 77166  1  1
 78167  1  6
 79168  1  0
 79169  1  0
 80170  1  6
 81171  1  6
 82172  1  6
 83173  1  6
 84174  1  0
 84175  1  0
 84176  1  0
M  END
>  <PDBID>  (1) 
5GWK

>  <PDB ID>  (1) 
5GWK

>  <Generic Name>  (1) 
Etoposide

>  <Brand Name>  (1) 
Dom-etoposide#Eposin#Etopophos#Etoposide#Etoposide - Liq IV 20mg/ml#Etoposide Injection#Etoposide Injection USP#Etoposide Injection, USP#PMS-etoposide#Toposar#Vepesid#Vepesid Inj 20mg/ml#Etopofos#Lastet#Nexvep#Vepesid K#Vépéside

>  <DrugBank ID>  (1) 
DB00773

>  <ATC Codes>  (1) 
L01CB01

>  <Ligand ID>  (1) 
EVP

>  <Target Name>  (1) 
DNA topoisomerase 2-alpha

>  <UniProt ID>  (1) 
P11388

>  <PDB ID.1>  (1) 
5GWK

>  <Seq. Identity>  (1) 
96%

$$$$
