PDB_DB00819_03
     RDKit          3D

 27 27  0  0  0  0  0  0  0  0999 V2000
   -1.5064    0.1145   -0.3359 C   0  0  2  0  0  0  0  0  0  0  0  0
    0.7591   -0.6505    0.9041 C   0  0  2  0  0  0  0  0  0  0  0  0
    3.1416   -0.5851    0.4520 C   0  0  0  0  0  0  0  0  0  0  0  0
    3.2076    0.8383    0.0042 C   0  0  0  0  0  0  0  0  0  0  0  0
   -3.9944   -0.2109    0.7585 N   0  0  0  0  0  0  0  0  0  0  0  0
    0.5126    0.7048    0.4933 N   0  0  0  0  0  0  0  0  0  0  0  0
   -0.8718    0.9332    0.6814 N   0  0  0  0  0  0  0  0  0  0  0  0
    1.8824   -1.1829    0.2230 N   0  0  0  0  0  0  0  0  0  0  0  0
   -3.5638    1.6232   -1.0986 O   0  0  0  0  0  0  0  0  0  0  0  0
   -3.5198   -0.9711   -1.7437 O   0  0  0  0  0  0  0  0  0  0  0  0
    4.1482   -1.3212   -0.1716 O   0  0  0  0  0  0  0  0  0  0  0  0
   -3.1154    0.1053   -0.4650 S   0  0  0  0  0  0  0  0  0  0  0  0
   -0.7286   -1.4753    0.1920 S   0  0  0  0  0  0  0  0  0  0  0  0
   -0.9679    0.3607   -1.2938 H   0  0  0  0  0  0  0  0  0  0  0  0
    0.7776   -0.7770    2.0008 H   0  0  0  0  0  0  0  0  0  0  0  0
    3.3336   -0.6091    1.5475 H   0  0  0  0  0  0  0  0  0  0  0  0
    4.2994    1.1162    0.0331 H   0  0  0  0  0  0  0  0  0  0  0  0
    2.9147    0.9871   -1.0585 H   0  0  0  0  0  0  0  0  0  0  0  0
    2.6975    1.5377    0.6748 H   0  0  0  0  0  0  0  0  0  0  0  0
   -5.0068    0.1103    0.7217 H   0  0  0  0  0  0  0  0  0  0  0  0
   -3.6267   -0.0290    1.7015 H   0  0  0  0  0  0  0  0  0  0  0  0
    0.6092    0.7317   -0.5690 H   0  0  0  0  0  0  0  0  0  0  0  0
   -1.0279    1.9343    0.5779 H   0  0  0  0  0  0  0  0  0  0  0  0
    1.8838   -2.2075    0.1527 H   0  0  0  0  0  0  0  0  0  0  0  0
   -3.0755    1.7355   -1.9628 H   0  0  0  0  0  0  0  0  0  0  0  0
   -3.4356   -1.8709   -1.3366 H   0  0  0  0  0  0  0  0  0  0  0  0
    4.2732   -0.9424   -1.0830 H   0  0  0  0  0  0  0  0  0  0  0  0
  3  4  1  0
  2  6  1  0
  1  7  1  0
  6  7  1  0
  2  8  1  0
  3  8  1  0
  3 11  1  0
  1 12  1  0
  5 12  1  0
 12  9  1  0
 10 12  1  0
  1 13  1  0
  2 13  1  0
  1 14  1  6
  2 15  1  1
  3 16  1  0
  4 17  1  0
  4 18  1  0
  4 19  1  0
  5 20  1  0
  5 21  1  0
  6 22  1  0
  7 23  1  0
  8 24  1  0
  9 25  1  0
 10 26  1  0
 11 27  1  0
M  END
>  <PDBID>  (1) 
1AZM

>  <PDB ID>  (1) 
1AZM

>  <Generic Name>  (1) 
Acetazolamide

>  <Brand Name>  (1) 
Acetazolam#Acetazolamide#Acetazolamide for Injection, USP#Diamox IV 500mg#Diamox Pws 500mg/vial#Diamox Sequels#Diamox Src 500mg#Diamox Tab 250mg#Diamox Tablets 250mg#Novo-zolamide Tab 250mg#Acemit#Acemox#Acetak#Acetamide#Acetazolamax#Azm#Azol#Azomid#Carbinib#Defiltran#Diabo#Diacarb#Diamox#Diamox Depot#Diazomid#Diluran#Diuramid#Défiltran#Edemox#Glaumox#Glaupax#Glupax#Huma-Zolamide#Iopar-SR#Medene#Oculten#Uramox#Zolmide#Ödemin

>  <DrugBank ID>  (1) 
DB00819

>  <ATC Codes>  (1) 
S01EC01

>  <Ligand ID>  (1) 
AZM

>  <Target Name>  (1) 
Carbonic anhydrase 1

>  <UniProt ID>  (1) 
P00915

>  <PDB ID.1>  (1) 
1AZM

>  <Seq. Identity>  (1) 
100%

$$$$
