PDB_DB12332_00
     RDKit          3D

116122  0  0  0  0  0  0  0  0999 V2000
   -5.5491   -1.0701   -0.8369 O   0  0  0  0  0  0  0  0  0  0  0  0
   -4.3796   -1.3032   -0.0778 C   0  0  1  0  0  0  0  0  0  0  0  0
   -3.4695   -2.1544   -0.7718 N   0  0  0  0  0  0  0  0  0  0  0  0
   -2.5751   -2.7605    0.1951 C   0  0  0  0  0  0  0  0  0  0  0  0
   -1.2307   -2.0709    0.0387 C   0  0  0  0  0  0  0  0  0  0  0  0
   -1.4109   -0.5755   -0.0812 C   0  0  0  0  0  0  0  0  0  0  0  0
   -2.4487   -0.0364    0.8980 C   0  0  0  0  0  0  0  0  0  0  0  0
   -3.8314    0.0023    0.3409 C   0  0  0  0  0  0  0  0  0  0  0  0
   -3.8945    1.0756   -0.7054 C   0  0  0  0  0  0  0  0  0  0  0  0
   -3.7953    2.3910    0.0063 C   0  0  0  0  0  0  0  0  0  0  0  0
   -5.0855    2.7038    0.4532 F   0  0  0  0  0  0  0  0  0  0  0  0
   -2.8237    2.4505    1.1127 C   0  0  0  0  0  0  0  0  0  0  0  0
   -1.9410    1.2934    1.3176 C   0  0  0  0  0  0  0  0  0  0  0  0
   -0.6613    1.4702    0.6403 N   0  0  0  0  0  0  0  0  0  0  0  0
   -0.1773    0.0962    0.4208 C   0  0  2  0  0  0  0  0  0  0  0  0
    0.9537    0.2045   -0.5352 C   0  0  0  0  0  0  0  0  0  0  0  0
    2.0723    0.9718    0.1871 C   0  0  0  0  0  0  0  0  0  0  0  0
    2.8099   -0.0263    1.0307 C   0  0  0  0  0  0  0  0  0  0  0  0
    1.5659   -1.0821   -0.9821 C   0  0  0  0  0  0  0  0  0  0  0  0
    3.0862   -0.9190   -1.1970 C   0  0  0  0  0  0  0  0  0  0  0  0
    3.7610   -0.7875    0.1619 C   0  0  0  0  0  0  0  0  0  0  0  0
    5.1472   -0.2656    0.0999 C   0  0  0  0  0  0  0  0  0  0  0  0
    5.3071    1.0682   -0.3831 N   0  0  0  0  0  0  0  0  0  0  0  0
    6.7302    1.3769   -0.3923 C   0  0  0  0  0  0  0  0  0  0  0  0
   -5.5491   -1.0701   -0.8369 O   0  0  0  0  0  0  0  0  0  0  0  0
   -4.3796   -1.3032   -0.0778 C   0  0  1  0  0  0  0  0  0  0  0  0
   -3.4695   -2.1544   -0.7718 N   0  0  0  0  0  0  0  0  0  0  0  0
   -2.5751   -2.7605    0.1951 C   0  0  0  0  0  0  0  0  0  0  0  0
   -1.2307   -2.0709    0.0387 C   0  0  0  0  0  0  0  0  0  0  0  0
   -1.4109   -0.5755   -0.0812 C   0  0  0  0  0  0  0  0  0  0  0  0
   -2.4487   -0.0364    0.8980 C   0  0  0  0  0  0  0  0  0  0  0  0
   -3.8314    0.0023    0.3409 C   0  0  0  0  0  0  0  0  0  0  0  0
   -3.8945    1.0756   -0.7054 C   0  0  0  0  0  0  0  0  0  0  0  0
   -3.7953    2.3910    0.0063 C   0  0  0  0  0  0  0  0  0  0  0  0
   -5.0855    2.7038    0.4532 F   0  0  0  0  0  0  0  0  0  0  0  0
   -2.8237    2.4505    1.1127 C   0  0  0  0  0  0  0  0  0  0  0  0
   -1.9410    1.2934    1.3176 C   0  0  0  0  0  0  0  0  0  0  0  0
   -0.6613    1.4702    0.6403 N   0  0  0  0  0  0  0  0  0  0  0  0
   -0.1773    0.0962    0.4208 C   0  0  2  0  0  0  0  0  0  0  0  0
    0.9537    0.2045   -0.5352 C   0  0  0  0  0  0  0  0  0  0  0  0
    2.0723    0.9718    0.1871 C   0  0  0  0  0  0  0  0  0  0  0  0
    2.8099   -0.0263    1.0307 C   0  0  0  0  0  0  0  0  0  0  0  0
    1.5659   -1.0821   -0.9821 C   0  0  0  0  0  0  0  0  0  0  0  0
    3.0862   -0.9190   -1.1970 C   0  0  0  0  0  0  0  0  0  0  0  0
    3.7610   -0.7875    0.1619 C   0  0  0  0  0  0  0  0  0  0  0  0
    5.1472   -0.2656    0.0999 C   0  0  0  0  0  0  0  0  0  0  0  0
    5.3071    1.0682   -0.3831 N   0  0  0  0  0  0  0  0  0  0  0  0
    6.7302    1.3769   -0.3923 C   0  0  0  0  0  0  0  0  0  0  0  0
   -5.2236   -0.9216   -1.7726 H   0  0  0  0  0  0  0  0  0  0  0  0
   -4.7517   -1.8421    0.8396 H   0  0  0  0  0  0  0  0  0  0  0  0
   -3.9626   -2.8644   -1.3563 H   0  0  0  0  0  0  0  0  0  0  0  0
   -2.8965   -2.6462    1.2373 H   0  0  0  0  0  0  0  0  0  0  0  0
   -2.4839   -3.8560    0.0109 H   0  0  0  0  0  0  0  0  0  0  0  0
   -0.6223   -2.2721    0.9250 H   0  0  0  0  0  0  0  0  0  0  0  0
   -0.7824   -2.4092   -0.9218 H   0  0  0  0  0  0  0  0  0  0  0  0
   -1.6650   -0.3094   -1.1265 H   0  0  0  0  0  0  0  0  0  0  0  0
   -2.4542   -0.7413    1.7580 H   0  0  0  0  0  0  0  0  0  0  0  0
   -4.4821    0.3719    1.1892 H   0  0  0  0  0  0  0  0  0  0  0  0
   -3.1813    0.9816   -1.5220 H   0  0  0  0  0  0  0  0  0  0  0  0
   -4.9160    1.0032   -1.1676 H   0  0  0  0  0  0  0  0  0  0  0  0
   -3.5886    3.1660   -0.7894 H   0  0  0  0  0  0  0  0  0  0  0  0
   -3.3706    2.6963    2.0711 H   0  0  0  0  0  0  0  0  0  0  0  0
   -2.1715    3.3607    0.9519 H   0  0  0  0  0  0  0  0  0  0  0  0
   -1.6747    1.2526    2.4154 H   0  0  0  0  0  0  0  0  0  0  0  0
   -0.8938    1.8240   -0.3304 H   0  0  0  0  0  0  0  0  0  0  0  0
    0.0906   -0.3759    1.3879 H   0  0  0  0  0  0  0  0  0  0  0  0
    0.6282    0.8449   -1.3909 H   0  0  0  0  0  0  0  0  0  0  0  0
    1.5866    1.7142    0.8659 H   0  0  0  0  0  0  0  0  0  0  0  0
    2.6701    1.5049   -0.5481 H   0  0  0  0  0  0  0  0  0  0  0  0
    3.2897    0.4256    1.9194 H   0  0  0  0  0  0  0  0  0  0  0  0
    2.0842   -0.7809    1.4543 H   0  0  0  0  0  0  0  0  0  0  0  0
    1.4288   -1.9039   -0.2548 H   0  0  0  0  0  0  0  0  0  0  0  0
    1.1549   -1.3907   -1.9554 H   0  0  0  0  0  0  0  0  0  0  0  0
    3.4277   -1.8621   -1.6567 H   0  0  0  0  0  0  0  0  0  0  0  0
    3.3055   -0.0973   -1.8742 H   0  0  0  0  0  0  0  0  0  0  0  0
    3.8361   -1.8410    0.5746 H   0  0  0  0  0  0  0  0  0  0  0  0
    5.6852   -0.4076    1.0686 H   0  0  0  0  0  0  0  0  0  0  0  0
    5.7153   -0.9285   -0.6174 H   0  0  0  0  0  0  0  0  0  0  0  0
    4.8863    1.7935    0.2445 H   0  0  0  0  0  0  0  0  0  0  0  0
    6.8342    2.4841   -0.4204 H   0  0  0  0  0  0  0  0  0  0  0  0
    7.1394    0.9570   -1.3242 H   0  0  0  0  0  0  0  0  0  0  0  0
    7.1982    1.0165    0.5221 H   0  0  0  0  0  0  0  0  0  0  0  0
   -5.2236   -0.9216   -1.7726 H   0  0  0  0  0  0  0  0  0  0  0  0
   -4.7517   -1.8421    0.8396 H   0  0  0  0  0  0  0  0  0  0  0  0
   -3.9626   -2.8644   -1.3563 H   0  0  0  0  0  0  0  0  0  0  0  0
   -2.8965   -2.6462    1.2373 H   0  0  0  0  0  0  0  0  0  0  0  0
   -2.4839   -3.8560    0.0109 H   0  0  0  0  0  0  0  0  0  0  0  0
   -0.6223   -2.2721    0.9250 H   0  0  0  0  0  0  0  0  0  0  0  0
   -0.7824   -2.4092   -0.9218 H   0  0  0  0  0  0  0  0  0  0  0  0
   -1.6650   -0.3094   -1.1265 H   0  0  0  0  0  0  0  0  0  0  0  0
   -2.4542   -0.7413    1.7580 H   0  0  0  0  0  0  0  0  0  0  0  0
   -4.4821    0.3719    1.1892 H   0  0  0  0  0  0  0  0  0  0  0  0
   -3.1813    0.9816   -1.5220 H   0  0  0  0  0  0  0  0  0  0  0  0
   -4.9160    1.0032   -1.1676 H   0  0  0  0  0  0  0  0  0  0  0  0
   -3.5886    3.1660   -0.7894 H   0  0  0  0  0  0  0  0  0  0  0  0
   -3.3706    2.6963    2.0711 H   0  0  0  0  0  0  0  0  0  0  0  0
   -2.1715    3.3607    0.9519 H   0  0  0  0  0  0  0  0  0  0  0  0
   -1.6747    1.2526    2.4154 H   0  0  0  0  0  0  0  0  0  0  0  0
   -0.8938    1.8240   -0.3304 H   0  0  0  0  0  0  0  0  0  0  0  0
    0.0906   -0.3759    1.3879 H   0  0  0  0  0  0  0  0  0  0  0  0
    0.6282    0.8449   -1.3909 H   0  0  0  0  0  0  0  0  0  0  0  0
    1.5866    1.7142    0.8659 H   0  0  0  0  0  0  0  0  0  0  0  0
    2.6701    1.5049   -0.5481 H   0  0  0  0  0  0  0  0  0  0  0  0
    3.2897    0.4256    1.9194 H   0  0  0  0  0  0  0  0  0  0  0  0
    2.0842   -0.7809    1.4543 H   0  0  0  0  0  0  0  0  0  0  0  0
    1.4288   -1.9039   -0.2548 H   0  0  0  0  0  0  0  0  0  0  0  0
    1.1549   -1.3907   -1.9554 H   0  0  0  0  0  0  0  0  0  0  0  0
    3.4277   -1.8621   -1.6567 H   0  0  0  0  0  0  0  0  0  0  0  0
    3.3055   -0.0973   -1.8742 H   0  0  0  0  0  0  0  0  0  0  0  0
    3.8361   -1.8410    0.5746 H   0  0  0  0  0  0  0  0  0  0  0  0
    5.6852   -0.4076    1.0686 H   0  0  0  0  0  0  0  0  0  0  0  0
    5.7153   -0.9285   -0.6174 H   0  0  0  0  0  0  0  0  0  0  0  0
    4.8863    1.7935    0.2445 H   0  0  0  0  0  0  0  0  0  0  0  0
    6.8342    2.4841   -0.4204 H   0  0  0  0  0  0  0  0  0  0  0  0
    7.1394    0.9570   -1.3242 H   0  0  0  0  0  0  0  0  0  0  0  0
    7.1982    1.0165    0.5221 H   0  0  0  0  0  0  0  0  0  0  0  0
  1  2  1  0
  2  3  1  0
  3  4  1  0
  4  5  1  0
  5  6  1  0
  6  7  1  0
  2  8  1  0
  7  8  1  0
  8  9  1  0
  9 10  1  0
 10 11  1  0
 10 12  1  0
  7 13  1  0
 12 13  1  0
 13 14  1  0
  6 15  1  0
 14 15  1  0
 15 16  1  0
 16 17  1  0
 17 18  1  0
 16 19  1  0
 19 20  1  0
 18 21  1  0
 20 21  1  0
 21 22  1  0
 22 23  1  0
 23 24  1  0
 25 26  1  0
 26 27  1  0
 27 28  1  0
 28 29  1  0
 29 30  1  0
 30 31  1  0
 26 32  1  0
 31 32  1  0
 32 33  1  0
 33 34  1  0
 34 35  1  0
 34 36  1  0
 31 37  1  0
 36 37  1  0
 37 38  1  0
 30 39  1  0
 38 39  1  0
 39 40  1  0
 40 41  1  0
 41 42  1  0
 40 43  1  0
 43 44  1  0
 42 45  1  0
 44 45  1  0
 45 46  1  0
 46 47  1  0
 47 48  1  0
  1 49  1  0
  2 50  1  1
  3 51  1  0
  4 52  1  0
  4 53  1  0
  5 54  1  0
  5 55  1  0
  6 56  1  0
  7 57  1  0
  8 58  1  0
  9 59  1  0
  9 60  1  0
 10 61  1  0
 12 62  1  0
 12 63  1  0
 13 64  1  0
 14 65  1  0
 15 66  1  1
 16 67  1  0
 17 68  1  0
 17 69  1  0
 18 70  1  0
 18 71  1  0
 19 72  1  0
 19 73  1  0
 20 74  1  0
 20 75  1  0
 21 76  1  0
 22 77  1  0
 22 78  1  0
 23 79  1  0
 24 80  1  0
 24 81  1  0
 24 82  1  0
 25 83  1  0
 26 84  1  1
 27 85  1  0
 28 86  1  0
 28 87  1  0
 29 88  1  0
 29 89  1  0
 30 90  1  0
 31 91  1  0
 32 92  1  0
 33 93  1  0
 33 94  1  0
 34 95  1  0
 36 96  1  0
 36 97  1  0
 37 98  1  0
 38 99  1  0
 39100  1  1
 40101  1  0
 41102  1  0
 41103  1  0
 42104  1  0
 42105  1  0
 43106  1  0
 43107  1  0
 44108  1  0
 44109  1  0
 45110  1  0
 46111  1  0
 46112  1  0
 47113  1  0
 48114  1  0
 48115  1  0
 48116  1  0
M  END
>  <PDBID>  (1) 
4RV6

>  <PDB ID>  (1) 
4RV6

>  <Generic Name>  (1) 
Rucaparib

>  <Brand Name>  (1) 
Rubraca

>  <DrugBank ID>  (1) 
DB12332

>  <ATC Codes>  (1) 
nan

>  <Ligand ID>  (1) 
RPB

>  <Target Name>  (1) 
Poly [ADP-ribose] polymerase 1

>  <UniProt ID>  (1) 
P09874

>  <PDB ID.1>  (1) 
4RV6

>  <Seq. Identity>  (1) 
100%

$$$$
