PDB_DB00273_08
     RDKit          3D

 45 47  0  0  0  0  0  0  0  0999 V2000
    1.1108   -3.5562   -0.6449 C   0  0  0  0  0  0  0  0  0  0  0  0
    0.3142   -2.6639    0.2738 C   0  0  0  0  0  0  0  0  0  0  0  0
   -0.2935   -3.5843    1.3280 C   0  0  0  0  0  0  0  0  0  0  0  0
    1.1217   -1.7081    0.8506 O   0  0  0  0  0  0  0  0  0  0  0  0
   -0.7334   -2.0398   -0.3639 O   0  0  0  0  0  0  0  0  0  0  0  0
   -0.5940   -0.6747   -0.2195 C   0  0  1  0  0  0  0  0  0  0  0  0
   -1.6621   -0.1701    0.7428 C   0  0  2  0  0  0  0  0  0  0  0  0
   -2.9217   -0.2261    0.1935 O   0  0  0  0  0  0  0  0  0  0  0  0
   -3.3454    1.0555   -0.0839 C   0  0  0  0  0  0  0  0  0  0  0  0
   -4.6441    1.3996    0.6299 C   0  0  0  0  0  0  0  0  0  0  0  0
   -3.5936    1.1933   -1.5795 C   0  0  0  0  0  0  0  0  0  0  0  0
   -2.3457    1.9378    0.2686 O   0  0  0  0  0  0  0  0  0  0  0  0
   -1.4672    1.2774    1.1044 C   0  0  2  0  0  0  0  0  0  0  0  0
   -0.0104    1.5957    0.7854 C   0  0  0  0  0  0  0  0  0  0  0  0
    0.7147    0.5218    1.3271 O   0  0  0  0  0  0  0  0  0  0  0  0
    0.7746   -0.4731    0.3430 C   0  0  1  0  0  0  0  0  0  0  0  0
    1.7992   -0.0231   -0.6583 C   0  0  0  0  0  0  0  0  0  0  0  0
    2.7862    0.6525    0.0313 O   0  0  0  0  0  0  0  0  0  0  0  0
    3.7739    1.3758    0.1545 S   0  0  0  0  0  0  0  0  0  0  0  0
    3.9189    2.3098    1.6664 O   0  0  0  0  0  0  0  0  0  0  0  0
    5.3887    0.5787    0.2529 O   0  0  0  0  0  0  0  0  0  0  0  0
    4.1584    2.6400   -1.0215 N   0  0  0  0  0  0  0  0  0  0  0  0
    0.4346   -4.3868   -0.9670 H   0  0  0  0  0  0  0  0  0  0  0  0
    1.9236   -4.0265   -0.0743 H   0  0  0  0  0  0  0  0  0  0  0  0
    1.4469   -3.0649   -1.5664 H   0  0  0  0  0  0  0  0  0  0  0  0
   -0.6278   -4.4912    0.7648 H   0  0  0  0  0  0  0  0  0  0  0  0
    0.4743   -3.9151    2.0661 H   0  0  0  0  0  0  0  0  0  0  0  0
   -1.1355   -3.1104    1.8592 H   0  0  0  0  0  0  0  0  0  0  0  0
   -0.7200   -0.1625   -1.1862 H   0  0  0  0  0  0  0  0  0  0  0  0
   -1.6180   -0.7581    1.6726 H   0  0  0  0  0  0  0  0  0  0  0  0
   -5.4450    0.7596    0.2317 H   0  0  0  0  0  0  0  0  0  0  0  0
   -4.5350    1.2401    1.7233 H   0  0  0  0  0  0  0  0  0  0  0  0
   -4.8522    2.4695    0.4186 H   0  0  0  0  0  0  0  0  0  0  0  0
   -2.6531    0.9993   -2.1261 H   0  0  0  0  0  0  0  0  0  0  0  0
   -4.4008    0.4825   -1.8435 H   0  0  0  0  0  0  0  0  0  0  0  0
   -3.9844    2.2227   -1.7756 H   0  0  0  0  0  0  0  0  0  0  0  0
   -1.6441    1.4634    2.1800 H   0  0  0  0  0  0  0  0  0  0  0  0
    0.3086    2.5654    1.1925 H   0  0  0  0  0  0  0  0  0  0  0  0
    0.0455    1.6120   -0.3279 H   0  0  0  0  0  0  0  0  0  0  0  0
    2.3120   -0.8753   -1.1725 H   0  0  0  0  0  0  0  0  0  0  0  0
    1.3930    0.6037   -1.4696 H   0  0  0  0  0  0  0  0  0  0  0  0
    4.8582    2.6038    1.6988 H   0  0  0  0  0  0  0  0  0  0  0  0
    5.3757    0.0758   -0.5965 H   0  0  0  0  0  0  0  0  0  0  0  0
    3.6114    3.4550   -0.6902 H   0  0  0  0  0  0  0  0  0  0  0  0
    5.1816    2.8195   -0.9798 H   0  0  0  0  0  0  0  0  0  0  0  0
  2  1  1  0
  2  3  1  0
  2  4  1  0
  2  5  1  0
  5  6  1  0
  6  7  1  0
  7  8  1  0
  8  9  1  0
  9 10  1  0
  9 11  1  0
  9 12  1  0
  7 13  1  0
 12 13  1  0
 13 14  1  0
 14 15  1  0
  4 16  1  0
  6 16  1  0
 15 16  1  0
 16 17  1  6
 17 18  1  0
 19 18  1  0
 19 20  1  0
 19 21  1  0
 19 22  1  0
  1 23  1  0
  1 24  1  0
  1 25  1  0
  3 26  1  0
  3 27  1  0
  3 28  1  0
  6 29  1  6
  7 30  1  1
 10 31  1  0
 10 32  1  0
 10 33  1  0
 11 34  1  0
 11 35  1  0
 11 36  1  0
 13 37  1  1
 14 38  1  0
 14 39  1  0
 17 40  1  0
 17 41  1  0
 20 42  1  0
 21 43  1  0
 22 44  1  0
 22 45  1  0
M  END
>  <PDBID>  (1) 
3HKU

>  <PDB ID>  (1) 
3HKU

>  <Generic Name>  (1) 
Topiramate

>  <Brand Name>  (1) 
Abbott-topiramate#Accel-topiramate#Act Topiramate#Apo-topiramate#Auro-topiramate#Ava-topiramate#Dom-topiramate#Gd-topiramate#Ipg-topiramate#Jamp-topiramate#Mar-topiramate#Mint-topiramate#Mylan-topiramate#Nu-topiramate#PHL-topiramate#PMS-topiramate#Pro-topiramate#Q-topiramate#Qsymia#Qudexy XR#Ran-topiramate#Ratio-topiramate#Sandoz Topiramate#Sandoz Topiramate Tablets#Teva-topiramate#Topamax#Topamax 100mg#Topamax 200mg#Topamax 25mg#Topiramate#Topiramate Tablets#Topiramate Tablets USP#Trokendi XR#Van-topiramate#Zym-topiramate

>  <DrugBank ID>  (1) 
DB00273

>  <ATC Codes>  (1) 
N03AX11

>  <Ligand ID>  (1) 
TOR

>  <Target Name>  (1) 
Carbonic anhydrase 2

>  <UniProt ID>  (1) 
P00918

>  <PDB ID.1>  (1) 
3HKU

>  <Seq. Identity>  (1) 
100%

$$$$
