PDB_DB00317_04
     RDKit          3D

 71 74  0  0  0  0  0  0  0  0999 V2000
    4.5165   -0.1913    0.1131 C   0  0  0  0  0  0  0  0  0  0  0  0
    5.7902   -0.4553    0.9069 C   0  0  0  0  0  0  0  0  0  0  0  0
    6.9075   -0.0285    0.2352 O   0  0  0  0  0  0  0  0  0  0  0  0
    6.9242    1.3054   -0.0951 C   0  0  0  0  0  0  0  0  0  0  0  0
    5.6861    1.6875   -0.8146 C   0  0  0  0  0  0  0  0  0  0  0  0
    4.6920    0.6588   -0.9669 N   0  0  0  0  0  0  0  0  0  0  0  0
    4.2575    0.4078   -2.2553 C   0  0  0  0  0  0  0  0  0  0  0  0
    2.8048    0.4483   -2.5071 C   0  0  0  0  0  0  0  0  0  0  0  0
    1.8395   -0.5102   -1.9907 C   0  0  0  0  0  0  0  0  0  0  0  0
    1.4672   -0.8649   -0.8127 O   0  0  0  0  0  0  0  0  0  0  0  0
    1.0119   -0.1288    0.2224 C   0  0  0  0  0  0  0  0  0  0  0  0
    1.2173   -0.7559    1.4994 C   0  0  0  0  0  0  0  0  0  0  0  0
   -0.1353   -1.0871    2.1691 C   0  0  0  0  0  0  0  0  0  0  0  0
    1.9598   -1.9167    1.4195 O   0  0  0  0  0  0  0  0  0  0  0  0
    2.8768   -2.1683    2.3714 C   0  0  0  0  0  0  0  0  0  0  0  0
   -0.5234    0.1148   -0.0890 C   0  0  0  0  0  0  0  0  0  0  0  0
   -1.2979   -1.1220   -0.0147 C   0  0  0  0  0  0  0  0  0  0  0  0
   -1.0535   -1.8739    1.2817 C   0  0  0  0  0  0  0  0  0  0  0  0
   -2.2892   -2.0817    1.9938 N   0  0  0  0  0  0  0  0  0  0  0  0
   -3.1803   -2.8527    1.1940 C   0  0  0  0  0  0  0  0  0  0  0  0
   -3.4241   -2.1680   -0.0534 N   0  0  0  0  0  0  0  0  0  0  0  0
   -2.7807   -0.8759   -0.1170 C   0  0  0  0  0  0  0  0  0  0  0  0
   -3.2562    0.0783    0.7810 N   0  0  0  0  0  0  0  0  0  0  0  0
   -4.2671    0.9728    0.4098 C   0  0  0  0  0  0  0  0  0  0  0  0
   -3.7915    1.8494   -0.7270 C   0  0  0  0  0  0  0  0  0  0  0  0
   -4.6185    3.1135   -0.8474 C   0  0  0  0  0  0  0  0  0  0  0  0
   -4.5003    3.6738   -2.5177 Cl  0  0  0  0  0  0  0  0  0  0  0  0
   -6.0684    2.7233   -0.5755 C   0  0  0  0  0  0  0  0  0  0  0  0
   -6.8511    3.4904   -1.3900 F   0  0  0  0  0  0  0  0  0  0  0  0
   -6.2344    1.2790   -0.9942 C   0  0  0  0  0  0  0  0  0  0  0  0
   -5.5581    0.3275   -0.0304 C   0  0  0  0  0  0  0  0  0  0  0  0
    4.1104   -1.1712   -0.1717 H   0  0  0  0  0  0  0  0  0  0  0  0
    3.7570    0.2781    0.8131 H   0  0  0  0  0  0  0  0  0  0  0  0
    5.9121   -1.5171    1.1628 H   0  0  0  0  0  0  0  0  0  0  0  0
    5.6966    0.1255    1.8515 H   0  0  0  0  0  0  0  0  0  0  0  0
    7.1599    1.9732    0.7634 H   0  0  0  0  0  0  0  0  0  0  0  0
    7.7797    1.4308   -0.8312 H   0  0  0  0  0  0  0  0  0  0  0  0
    5.2106    2.5255   -0.2138 H   0  0  0  0  0  0  0  0  0  0  0  0
    5.9039    2.1541   -1.8122 H   0  0  0  0  0  0  0  0  0  0  0  0
    4.7958    1.0969   -3.0100 H   0  0  0  0  0  0  0  0  0  0  0  0
    4.6549   -0.6123   -2.6558 H   0  0  0  0  0  0  0  0  0  0  0  0
    2.3897    1.4877   -2.2015 H   0  0  0  0  0  0  0  0  0  0  0  0
    2.6867    0.5733   -3.6602 H   0  0  0  0  0  0  0  0  0  0  0  0
    2.2245   -1.5541   -2.4703 H   0  0  0  0  0  0  0  0  0  0  0  0
    0.9169   -0.3873   -2.7234 H   0  0  0  0  0  0  0  0  0  0  0  0
    1.3408    0.9186    0.1132 H   0  0  0  0  0  0  0  0  0  0  0  0
    1.6800   -0.1189    2.2719 H   0  0  0  0  0  0  0  0  0  0  0  0
    0.0002   -1.5951    3.1191 H   0  0  0  0  0  0  0  0  0  0  0  0
   -0.5948   -0.1072    2.3645 H   0  0  0  0  0  0  0  0  0  0  0  0
    3.4107   -3.1132    2.1061 H   0  0  0  0  0  0  0  0  0  0  0  0
    2.4285   -2.2782    3.4071 H   0  0  0  0  0  0  0  0  0  0  0  0
    3.6043   -1.3766    2.4788 H   0  0  0  0  0  0  0  0  0  0  0  0
   -0.5174    0.5304   -1.0992 H   0  0  0  0  0  0  0  0  0  0  0  0
   -0.8839    0.8788    0.6037 H   0  0  0  0  0  0  0  0  0  0  0  0
   -1.0279   -1.8350   -0.8385 H   0  0  0  0  0  0  0  0  0  0  0  0
   -0.6031   -2.8648    1.1036 H   0  0  0  0  0  0  0  0  0  0  0  0
   -2.1480   -2.3997    2.9546 H   0  0  0  0  0  0  0  0  0  0  0  0
   -2.7426   -3.8645    1.0410 H   0  0  0  0  0  0  0  0  0  0  0  0
   -4.1665   -3.0228    1.6713 H   0  0  0  0  0  0  0  0  0  0  0  0
   -3.0348   -2.7537   -0.8285 H   0  0  0  0  0  0  0  0  0  0  0  0
   -2.9531   -0.5049   -1.1651 H   0  0  0  0  0  0  0  0  0  0  0  0
   -2.6876    0.4413    1.5287 H   0  0  0  0  0  0  0  0  0  0  0  0
   -4.4918    1.6346    1.2613 H   0  0  0  0  0  0  0  0  0  0  0  0
   -2.7164    2.1179   -0.5517 H   0  0  0  0  0  0  0  0  0  0  0  0
   -3.7965    1.2860   -1.6766 H   0  0  0  0  0  0  0  0  0  0  0  0
   -4.2482    3.8891   -0.1434 H   0  0  0  0  0  0  0  0  0  0  0  0
   -6.3731    2.9017    0.4719 H   0  0  0  0  0  0  0  0  0  0  0  0
   -7.3473    1.0897   -1.0408 H   0  0  0  0  0  0  0  0  0  0  0  0
   -5.8181    1.1481   -1.9940 H   0  0  0  0  0  0  0  0  0  0  0  0
   -5.3629   -0.6105   -0.6005 H   0  0  0  0  0  0  0  0  0  0  0  0
   -6.2702    0.1565    0.8022 H   0  0  0  0  0  0  0  0  0  0  0  0
  1  2  1  0
  2  3  1  0
  3  4  1  0
  4  5  1  0
  1  6  1  0
  5  6  1  0
  6  7  1  0
  7  8  1  0
  8  9  1  0
  9 10  1  0
 10 11  1  0
 11 12  1  0
 12 13  1  0
 12 14  1  0
 14 15  1  0
 11 16  1  0
 16 17  1  0
 13 18  1  0
 17 18  1  0
 18 19  1  0
 19 20  1  0
 20 21  1  0
 17 22  1  0
 21 22  1  0
 22 23  1  0
 23 24  1  0
 24 25  1  0
 25 26  1  0
 26 27  1  0
 26 28  1  0
 28 29  1  0
 28 30  1  0
 24 31  1  0
 30 31  1  0
  1 32  1  0
  1 33  1  0
  2 34  1  0
  2 35  1  0
  4 36  1  0
  4 37  1  0
  5 38  1  0
  5 39  1  0
  7 40  1  0
  7 41  1  0
  8 42  1  0
  8 43  1  0
  9 44  1  0
  9 45  1  0
 11 46  1  0
 12 47  1  0
 13 48  1  0
 13 49  1  0
 15 50  1  0
 15 51  1  0
 15 52  1  0
 16 53  1  0
 16 54  1  0
 17 55  1  0
 18 56  1  0
 19 57  1  0
 20 58  1  0
 20 59  1  0
 21 60  1  0
 22 61  1  0
 23 62  1  0
 24 63  1  0
 25 64  1  0
 25 65  1  0
 26 66  1  0
 28 67  1  0
 30 68  1  0
 30 69  1  0
 31 70  1  0
 31 71  1  0
M  END
>  <PDBID>  (1) 
4WKQ

>  <PDB ID>  (1) 
4WKQ

>  <Generic Name>  (1) 
Gefitinib

>  <Brand Name>  (1) 
Iressa

>  <DrugBank ID>  (1) 
DB00317

>  <ATC Codes>  (1) 
L01XE02

>  <Ligand ID>  (1) 
IRE

>  <Target Name>  (1) 
Epidermal growth factor receptor

>  <UniProt ID>  (1) 
P00533

>  <PDB ID.1>  (1) 
4WKQ

>  <Seq. Identity>  (1) 
96%

$$$$
