PDB_DB01095_06
     RDKit          3D

296304  0  0  0  0  0  0  0  0999 V2000
   -2.4534    0.8437    0.5909 C   0  0  0  0  0  0  0  0  0  0  0  0
   -1.2742    1.0424    1.5840 C   0  0  0  0  0  0  0  0  0  0  0  0
   -1.5562    2.3110    2.3002 C   0  0  0  0  0  0  0  0  0  0  0  0
   -2.7823    1.9854    3.1775 C   0  0  0  0  0  0  0  0  0  0  0  0
   -3.9610    1.5456    2.3356 C   0  0  0  0  0  0  0  0  0  0  0  0
   -3.5866    0.3723    1.4062 C   0  0  0  0  0  0  0  0  0  0  0  0
   -1.8738    0.0533   -0.4732 C   0  0  0  0  0  0  0  0  0  0  0  0
   -0.4782   -0.3136    0.0839 C   0  0  0  0  0  0  0  0  0  0  0  0
   -0.2106    0.9416    0.7081 N   0  0  0  0  0  0  0  0  0  0  0  0
   -4.9617   -1.7030   -1.5184 C   0  0  0  0  0  0  0  0  0  0  0  0
   -3.8502   -0.7085   -1.7613 C   0  0  0  0  0  0  0  0  0  0  0  0
   -2.5591   -1.0891   -1.0875 C   0  0  0  0  0  0  0  0  0  0  0  0
   -2.8576   -2.2541   -0.1836 C   0  0  0  0  0  0  0  0  0  0  0  0
   -3.1906   -3.4296   -1.0882 C   0  0  0  0  0  0  0  0  0  0  0  0
   -4.5206   -3.1250   -1.7382 C   0  0  0  0  0  0  0  0  0  0  0  0
   -4.4236   -3.3845   -3.0987 F   0  0  0  0  0  0  0  0  0  0  0  0
    7.0109    0.8790    0.4273 O   0  0  0  0  0  0  0  0  0  0  0  0
    6.0638    2.4391   -0.8848 O   0  0  0  0  0  0  0  0  0  0  0  0
    5.9538   -1.5004    0.4996 O   0  0  0  0  0  0  0  0  0  0  0  0
    5.8067    1.3409   -0.0677 C   0  0  0  0  0  0  0  0  0  0  0  0
    5.0734    0.2747   -0.8577 C   0  0  0  0  0  0  0  0  0  0  0  0
    4.7722   -0.9333   -0.0012 C   0  0  1  0  0  0  0  0  0  0  0  0
    4.0827   -2.0301   -0.7621 C   0  0  0  0  0  0  0  0  0  0  0  0
    2.7695   -1.6227   -1.3927 C   0  0  1  0  0  0  0  0  0  0  0  0
    1.8014   -1.1641   -0.3478 C   0  0  0  0  0  0  0  0  0  0  0  0
    0.4727   -0.7678   -0.9579 C   0  0  0  0  0  0  0  0  0  0  0  0
    0.7287    1.8300    0.3794 C   0  0  0  0  0  0  0  0  0  0  0  0
    0.1172    3.1047   -0.2447 C   0  0  0  0  0  0  0  0  0  0  0  0
    1.7609    2.2272    1.4073 C   0  0  0  0  0  0  0  0  0  0  0  0
    2.9464   -0.7986   -2.4655 O   0  0  0  0  0  0  0  0  0  0  0  0
   -2.4534    0.8437    0.5909 C   0  0  0  0  0  0  0  0  0  0  0  0
   -1.2742    1.0424    1.5840 C   0  0  0  0  0  0  0  0  0  0  0  0
   -1.5562    2.3110    2.3002 C   0  0  0  0  0  0  0  0  0  0  0  0
   -2.7823    1.9854    3.1775 C   0  0  0  0  0  0  0  0  0  0  0  0
   -3.9610    1.5456    2.3356 C   0  0  0  0  0  0  0  0  0  0  0  0
   -3.5866    0.3723    1.4062 C   0  0  0  0  0  0  0  0  0  0  0  0
   -1.8738    0.0533   -0.4732 C   0  0  0  0  0  0  0  0  0  0  0  0
   -0.4782   -0.3136    0.0839 C   0  0  0  0  0  0  0  0  0  0  0  0
   -0.2106    0.9416    0.7081 N   0  0  0  0  0  0  0  0  0  0  0  0
   -4.9617   -1.7030   -1.5184 C   0  0  0  0  0  0  0  0  0  0  0  0
   -3.8502   -0.7085   -1.7613 C   0  0  0  0  0  0  0  0  0  0  0  0
   -2.5591   -1.0891   -1.0875 C   0  0  0  0  0  0  0  0  0  0  0  0
   -2.8576   -2.2541   -0.1836 C   0  0  0  0  0  0  0  0  0  0  0  0
   -3.1906   -3.4296   -1.0882 C   0  0  0  0  0  0  0  0  0  0  0  0
   -4.5206   -3.1250   -1.7382 C   0  0  0  0  0  0  0  0  0  0  0  0
   -4.4236   -3.3845   -3.0987 F   0  0  0  0  0  0  0  0  0  0  0  0
    7.0109    0.8790    0.4273 O   0  0  0  0  0  0  0  0  0  0  0  0
    6.0638    2.4391   -0.8848 O   0  0  0  0  0  0  0  0  0  0  0  0
    5.9538   -1.5004    0.4996 O   0  0  0  0  0  0  0  0  0  0  0  0
    5.8067    1.3409   -0.0677 C   0  0  0  0  0  0  0  0  0  0  0  0
    5.0734    0.2747   -0.8577 C   0  0  0  0  0  0  0  0  0  0  0  0
    4.7722   -0.9333   -0.0012 C   0  0  1  0  0  0  0  0  0  0  0  0
    4.0827   -2.0301   -0.7621 C   0  0  0  0  0  0  0  0  0  0  0  0
    2.7695   -1.6227   -1.3927 C   0  0  1  0  0  0  0  0  0  0  0  0
    1.8014   -1.1641   -0.3478 C   0  0  0  0  0  0  0  0  0  0  0  0
    0.4727   -0.7678   -0.9579 C   0  0  0  0  0  0  0  0  0  0  0  0
    0.7287    1.8300    0.3794 C   0  0  0  0  0  0  0  0  0  0  0  0
    0.1172    3.1047   -0.2447 C   0  0  0  0  0  0  0  0  0  0  0  0
    1.7609    2.2272    1.4073 C   0  0  0  0  0  0  0  0  0  0  0  0
    2.9464   -0.7986   -2.4655 O   0  0  0  0  0  0  0  0  0  0  0  0
   -2.4534    0.8437    0.5909 C   0  0  0  0  0  0  0  0  0  0  0  0
   -1.2742    1.0424    1.5840 C   0  0  0  0  0  0  0  0  0  0  0  0
   -1.5562    2.3110    2.3002 C   0  0  0  0  0  0  0  0  0  0  0  0
   -2.7823    1.9854    3.1775 C   0  0  0  0  0  0  0  0  0  0  0  0
   -3.9610    1.5456    2.3356 C   0  0  0  0  0  0  0  0  0  0  0  0
   -3.5866    0.3723    1.4062 C   0  0  0  0  0  0  0  0  0  0  0  0
   -1.8738    0.0533   -0.4732 C   0  0  0  0  0  0  0  0  0  0  0  0
   -0.4782   -0.3136    0.0839 C   0  0  0  0  0  0  0  0  0  0  0  0
   -0.2106    0.9416    0.7081 N   0  0  0  0  0  0  0  0  0  0  0  0
   -4.9617   -1.7030   -1.5184 C   0  0  0  0  0  0  0  0  0  0  0  0
   -3.8502   -0.7085   -1.7613 C   0  0  0  0  0  0  0  0  0  0  0  0
   -2.5591   -1.0891   -1.0875 C   0  0  0  0  0  0  0  0  0  0  0  0
   -2.8576   -2.2541   -0.1836 C   0  0  0  0  0  0  0  0  0  0  0  0
   -3.1906   -3.4296   -1.0882 C   0  0  0  0  0  0  0  0  0  0  0  0
   -4.5206   -3.1250   -1.7382 C   0  0  0  0  0  0  0  0  0  0  0  0
   -4.4236   -3.3845   -3.0987 F   0  0  0  0  0  0  0  0  0  0  0  0
    7.0109    0.8790    0.4273 O   0  0  0  0  0  0  0  0  0  0  0  0
    6.0638    2.4391   -0.8848 O   0  0  0  0  0  0  0  0  0  0  0  0
    5.9538   -1.5004    0.4996 O   0  0  0  0  0  0  0  0  0  0  0  0
    5.8067    1.3409   -0.0677 C   0  0  0  0  0  0  0  0  0  0  0  0
    5.0734    0.2747   -0.8577 C   0  0  0  0  0  0  0  0  0  0  0  0
    4.7722   -0.9333   -0.0012 C   0  0  1  0  0  0  0  0  0  0  0  0
    4.0827   -2.0301   -0.7621 C   0  0  0  0  0  0  0  0  0  0  0  0
    2.7695   -1.6227   -1.3927 C   0  0  1  0  0  0  0  0  0  0  0  0
    1.8014   -1.1641   -0.3478 C   0  0  0  0  0  0  0  0  0  0  0  0
    0.4727   -0.7678   -0.9579 C   0  0  0  0  0  0  0  0  0  0  0  0
    0.7287    1.8300    0.3794 C   0  0  0  0  0  0  0  0  0  0  0  0
    0.1172    3.1047   -0.2447 C   0  0  0  0  0  0  0  0  0  0  0  0
    1.7609    2.2272    1.4073 C   0  0  0  0  0  0  0  0  0  0  0  0
    2.9464   -0.7986   -2.4655 O   0  0  0  0  0  0  0  0  0  0  0  0
   -2.4534    0.8437    0.5909 C   0  0  0  0  0  0  0  0  0  0  0  0
   -1.2742    1.0424    1.5840 C   0  0  0  0  0  0  0  0  0  0  0  0
   -1.5562    2.3110    2.3002 C   0  0  0  0  0  0  0  0  0  0  0  0
   -2.7823    1.9854    3.1775 C   0  0  0  0  0  0  0  0  0  0  0  0
   -3.9610    1.5456    2.3356 C   0  0  0  0  0  0  0  0  0  0  0  0
   -3.5866    0.3723    1.4062 C   0  0  0  0  0  0  0  0  0  0  0  0
   -1.8738    0.0533   -0.4732 C   0  0  0  0  0  0  0  0  0  0  0  0
   -0.4782   -0.3136    0.0839 C   0  0  0  0  0  0  0  0  0  0  0  0
   -0.2106    0.9416    0.7081 N   0  0  0  0  0  0  0  0  0  0  0  0
   -4.9617   -1.7030   -1.5184 C   0  0  0  0  0  0  0  0  0  0  0  0
   -3.8502   -0.7085   -1.7613 C   0  0  0  0  0  0  0  0  0  0  0  0
   -2.5591   -1.0891   -1.0875 C   0  0  0  0  0  0  0  0  0  0  0  0
   -2.8576   -2.2541   -0.1836 C   0  0  0  0  0  0  0  0  0  0  0  0
   -3.1906   -3.4296   -1.0882 C   0  0  0  0  0  0  0  0  0  0  0  0
   -4.5206   -3.1250   -1.7382 C   0  0  0  0  0  0  0  0  0  0  0  0
   -4.4236   -3.3845   -3.0987 F   0  0  0  0  0  0  0  0  0  0  0  0
    7.0109    0.8790    0.4273 O   0  0  0  0  0  0  0  0  0  0  0  0
    6.0638    2.4391   -0.8848 O   0  0  0  0  0  0  0  0  0  0  0  0
    5.9538   -1.5004    0.4996 O   0  0  0  0  0  0  0  0  0  0  0  0
    5.8067    1.3409   -0.0677 C   0  0  0  0  0  0  0  0  0  0  0  0
    5.0734    0.2747   -0.8577 C   0  0  0  0  0  0  0  0  0  0  0  0
    4.7722   -0.9333   -0.0012 C   0  0  1  0  0  0  0  0  0  0  0  0
    4.0827   -2.0301   -0.7621 C   0  0  0  0  0  0  0  0  0  0  0  0
    2.7695   -1.6227   -1.3927 C   0  0  1  0  0  0  0  0  0  0  0  0
    1.8014   -1.1641   -0.3478 C   0  0  0  0  0  0  0  0  0  0  0  0
    0.4727   -0.7678   -0.9579 C   0  0  0  0  0  0  0  0  0  0  0  0
    0.7287    1.8300    0.3794 C   0  0  0  0  0  0  0  0  0  0  0  0
    0.1172    3.1047   -0.2447 C   0  0  0  0  0  0  0  0  0  0  0  0
    1.7609    2.2272    1.4073 C   0  0  0  0  0  0  0  0  0  0  0  0
    2.9464   -0.7986   -2.4655 O   0  0  0  0  0  0  0  0  0  0  0  0
   -2.7075    1.8927    0.2692 H   0  0  0  0  0  0  0  0  0  0  0  0
   -1.3913    0.1486    2.2828 H   0  0  0  0  0  0  0  0  0  0  0  0
   -1.9443    3.0640    1.5805 H   0  0  0  0  0  0  0  0  0  0  0  0
   -0.7787    2.6862    2.9631 H   0  0  0  0  0  0  0  0  0  0  0  0
   -2.5277    1.1419    3.8509 H   0  0  0  0  0  0  0  0  0  0  0  0
   -3.1078    2.8700    3.7359 H   0  0  0  0  0  0  0  0  0  0  0  0
   -4.3161    2.4085    1.7118 H   0  0  0  0  0  0  0  0  0  0  0  0
   -4.7317    1.1948    3.0421 H   0  0  0  0  0  0  0  0  0  0  0  0
   -4.5019    0.1464    0.8606 H   0  0  0  0  0  0  0  0  0  0  0  0
   -3.2988   -0.4402    2.1297 H   0  0  0  0  0  0  0  0  0  0  0  0
   -1.6096    0.7450   -1.3324 H   0  0  0  0  0  0  0  0  0  0  0  0
   -0.6028   -1.0666    0.9044 H   0  0  0  0  0  0  0  0  0  0  0  0
   -5.7355   -1.4906   -2.3130 H   0  0  0  0  0  0  0  0  0  0  0  0
   -5.4909   -1.5461   -0.5565 H   0  0  0  0  0  0  0  0  0  0  0  0
   -3.7199   -0.6634   -2.8858 H   0  0  0  0  0  0  0  0  0  0  0  0
   -4.2142    0.2988   -1.4990 H   0  0  0  0  0  0  0  0  0  0  0  0
   -1.8931   -1.4869   -1.8904 H   0  0  0  0  0  0  0  0  0  0  0  0
   -1.9978   -2.4887    0.4767 H   0  0  0  0  0  0  0  0  0  0  0  0
   -3.7927   -2.1202    0.4111 H   0  0  0  0  0  0  0  0  0  0  0  0
   -2.4170   -3.6196   -1.8439 H   0  0  0  0  0  0  0  0  0  0  0  0
   -3.3443   -4.3335   -0.4299 H   0  0  0  0  0  0  0  0  0  0  0  0
   -5.3245   -3.7857   -1.3554 H   0  0  0  0  0  0  0  0  0  0  0  0
    6.9025    0.5154    1.3258 H   0  0  0  0  0  0  0  0  0  0  0  0
    6.8483    2.9344   -0.5591 H   0  0  0  0  0  0  0  0  0  0  0  0
    6.5009   -1.8025   -0.2765 H   0  0  0  0  0  0  0  0  0  0  0  0
    5.1861    1.7011    0.7768 H   0  0  0  0  0  0  0  0  0  0  0  0
    5.6198   -0.0164   -1.7574 H   0  0  0  0  0  0  0  0  0  0  0  0
    4.1101    0.7303   -1.1475 H   0  0  0  0  0  0  0  0  0  0  0  0
    4.1545   -0.6769    0.8804 H   0  0  0  0  0  0  0  0  0  0  0  0
    3.8860   -2.8717   -0.0910 H   0  0  0  0  0  0  0  0  0  0  0  0
    4.7440   -2.3392   -1.6161 H   0  0  0  0  0  0  0  0  0  0  0  0
    2.3441   -2.5856   -1.8060 H   0  0  0  0  0  0  0  0  0  0  0  0
    2.2088   -0.4550    0.3814 H   0  0  0  0  0  0  0  0  0  0  0  0
    1.6285   -2.1031    0.3017 H   0  0  0  0  0  0  0  0  0  0  0  0
    0.5865    0.0132   -1.7226 H   0  0  0  0  0  0  0  0  0  0  0  0
    0.0779   -1.7135   -1.4245 H   0  0  0  0  0  0  0  0  0  0  0  0
    1.3510    1.4486   -0.5010 H   0  0  0  0  0  0  0  0  0  0  0  0
   -0.8236    2.9135   -0.7601 H   0  0  0  0  0  0  0  0  0  0  0  0
   -0.0002    3.9014    0.5005 H   0  0  0  0  0  0  0  0  0  0  0  0
    0.8119    3.5293   -1.0288 H   0  0  0  0  0  0  0  0  0  0  0  0
    1.9513    3.3127    1.2931 H   0  0  0  0  0  0  0  0  0  0  0  0
    2.7340    1.7177    1.2506 H   0  0  0  0  0  0  0  0  0  0  0  0
    1.4504    1.9738    2.4396 H   0  0  0  0  0  0  0  0  0  0  0  0
    2.3551   -0.0495   -2.5407 H   0  0  0  0  0  0  0  0  0  0  0  0
   -2.7075    1.8927    0.2692 H   0  0  0  0  0  0  0  0  0  0  0  0
   -1.3913    0.1486    2.2828 H   0  0  0  0  0  0  0  0  0  0  0  0
   -1.9443    3.0640    1.5805 H   0  0  0  0  0  0  0  0  0  0  0  0
   -0.7787    2.6862    2.9631 H   0  0  0  0  0  0  0  0  0  0  0  0
   -2.5277    1.1419    3.8509 H   0  0  0  0  0  0  0  0  0  0  0  0
   -3.1078    2.8700    3.7359 H   0  0  0  0  0  0  0  0  0  0  0  0
   -4.3161    2.4085    1.7118 H   0  0  0  0  0  0  0  0  0  0  0  0
   -4.7317    1.1948    3.0421 H   0  0  0  0  0  0  0  0  0  0  0  0
   -4.5019    0.1464    0.8606 H   0  0  0  0  0  0  0  0  0  0  0  0
   -3.2988   -0.4402    2.1297 H   0  0  0  0  0  0  0  0  0  0  0  0
   -1.6096    0.7450   -1.3324 H   0  0  0  0  0  0  0  0  0  0  0  0
   -0.6028   -1.0666    0.9044 H   0  0  0  0  0  0  0  0  0  0  0  0
   -5.7355   -1.4906   -2.3130 H   0  0  0  0  0  0  0  0  0  0  0  0
   -5.4909   -1.5461   -0.5565 H   0  0  0  0  0  0  0  0  0  0  0  0
   -3.7199   -0.6634   -2.8858 H   0  0  0  0  0  0  0  0  0  0  0  0
   -4.2142    0.2988   -1.4990 H   0  0  0  0  0  0  0  0  0  0  0  0
   -1.8931   -1.4869   -1.8904 H   0  0  0  0  0  0  0  0  0  0  0  0
   -1.9978   -2.4887    0.4767 H   0  0  0  0  0  0  0  0  0  0  0  0
   -3.7927   -2.1202    0.4111 H   0  0  0  0  0  0  0  0  0  0  0  0
   -2.4170   -3.6196   -1.8439 H   0  0  0  0  0  0  0  0  0  0  0  0
   -3.3443   -4.3335   -0.4299 H   0  0  0  0  0  0  0  0  0  0  0  0
   -5.3245   -3.7857   -1.3554 H   0  0  0  0  0  0  0  0  0  0  0  0
    6.9025    0.5154    1.3258 H   0  0  0  0  0  0  0  0  0  0  0  0
    6.8483    2.9344   -0.5591 H   0  0  0  0  0  0  0  0  0  0  0  0
    6.5009   -1.8025   -0.2765 H   0  0  0  0  0  0  0  0  0  0  0  0
    5.1861    1.7011    0.7768 H   0  0  0  0  0  0  0  0  0  0  0  0
    5.6198   -0.0164   -1.7574 H   0  0  0  0  0  0  0  0  0  0  0  0
    4.1101    0.7303   -1.1475 H   0  0  0  0  0  0  0  0  0  0  0  0
    4.1545   -0.6769    0.8804 H   0  0  0  0  0  0  0  0  0  0  0  0
    3.8860   -2.8717   -0.0910 H   0  0  0  0  0  0  0  0  0  0  0  0
    4.7440   -2.3392   -1.6161 H   0  0  0  0  0  0  0  0  0  0  0  0
    2.3441   -2.5856   -1.8060 H   0  0  0  0  0  0  0  0  0  0  0  0
    2.2088   -0.4550    0.3814 H   0  0  0  0  0  0  0  0  0  0  0  0
    1.6285   -2.1031    0.3017 H   0  0  0  0  0  0  0  0  0  0  0  0
    0.5865    0.0132   -1.7226 H   0  0  0  0  0  0  0  0  0  0  0  0
    0.0779   -1.7135   -1.4245 H   0  0  0  0  0  0  0  0  0  0  0  0
    1.3510    1.4486   -0.5010 H   0  0  0  0  0  0  0  0  0  0  0  0
   -0.8236    2.9135   -0.7601 H   0  0  0  0  0  0  0  0  0  0  0  0
   -0.0002    3.9014    0.5005 H   0  0  0  0  0  0  0  0  0  0  0  0
    0.8119    3.5293   -1.0288 H   0  0  0  0  0  0  0  0  0  0  0  0
    1.9513    3.3127    1.2931 H   0  0  0  0  0  0  0  0  0  0  0  0
    2.7340    1.7177    1.2506 H   0  0  0  0  0  0  0  0  0  0  0  0
    1.4504    1.9738    2.4396 H   0  0  0  0  0  0  0  0  0  0  0  0
    2.3551   -0.0495   -2.5407 H   0  0  0  0  0  0  0  0  0  0  0  0
   -2.7075    1.8927    0.2692 H   0  0  0  0  0  0  0  0  0  0  0  0
   -1.3913    0.1486    2.2828 H   0  0  0  0  0  0  0  0  0  0  0  0
   -1.9443    3.0640    1.5805 H   0  0  0  0  0  0  0  0  0  0  0  0
   -0.7787    2.6862    2.9631 H   0  0  0  0  0  0  0  0  0  0  0  0
   -2.5277    1.1419    3.8509 H   0  0  0  0  0  0  0  0  0  0  0  0
   -3.1078    2.8700    3.7359 H   0  0  0  0  0  0  0  0  0  0  0  0
   -4.3161    2.4085    1.7118 H   0  0  0  0  0  0  0  0  0  0  0  0
   -4.7317    1.1948    3.0421 H   0  0  0  0  0  0  0  0  0  0  0  0
   -4.5019    0.1464    0.8606 H   0  0  0  0  0  0  0  0  0  0  0  0
   -3.2988   -0.4402    2.1297 H   0  0  0  0  0  0  0  0  0  0  0  0
   -1.6096    0.7450   -1.3324 H   0  0  0  0  0  0  0  0  0  0  0  0
   -0.6028   -1.0666    0.9044 H   0  0  0  0  0  0  0  0  0  0  0  0
   -5.7355   -1.4906   -2.3130 H   0  0  0  0  0  0  0  0  0  0  0  0
   -5.4909   -1.5461   -0.5565 H   0  0  0  0  0  0  0  0  0  0  0  0
   -3.7199   -0.6634   -2.8858 H   0  0  0  0  0  0  0  0  0  0  0  0
   -4.2142    0.2988   -1.4990 H   0  0  0  0  0  0  0  0  0  0  0  0
   -1.8931   -1.4869   -1.8904 H   0  0  0  0  0  0  0  0  0  0  0  0
   -1.9978   -2.4887    0.4767 H   0  0  0  0  0  0  0  0  0  0  0  0
   -3.7927   -2.1202    0.4111 H   0  0  0  0  0  0  0  0  0  0  0  0
   -2.4170   -3.6196   -1.8439 H   0  0  0  0  0  0  0  0  0  0  0  0
   -3.3443   -4.3335   -0.4299 H   0  0  0  0  0  0  0  0  0  0  0  0
   -5.3245   -3.7857   -1.3554 H   0  0  0  0  0  0  0  0  0  0  0  0
    6.9025    0.5154    1.3258 H   0  0  0  0  0  0  0  0  0  0  0  0
    6.8483    2.9344   -0.5591 H   0  0  0  0  0  0  0  0  0  0  0  0
    6.5009   -1.8025   -0.2765 H   0  0  0  0  0  0  0  0  0  0  0  0
    5.1861    1.7011    0.7768 H   0  0  0  0  0  0  0  0  0  0  0  0
    5.6198   -0.0164   -1.7574 H   0  0  0  0  0  0  0  0  0  0  0  0
    4.1101    0.7303   -1.1475 H   0  0  0  0  0  0  0  0  0  0  0  0
    4.1545   -0.6769    0.8804 H   0  0  0  0  0  0  0  0  0  0  0  0
    3.8860   -2.8717   -0.0910 H   0  0  0  0  0  0  0  0  0  0  0  0
    4.7440   -2.3392   -1.6161 H   0  0  0  0  0  0  0  0  0  0  0  0
    2.3441   -2.5856   -1.8060 H   0  0  0  0  0  0  0  0  0  0  0  0
    2.2088   -0.4550    0.3814 H   0  0  0  0  0  0  0  0  0  0  0  0
    1.6285   -2.1031    0.3017 H   0  0  0  0  0  0  0  0  0  0  0  0
    0.5865    0.0132   -1.7226 H   0  0  0  0  0  0  0  0  0  0  0  0
    0.0779   -1.7135   -1.4245 H   0  0  0  0  0  0  0  0  0  0  0  0
    1.3510    1.4486   -0.5010 H   0  0  0  0  0  0  0  0  0  0  0  0
   -0.8236    2.9135   -0.7601 H   0  0  0  0  0  0  0  0  0  0  0  0
   -0.0002    3.9014    0.5005 H   0  0  0  0  0  0  0  0  0  0  0  0
    0.8119    3.5293   -1.0288 H   0  0  0  0  0  0  0  0  0  0  0  0
    1.9513    3.3127    1.2931 H   0  0  0  0  0  0  0  0  0  0  0  0
    2.7340    1.7177    1.2506 H   0  0  0  0  0  0  0  0  0  0  0  0
    1.4504    1.9738    2.4396 H   0  0  0  0  0  0  0  0  0  0  0  0
    2.3551   -0.0495   -2.5407 H   0  0  0  0  0  0  0  0  0  0  0  0
   -2.7075    1.8927    0.2692 H   0  0  0  0  0  0  0  0  0  0  0  0
   -1.3913    0.1486    2.2828 H   0  0  0  0  0  0  0  0  0  0  0  0
   -1.9443    3.0640    1.5805 H   0  0  0  0  0  0  0  0  0  0  0  0
   -0.7787    2.6862    2.9631 H   0  0  0  0  0  0  0  0  0  0  0  0
   -2.5277    1.1419    3.8509 H   0  0  0  0  0  0  0  0  0  0  0  0
   -3.1078    2.8700    3.7359 H   0  0  0  0  0  0  0  0  0  0  0  0
   -4.3161    2.4085    1.7118 H   0  0  0  0  0  0  0  0  0  0  0  0
   -4.7317    1.1948    3.0421 H   0  0  0  0  0  0  0  0  0  0  0  0
   -4.5019    0.1464    0.8606 H   0  0  0  0  0  0  0  0  0  0  0  0
   -3.2988   -0.4402    2.1297 H   0  0  0  0  0  0  0  0  0  0  0  0
   -1.6096    0.7450   -1.3324 H   0  0  0  0  0  0  0  0  0  0  0  0
   -0.6028   -1.0666    0.9044 H   0  0  0  0  0  0  0  0  0  0  0  0
   -5.7355   -1.4906   -2.3130 H   0  0  0  0  0  0  0  0  0  0  0  0
   -5.4909   -1.5461   -0.5565 H   0  0  0  0  0  0  0  0  0  0  0  0
   -3.7199   -0.6634   -2.8858 H   0  0  0  0  0  0  0  0  0  0  0  0
   -4.2142    0.2988   -1.4990 H   0  0  0  0  0  0  0  0  0  0  0  0
   -1.8931   -1.4869   -1.8904 H   0  0  0  0  0  0  0  0  0  0  0  0
   -1.9978   -2.4887    0.4767 H   0  0  0  0  0  0  0  0  0  0  0  0
   -3.7927   -2.1202    0.4111 H   0  0  0  0  0  0  0  0  0  0  0  0
   -2.4170   -3.6196   -1.8439 H   0  0  0  0  0  0  0  0  0  0  0  0
   -3.3443   -4.3335   -0.4299 H   0  0  0  0  0  0  0  0  0  0  0  0
   -5.3245   -3.7857   -1.3554 H   0  0  0  0  0  0  0  0  0  0  0  0
    6.9025    0.5154    1.3258 H   0  0  0  0  0  0  0  0  0  0  0  0
    6.8483    2.9344   -0.5591 H   0  0  0  0  0  0  0  0  0  0  0  0
    6.5009   -1.8025   -0.2765 H   0  0  0  0  0  0  0  0  0  0  0  0
    5.1861    1.7011    0.7768 H   0  0  0  0  0  0  0  0  0  0  0  0
    5.6198   -0.0164   -1.7574 H   0  0  0  0  0  0  0  0  0  0  0  0
    4.1101    0.7303   -1.1475 H   0  0  0  0  0  0  0  0  0  0  0  0
    4.1545   -0.6769    0.8804 H   0  0  0  0  0  0  0  0  0  0  0  0
    3.8860   -2.8717   -0.0910 H   0  0  0  0  0  0  0  0  0  0  0  0
    4.7440   -2.3392   -1.6161 H   0  0  0  0  0  0  0  0  0  0  0  0
    2.3441   -2.5856   -1.8060 H   0  0  0  0  0  0  0  0  0  0  0  0
    2.2088   -0.4550    0.3814 H   0  0  0  0  0  0  0  0  0  0  0  0
    1.6285   -2.1031    0.3017 H   0  0  0  0  0  0  0  0  0  0  0  0
    0.5865    0.0132   -1.7226 H   0  0  0  0  0  0  0  0  0  0  0  0
    0.0779   -1.7135   -1.4245 H   0  0  0  0  0  0  0  0  0  0  0  0
    1.3510    1.4486   -0.5010 H   0  0  0  0  0  0  0  0  0  0  0  0
   -0.8236    2.9135   -0.7601 H   0  0  0  0  0  0  0  0  0  0  0  0
   -0.0002    3.9014    0.5005 H   0  0  0  0  0  0  0  0  0  0  0  0
    0.8119    3.5293   -1.0288 H   0  0  0  0  0  0  0  0  0  0  0  0
    1.9513    3.3127    1.2931 H   0  0  0  0  0  0  0  0  0  0  0  0
    2.7340    1.7177    1.2506 H   0  0  0  0  0  0  0  0  0  0  0  0
    1.4504    1.9738    2.4396 H   0  0  0  0  0  0  0  0  0  0  0  0
    2.3551   -0.0495   -2.5407 H   0  0  0  0  0  0  0  0  0  0  0  0
  1  2  1  0
  2  3  1  0
  3  4  1  0
  4  5  1  0
  1  6  1  0
  5  6  1  0
  1  7  1  0
  7  8  1  0
  2  9  1  0
  8  9  1  0
 10 11  1  0
  7 12  1  0
 11 12  1  0
 12 13  1  0
 13 14  1  0
 10 15  1  0
 14 15  1  0
 15 16  1  0
 17 20  1  0
 18 20  1  0
 20 21  1  0
 19 22  1  0
 21 22  1  0
 22 23  1  0
 23 24  1  0
 24 25  1  0
  8 26  1  0
 25 26  1  0
  9 27  1  0
 27 28  1  0
 27 29  1  0
 24 30  1  0
 31 32  1  0
 32 33  1  0
 33 34  1  0
 34 35  1  0
 31 36  1  0
 35 36  1  0
 31 37  1  0
 37 38  1  0
 32 39  1  0
 38 39  1  0
 40 41  1  0
 37 42  1  0
 41 42  1  0
 42 43  1  0
 43 44  1  0
 40 45  1  0
 44 45  1  0
 45 46  1  0
 47 50  1  0
 48 50  1  0
 50 51  1  0
 49 52  1  0
 51 52  1  0
 52 53  1  0
 53 54  1  0
 54 55  1  0
 38 56  1  0
 55 56  1  0
 39 57  1  0
 57 58  1  0
 57 59  1  0
 54 60  1  0
 61 62  1  0
 62 63  1  0
 63 64  1  0
 64 65  1  0
 61 66  1  0
 65 66  1  0
 61 67  1  0
 67 68  1  0
 62 69  1  0
 68 69  1  0
 70 71  1  0
 67 72  1  0
 71 72  1  0
 72 73  1  0
 73 74  1  0
 70 75  1  0
 74 75  1  0
 75 76  1  0
 77 80  1  0
 78 80  1  0
 80 81  1  0
 79 82  1  0
 81 82  1  0
 82 83  1  0
 83 84  1  0
 84 85  1  0
 68 86  1  0
 85 86  1  0
 69 87  1  0
 87 88  1  0
 87 89  1  0
 84 90  1  0
 91 92  1  0
 92 93  1  0
 93 94  1  0
 94 95  1  0
 91 96  1  0
 95 96  1  0
 91 97  1  0
 97 98  1  0
 92 99  1  0
 98 99  1  0
100101  1  0
 97102  1  0
101102  1  0
102103  1  0
103104  1  0
100105  1  0
104105  1  0
105106  1  0
107110  1  0
108110  1  0
110111  1  0
109112  1  0
111112  1  0
112113  1  0
113114  1  0
114115  1  0
 98116  1  0
115116  1  0
 99117  1  0
117118  1  0
117119  1  0
114120  1  0
  1121  1  0
  2122  1  0
  3123  1  0
  3124  1  0
  4125  1  0
  4126  1  0
  5127  1  0
  5128  1  0
  6129  1  0
  6130  1  0
  7131  1  0
  8132  1  0
 10133  1  0
 10134  1  0
 11135  1  0
 11136  1  0
 12137  1  0
 13138  1  0
 13139  1  0
 14140  1  0
 14141  1  0
 15142  1  0
 17143  1  0
 18144  1  0
 19145  1  0
 20146  1  0
 21147  1  0
 21148  1  0
 22149  1  1
 23150  1  0
 23151  1  0
 24152  1  6
 25153  1  0
 25154  1  0
 26155  1  0
 26156  1  0
 27157  1  0
 28158  1  0
 28159  1  0
 28160  1  0
 29161  1  0
 29162  1  0
 29163  1  0
 30164  1  0
 31165  1  0
 32166  1  0
 33167  1  0
 33168  1  0
 34169  1  0
 34170  1  0
 35171  1  0
 35172  1  0
 36173  1  0
 36174  1  0
 37175  1  0
 38176  1  0
 40177  1  0
 40178  1  0
 41179  1  0
 41180  1  0
 42181  1  0
 43182  1  0
 43183  1  0
 44184  1  0
 44185  1  0
 45186  1  0
 47187  1  0
 48188  1  0
 49189  1  0
 50190  1  0
 51191  1  0
 51192  1  0
 52193  1  1
 53194  1  0
 53195  1  0
 54196  1  6
 55197  1  0
 55198  1  0
 56199  1  0
 56200  1  0
 57201  1  0
 58202  1  0
 58203  1  0
 58204  1  0
 59205  1  0
 59206  1  0
 59207  1  0
 60208  1  0
 61209  1  0
 62210  1  0
 63211  1  0
 63212  1  0
 64213  1  0
 64214  1  0
 65215  1  0
 65216  1  0
 66217  1  0
 66218  1  0
 67219  1  0
 68220  1  0
 70221  1  0
 70222  1  0
 71223  1  0
 71224  1  0
 72225  1  0
 73226  1  0
 73227  1  0
 74228  1  0
 74229  1  0
 75230  1  0
 77231  1  0
 78232  1  0
 79233  1  0
 80234  1  0
 81235  1  0
 81236  1  0
 82237  1  1
 83238  1  0
 83239  1  0
 84240  1  6
 85241  1  0
 85242  1  0
 86243  1  0
 86244  1  0
 87245  1  0
 88246  1  0
 88247  1  0
 88248  1  0
 89249  1  0
 89250  1  0
 89251  1  0
 90252  1  0
 91253  1  0
 92254  1  0
 93255  1  0
 93256  1  0
 94257  1  0
 94258  1  0
 95259  1  0
 95260  1  0
 96261  1  0
 96262  1  0
 97263  1  0
 98264  1  0
100265  1  0
100266  1  0
101267  1  0
101268  1  0
102269  1  0
103270  1  0
103271  1  0
104272  1  0
104273  1  0
105274  1  0
107275  1  0
108276  1  0
109277  1  0
110278  1  0
111279  1  0
111280  1  0
112281  1  1
113282  1  0
113283  1  0
114284  1  6
115285  1  0
115286  1  0
116287  1  0
116288  1  0
117289  1  0
118290  1  0
118291  1  0
118292  1  0
119293  1  0
119294  1  0
119295  1  0
120296  1  0
M  END
>  <PDBID>  (1) 
1HWI

>  <PDB ID>  (1) 
1HWI

>  <Generic Name>  (1) 
Fluvastatin

>  <Brand Name>  (1) 
Fluvastatin#Fluvastatin Sodium#Fluvastatin Sodium ER#Lescol#Lescol 20mg#Lescol 40mg#Lescol XL#Sandoz Fluvastatin#Teva-fluvastatin#Canef#Cranoc

>  <DrugBank ID>  (1) 
DB01095

>  <ATC Codes>  (1) 
C10AA04

>  <Ligand ID>  (1) 
115

>  <Target Name>  (1) 
3-hydroxy-3-methylglutaryl-coenzyme A reductase

>  <UniProt ID>  (1) 
P04035

>  <PDB ID.1>  (1) 
1HWI

>  <Seq. Identity>  (1) 
97%

$$$$
