PDB_DB00323_04
     RDKit          3D

 47 48  0  0  0  0  0  0  0  0999 V2000
   -0.3461   -2.5702    0.2024 O   0  0  0  0  0  0  0  0  0  0  0  0
   -0.0830   -1.2873   -0.3779 C   0  0  1  0  0  0  0  0  0  0  0  0
   -0.7970   -0.3495    0.5074 C   0  0  1  0  0  0  0  0  0  0  0  0
   -0.7734    1.0897    0.2426 C   0  0  0  0  0  0  0  0  0  0  0  0
   -1.7708    1.5380   -0.8230 C   0  0  0  0  0  0  0  0  0  0  0  0
   -1.5441    0.8044   -1.9607 O   0  0  0  0  0  0  0  0  0  0  0  0
   -2.2735   -0.7840    0.4894 C   0  0  0  0  0  0  0  0  0  0  0  0
   -3.1871    0.3603    0.8210 C   0  0  0  0  0  0  0  0  0  0  0  0
   -4.5330   -0.1639    0.9375 N   0  0  0  0  0  0  0  0  0  0  0  0
   -4.9667   -0.7463   -0.1982 O   0  0  0  0  0  0  0  0  0  0  0  0
   -5.3445    0.8682    1.2687 O   0  0  0  0  0  0  0  0  0  0  0  0
   -3.1801    1.3617   -0.2906 C   0  0  0  0  0  0  0  0  0  0  0  0
   -3.9819    0.8988   -1.3348 O   0  0  0  0  0  0  0  0  0  0  0  0
    1.4097   -1.1795   -0.4489 C   0  0  0  0  0  0  0  0  0  0  0  0
    2.0381   -1.2616    0.9010 C   0  0  0  0  0  0  0  0  0  0  0  0
    3.5036   -1.0243    0.9303 C   0  0  0  0  0  0  0  0  0  0  0  0
    4.0371   -0.1217   -0.1241 C   0  0  0  0  0  0  0  0  0  0  0  0
    5.1499    0.7142    0.4229 C   0  0  0  0  0  0  0  0  0  0  0  0
    2.9231    0.8010   -0.5786 C   0  0  0  0  0  0  0  0  0  0  0  0
    1.9218   -0.0748   -1.3147 C   0  0  0  0  0  0  0  0  0  0  0  0
    0.1639    1.5932    0.0544 H   0  0  0  0  0  0  0  0  0  0  0  0
   -2.3785    0.6111   -2.4358 H   0  0  0  0  0  0  0  0  0  0  0  0
   -2.5067   -1.0957   -0.5595 H   0  0  0  0  0  0  0  0  0  0  0  0
   -4.5979    1.6105   -1.6510 H   0  0  0  0  0  0  0  0  0  0  0  0
    1.8648   -2.3121    1.2807 H   0  0  0  0  0  0  0  0  0  0  0  0
    4.0999   -1.9818    0.8652 H   0  0  0  0  0  0  0  0  0  0  0  0
    5.8818    0.0207    0.9181 H   0  0  0  0  0  0  0  0  0  0  0  0
    5.6709    1.2531   -0.4174 H   0  0  0  0  0  0  0  0  0  0  0  0
    4.7231    1.4450    1.1265 H   0  0  0  0  0  0  0  0  0  0  0  0
    3.3733    1.5396   -1.2706 H   0  0  0  0  0  0  0  0  0  0  0  0
    2.5301   -0.4938   -2.1779 H   0  0  0  0  0  0  0  0  0  0  0  0
   -0.1668   -2.4403    1.1674 H   0  0  0  0  0  0  0  0  0  0  0  0
   -0.5057   -1.3604   -1.3994 H   0  0  0  0  0  0  0  0  0  0  0  0
   -0.4724   -0.5364    1.5545 H   0  0  0  0  0  0  0  0  0  0  0  0
   -1.1726    1.5911    1.1828 H   0  0  0  0  0  0  0  0  0  0  0  0
   -1.5548    2.6067   -1.0253 H   0  0  0  0  0  0  0  0  0  0  0  0
   -2.4295   -1.6769    1.1152 H   0  0  0  0  0  0  0  0  0  0  0  0
   -2.9356    0.7899    1.8161 H   0  0  0  0  0  0  0  0  0  0  0  0
   -4.5425   -1.6555   -0.2396 H   0  0  0  0  0  0  0  0  0  0  0  0
   -4.9075    1.5323    1.8467 H   0  0  0  0  0  0  0  0  0  0  0  0
   -3.5499    2.3392    0.0590 H   0  0  0  0  0  0  0  0  0  0  0  0
    1.7434   -2.1443   -0.9552 H   0  0  0  0  0  0  0  0  0  0  0  0
    1.5620   -0.6139    1.6591 H   0  0  0  0  0  0  0  0  0  0  0  0
    3.8227   -0.6102    1.9344 H   0  0  0  0  0  0  0  0  0  0  0  0
    4.3785   -0.7359   -0.9959 H   0  0  0  0  0  0  0  0  0  0  0  0
    2.5244    1.3001    0.3015 H   0  0  0  0  0  0  0  0  0  0  0  0
    1.1797    0.5517   -1.8047 H   0  0  0  0  0  0  0  0  0  0  0  0
  1  2  1  0
  2  3  1  0
  3  4  1  0
  4  5  1  0
  5  6  1  0
  3  7  1  0
  7  8  1  0
  8  9  1  0
  9 10  1  0
  9 11  1  0
  5 12  1  0
  8 12  1  0
 12 13  1  0
  2 14  1  0
 14 15  1  0
 15 16  1  0
 16 17  1  0
 17 18  1  0
 17 19  1  0
 14 20  1  0
 19 20  1  0
  4 21  1  0
  6 22  1  0
  7 23  1  0
 24 13  1  0
 15 25  1  0
 16 26  1  0
 18 27  1  0
 18 28  1  0
 18 29  1  0
 19 30  1  0
 20 31  1  0
  1 32  1  0
  2 33  1  6
  3 34  1  1
  4 35  1  0
  5 36  1  0
  7 37  1  0
  8 38  1  0
 10 39  1  0
 11 40  1  0
 12 41  1  0
 14 42  1  0
 15 43  1  0
 16 44  1  0
 17 45  1  0
 19 46  1  0
 20 47  1  0
M  END
>  <PDBID>  (1) 
3S68

>  <PDB ID>  (1) 
3S68

>  <Generic Name>  (1) 
Tolcapone

>  <Brand Name>  (1) 
Tasmar#Tolcapone#Sen De Ning

>  <DrugBank ID>  (1) 
DB00323

>  <ATC Codes>  (1) 
N04BX01

>  <Ligand ID>  (1) 
TCW

>  <Target Name>  (1) 
Catechol O-methyltransferase

>  <UniProt ID>  (1) 
P21964

>  <PDB ID.1>  (1) 
3S68

>  <Seq. Identity>  (1) 
81%

$$$$
