PDB_DB00443_02
     RDKit          3D

130136  0  0  0  0  0  0  0  0999 V2000
   -3.0598    1.5065    1.0123 C   0  0  0  0  0  0  0  0  0  0  0  0
   -4.5276    1.2651    1.2352 C   0  0  0  0  0  0  0  0  0  0  0  0
   -5.1920    1.3162   -0.1477 C   0  0  0  0  0  0  0  0  0  0  0  0
   -4.1965    0.8092   -1.1283 C   0  0  0  0  0  0  0  0  0  0  0  0
   -3.3253   -0.3238   -0.5567 C   0  0  0  0  0  0  0  0  0  0  0  0
   -2.6617   -0.9918   -1.6752 C   0  0  0  0  0  0  0  0  0  0  0  0
   -1.2667   -1.4379   -1.5481 C   0  0  0  0  0  0  0  0  0  0  0  0
   -0.5177   -0.9619   -0.3162 C   0  0  2  0  0  0  0  0  0  0  0  0
   -1.0720    0.4010   -0.0178 C   0  0  1  0  0  0  0  0  0  0  0  0
   -2.4427    0.1763    0.5579 C   0  0  1  0  0  0  0  0  0  0  0  0
   -0.2022    1.2663    0.8032 C   0  0  2  0  0  0  0  0  0  0  0  0
    1.2221    1.2873    0.2647 C   0  0  0  0  0  0  0  0  0  0  0  0
    1.7801   -0.0695    0.2931 C   0  0  1  0  0  0  0  0  0  0  0  0
    0.9207   -0.9885   -0.5883 C   0  0  1  0  0  0  0  0  0  0  0  0
    1.6096   -2.3001   -0.2957 C   0  0  0  0  0  0  0  0  0  0  0  0
    3.0661   -1.8923   -0.3131 C   0  0  2  0  0  0  0  0  0  0  0  0
    3.0644   -0.3414   -0.3823 C   0  0  2  0  0  0  0  0  0  0  0  0
    1.8109   -0.5826    1.7092 C   0  0  0  0  0  0  0  0  0  0  0  0
   -2.4566   -0.7256    1.7583 C   0  0  0  0  0  0  0  0  0  0  0  0
    4.3091    0.2258    0.1483 C   0  0  0  0  0  0  0  0  0  0  0  0
    4.5398    1.6013   -0.4199 C   0  0  0  0  0  0  0  0  0  0  0  0
    3.7011   -2.4666   -1.5813 C   0  0  0  0  0  0  0  0  0  0  0  0
   -1.2636    1.0491   -1.2428 F   0  0  0  0  0  0  0  0  0  0  0  0
   -5.5208    2.6420   -0.3793 O   0  0  0  0  0  0  0  0  0  0  0  0
   -0.2572    1.0480    2.1655 O   0  0  0  0  0  0  0  0  0  0  0  0
    3.0149   -0.1178   -1.7741 O   0  0  0  0  0  0  0  0  0  0  0  0
    4.5088    0.1509    1.5005 O   0  0  0  0  0  0  0  0  0  0  0  0
    5.8444    2.0436   -0.2033 O   0  0  0  0  0  0  0  0  0  0  0  0
    1.1693   -0.7123   -1.6335 H   0  0  0  0  0  0  0  0  0  0  0  0
   -3.1006    1.6818   -0.3676 C   0  0  0  0  0  0  0  0  0  0  0  0
   -4.5924    1.6766   -0.3162 C   0  0  0  0  0  0  0  0  0  0  0  0
   -5.2133    0.4796   -0.9584 C   0  0  0  0  0  0  0  0  0  0  0  0
   -4.6896   -0.7501   -0.2054 C   0  0  0  0  0  0  0  0  0  0  0  0
   -3.2226   -0.8142   -0.4403 C   0  0  0  0  0  0  0  0  0  0  0  0
   -2.6278   -2.0777    0.0658 C   0  0  0  0  0  0  0  0  0  0  0  0
   -1.1549   -2.1559    0.0371 C   0  0  0  0  0  0  0  0  0  0  0  0
   -0.4515   -0.8680    0.4714 C   0  0  2  0  0  0  0  0  0  0  0  0
   -1.0658    0.2283   -0.3616 C   0  0  1  0  0  0  0  0  0  0  0  0
   -2.4857    0.3954    0.1153 C   0  0  1  0  0  0  0  0  0  0  0  0
   -0.3036    1.4951   -0.4006 C   0  0  2  0  0  0  0  0  0  0  0  0
    1.1263    1.2658   -0.7665 C   0  0  0  0  0  0  0  0  0  0  0  0
    1.7810    0.2825    0.1095 C   0  0  1  0  0  0  0  0  0  0  0  0
    0.9621   -1.0223    0.1005 C   0  0  1  0  0  0  0  0  0  0  0  0
    1.8260   -1.8676    0.9794 C   0  0  0  0  0  0  0  0  0  0  0  0
    3.2554   -1.4355    0.6026 C   0  0  2  0  0  0  0  0  0  0  0  0
    3.0502   -0.3137   -0.3856 C   0  0  2  0  0  0  0  0  0  0  0  0
    1.8155    0.7156    1.5537 C   0  0  0  0  0  0  0  0  0  0  0  0
   -2.5851    0.3973    1.6330 C   0  0  0  0  0  0  0  0  0  0  0  0
    4.1914    0.5128   -0.6932 C   0  0  0  0  0  0  0  0  0  0  0  0
    4.9601    1.2020    0.3552 C   0  0  0  0  0  0  0  0  0  0  0  0
    3.9067   -2.6511   -0.0562 C   0  0  0  0  0  0  0  0  0  0  0  0
   -1.1244   -0.2695   -1.6716 F   0  0  0  0  0  0  0  0  0  0  0  0
   -4.7992    0.4488   -2.2929 O   0  0  0  0  0  0  0  0  0  0  0  0
   -0.4696    2.2868    0.7352 O   0  0  0  0  0  0  0  0  0  0  0  0
    2.7052   -0.9879   -1.5957 O   0  0  0  0  0  0  0  0  0  0  0  0
    3.8527    1.4351   -1.7020 O   0  0  0  0  0  0  0  0  0  0  0  0
    4.2518    2.2549    0.9271 O   0  0  0  0  0  0  0  0  0  0  0  0
   -2.5345    1.9046    1.8962 H   0  0  0  0  0  0  0  0  0  0  0  0
   -2.9210    2.2574    0.2022 H   0  0  0  0  0  0  0  0  0  0  0  0
   -4.9708    2.0320    1.9060 H   0  0  0  0  0  0  0  0  0  0  0  0
   -4.7804    0.2858    1.6410 H   0  0  0  0  0  0  0  0  0  0  0  0
   -6.1275    0.7343   -0.1110 H   0  0  0  0  0  0  0  0  0  0  0  0
   -4.7735    0.3118   -1.9622 H   0  0  0  0  0  0  0  0  0  0  0  0
   -3.5845    1.5837   -1.6115 H   0  0  0  0  0  0  0  0  0  0  0  0
   -4.0807   -1.0016   -0.0549 H   0  0  0  0  0  0  0  0  0  0  0  0
   -3.2771   -1.9060   -1.9497 H   0  0  0  0  0  0  0  0  0  0  0  0
   -2.7358   -0.3771   -2.6260 H   0  0  0  0  0  0  0  0  0  0  0  0
   -1.1574   -2.5634   -1.5654 H   0  0  0  0  0  0  0  0  0  0  0  0
   -0.6265   -1.1139   -2.4233 H   0  0  0  0  0  0  0  0  0  0  0  0
   -0.7450   -1.7065    0.4748 H   0  0  0  0  0  0  0  0  0  0  0  0
   -0.5656    2.3297    0.6594 H   0  0  0  0  0  0  0  0  0  0  0  0
    1.7872    1.9455    0.9983 H   0  0  0  0  0  0  0  0  0  0  0  0
    1.1924    1.7934   -0.6969 H   0  0  0  0  0  0  0  0  0  0  0  0
    1.3168   -2.7162    0.6824 H   0  0  0  0  0  0  0  0  0  0  0  0
    1.3807   -3.0740   -1.0539 H   0  0  0  0  0  0  0  0  0  0  0  0
    3.6627   -2.2640    0.5155 H   0  0  0  0  0  0  0  0  0  0  0  0
    2.6773   -1.2300    1.9385 H   0  0  0  0  0  0  0  0  0  0  0  0
    1.9388    0.3014    2.3986 H   0  0  0  0  0  0  0  0  0  0  0  0
    0.9052   -1.1318    2.0004 H   0  0  0  0  0  0  0  0  0  0  0  0
   -3.0905   -0.3203    2.5979 H   0  0  0  0  0  0  0  0  0  0  0  0
   -1.4858   -0.9344    2.2019 H   0  0  0  0  0  0  0  0  0  0  0  0
   -2.8722   -1.7079    1.4163 H   0  0  0  0  0  0  0  0  0  0  0  0
    5.1719   -0.4019   -0.2926 H   0  0  0  0  0  0  0  0  0  0  0  0
    3.7887    2.3461   -0.1302 H   0  0  0  0  0  0  0  0  0  0  0  0
    4.4191    1.4880   -1.5377 H   0  0  0  0  0  0  0  0  0  0  0  0
    4.7944   -2.5366   -1.4499 H   0  0  0  0  0  0  0  0  0  0  0  0
    3.3241   -3.5191   -1.6718 H   0  0  0  0  0  0  0  0  0  0  0  0
    3.4254   -1.8654   -2.4732 H   0  0  0  0  0  0  0  0  0  0  0  0
   -5.9359    3.0405    0.4470 H   0  0  0  0  0  0  0  0  0  0  0  0
   -0.2659    1.8843    2.6995 H   0  0  0  0  0  0  0  0  0  0  0  0
    2.5781    0.7172   -2.0010 H   0  0  0  0  0  0  0  0  0  0  0  0
    5.1079    0.8748    1.8235 H   0  0  0  0  0  0  0  0  0  0  0  0
    6.4613    1.6628   -0.8911 H   0  0  0  0  0  0  0  0  0  0  0  0
   -2.7858    1.9658   -1.3877 H   0  0  0  0  0  0  0  0  0  0  0  0
   -2.7598    2.4972    0.3361 H   0  0  0  0  0  0  0  0  0  0  0  0
   -4.9947    1.7893    0.7189 H   0  0  0  0  0  0  0  0  0  0  0  0
   -4.9424    2.5978   -0.8572 H   0  0  0  0  0  0  0  0  0  0  0  0
   -6.3025    0.5692   -0.8844 H   0  0  0  0  0  0  0  0  0  0  0  0
   -4.9709   -0.6333    0.8494 H   0  0  0  0  0  0  0  0  0  0  0  0
   -5.1601   -1.6177   -0.6906 H   0  0  0  0  0  0  0  0  0  0  0  0
   -3.0571   -0.7823   -1.5499 H   0  0  0  0  0  0  0  0  0  0  0  0
   -3.0173   -2.9095   -0.5956 H   0  0  0  0  0  0  0  0  0  0  0  0
   -3.0153   -2.3619    1.0887 H   0  0  0  0  0  0  0  0  0  0  0  0
   -0.8293   -2.9256    0.7916 H   0  0  0  0  0  0  0  0  0  0  0  0
   -0.7297   -2.5042   -0.9281 H   0  0  0  0  0  0  0  0  0  0  0  0
   -0.6664   -0.7754    1.5384 H   0  0  0  0  0  0  0  0  0  0  0  0
   -0.7457    2.1095   -1.2426 H   0  0  0  0  0  0  0  0  0  0  0  0
    1.1547    0.9242   -1.8208 H   0  0  0  0  0  0  0  0  0  0  0  0
    1.6492    2.2620   -0.6609 H   0  0  0  0  0  0  0  0  0  0  0  0
    0.9954   -1.4733   -0.9277 H   0  0  0  0  0  0  0  0  0  0  0  0
    1.6412   -1.6940    2.0617 H   0  0  0  0  0  0  0  0  0  0  0  0
    1.6550   -2.9265    0.7864 H   0  0  0  0  0  0  0  0  0  0  0  0
    3.8589   -1.1815    1.4682 H   0  0  0  0  0  0  0  0  0  0  0  0
    2.6895    0.3557    2.1133 H   0  0  0  0  0  0  0  0  0  0  0  0
    1.6448    1.8068    1.5899 H   0  0  0  0  0  0  0  0  0  0  0  0
    0.9423    0.2859    2.1295 H   0  0  0  0  0  0  0  0  0  0  0  0
   -3.5345    0.9364    1.8931 H   0  0  0  0  0  0  0  0  0  0  0  0
   -2.6731   -0.6026    2.0617 H   0  0  0  0  0  0  0  0  0  0  0  0
   -1.7637    0.9207    2.1210 H   0  0  0  0  0  0  0  0  0  0  0  0
    4.9404   -0.1575   -1.2373 H   0  0  0  0  0  0  0  0  0  0  0  0
    5.2935    0.5659    1.1959 H   0  0  0  0  0  0  0  0  0  0  0  0
    5.9044    1.6591   -0.0449 H   0  0  0  0  0  0  0  0  0  0  0  0
    4.7581   -2.3783   -0.6812 H   0  0  0  0  0  0  0  0  0  0  0  0
    4.2083   -3.3199    0.7923 H   0  0  0  0  0  0  0  0  0  0  0  0
    3.1169   -3.2098   -0.6091 H   0  0  0  0  0  0  0  0  0  0  0  0
   -4.6618    1.3770   -2.6455 H   0  0  0  0  0  0  0  0  0  0  0  0
   -0.3342    3.2427    0.5241 H   0  0  0  0  0  0  0  0  0  0  0  0
    3.5322   -1.2850   -2.0526 H   0  0  0  0  0  0  0  0  0  0  0  0
    4.4407    2.2237   -1.6270 H   0  0  0  0  0  0  0  0  0  0  0  0
    4.7207    3.1045    0.9110 H   0  0  0  0  0  0  0  0  0  0  0  0
  1  2  1  0
  2  3  1  0
  3  4  1  0
  4  5  1  0
  5  6  1  0
  6  7  1  0
  7  8  1  0
  8  9  1  0
  1 10  1  0
  5 10  1  0
  9 10  1  0
  9 11  1  0
 11 12  1  0
 12 13  1  0
  8 14  1  0
 13 14  1  0
 14 15  1  0
 15 16  1  0
 13 17  1  0
 16 17  1  0
 13 18  1  1
 10 19  1  1
 17 20  1  0
 20 21  1  0
 16 22  1  0
  9 23  1  6
  3 24  1  0
 11 25  1  0
 17 26  1  6
 20 27  1  0
 21 28  1  0
 14 29  1  6
 30 31  1  0
 31 32  1  0
 32 33  1  0
 33 34  1  0
 34 35  1  0
 35 36  1  0
 36 37  1  0
 37 38  1  0
 30 39  1  0
 34 39  1  0
 38 39  1  0
 38 40  1  0
 40 41  1  0
 41 42  1  0
 37 43  1  0
 42 43  1  0
 43 44  1  0
 44 45  1  0
 42 46  1  0
 45 46  1  0
 42 47  1  1
 39 48  1  1
 46 49  1  0
 49 50  1  0
 45 51  1  0
 38 52  1  6
 32 53  1  0
 40 54  1  0
 46 55  1  6
 49 56  1  0
 50 57  1  0
  1 58  1  0
  1 59  1  0
  2 60  1  0
  2 61  1  0
  3 62  1  0
  4 63  1  0
  4 64  1  0
  5 65  1  0
  6 66  1  0
  6 67  1  0
  7 68  1  0
  7 69  1  0
  8 70  1  1
 11 71  1  1
 12 72  1  0
 12 73  1  0
 15 74  1  0
 15 75  1  0
 16 76  1  1
 18 77  1  0
 18 78  1  0
 18 79  1  0
 19 80  1  0
 19 81  1  0
 19 82  1  0
 20 83  1  0
 21 84  1  0
 21 85  1  0
 22 86  1  0
 22 87  1  0
 22 88  1  0
 24 89  1  0
 25 90  1  0
 26 91  1  0
 27 92  1  0
 28 93  1  0
 30 94  1  0
 30 95  1  0
 31 96  1  0
 31 97  1  0
 32 98  1  0
 33 99  1  0
 33100  1  0
 34101  1  0
 35102  1  0
 35103  1  0
 36104  1  0
 36105  1  0
 37106  1  1
 40107  1  6
 41108  1  0
 41109  1  0
 43110  1  6
 44111  1  0
 44112  1  0
 45113  1  1
 47114  1  0
 47115  1  0
 47116  1  0
 48117  1  0
 48118  1  0
 48119  1  0
 49120  1  0
 50121  1  0
 50122  1  0
 51123  1  0
 51124  1  0
 51125  1  0
 53126  1  0
 54127  1  0
 55128  1  0
 56129  1  0
 57130  1  0
M  END
>  <PDBID>  (1) 
1M2Z

>  <PDB ID>  (1) 
1M2Z

>  <Generic Name>  (1) 
Betamethasone

>  <Brand Name>  (1) 
Beben Gel 0.025%#Beta 1 Kit#Betacort Scalp Lotion 0.1%#Betaderm Crm 0.05%#Betaderm Crm 0.1%#Betaderm Lotion 0.1%#Betaderm Ont 0.05%#Betaderm Ont 0.1%#Betagel - 0.1%#Betaject#Betaloan Suik#Betamethasone#Betamethasone Clotrimazole#Betamethasone Combo 6mg/ml PF#Betamethasone Combo 7mg/ml#Betamethasone Dipropionate#Betamethasone Dipropionate Augmented#Betamethasone Sodium Phosphate and Betamethasone Acetate#Betamethasone Sp 24mg/2ml PF#Betamethasone Valerate#Betamethasone Valerate Lot 0.1% USP#Betamycin Ophthalmic/otic Solution#Betaprolene Cream 0.05%#Betaprolene Ointment 0.05%#Betaprone Cream 0.05%#Betaprone Lotion 0.05%#Betaprone Ointment 0.05%#Beteflam#Betnesol Eye and Ear Drops#Betnesol Eye and Ear Drops 0.1%#Betnesol Pellets 0.1mg#Betnesol Retention Enema 5mg/100ml#Betnesol Retention Enemas#Betnesol Tab 0.5mg#Betnesol Tablets#Betnovate 1/2 Crm 0.05%#Betnovate 1/2 Lot 0.05%#Betnovate 1/2 Ont 0.05%#Betnovate Crm 0.1%#Betnovate Lot 0.1%#Betnovate Lotion 0.1%#Betnovate Ont 0.1%#Calcipotriene 0.005% and Betamethasone Dipropionate 0.064%#Calcipotriene and Betamethasone Dipropionate#Celestoderm V#Celestoderm V Crm 0.1%#Celestoderm V Ont 0.1%#Celestoderm V/2#Celestoderm V/2 Cream .05%#Celestoderm V/2 Ointment 0.05%#Celestone Repetabs 1mg#Celestone Soluspan#Celestone Tab 0.5mg#Clotrimazole and Betamethasone Dipropionate#Dermacinrx Therazole Pak#Diprogen Cream#Diprogen Ointment#Diprolene#Diprolene AF#Diprosalic#Diprosone Cream 0.05%#Diprosone Lotion 0.05%#Diprosone Ointment 0.05%#Dom-gentamicin-betamethasone#Dovobet Gel#Dovobet Ointment#Dr. Throwers Beta#Dr. Throwers Pbc No. 1#Enstilar#Garasone Ophthalmic Ointment#Garasone Ophthalmic and Otic Solution#Lotriderm Cream#Lotrisone#Luxiq#Marbeta 25 Kit#Occlucort Film Forming Lot 0.05#PMS-clotrimazole-betamethasone#PMS-gentamicin-betamethasone#Prevex B Cream 0.1%#Pro-lene Glycol Cream - 0.05%#Pro-lene Glycol Lotion - 0.05%#Pro-lene Glycol Ointment - 0.05%#Pro-sone Cream - 0.05%#Pro-sone Lotion -  0.05%#Pro-sone Ointment - 0.05%#Ratio-ectosone#Ratio-ectosone Mild Cream 0.05%#Ratio-ectosone Mild Lotion 0.05%#Ratio-ectosone Regular Cream 0.1%#Ratio-ectosone Regular Lotion 0.1%#Ratio-topilene#Ratio-topisalic#Ratio-topisone#Readysharp Betamethasone#Rhoprolene Glycol Cream 0.5mg/gm#Rhoprolene Glycol Lotion 0.5mg/gm#Rhoprolene Glycol Ointment 0.5mg/gm#Rhoprosone Cream 0.05%#Rhoprosone Lotion 0.05%#Rhoprosone Oint 0.05%#Rivasone Scalp Lot 0.1%#Rolene Cream 0.05%#Rolene Lotion 0.05%#Rolene Ointment 0.05%#Rosone Cream 0.05%#Rosone Lotion 0.05%#Rosone Ointment 0.05%#Sandoz Pentasone#Sernivo#Taclonex#Taclonex Scalp#Taro Sone Lot 0.05%#Taro Sone Ont#Taro-sone Cream 0.05%#Valisone Scalp Lotion#Valisone-G Cream#Valisone-G Ointment#Bentelan#Betnovate#Celestamine#Celestone#Diprosone#Fucibet#Procort#Rinderon

>  <DrugBank ID>  (1) 
DB00443

>  <ATC Codes>  (1) 
S01BB04#R03BA04#S01CA05#H02AB01#R01AD06#D07BC01#C05AA05#D07CC01#D07AC01#S01CB04#D07XC01#S02BA07#A07EA04#S03BA03#S01BA06#S03CA06

>  <Ligand ID>  (1) 
DEX

>  <Target Name>  (1) 
Glucocorticoid receptor

>  <UniProt ID>  (1) 
P04150

>  <PDB ID.1>  (1) 
1M2Z

>  <Seq. Identity>  (1) 
100%

$$$$
