PDB_DB08881_04
     RDKit          3D

 75 78  0  0  0  0  0  0  0  0999 V2000
   -6.8449    2.4877    0.0117 C   0  0  0  0  0  0  0  0  0  0  0  0
   -0.3774   -2.2432    1.4591 C   0  0  0  0  0  0  0  0  0  0  0  0
    0.3175   -0.4216   -0.1854 C   0  0  0  0  0  0  0  0  0  0  0  0
    2.5162   -1.2304    0.7137 C   0  0  0  0  0  0  0  0  0  0  0  0
    4.0150   -1.1419    0.4537 C   0  0  0  0  0  0  0  0  0  0  0  0
    4.3495   -1.5125   -0.9627 C   0  0  0  0  0  0  0  0  0  0  0  0
    1.9967   -1.4699   -1.7194 C   0  0  0  0  0  0  0  0  0  0  0  0
   -4.1682   -0.5378   -0.3890 C   0  0  0  0  0  0  0  0  0  0  0  0
   -4.6094   -0.6015    1.0313 C   0  0  0  0  0  0  0  0  0  0  0  0
   -3.8129   -1.4776    1.8629 N   0  0  0  0  0  0  0  0  0  0  0  0
   -2.6937   -0.2725   -0.5838 C   0  0  0  0  0  0  0  0  0  0  0  0
   -1.7168   -2.6477    1.9605 N   0  0  0  0  0  0  0  0  0  0  0  0
   -0.6210   -1.4689    0.1984 C   0  0  0  0  0  0  0  0  0  0  0  0
   -1.9391   -0.7605    0.5958 C   0  0  0  0  0  0  0  0  0  0  0  0
   -2.6802   -1.9899    1.1369 C   0  0  0  0  0  0  0  0  0  0  0  0
   -5.0006    0.5326   -1.0960 C   0  0  0  0  0  0  0  0  0  0  0  0
    1.7314   -0.6839   -0.4481 C   0  0  0  0  0  0  0  0  0  0  0  0
    3.2455   -2.3523   -1.5872 C   0  0  0  0  0  0  0  0  0  0  0  0
    2.2414   -0.6392   -2.7965 F   0  0  0  0  0  0  0  0  0  0  0  0
    2.3000   -0.3525    1.7880 F   0  0  0  0  0  0  0  0  0  0  0  0
    4.4951    0.1870    0.8223 N   0  0  0  0  0  0  0  0  0  0  0  0
    6.3243    0.0553    0.5239 S   0  0  0  0  0  0  0  0  0  0  0  0
    6.5691    0.0734   -0.9089 O   0  0  0  0  0  0  0  0  0  0  0  0
    6.6327   -1.2486    1.3900 O   0  0  0  0  0  0  0  0  0  0  0  0
    6.7810    1.4567    1.4412 C   0  0  0  0  0  0  0  0  0  0  0  0
    6.1196    2.7184    0.8741 C   0  0  0  0  0  0  0  0  0  0  0  0
    6.5817    2.8606   -0.5465 C   0  0  0  0  0  0  0  0  0  0  0  0
   -6.4587    0.2498   -1.0553 C   0  0  0  0  0  0  0  0  0  0  0  0
   -7.2613    1.0400   -0.0826 C   0  0  0  0  0  0  0  0  0  0  0  0
   -5.8054    2.8302   -1.0459 C   0  0  0  0  0  0  0  0  0  0  0  0
   -4.6074    1.9278   -0.7080 C   0  0  0  0  0  0  0  0  0  0  0  0
   -8.1907    3.6142   -0.0438 Cl  0  0  0  0  0  0  0  0  0  0  0  0
   -0.2080    0.2728   -1.2905 O   0  0  0  0  0  0  0  0  0  0  0  0
   -6.3313    2.6182    0.9894 H   0  0  0  0  0  0  0  0  0  0  0  0
    0.2012   -3.1767    1.2862 H   0  0  0  0  0  0  0  0  0  0  0  0
    0.0046   -1.5831    2.2336 H   0  0  0  0  0  0  0  0  0  0  0  0
    0.2824    0.3638    0.6428 H   0  0  0  0  0  0  0  0  0  0  0  0
    2.3066   -2.2503    0.9986 H   0  0  0  0  0  0  0  0  0  0  0  0
    4.4966   -1.8710    1.1278 H   0  0  0  0  0  0  0  0  0  0  0  0
    4.4488   -0.5636   -1.5624 H   0  0  0  0  0  0  0  0  0  0  0  0
    5.2960   -2.0680   -1.0858 H   0  0  0  0  0  0  0  0  0  0  0  0
    1.1682   -2.1302   -2.0022 H   0  0  0  0  0  0  0  0  0  0  0  0
   -4.3978   -1.5387   -0.8504 H   0  0  0  0  0  0  0  0  0  0  0  0
   -5.6294   -1.0944    1.0126 H   0  0  0  0  0  0  0  0  0  0  0  0
   -4.6800    0.3942    1.4666 H   0  0  0  0  0  0  0  0  0  0  0  0
   -3.4397   -0.9171    2.6586 H   0  0  0  0  0  0  0  0  0  0  0  0
   -2.3414   -0.7754   -1.5109 H   0  0  0  0  0  0  0  0  0  0  0  0
   -2.5759    0.8413   -0.6612 H   0  0  0  0  0  0  0  0  0  0  0  0
   -1.8075   -3.6742    1.9864 H   0  0  0  0  0  0  0  0  0  0  0  0
   -0.9512   -2.1361   -0.6367 H   0  0  0  0  0  0  0  0  0  0  0  0
   -1.7645   -0.0163    1.3718 H   0  0  0  0  0  0  0  0  0  0  0  0
   -3.0590   -2.5949    0.3056 H   0  0  0  0  0  0  0  0  0  0  0  0
   -4.6958    0.4387   -2.1865 H   0  0  0  0  0  0  0  0  0  0  0  0
    2.2184    0.3221   -0.6507 H   0  0  0  0  0  0  0  0  0  0  0  0
    3.0622   -3.2522   -1.0063 H   0  0  0  0  0  0  0  0  0  0  0  0
    3.5514   -2.6052   -2.6187 H   0  0  0  0  0  0  0  0  0  0  0  0
    4.2889    0.8891    0.0923 H   0  0  0  0  0  0  0  0  0  0  0  0
    7.0654   -0.5014   -1.5308 H   0  0  0  0  0  0  0  0  0  0  0  0
    6.7695   -1.0452    2.3690 H   0  0  0  0  0  0  0  0  0  0  0  0
    6.5141    1.2974    2.5060 H   0  0  0  0  0  0  0  0  0  0  0  0
    7.8638    1.6148    1.3227 H   0  0  0  0  0  0  0  0  0  0  0  0
    5.0227    2.6181    0.9531 H   0  0  0  0  0  0  0  0  0  0  0  0
    6.4518    3.5707    1.5172 H   0  0  0  0  0  0  0  0  0  0  0  0
    6.5823    3.9474   -0.7871 H   0  0  0  0  0  0  0  0  0  0  0  0
    5.8702    2.3116   -1.2223 H   0  0  0  0  0  0  0  0  0  0  0  0
    7.5830    2.4284   -0.7286 H   0  0  0  0  0  0  0  0  0  0  0  0
   -6.9458    0.3225   -2.0609 H   0  0  0  0  0  0  0  0  0  0  0  0
   -6.5777   -0.8367   -0.7743 H   0  0  0  0  0  0  0  0  0  0  0  0
   -7.3423    0.5684    0.9190 H   0  0  0  0  0  0  0  0  0  0  0  0
   -8.3297    1.0626   -0.4520 H   0  0  0  0  0  0  0  0  0  0  0  0
   -6.1889    2.6007   -2.0618 H   0  0  0  0  0  0  0  0  0  0  0  0
   -5.4899    3.8671   -0.9472 H   0  0  0  0  0  0  0  0  0  0  0  0
   -3.7871    2.3178   -1.3478 H   0  0  0  0  0  0  0  0  0  0  0  0
   -4.4286    2.0702    0.3587 H   0  0  0  0  0  0  0  0  0  0  0  0
    0.4944    0.9114   -1.6167 H   0  0  0  0  0  0  0  0  0  0  0  0
  4  5  1  0
  5  6  1  0
  8  9  1  0
  9 10  1  0
  8 11  1  0
  2 12  1  0
  2 13  1  0
  3 13  1  0
 11 14  1  0
 13 14  1  0
 10 15  1  0
 12 15  1  0
 14 15  1  0
  8 16  1  0
  3 17  1  0
  4 17  1  0
  7 17  1  0
  6 18  1  0
  7 18  1  0
  7 19  1  0
  4 20  1  0
  5 21  1  0
 21 22  1  0
 22 23  1  0
 22 24  1  0
 22 25  1  0
 25 26  1  0
 26 27  1  0
 16 28  1  0
  1 29  1  0
 28 29  1  0
  1 30  1  0
 16 31  1  0
 30 31  1  0
  1 32  1  0
  3 33  1  0
  1 34  1  0
  2 35  1  0
  2 36  1  0
  3 37  1  0
  4 38  1  0
  5 39  1  0
  6 40  1  0
  6 41  1  0
  7 42  1  0
  8 43  1  0
  9 44  1  0
  9 45  1  0
 10 46  1  0
 11 47  1  0
 11 48  1  0
 12 49  1  0
 13 50  1  0
 14 51  1  0
 15 52  1  0
 16 53  1  0
 17 54  1  0
 18 55  1  0
 18 56  1  0
 21 57  1  0
 23 58  1  0
 24 59  1  0
 25 60  1  0
 25 61  1  0
 26 62  1  0
 26 63  1  0
 27 64  1  0
 27 65  1  0
 27 66  1  0
 28 67  1  0
 28 68  1  0
 29 69  1  0
 29 70  1  0
 30 71  1  0
 30 72  1  0
 31 73  1  0
 31 74  1  0
 33 75  1  0
M  END
>  <PDBID>  (1) 
3OG7

>  <PDB ID>  (1) 
3OG7

>  <Generic Name>  (1) 
Vemurafenib

>  <Brand Name>  (1) 
Zelboraf

>  <DrugBank ID>  (1) 
DB08881

>  <ATC Codes>  (1) 
L01XE15

>  <Ligand ID>  (1) 
32

>  <Target Name>  (1) 
Serine/threonine-protein kinase B-raf

>  <UniProt ID>  (1) 
P15056

>  <PDB ID.1>  (1) 
3OG7

>  <Seq. Identity>  (1) 
94%

$$$$
