PDB_DB00674_03
     RDKit          3D

100106  0  0  0  0  0  0  0  0999 V2000
   -0.4596    1.5417   -1.6010 C   0  0  0  0  0  0  0  0  0  0  0  0
    0.3275    2.7830   -1.5627 C   0  0  0  0  0  0  0  0  0  0  0  0
    0.2522    3.6106   -0.3371 C   0  0  1  0  0  0  0  0  0  0  0  0
   -0.2088    2.9180    0.8891 C   0  0  0  0  0  0  0  0  0  0  0  0
    0.0324    1.4603    0.8624 C   0  0  1  0  0  0  0  0  0  0  0  0
   -0.6418    0.8045   -0.3307 C   0  0  1  0  0  0  0  0  0  0  0  0
    1.3366    1.0608    0.8818 O   0  0  0  0  0  0  0  0  0  0  0  0
    2.4289   -1.0428    0.5299 C   0  0  0  0  0  0  0  0  0  0  0  0
    1.8216   -2.0006    1.5290 C   0  0  0  0  0  0  0  0  0  0  0  0
    0.5906   -2.5847    0.8948 C   0  0  0  0  0  0  0  0  0  0  0  0
   -1.5797   -2.3164   -0.0962 C   0  0  0  0  0  0  0  0  0  0  0  0
   -2.7999   -1.5896    0.1177 N   0  0  0  0  0  0  0  0  0  0  0  0
   -2.7759   -0.4488   -0.7661 C   0  0  0  0  0  0  0  0  0  0  0  0
   -2.0841    0.6627   -0.0142 C   0  0  0  0  0  0  0  0  0  0  0  0
    1.4801   -0.0307    0.0185 C   0  0  0  0  0  0  0  0  0  0  0  0
    0.1204   -0.5184   -0.3328 C   0  0  0  0  0  0  0  0  0  0  0  0
   -0.4557   -1.5353    0.5765 C   0  0  0  0  0  0  0  0  0  0  0  0
    4.6779   -0.6813    0.5447 C   0  0  0  0  0  0  0  0  0  0  0  0
    3.4728   -0.3836    1.1856 O   0  0  0  0  0  0  0  0  0  0  0  0
    1.5202    4.1707   -0.0473 O   0  0  0  0  0  0  0  0  0  0  0  0
   -3.9852   -2.3693    0.0419 C   0  0  0  0  0  0  0  0  0  0  0  0
   -0.4596    1.5417   -1.6010 C   0  0  0  0  0  0  0  0  0  0  0  0
    0.3275    2.7830   -1.5627 C   0  0  0  0  0  0  0  0  0  0  0  0
    0.2522    3.6106   -0.3371 C   0  0  1  0  0  0  0  0  0  0  0  0
   -0.2088    2.9180    0.8891 C   0  0  0  0  0  0  0  0  0  0  0  0
    0.0324    1.4603    0.8624 C   0  0  1  0  0  0  0  0  0  0  0  0
   -0.6418    0.8045   -0.3307 C   0  0  1  0  0  0  0  0  0  0  0  0
    1.3366    1.0608    0.8818 O   0  0  0  0  0  0  0  0  0  0  0  0
    2.4289   -1.0428    0.5299 C   0  0  0  0  0  0  0  0  0  0  0  0
    1.8216   -2.0006    1.5290 C   0  0  0  0  0  0  0  0  0  0  0  0
    0.5906   -2.5847    0.8948 C   0  0  0  0  0  0  0  0  0  0  0  0
   -1.5797   -2.3164   -0.0962 C   0  0  0  0  0  0  0  0  0  0  0  0
   -2.7999   -1.5896    0.1177 N   0  0  0  0  0  0  0  0  0  0  0  0
   -2.7759   -0.4488   -0.7661 C   0  0  0  0  0  0  0  0  0  0  0  0
   -2.0841    0.6627   -0.0142 C   0  0  0  0  0  0  0  0  0  0  0  0
    1.4801   -0.0307    0.0185 C   0  0  0  0  0  0  0  0  0  0  0  0
    0.1204   -0.5184   -0.3328 C   0  0  0  0  0  0  0  0  0  0  0  0
   -0.4557   -1.5353    0.5765 C   0  0  0  0  0  0  0  0  0  0  0  0
    4.6779   -0.6813    0.5447 C   0  0  0  0  0  0  0  0  0  0  0  0
    3.4728   -0.3836    1.1856 O   0  0  0  0  0  0  0  0  0  0  0  0
    1.5202    4.1707   -0.0473 O   0  0  0  0  0  0  0  0  0  0  0  0
   -3.9852   -2.3693    0.0419 C   0  0  0  0  0  0  0  0  0  0  0  0
    0.0348    0.8367   -2.3354 H   0  0  0  0  0  0  0  0  0  0  0  0
   -1.4604    1.7494   -2.0842 H   0  0  0  0  0  0  0  0  0  0  0  0
    1.4139    2.5819   -1.7965 H   0  0  0  0  0  0  0  0  0  0  0  0
   -0.0043    3.4362   -2.4254 H   0  0  0  0  0  0  0  0  0  0  0  0
   -0.4118    4.5131   -0.4866 H   0  0  0  0  0  0  0  0  0  0  0  0
    0.2928    3.3378    1.7999 H   0  0  0  0  0  0  0  0  0  0  0  0
   -1.2895    3.1021    1.0373 H   0  0  0  0  0  0  0  0  0  0  0  0
   -0.4728    1.0123    1.7671 H   0  0  0  0  0  0  0  0  0  0  0  0
    2.8315   -1.6238   -0.3200 H   0  0  0  0  0  0  0  0  0  0  0  0
    2.5449   -2.8315    1.6577 H   0  0  0  0  0  0  0  0  0  0  0  0
    1.6263   -1.5332    2.4990 H   0  0  0  0  0  0  0  0  0  0  0  0
    0.1666   -3.4071    1.5025 H   0  0  0  0  0  0  0  0  0  0  0  0
    0.9114   -3.0375   -0.0849 H   0  0  0  0  0  0  0  0  0  0  0  0
   -1.6838   -3.2840    0.4665 H   0  0  0  0  0  0  0  0  0  0  0  0
   -1.3303   -2.5028   -1.1420 H   0  0  0  0  0  0  0  0  0  0  0  0
   -2.2371   -0.6953   -1.7090 H   0  0  0  0  0  0  0  0  0  0  0  0
   -3.8174   -0.1881   -1.0385 H   0  0  0  0  0  0  0  0  0  0  0  0
   -2.5929    1.6058   -0.3049 H   0  0  0  0  0  0  0  0  0  0  0  0
   -2.2691    0.5355    1.0756 H   0  0  0  0  0  0  0  0  0  0  0  0
    1.9264    0.4060   -0.9237 H   0  0  0  0  0  0  0  0  0  0  0  0
    0.0897   -0.9041   -1.3784 H   0  0  0  0  0  0  0  0  0  0  0  0
   -0.8001   -1.1118    1.5408 H   0  0  0  0  0  0  0  0  0  0  0  0
    4.5487   -0.3101   -0.5131 H   0  0  0  0  0  0  0  0  0  0  0  0
    5.5054   -0.1119    0.9859 H   0  0  0  0  0  0  0  0  0  0  0  0
    4.8774   -1.7684    0.5096 H   0  0  0  0  0  0  0  0  0  0  0  0
    1.4986    4.4419    0.9087 H   0  0  0  0  0  0  0  0  0  0  0  0
   -4.6097   -2.1193    0.9486 H   0  0  0  0  0  0  0  0  0  0  0  0
   -3.7446   -3.4605    0.1680 H   0  0  0  0  0  0  0  0  0  0  0  0
   -4.6149   -2.1802   -0.8456 H   0  0  0  0  0  0  0  0  0  0  0  0
    0.0348    0.8367   -2.3354 H   0  0  0  0  0  0  0  0  0  0  0  0
   -1.4604    1.7494   -2.0842 H   0  0  0  0  0  0  0  0  0  0  0  0
    1.4139    2.5819   -1.7965 H   0  0  0  0  0  0  0  0  0  0  0  0
   -0.0043    3.4362   -2.4254 H   0  0  0  0  0  0  0  0  0  0  0  0
   -0.4118    4.5131   -0.4866 H   0  0  0  0  0  0  0  0  0  0  0  0
    0.2928    3.3378    1.7999 H   0  0  0  0  0  0  0  0  0  0  0  0
   -1.2895    3.1021    1.0373 H   0  0  0  0  0  0  0  0  0  0  0  0
   -0.4728    1.0123    1.7671 H   0  0  0  0  0  0  0  0  0  0  0  0
    2.8315   -1.6238   -0.3200 H   0  0  0  0  0  0  0  0  0  0  0  0
    2.5449   -2.8315    1.6577 H   0  0  0  0  0  0  0  0  0  0  0  0
    1.6263   -1.5332    2.4990 H   0  0  0  0  0  0  0  0  0  0  0  0
    0.1666   -3.4071    1.5025 H   0  0  0  0  0  0  0  0  0  0  0  0
    0.9114   -3.0375   -0.0849 H   0  0  0  0  0  0  0  0  0  0  0  0
   -1.6838   -3.2840    0.4665 H   0  0  0  0  0  0  0  0  0  0  0  0
   -1.3303   -2.5028   -1.1420 H   0  0  0  0  0  0  0  0  0  0  0  0
   -2.2371   -0.6953   -1.7090 H   0  0  0  0  0  0  0  0  0  0  0  0
   -3.8174   -0.1881   -1.0385 H   0  0  0  0  0  0  0  0  0  0  0  0
   -2.5929    1.6058   -0.3049 H   0  0  0  0  0  0  0  0  0  0  0  0
   -2.2691    0.5355    1.0756 H   0  0  0  0  0  0  0  0  0  0  0  0
    1.9264    0.4060   -0.9237 H   0  0  0  0  0  0  0  0  0  0  0  0
    0.0897   -0.9041   -1.3784 H   0  0  0  0  0  0  0  0  0  0  0  0
   -0.8001   -1.1118    1.5408 H   0  0  0  0  0  0  0  0  0  0  0  0
    4.5487   -0.3101   -0.5131 H   0  0  0  0  0  0  0  0  0  0  0  0
    5.5054   -0.1119    0.9859 H   0  0  0  0  0  0  0  0  0  0  0  0
    4.8774   -1.7684    0.5096 H   0  0  0  0  0  0  0  0  0  0  0  0
    1.4986    4.4419    0.9087 H   0  0  0  0  0  0  0  0  0  0  0  0
   -4.6097   -2.1193    0.9486 H   0  0  0  0  0  0  0  0  0  0  0  0
   -3.7446   -3.4605    0.1680 H   0  0  0  0  0  0  0  0  0  0  0  0
   -4.6149   -2.1802   -0.8456 H   0  0  0  0  0  0  0  0  0  0  0  0
  1  2  1  0
  2  3  1  0
  3  4  1  0
  4  5  1  0
  6  1  1  6
  5  6  1  0
  5  7  1  0
  8  9  1  0
  9 10  1  0
 11 12  1  0
 12 13  1  0
  6 14  1  0
 13 14  1  0
  7 15  1  0
  8 15  1  0
  6 16  1  0
 15 16  1  0
 10 17  1  0
 11 17  1  0
 16 17  1  0
  8 19  1  0
 18 19  1  0
  3 20  1  0
 12 21  1  0
 22 23  1  0
 23 24  1  0
 24 25  1  0
 25 26  1  0
 27 22  1  6
 26 27  1  0
 26 28  1  0
 29 30  1  0
 30 31  1  0
 32 33  1  0
 33 34  1  0
 27 35  1  0
 34 35  1  0
 28 36  1  0
 29 36  1  0
 27 37  1  0
 36 37  1  0
 31 38  1  0
 32 38  1  0
 37 38  1  0
 29 40  1  0
 39 40  1  0
 24 41  1  0
 33 42  1  0
  1 43  1  0
  1 44  1  0
  2 45  1  0
  2 46  1  0
  3 47  1  6
  4 48  1  0
  4 49  1  0
  5 50  1  1
  8 51  1  0
  9 52  1  0
  9 53  1  0
 10 54  1  0
 10 55  1  0
 11 56  1  0
 11 57  1  0
 13 58  1  0
 13 59  1  0
 14 60  1  0
 14 61  1  0
 15 62  1  0
 16 63  1  0
 17 64  1  0
 18 65  1  0
 18 66  1  0
 18 67  1  0
 20 68  1  0
 21 69  1  0
 21 70  1  0
 21 71  1  0
 22 72  1  0
 22 73  1  0
 23 74  1  0
 23 75  1  0
 24 76  1  6
 25 77  1  0
 25 78  1  0
 26 79  1  1
 29 80  1  0
 30 81  1  0
 30 82  1  0
 31 83  1  0
 31 84  1  0
 32 85  1  0
 32 86  1  0
 34 87  1  0
 34 88  1  0
 35 89  1  0
 35 90  1  0
 36 91  1  0
 37 92  1  0
 38 93  1  0
 39 94  1  0
 39 95  1  0
 39 96  1  0
 41 97  1  0
 42 98  1  0
 42 99  1  0
 42100  1  0
M  END
>  <PDBID>  (1) 
4EY6

>  <PDB ID>  (1) 
4EY6

>  <Generic Name>  (1) 
Galantamine

>  <Brand Name>  (1) 
Apo-galantamine#Auro-galantamine ER#Galantamine#Galantamine ER#Galantamine Hydrobromide#Ipg-galantamine ER#Mar-galantamine ER#Mylan-galantamine ER#PMS-galantamine#PMS-galantamine ER#Pat-galantamine ER#Pendo-galantamine ER#Ratio-galantamine#Razadyne#Reminyl   -(12mg)#Reminyl   -(4mg)#Reminyl   -(8mg)#Reminyl ER#Sandoz Galantamine ER#Teva-galantamine ER#Lycoremine#Nivalin#Reminyl

>  <DrugBank ID>  (1) 
DB00674

>  <ATC Codes>  (1) 
N06DA04

>  <Ligand ID>  (1) 
GNT

>  <Target Name>  (1) 
Acetylcholinesterase

>  <UniProt ID>  (1) 
P22303

>  <PDB ID.1>  (1) 
4EY6

>  <Seq. Identity>  (1) 
97%

$$$$
