PDB_DB01132_01
     RDKit          3D

122126  0  0  0  0  0  0  0  0999 V2000
    7.5241   -0.9028    0.3884 O   0  0  0  0  0  0  0  0  0  0  0  0
    6.8623    0.2913    0.5554 C   0  0  1  0  0  0  0  0  0  0  0  0
    7.4746    1.2776   -0.2822 N   0  0  0  0  0  0  0  0  0  0  0  0
    5.4382    0.0970    0.0653 C   0  0  2  0  0  0  0  0  0  0  0  0
    5.0176    1.8571   -0.2709 S   0  0  0  0  0  0  0  0  0  0  0  0
    6.7299    2.5137   -0.1268 C   0  0  0  0  0  0  0  0  0  0  0  0
    7.0266    3.3191   -1.2246 O   0  0  0  0  0  0  0  0  0  0  0  0
    4.6201   -0.3374    1.2308 C   0  0  0  0  0  0  0  0  0  0  0  0
   -5.7648   -0.7176   -0.8086 C   0  0  0  0  0  0  0  0  0  0  0  0
    3.1786   -0.5913    0.9637 C   0  0  0  0  0  0  0  0  0  0  0  0
    2.3956    0.5664    0.4459 C   0  0  0  0  0  0  0  0  0  0  0  0
    0.9317    0.1620    0.4271 C   0  0  0  0  0  0  0  0  0  0  0  0
    0.7086   -1.0135   -0.5134 C   0  0  0  0  0  0  0  0  0  0  0  0
    1.5770   -2.1670   -0.1195 C   0  0  0  0  0  0  0  0  0  0  0  0
    3.0446   -1.7923    0.0344 C   0  0  0  0  0  0  0  0  0  0  0  0
   -0.6158   -1.4097   -0.3716 O   0  0  0  0  0  0  0  0  0  0  0  0
   -1.3457   -1.2878   -1.5273 C   0  0  0  0  0  0  0  0  0  0  0  0
   -2.7660   -1.7501   -1.2399 C   0  0  0  0  0  0  0  0  0  0  0  0
   -6.9835    2.4335    0.9509 C   0  0  0  0  0  0  0  0  0  0  0  0
   -6.8849    0.9724    0.6175 C   0  0  0  0  0  0  0  0  0  0  0  0
   -5.8588    0.7692   -0.4759 C   0  0  0  0  0  0  0  0  0  0  0  0
   -4.5260    1.2194    0.0407 C   0  0  0  0  0  0  0  0  0  0  0  0
   -3.4132    0.4976   -0.5281 N   0  0  0  0  0  0  0  0  0  0  0  0
   -4.7696   -1.3985    0.1364 C   0  0  0  0  0  0  0  0  0  0  0  0
   -3.3708   -0.8828   -0.1443 C   0  0  0  0  0  0  0  0  0  0  0  0
    7.4657   -0.9594    0.6637 O   0  0  0  0  0  0  0  0  0  0  0  0
    6.9485    0.0771   -0.0708 C   0  0  0  0  0  0  0  0  0  0  0  0
    7.0625    1.2835    0.6718 N   0  0  0  0  0  0  0  0  0  0  0  0
    5.4659   -0.1358   -0.3920 C   0  0  2  0  0  0  0  0  0  0  0  0
    5.0626    1.6041   -0.8435 S   0  0  0  0  0  0  0  0  0  0  0  0
    6.5207    2.3834   -0.0646 C   0  0  0  0  0  0  0  0  0  0  0  0
    6.0865    3.3938    0.7676 O   0  0  0  0  0  0  0  0  0  0  0  0
    4.7241   -0.4912    0.8448 C   0  0  0  0  0  0  0  0  0  0  0  0
   -5.6873   -0.2687   -0.1173 C   0  0  0  0  0  0  0  0  0  0  0  0
    3.2734   -0.7429    0.6892 C   0  0  0  0  0  0  0  0  0  0  0  0
    2.5250    0.4293    0.1521 C   0  0  0  0  0  0  0  0  0  0  0  0
    1.0397    0.1030    0.2435 C   0  0  0  0  0  0  0  0  0  0  0  0
    0.7394   -1.1173   -0.6016 C   0  0  0  0  0  0  0  0  0  0  0  0
    1.5909   -2.3016   -0.2877 C   0  0  0  0  0  0  0  0  0  0  0  0
    3.0668   -1.9872   -0.1534 C   0  0  0  0  0  0  0  0  0  0  0  0
   -0.5894   -1.4629   -0.3483 O   0  0  0  0  0  0  0  0  0  0  0  0
   -1.3457   -1.3354   -1.5235 C   0  0  0  0  0  0  0  0  0  0  0  0
   -2.7738   -1.7369   -1.1285 C   0  0  0  0  0  0  0  0  0  0  0  0
   -7.7559    1.7087    0.4139 C   0  0  0  0  0  0  0  0  0  0  0  0
   -6.3302    2.0936    0.1618 C   0  0  0  0  0  0  0  0  0  0  0  0
   -5.3977    1.0202    0.6248 C   0  0  0  0  0  0  0  0  0  0  0  0
   -3.9720    1.4326    0.3811 C   0  0  0  0  0  0  0  0  0  0  0  0
   -3.2884    0.5500   -0.5241 N   0  0  0  0  0  0  0  0  0  0  0  0
   -4.6645   -1.2962    0.3442 C   0  0  0  0  0  0  0  0  0  0  0  0
   -3.2841   -0.8167   -0.0406 C   0  0  0  0  0  0  0  0  0  0  0  0
    6.9799   -1.6890    0.6134 H   0  0  0  0  0  0  0  0  0  0  0  0
    6.8928    0.5972    1.5980 H   0  0  0  0  0  0  0  0  0  0  0  0
    7.5351    1.0201   -1.2727 H   0  0  0  0  0  0  0  0  0  0  0  0
    5.3617   -0.5170   -0.8267 H   0  0  0  0  0  0  0  0  0  0  0  0
    6.8729    3.0004    0.8360 H   0  0  0  0  0  0  0  0  0  0  0  0
    7.9560    3.1754   -1.5139 H   0  0  0  0  0  0  0  0  0  0  0  0
    5.0747   -1.2764    1.6569 H   0  0  0  0  0  0  0  0  0  0  0  0
    4.7778    0.4260    2.0433 H   0  0  0  0  0  0  0  0  0  0  0  0
   -5.4015   -0.8580   -1.8403 H   0  0  0  0  0  0  0  0  0  0  0  0
   -6.7224   -1.2379   -0.6797 H   0  0  0  0  0  0  0  0  0  0  0  0
    2.7222   -0.8874    1.9544 H   0  0  0  0  0  0  0  0  0  0  0  0
    2.5009    1.4151    1.1184 H   0  0  0  0  0  0  0  0  0  0  0  0
    2.7086    0.8654   -0.5754 H   0  0  0  0  0  0  0  0  0  0  0  0
    0.6324   -0.1379    1.4444 H   0  0  0  0  0  0  0  0  0  0  0  0
    0.2826    0.9847    0.0861 H   0  0  0  0  0  0  0  0  0  0  0  0
    0.8541   -0.6845   -1.5639 H   0  0  0  0  0  0  0  0  0  0  0  0
    1.5406   -2.9507   -0.8987 H   0  0  0  0  0  0  0  0  0  0  0  0
    1.2084   -2.5415    0.8609 H   0  0  0  0  0  0  0  0  0  0  0  0
    3.5507   -2.6316    0.5171 H   0  0  0  0  0  0  0  0  0  0  0  0
    3.4595   -1.4957   -0.9333 H   0  0  0  0  0  0  0  0  0  0  0  0
   -0.9206   -1.8143   -2.4022 H   0  0  0  0  0  0  0  0  0  0  0  0
   -1.4129   -0.2126   -1.7793 H   0  0  0  0  0  0  0  0  0  0  0  0
   -2.6815   -2.8001   -0.8941 H   0  0  0  0  0  0  0  0  0  0  0  0
   -3.4155   -1.7266   -2.1143 H   0  0  0  0  0  0  0  0  0  0  0  0
   -6.5853    2.6373    1.9773 H   0  0  0  0  0  0  0  0  0  0  0  0
   -8.0071    2.8041    0.8956 H   0  0  0  0  0  0  0  0  0  0  0  0
   -6.3523    3.0499    0.2687 H   0  0  0  0  0  0  0  0  0  0  0  0
   -7.8809    0.5792    0.2657 H   0  0  0  0  0  0  0  0  0  0  0  0
   -6.6003    0.4194    1.5299 H   0  0  0  0  0  0  0  0  0  0  0  0
   -6.1553    1.3092   -1.3791 H   0  0  0  0  0  0  0  0  0  0  0  0
   -4.5076    1.2057    1.1458 H   0  0  0  0  0  0  0  0  0  0  0  0
   -4.3882    2.2929   -0.2623 H   0  0  0  0  0  0  0  0  0  0  0  0
   -3.4545    0.6255   -1.5699 H   0  0  0  0  0  0  0  0  0  0  0  0
   -5.0665   -1.2412    1.1909 H   0  0  0  0  0  0  0  0  0  0  0  0
   -4.7881   -2.4738   -0.1227 H   0  0  0  0  0  0  0  0  0  0  0  0
   -2.8013   -0.9571    0.7978 H   0  0  0  0  0  0  0  0  0  0  0  0
    7.1209   -1.8084    0.2980 H   0  0  0  0  0  0  0  0  0  0  0  0
    7.4736    0.1695   -1.0608 H   0  0  0  0  0  0  0  0  0  0  0  0
    6.7002    1.1588    1.6185 H   0  0  0  0  0  0  0  0  0  0  0  0
    5.3276   -0.8038   -1.2341 H   0  0  0  0  0  0  0  0  0  0  0  0
    7.2437    2.7264   -0.8299 H   0  0  0  0  0  0  0  0  0  0  0  0
    5.4308    3.9738    0.2653 H   0  0  0  0  0  0  0  0  0  0  0  0
    5.2279   -1.3399    1.3878 H   0  0  0  0  0  0  0  0  0  0  0  0
    4.8335    0.3721    1.5678 H   0  0  0  0  0  0  0  0  0  0  0  0
   -5.5278   -0.1426   -1.2118 H   0  0  0  0  0  0  0  0  0  0  0  0
   -6.6942   -0.6126    0.1424 H   0  0  0  0  0  0  0  0  0  0  0  0
    2.8643   -0.9280    1.7300 H   0  0  0  0  0  0  0  0  0  0  0  0
    2.7201    1.3087    0.7753 H   0  0  0  0  0  0  0  0  0  0  0  0
    2.7433    0.6486   -0.9138 H   0  0  0  0  0  0  0  0  0  0  0  0
    0.7243   -0.0210    1.2822 H   0  0  0  0  0  0  0  0  0  0  0  0
    0.4837    0.9522   -0.1957 H   0  0  0  0  0  0  0  0  0  0  0  0
    0.8394   -0.8349   -1.6644 H   0  0  0  0  0  0  0  0  0  0  0  0
    1.4971   -3.0271   -1.1161 H   0  0  0  0  0  0  0  0  0  0  0  0
    1.2915   -2.8216    0.6377 H   0  0  0  0  0  0  0  0  0  0  0  0
    3.5500   -2.8260    0.3743 H   0  0  0  0  0  0  0  0  0  0  0  0
    3.5605   -1.8262   -1.1121 H   0  0  0  0  0  0  0  0  0  0  0  0
   -0.9379   -2.0786   -2.2353 H   0  0  0  0  0  0  0  0  0  0  0  0
   -1.3182   -0.3002   -1.8827 H   0  0  0  0  0  0  0  0  0  0  0  0
   -2.7987   -2.7847   -0.8056 H   0  0  0  0  0  0  0  0  0  0  0  0
   -3.3918   -1.5456   -2.0310 H   0  0  0  0  0  0  0  0  0  0  0  0
   -8.2890    2.6141    0.7817 H   0  0  0  0  0  0  0  0  0  0  0  0
   -7.8859    0.8864    1.1309 H   0  0  0  0  0  0  0  0  0  0  0  0
   -8.2308    1.4238   -0.5434 H   0  0  0  0  0  0  0  0  0  0  0  0
   -6.1377    2.2494   -0.9294 H   0  0  0  0  0  0  0  0  0  0  0  0
   -6.0728    3.0597    0.6500 H   0  0  0  0  0  0  0  0  0  0  0  0
   -5.5421    0.8127    1.7057 H   0  0  0  0  0  0  0  0  0  0  0  0
   -3.4100    1.4597    1.3352 H   0  0  0  0  0  0  0  0  0  0  0  0
   -3.9477    2.4540   -0.0725 H   0  0  0  0  0  0  0  0  0  0  0  0
   -3.6082    0.6005   -1.5027 H   0  0  0  0  0  0  0  0  0  0  0  0
   -4.7910   -1.4022    1.4402 H   0  0  0  0  0  0  0  0  0  0  0  0
   -4.9031   -2.2808   -0.1076 H   0  0  0  0  0  0  0  0  0  0  0  0
   -2.6283   -0.9135    0.8592 H   0  0  0  0  0  0  0  0  0  0  0  0
  1  2  1  0
  2  3  1  0
  2  4  1  0
  4  5  1  0
  3  6  1  0
  5  6  1  0
  6  7  1  0
  4  8  1  0
  8 10  1  0
 10 11  1  0
 11 12  1  0
 12 13  1  0
 13 14  1  0
 10 15  1  0
 14 15  1  0
 13 16  1  0
 16 17  1  0
 17 18  1  0
 19 20  1  0
  9 21  1  0
 20 21  1  0
 21 22  1  0
 22 23  1  0
  9 24  1  0
 18 25  1  0
 23 25  1  0
 24 25  1  0
 26 27  1  0
 27 28  1  0
 27 29  1  0
 29 30  1  0
 28 31  1  0
 30 31  1  0
 31 32  1  0
 29 33  1  0
 33 35  1  0
 35 36  1  0
 36 37  1  0
 37 38  1  0
 38 39  1  0
 35 40  1  0
 39 40  1  0
 38 41  1  0
 41 42  1  0
 42 43  1  0
 44 45  1  0
 34 46  1  0
 45 46  1  0
 46 47  1  0
 47 48  1  0
 34 49  1  0
 43 50  1  0
 48 50  1  0
 49 50  1  0
  1 51  1  0
  2 52  1  1
  3 53  1  0
  4 54  1  6
  6 55  1  0
  7 56  1  0
  8 57  1  0
  8 58  1  0
  9 59  1  0
  9 60  1  0
 10 61  1  0
 11 62  1  0
 11 63  1  0
 12 64  1  0
 12 65  1  0
 13 66  1  0
 14 67  1  0
 14 68  1  0
 15 69  1  0
 15 70  1  0
 17 71  1  0
 17 72  1  0
 18 73  1  0
 18 74  1  0
 19 75  1  0
 19 76  1  0
 19 77  1  0
 20 78  1  0
 20 79  1  0
 21 80  1  0
 22 81  1  0
 22 82  1  0
 23 83  1  0
 24 84  1  0
 24 85  1  0
 25 86  1  0
 26 87  1  0
 27 88  1  0
 28 89  1  0
 29 90  1  6
 31 91  1  0
 32 92  1  0
 33 93  1  0
 33 94  1  0
 34 95  1  0
 34 96  1  0
 35 97  1  0
 36 98  1  0
 36 99  1  0
 37100  1  0
 37101  1  0
 38102  1  0
 39103  1  0
 39104  1  0
 40105  1  0
 40106  1  0
 42107  1  0
 42108  1  0
 43109  1  0
 43110  1  0
 44111  1  0
 44112  1  0
 44113  1  0
 45114  1  0
 45115  1  0
 46116  1  0
 47117  1  0
 47118  1  0
 48119  1  0
 49120  1  0
 49121  1  0
 50122  1  0
M  END
>  <PDBID>  (1) 
2XKW

>  <PDB ID>  (1) 
2XKW

>  <Generic Name>  (1) 
Pioglitazone

>  <Brand Name>  (1) 
Accel Pioglitazone#Ach-pioglitazone#Act Pioglitazone#Actoplus Met#Actoplus Met XR#Actos#Actos (15mg)#Actos (30mg)#Actos (45mg)#Ag-pioglitazone#Alogliptin and Pioglitazone#Apo-pioglitazone#Auro-pioglitazone#Ava-pioglitazone#Dom-pioglitazone#Duetact#Jamp-pioglitazone#Mint-pioglitazone#Mylan-pioglitazone#Oseni#PHL-pioglitazone#PMS-pioglitazone#Pioglitazole and Metformin Hydrochloride#Pioglitazone#Pioglitazone HCl#Pioglitazone HCl and Metformin HCl#Pioglitazone Hydrochloride#Pioglitazone Hydrochloride and Glimepiride#Pioglitazone Hydrochloride and Metformin Hydrochloride#Pioglitazone and Glimepiride#Pioglitazone and Metformin#Pioglitazone and Metformin Hydrochloride#Pioglitazone and Metformin Hydrocholride#Pioglitazonehydrochloride#Pro-pioglitazone#Ran-pioglitazone#Ratio-pioglitazone#Sandoz Pioglitazone#Teva-pioglitazone#Torrent-pioglitazone#Van-pioglitazone#Zym-pioglitazone#Actost#Glustin

>  <DrugBank ID>  (1) 
DB01132

>  <ATC Codes>  (1) 
A10BD12#A10BD09#A10BG03#A10BD06#A10BD05

>  <Ligand ID>  (1) 
8N6,P1B

>  <Target Name>  (1) 
Peroxisome proliferator-activated receptor gamma

>  <UniProt ID>  (1) 
P37231

>  <PDB ID.1>  (1) 
2XKW

>  <Seq. Identity>  (1) 
95%

$$$$
