PDB_DB08912_01
     RDKit          3D

316328  0  0  0  0  0  0  0  0999 V2000
   -2.6456   -3.4578   -0.5472 C   0  0  0  0  0  0  0  0  0  0  0  0
   -3.0375   -1.3885    0.6120 C   0  0  2  0  0  0  0  0  0  0  0  0
   -2.0710   -2.2194   -0.0686 N   0  0  0  0  0  0  0  0  0  0  0  0
   -4.2169   -1.0499   -0.2544 C   0  0  0  0  0  0  0  0  0  0  0  0
   -4.0325   -3.3501   -0.8727 N   0  0  0  0  0  0  0  0  0  0  0  0
   -4.4190   -2.0674   -1.3707 C   0  0  0  0  0  0  0  0  0  0  0  0
   -2.5090   -4.5339    0.4318 N   0  0  0  0  0  0  0  0  0  0  0  0
   -2.3138   -0.1370    1.1055 C   0  0  0  0  0  0  0  0  0  0  0  0
   -3.4964    0.9255    2.0323 S   0  0  0  0  0  0  0  0  0  0  0  0
   -3.3487    2.3904    0.9680 C   0  0  1  0  0  0  0  0  0  0  0  0
   -2.8169    1.8226   -0.2157 N   0  0  0  0  0  0  0  0  0  0  0  0
   -1.9019    0.7760    0.0173 C   0  0  0  0  0  0  0  0  0  0  0  0
   -4.7106    3.0185    0.7697 C   0  0  0  0  0  0  0  0  0  0  0  0
   -4.5922    4.2240   -0.1105 C   0  0  0  0  0  0  0  0  0  0  0  0
   -5.7593    2.0594    0.2960 C   0  0  0  0  0  0  0  0  0  0  0  0
   -5.1334    3.5080    2.1642 C   0  0  0  0  0  0  0  0  0  0  0  0
   -0.4467    1.1677   -0.0046 C   0  0  2  0  0  0  0  0  0  0  0  0
    1.8907    0.3363   -0.0580 C   0  0  2  0  0  0  0  0  0  0  0  0
    0.4410   -0.0712   -0.2215 C   0  0  0  0  0  0  0  0  0  0  0  0
    2.0033    1.8014   -0.3427 C   0  0  0  0  0  0  0  0  0  0  0  0
    0.0842    1.8044    1.2260 C   0  0  0  0  0  0  0  0  0  0  0  0
    1.3480    2.5642    0.7885 C   0  0  0  0  0  0  0  0  0  0  0  0
    0.2268   -0.6595   -1.4273 F   0  0  0  0  0  0  0  0  0  0  0  0
    2.6851   -0.4882   -0.9054 N   0  0  0  0  0  0  0  0  0  0  0  0
    4.1719   -0.4328   -1.0719 S   0  0  0  0  0  0  0  0  0  0  0  0
    5.2328   -0.4327    0.2325 C   0  0  0  0  0  0  0  0  0  0  0  0
    7.2633   -1.3969   -0.8865 C   0  0  0  0  0  0  0  0  0  0  0  0
    6.6541   -0.2240   -0.2351 C   0  0  0  0  0  0  0  0  0  0  0  0
    7.0446   -2.7087   -0.2476 C   0  0  0  0  0  0  0  0  0  0  0  0
    5.2043   -1.6289    1.1198 C   0  0  0  0  0  0  0  0  0  0  0  0
    5.8720   -2.8494    0.6353 C   0  0  0  0  0  0  0  0  0  0  0  0
    3.8778   -1.8773    1.4593 F   0  0  0  0  0  0  0  0  0  0  0  0
    7.4006    0.2251    0.8523 F   0  0  0  0  0  0  0  0  0  0  0  0
    4.6152    0.8363   -2.1226 O   0  0  0  0  0  0  0  0  0  0  0  0
    4.6193   -1.8504   -2.0383 O   0  0  0  0  0  0  0  0  0  0  0  0
   -3.4472   -2.3556   -1.9943 C   0  0  0  0  0  0  0  0  0  0  0  0
   -3.4319   -0.9145   -0.0675 C   0  0  0  0  0  0  0  0  0  0  0  0
   -2.6702   -1.7580   -0.9521 N   0  0  0  0  0  0  0  0  0  0  0  0
   -4.4054   -1.8704    0.6355 C   0  0  0  0  0  0  0  0  0  0  0  0
   -4.8180   -2.5661   -1.7101 N   0  0  0  0  0  0  0  0  0  0  0  0
   -5.2824   -2.4794   -0.3910 C   0  0  0  0  0  0  0  0  0  0  0  0
   -2.8441   -3.6410   -2.3111 N   0  0  0  0  0  0  0  0  0  0  0  0
   -2.5272   -0.3623    0.9795 C   0  0  0  0  0  0  0  0  0  0  0  0
   -3.5793    0.6920    2.0933 S   0  0  0  0  0  0  0  0  0  0  0  0
   -3.0404    2.3053    1.4118 C   0  0  1  0  0  0  0  0  0  0  0  0
   -2.3848    1.8763    0.1901 N   0  0  0  0  0  0  0  0  0  0  0  0
   -1.5924    0.7146    0.5419 C   0  0  2  0  0  0  0  0  0  0  0  0
   -4.1746    3.2086    1.0833 C   0  0  0  0  0  0  0  0  0  0  0  0
   -5.0133    3.5226    2.3101 C   0  0  0  0  0  0  0  0  0  0  0  0
   -5.0781    2.6976   -0.0077 C   0  0  0  0  0  0  0  0  0  0  0  0
   -3.5915    4.5207    0.6072 C   0  0  0  0  0  0  0  0  0  0  0  0
   -0.6387    0.4024   -0.5390 C   0  0  2  0  0  0  0  0  0  0  0  0
    1.5155   -0.2574    0.6066 C   0  0  0  0  0  0  0  0  0  0  0  0
    0.3635   -0.6620   -0.2539 C   0  0  0  0  0  0  0  0  0  0  0  0
    1.9953    1.1408    0.4222 C   0  0  0  0  0  0  0  0  0  0  0  0
    0.0125    1.6888   -0.9982 C   0  0  0  0  0  0  0  0  0  0  0  0
    0.9017    2.1362    0.1323 C   0  0  0  0  0  0  0  0  0  0  0  0
    0.8105   -1.1585   -1.4673 F   0  0  0  0  0  0  0  0  0  0  0  0
    2.6060   -1.1575    0.3828 N   0  0  0  0  0  0  0  0  0  0  0  0
    3.9310   -1.2020    1.0412 S   0  0  0  0  0  0  0  0  0  0  0  0
    5.2611   -0.2964    0.2782 C   0  0  0  0  0  0  0  0  0  0  0  0
    6.4632   -1.7050   -1.4396 C   0  0  0  0  0  0  0  0  0  0  0  0
    5.4286   -0.6845   -1.1487 C   0  0  0  0  0  0  0  0  0  0  0  0
    7.7729   -1.2329   -0.7945 C   0  0  0  0  0  0  0  0  0  0  0  0
    6.4936   -0.3526    1.1120 C   0  0  0  0  0  0  0  0  0  0  0  0
    7.5135   -1.3436    0.7107 C   0  0  0  0  0  0  0  0  0  0  0  0
    6.1093   -0.6434    2.4280 F   0  0  0  0  0  0  0  0  0  0  0  0
    5.6859    0.4353   -1.9492 F   0  0  0  0  0  0  0  0  0  0  0  0
    4.5447   -2.8638    0.5025 O   0  0  0  0  0  0  0  0  0  0  0  0
    4.0837   -1.3042    2.5479 O   0  0  0  0  0  0  0  0  0  0  0  0
   -4.7536   -3.1721   -1.6818 C   0  0  0  0  0  0  0  0  0  0  0  0
   -3.2895   -1.5849   -0.7990 C   0  0  2  0  0  0  0  0  0  0  0  0
   -4.1678   -1.8522   -1.9191 N   0  0  0  0  0  0  0  0  0  0  0  0
   -4.0505   -1.7314    0.4714 C   0  0  0  0  0  0  0  0  0  0  0  0
   -5.7576   -3.0911   -0.6477 N   0  0  0  0  0  0  0  0  0  0  0  0
   -5.5267   -1.9819    0.2556 C   0  0  0  0  0  0  0  0  0  0  0  0
   -5.3499   -3.6613   -2.9053 N   0  0  0  0  0  0  0  0  0  0  0  0
   -2.5540   -0.2804   -0.9564 C   0  0  1  0  0  0  0  0  0  0  0  0
   -3.7170    1.1334   -1.0858 S   0  0  0  0  0  0  0  0  0  0  0  0
   -2.8272    2.1899    0.1278 C   0  0  0  0  0  0  0  0  0  0  0  0
   -2.1594    1.2293    0.8917 N   0  0  0  0  0  0  0  0  0  0  0  0
   -1.7138    0.0924    0.2034 C   0  0  0  0  0  0  0  0  0  0  0  0
   -3.8064    2.9983    0.9540 C   0  0  0  0  0  0  0  0  0  0  0  0
   -4.5916    3.8646   -0.0391 C   0  0  0  0  0  0  0  0  0  0  0  0
   -4.7615    2.1382    1.7364 C   0  0  0  0  0  0  0  0  0  0  0  0
   -3.0346    3.9455    1.8289 C   0  0  0  0  0  0  0  0  0  0  0  0
   -0.2162    0.0854   -0.0770 C   0  0  2  0  0  0  0  0  0  0  0  0
    1.9554    0.7001    1.0886 C   0  0  2  0  0  0  0  0  0  0  0  0
    0.4743    0.4658    1.1792 C   0  0  0  0  0  0  0  0  0  0  0  0
    2.2108    1.5366   -0.1173 C   0  0  0  0  0  0  0  0  0  0  0  0
    0.1590    0.9341   -1.2587 C   0  0  0  0  0  0  0  0  0  0  0  0
    1.6906    0.8192   -1.3426 C   0  0  0  0  0  0  0  0  0  0  0  0
   -0.1554    1.5224    1.8318 F   0  0  0  0  0  0  0  0  0  0  0  0
    2.7285   -0.4877    1.2194 N   0  0  0  0  0  0  0  0  0  0  0  0
    4.1450   -0.7340    1.4373 S   0  0  0  0  0  0  0  0  0  0  0  0
    5.4029    0.1167    0.5965 C   0  0  0  0  0  0  0  0  0  0  0  0
    6.0919   -1.3676   -1.3224 C   0  0  0  0  0  0  0  0  0  0  0  0
    5.4146   -0.0914   -0.8699 C   0  0  0  0  0  0  0  0  0  0  0  0
    7.5304   -1.2986   -0.8556 C   0  0  0  0  0  0  0  0  0  0  0  0
    6.7655   -0.1521    1.2321 C   0  0  0  0  0  0  0  0  0  0  0  0
    7.4755   -1.3266    0.6580 C   0  0  0  0  0  0  0  0  0  0  0  0
    6.6177   -0.3116    2.5817 F   0  0  0  0  0  0  0  0  0  0  0  0
    6.1173    0.9531   -1.4459 F   0  0  0  0  0  0  0  0  0  0  0  0
    4.5561   -2.3716    1.3552 O   0  0  0  0  0  0  0  0  0  0  0  0
    4.5379   -0.4588    3.1188 O   0  0  0  0  0  0  0  0  0  0  0  0
   -3.0453   -3.5343    1.1693 C   0  0  0  0  0  0  0  0  0  0  0  0
   -3.5399   -1.1983    1.0353 C   0  0  2  0  0  0  0  0  0  0  0  0
   -2.7832   -2.3024    0.4704 N   0  0  0  0  0  0  0  0  0  0  0  0
   -4.9974   -1.5951    0.9829 C   0  0  0  0  0  0  0  0  0  0  0  0
   -4.4181   -3.9488    1.0374 N   0  0  0  0  0  0  0  0  0  0  0  0
   -5.1573   -2.9386    0.2988 C   0  0  0  0  0  0  0  0  0  0  0  0
   -2.2301   -4.5712    0.5352 N   0  0  0  0  0  0  0  0  0  0  0  0
   -3.2540    0.0318    0.2163 C   0  0  1  0  0  0  0  0  0  0  0  0
   -4.2101    1.4487    0.9169 S   0  0  0  0  0  0  0  0  0  0  0  0
   -2.8064    2.6438    0.9425 C   0  0  1  0  0  0  0  0  0  0  0  0
   -1.9615    1.9515   -0.0473 N   0  0  0  0  0  0  0  0  0  0  0  0
   -1.8637    0.5712    0.4355 C   0  0  2  0  0  0  0  0  0  0  0  0
   -3.2676    3.9498    0.3903 C   0  0  0  0  0  0  0  0  0  0  0  0
   -4.4189    4.5298    1.2125 C   0  0  0  0  0  0  0  0  0  0  0  0
   -3.7674    3.7742   -1.0239 C   0  0  0  0  0  0  0  0  0  0  0  0
   -2.1153    4.9308    0.3466 C   0  0  0  0  0  0  0  0  0  0  0  0
   -0.7897   -0.1088   -0.3467 C   0  0  2  0  0  0  0  0  0  0  0  0
    1.6050    0.4425   -0.9919 C   0  0  2  0  0  0  0  0  0  0  0  0
    0.5158    0.5519   -0.0055 C   0  0  0  0  0  0  0  0  0  0  0  0
    1.1204    0.5121   -2.4173 C   0  0  0  0  0  0  0  0  0  0  0  0
   -1.1300   -0.0686   -1.7994 C   0  0  0  0  0  0  0  0  0  0  0  0
    0.0848   -0.5771   -2.5932 C   0  0  0  0  0  0  0  0  0  0  0  0
    0.2670    1.8947    0.2856 F   0  0  0  0  0  0  0  0  0  0  0  0
    2.4974   -0.6585   -0.8667 N   0  0  0  0  0  0  0  0  0  0  0  0
    3.3493   -0.8858    0.3345 S   0  0  0  0  0  0  0  0  0  0  0  0
    4.9991   -1.1041    0.2405 C   0  0  0  0  0  0  0  0  0  0  0  0
    7.2103   -0.3751   -0.6092 C   0  0  0  0  0  0  0  0  0  0  0  0
    5.7810    0.0218   -0.3900 C   0  0  0  0  0  0  0  0  0  0  0  0
    7.8546   -0.7041    0.7269 C   0  0  0  0  0  0  0  0  0  0  0  0
    5.6092   -1.3723    1.6002 C   0  0  2  0  0  0  0  0  0  0  0  0
    7.0412   -1.7936    1.4231 C   0  0  0  0  0  0  0  0  0  0  0  0
    4.9608   -2.3842    2.2777 F   0  0  0  0  0  0  0  0  0  0  0  0
    5.7769    1.1534    0.4358 F   0  0  0  0  0  0  0  0  0  0  0  0
    3.0231   -0.1227    1.7534 O   0  0  0  0  0  0  0  0  0  0  0  0
    2.7863   -2.5815    0.8881 O   0  0  0  0  0  0  0  0  0  0  0  0
   -2.0930   -3.7648   -1.4590 H   0  0  0  0  0  0  0  0  0  0  0  0
   -3.3701   -1.9401    1.5155 H   0  0  0  0  0  0  0  0  0  0  0  0
   -1.3947   -2.5241    0.6997 H   0  0  0  0  0  0  0  0  0  0  0  0
   -5.1490   -1.0502    0.3444 H   0  0  0  0  0  0  0  0  0  0  0  0
   -4.1314   -0.0727   -0.7464 H   0  0  0  0  0  0  0  0  0  0  0  0
   -4.6765   -3.6986   -0.1569 H   0  0  0  0  0  0  0  0  0  0  0  0
   -3.8434   -1.7843   -2.2779 H   0  0  0  0  0  0  0  0  0  0  0  0
   -5.4946   -2.0902   -1.6137 H   0  0  0  0  0  0  0  0  0  0  0  0
   -2.2861   -4.1243    1.3701 H   0  0  0  0  0  0  0  0  0  0  0  0
   -3.4054   -5.0697    0.5451 H   0  0  0  0  0  0  0  0  0  0  0  0
   -1.4977   -0.3915    1.7943 H   0  0  0  0  0  0  0  0  0  0  0  0
   -2.7301    3.1814    1.4424 H   0  0  0  0  0  0  0  0  0  0  0  0
   -2.3290    2.5722   -0.7534 H   0  0  0  0  0  0  0  0  0  0  0  0
   -1.9842    0.1262   -0.9424 H   0  0  0  0  0  0  0  0  0  0  0  0
   -4.8881    3.9713   -1.1613 H   0  0  0  0  0  0  0  0  0  0  0  0
   -3.5443    4.6173   -0.1599 H   0  0  0  0  0  0  0  0  0  0  0  0
   -5.2052    5.0602    0.2990 H   0  0  0  0  0  0  0  0  0  0  0  0
   -5.5714    1.8408   -0.7622 H   0  0  0  0  0  0  0  0  0  0  0  0
   -6.7427    2.5493    0.4616 H   0  0  0  0  0  0  0  0  0  0  0  0
   -5.7302    1.1818    0.9679 H   0  0  0  0  0  0  0  0  0  0  0  0
   -5.0401    2.7034    2.9143 H   0  0  0  0  0  0  0  0  0  0  0  0
   -4.4964    4.3863    2.4652 H   0  0  0  0  0  0  0  0  0  0  0  0
   -6.1713    3.8565    2.1630 H   0  0  0  0  0  0  0  0  0  0  0  0
   -0.3439    1.8756   -0.8527 H   0  0  0  0  0  0  0  0  0  0  0  0
    2.2008    0.1830    0.9983 H   0  0  0  0  0  0  0  0  0  0  0  0
    0.2001   -0.7637    0.6106 H   0  0  0  0  0  0  0  0  0  0  0  0
    3.0582    2.1566   -0.3666 H   0  0  0  0  0  0  0  0  0  0  0  0
    1.6020    2.0833   -1.3481 H   0  0  0  0  0  0  0  0  0  0  0  0
    0.3778    1.0215    1.9878 H   0  0  0  0  0  0  0  0  0  0  0  0
   -0.5296    2.5134    1.7531 H   0  0  0  0  0  0  0  0  0  0  0  0
    2.0164    2.7625    1.6227 H   0  0  0  0  0  0  0  0  0  0  0  0
    0.9848    3.5213    0.3629 H   0  0  0  0  0  0  0  0  0  0  0  0
    2.1656   -1.3987   -1.0744 H   0  0  0  0  0  0  0  0  0  0  0  0
    5.0107    0.4525    0.8743 H   0  0  0  0  0  0  0  0  0  0  0  0
    6.9201   -1.4674   -1.9607 H   0  0  0  0  0  0  0  0  0  0  0  0
    8.3688   -1.1872   -0.9877 H   0  0  0  0  0  0  0  0  0  0  0  0
    6.6188    0.6392   -0.9506 H   0  0  0  0  0  0  0  0  0  0  0  0
    7.9671   -2.9394    0.3673 H   0  0  0  0  0  0  0  0  0  0  0  0
    7.0445   -3.5409   -1.0137 H   0  0  0  0  0  0  0  0  0  0  0  0
    5.6848   -1.3167    2.0951 H   0  0  0  0  0  0  0  0  0  0  0  0
    5.0958   -3.4844    0.1134 H   0  0  0  0  0  0  0  0  0  0  0  0
    6.1284   -3.4792    1.5403 H   0  0  0  0  0  0  0  0  0  0  0  0
    4.0723    0.7087   -2.9486 H   0  0  0  0  0  0  0  0  0  0  0  0
    3.9478   -2.5120   -1.7490 H   0  0  0  0  0  0  0  0  0  0  0  0
   -3.3487   -1.7309   -2.9058 H   0  0  0  0  0  0  0  0  0  0  0  0
   -4.0562   -0.1834   -0.5732 H   0  0  0  0  0  0  0  0  0  0  0  0
   -2.2561   -2.5121   -0.3299 H   0  0  0  0  0  0  0  0  0  0  0  0
   -3.7721   -2.6526    1.1059 H   0  0  0  0  0  0  0  0  0  0  0  0
   -4.9998   -1.3325    1.3956 H   0  0  0  0  0  0  0  0  0  0  0  0
   -5.2174   -3.3900   -2.2276 H   0  0  0  0  0  0  0  0  0  0  0  0
   -6.2920   -1.9706   -0.3846 H   0  0  0  0  0  0  0  0  0  0  0  0
   -5.5273   -3.5264   -0.0393 H   0  0  0  0  0  0  0  0  0  0  0  0
   -2.3764   -4.0379   -1.4658 H   0  0  0  0  0  0  0  0  0  0  0  0
   -3.5613   -4.3440   -2.5982 H   0  0  0  0  0  0  0  0  0  0  0  0
   -2.0507   -1.1163    1.6005 H   0  0  0  0  0  0  0  0  0  0  0  0
   -2.3449    2.8080    2.1053 H   0  0  0  0  0  0  0  0  0  0  0  0
   -3.0898    1.5947   -0.4923 H   0  0  0  0  0  0  0  0  0  0  0  0
   -0.9636    0.9457    1.4638 H   0  0  0  0  0  0  0  0  0  0  0  0
   -5.8128    2.7715    2.3773 H   0  0  0  0  0  0  0  0  0  0  0  0
   -5.4318    4.5563    2.2682 H   0  0  0  0  0  0  0  0  0  0  0  0
   -4.3387    3.5110    3.1930 H   0  0  0  0  0  0  0  0  0  0  0  0
   -5.3942    1.6665    0.1315 H   0  0  0  0  0  0  0  0  0  0  0  0
   -4.6334    2.7958   -1.0179 H   0  0  0  0  0  0  0  0  0  0  0  0
   -6.0254    3.3084   -0.0677 H   0  0  0  0  0  0  0  0  0  0  0  0
   -2.6740    4.3247    0.0123 H   0  0  0  0  0  0  0  0  0  0  0  0
   -4.2910    5.0685   -0.0609 H   0  0  0  0  0  0  0  0  0  0  0  0
   -3.2756    5.1767    1.4477 H   0  0  0  0  0  0  0  0  0  0  0  0
   -1.2143    0.0488   -1.4564 H   0  0  0  0  0  0  0  0  0  0  0  0
    1.2004   -0.3854    1.6734 H   0  0  0  0  0  0  0  0  0  0  0  0
   -0.1756   -1.5077    0.2345 H   0  0  0  0  0  0  0  0  0  0  0  0
    2.5459    1.5116    1.3063 H   0  0  0  0  0  0  0  0  0  0  0  0
    2.6952    1.2165   -0.4358 H   0  0  0  0  0  0  0  0  0  0  0  0
   -0.7435    2.4744   -1.1533 H   0  0  0  0  0  0  0  0  0  0  0  0
    0.6637    1.5336   -1.8796 H   0  0  0  0  0  0  0  0  0  0  0  0
    0.3506    2.4410    1.0445 H   0  0  0  0  0  0  0  0  0  0  0  0
    1.3959    3.0863   -0.2305 H   0  0  0  0  0  0  0  0  0  0  0  0
    2.4809   -1.5561   -0.5984 H   0  0  0  0  0  0  0  0  0  0  0  0
    4.9147    0.7653    0.2820 H   0  0  0  0  0  0  0  0  0  0  0  0
    6.6708   -1.6709   -2.5445 H   0  0  0  0  0  0  0  0  0  0  0  0
    6.2679   -2.7111   -1.0723 H   0  0  0  0  0  0  0  0  0  0  0  0
    4.4414   -1.0769   -1.5244 H   0  0  0  0  0  0  0  0  0  0  0  0
    8.6232   -1.8539   -1.0766 H   0  0  0  0  0  0  0  0  0  0  0  0
    7.9890   -0.1673   -1.0624 H   0  0  0  0  0  0  0  0  0  0  0  0
    6.9859    0.6606    1.1848 H   0  0  0  0  0  0  0  0  0  0  0  0
    7.2794   -2.3901    0.9191 H   0  0  0  0  0  0  0  0  0  0  0  0
    8.4874   -1.0723    1.1865 H   0  0  0  0  0  0  0  0  0  0  0  0
    3.9299   -3.4157    1.0299 H   0  0  0  0  0  0  0  0  0  0  0  0
    3.9711   -2.1920    2.9745 H   0  0  0  0  0  0  0  0  0  0  0  0
   -3.9576   -3.8738   -1.3357 H   0  0  0  0  0  0  0  0  0  0  0  0
   -2.4972   -2.3808   -0.8433 H   0  0  0  0  0  0  0  0  0  0  0  0
   -3.6448   -1.9135   -2.8343 H   0  0  0  0  0  0  0  0  0  0  0  0
   -3.6790   -2.5920    1.0887 H   0  0  0  0  0  0  0  0  0  0  0  0
   -3.9612   -0.8156    1.0849 H   0  0  0  0  0  0  0  0  0  0  0  0
   -5.9187   -3.9865   -0.1517 H   0  0  0  0  0  0  0  0  0  0  0  0
   -5.9802   -1.0351   -0.0903 H   0  0  0  0  0  0  0  0  0  0  0  0
   -5.9545   -2.2780    1.2418 H   0  0  0  0  0  0  0  0  0  0  0  0
   -4.8013   -4.3930   -3.3826 H   0  0  0  0  0  0  0  0  0  0  0  0
   -6.3079   -4.0836   -2.7228 H   0  0  0  0  0  0  0  0  0  0  0  0
   -2.0376   -0.3381   -1.9354 H   0  0  0  0  0  0  0  0  0  0  0  0
   -2.1904    2.9319   -0.3940 H   0  0  0  0  0  0  0  0  0  0  0  0
   -2.6434    1.0505    1.7887 H   0  0  0  0  0  0  0  0  0  0  0  0
   -1.8244   -0.7710    0.9405 H   0  0  0  0  0  0  0  0  0  0  0  0
   -5.2555    3.2656   -0.6688 H   0  0  0  0  0  0  0  0  0  0  0  0
   -3.8283    4.3099   -0.7168 H   0  0  0  0  0  0  0  0  0  0  0  0
   -5.0852    4.7078    0.4724 H   0  0  0  0  0  0  0  0  0  0  0  0
   -5.1289    1.2749    1.1881 H   0  0  0  0  0  0  0  0  0  0  0  0
   -5.6266    2.8006    2.0237 H   0  0  0  0  0  0  0  0  0  0  0  0
   -4.2671    1.8854    2.7091 H   0  0  0  0  0  0  0  0  0  0  0  0
   -2.5515    3.4521    2.6962 H   0  0  0  0  0  0  0  0  0  0  0  0
   -2.1807    4.3266    1.1975 H   0  0  0  0  0  0  0  0  0  0  0  0
   -3.6563    4.7705    2.1808 H   0  0  0  0  0  0  0  0  0  0  0  0
    0.0462   -0.9612   -0.3279 H   0  0  0  0  0  0  0  0  0  0  0  0
    2.2016    1.3252    2.0078 H   0  0  0  0  0  0  0  0  0  0  0  0
    0.3486   -0.4048    1.8909 H   0  0  0  0  0  0  0  0  0  0  0  0
    1.5694    2.4539   -0.0016 H   0  0  0  0  0  0  0  0  0  0  0  0
    3.2362    1.9055   -0.2457 H   0  0  0  0  0  0  0  0  0  0  0  0
   -0.2110    0.4833   -2.1763 H   0  0  0  0  0  0  0  0  0  0  0  0
   -0.0411    2.0006   -1.1352 H   0  0  0  0  0  0  0  0  0  0  0  0
    2.0887    1.3396   -2.2240 H   0  0  0  0  0  0  0  0  0  0  0  0
    1.9974   -0.2459   -1.2814 H   0  0  0  0  0  0  0  0  0  0  0  0
    2.0415   -1.2930    1.0322 H   0  0  0  0  0  0  0  0  0  0  0  0
    5.2418    1.2161    0.8000 H   0  0  0  0  0  0  0  0  0  0  0  0
    6.0309   -1.3982   -2.4290 H   0  0  0  0  0  0  0  0  0  0  0  0
    5.6364   -2.2706   -0.8994 H   0  0  0  0  0  0  0  0  0  0  0  0
    4.3803   -0.0513   -1.2553 H   0  0  0  0  0  0  0  0  0  0  0  0
    8.1206   -2.1498   -1.1994 H   0  0  0  0  0  0  0  0  0  0  0  0
    7.9535   -0.3094   -1.1991 H   0  0  0  0  0  0  0  0  0  0  0  0
    7.4122    0.7390    1.0728 H   0  0  0  0  0  0  0  0  0  0  0  0
    7.0803   -2.3109    0.9624 H   0  0  0  0  0  0  0  0  0  0  0  0
    8.5273   -1.2828    1.0072 H   0  0  0  0  0  0  0  0  0  0  0  0
    3.9169   -2.7793    0.7141 H   0  0  0  0  0  0  0  0  0  0  0  0
    3.9599   -1.0904    3.6380 H   0  0  0  0  0  0  0  0  0  0  0  0
   -2.7195   -3.4644    2.2262 H   0  0  0  0  0  0  0  0  0  0  0  0
   -3.2915   -1.0088    2.0835 H   0  0  0  0  0  0  0  0  0  0  0  0
   -2.8819   -2.3874   -0.5425 H   0  0  0  0  0  0  0  0  0  0  0  0
   -5.4397   -1.7090    1.9973 H   0  0  0  0  0  0  0  0  0  0  0  0
   -5.6166   -0.8648    0.4279 H   0  0  0  0  0  0  0  0  0  0  0  0
   -4.9035   -4.0554    1.9607 H   0  0  0  0  0  0  0  0  0  0  0  0
   -4.8391   -2.9146   -0.7648 H   0  0  0  0  0  0  0  0  0  0  0  0
   -6.2216   -3.2384    0.3217 H   0  0  0  0  0  0  0  0  0  0  0  0
   -2.3981   -5.4911    1.0000 H   0  0  0  0  0  0  0  0  0  0  0  0
   -2.4469   -4.6040   -0.4902 H   0  0  0  0  0  0  0  0  0  0  0  0
   -3.5280   -0.0536   -0.8324 H   0  0  0  0  0  0  0  0  0  0  0  0
   -2.3409    2.6948    1.9222 H   0  0  0  0  0  0  0  0  0  0  0  0
   -2.5878    1.8801   -0.8977 H   0  0  0  0  0  0  0  0  0  0  0  0
   -1.6618    0.5744    1.5305 H   0  0  0  0  0  0  0  0  0  0  0  0
   -5.2602    3.8354    1.1010 H   0  0  0  0  0  0  0  0  0  0  0  0
   -4.6134    5.5392    0.7927 H   0  0  0  0  0  0  0  0  0  0  0  0
   -4.0760    4.6368    2.2578 H   0  0  0  0  0  0  0  0  0  0  0  0
   -2.8957    3.7113   -1.7289 H   0  0  0  0  0  0  0  0  0  0  0  0
   -4.4385    4.6211   -1.3017 H   0  0  0  0  0  0  0  0  0  0  0  0
   -4.3640    2.8469   -1.1250 H   0  0  0  0  0  0  0  0  0  0  0  0
   -1.1311    4.4387    0.5068 H   0  0  0  0  0  0  0  0  0  0  0  0
   -2.0468    5.4784   -0.6066 H   0  0  0  0  0  0  0  0  0  0  0  0
   -2.2520    5.7042    1.1455 H   0  0  0  0  0  0  0  0  0  0  0  0
   -0.6789   -1.1916   -0.0705 H   0  0  0  0  0  0  0  0  0  0  0  0
    2.2487    1.3691   -0.8652 H   0  0  0  0  0  0  0  0  0  0  0  0
    0.8521    0.1038    0.9541 H   0  0  0  0  0  0  0  0  0  0  0  0
    0.5992    1.4974   -2.5232 H   0  0  0  0  0  0  0  0  0  0  0  0
    1.9174    0.4949   -3.1502 H   0  0  0  0  0  0  0  0  0  0  0  0
   -1.2596    0.9901   -2.1594 H   0  0  0  0  0  0  0  0  0  0  0  0
   -1.9934   -0.7027   -2.0003 H   0  0  0  0  0  0  0  0  0  0  0  0
   -0.1831   -0.5815   -3.6718 H   0  0  0  0  0  0  0  0  0  0  0  0
    0.3979   -1.5627   -2.2519 H   0  0  0  0  0  0  0  0  0  0  0  0
    2.2968   -1.4227   -1.5421 H   0  0  0  0  0  0  0  0  0  0  0  0
    5.2437   -2.0129   -0.3869 H   0  0  0  0  0  0  0  0  0  0  0  0
    7.7636    0.4651   -1.0648 H   0  0  0  0  0  0  0  0  0  0  0  0
    7.2748   -1.2571   -1.2651 H   0  0  0  0  0  0  0  0  0  0  0  0
    5.3211    0.3130   -1.3635 H   0  0  0  0  0  0  0  0  0  0  0  0
    8.8645   -1.1200    0.5211 H   0  0  0  0  0  0  0  0  0  0  0  0
    7.9855    0.1821    1.3572 H   0  0  0  0  0  0  0  0  0  0  0  0
    5.6234   -0.4281    2.2011 H   0  0  0  0  0  0  0  0  0  0  0  0
    7.0920   -2.6951    0.7840 H   0  0  0  0  0  0  0  0  0  0  0  0
    7.5226   -1.9376    2.4166 H   0  0  0  0  0  0  0  0  0  0  0  0
    3.0038    0.8462    1.7143 H   0  0  0  0  0  0  0  0  0  0  0  0
    3.3361   -3.1026    0.2503 H   0  0  0  0  0  0  0  0  0  0  0  0
  1  3  1  0
  2  3  1  0
  2  4  1  0
  1  5  1  0
  4  6  1  0
  5  6  1  0
  1  7  1  0
  2  8  1  0
  8  9  1  0
  9 10  1  0
 10 11  1  0
  8 12  1  0
 11 12  1  0
 10 13  1  0
 13 14  1  0
 13 15  1  0
 13 16  1  0
 12 17  1  0
 17 19  1  0
 18 19  1  0
 18 20  1  0
 17 21  1  0
 20 22  1  0
 21 22  1  0
 19 23  1  0
 18 24  1  0
 24 25  1  0
 25 26  1  0
 26 28  1  0
 27 28  1  0
 27 29  1  0
 26 30  1  0
 29 31  1  0
 30 31  1  0
 30 32  1  0
 28 33  1  0
 25 34  1  0
 25 35  1  0
 36 38  1  0
 37 38  1  0
 37 39  1  0
 36 40  1  0
 39 41  1  0
 40 41  1  0
 36 42  1  0
 37 43  1  0
 43 44  1  0
 44 45  1  0
 45 46  1  0
 43 47  1  0
 46 47  1  0
 45 48  1  0
 48 49  1  0
 48 50  1  0
 48 51  1  0
 47 52  1  0
 52 54  1  0
 53 54  1  0
 53 55  1  0
 52 56  1  0
 55 57  1  0
 56 57  1  0
 54 58  1  0
 53 59  1  0
 59 60  1  0
 60 61  1  0
 61 63  1  0
 62 63  1  0
 62 64  1  0
 61 65  1  0
 64 66  1  0
 65 66  1  0
 65 67  1  0
 63 68  1  0
 60 69  1  0
 60 70  1  0
 71 73  1  0
 72 73  1  0
 72 74  1  0
 71 75  1  0
 74 76  1  0
 75 76  1  0
 71 77  1  0
 72 78  1  0
 78 79  1  0
 79 80  1  0
 80 81  1  0
 78 82  1  0
 81 82  1  0
 80 83  1  0
 83 84  1  0
 83 85  1  0
 83 86  1  0
 82 87  1  0
 87 89  1  0
 88 89  1  0
 88 90  1  0
 87 91  1  0
 90 92  1  0
 91 92  1  0
 89 93  1  0
 88 94  1  0
 94 95  1  0
 95 96  1  0
 96 98  1  0
 97 98  1  0
 97 99  1  0
 96100  1  0
 99101  1  0
100101  1  0
100102  1  0
 98103  1  0
 95104  1  0
 95105  1  0
106108  1  0
107108  1  0
107109  1  0
106110  1  0
109111  1  0
110111  1  0
106112  1  0
107113  1  0
113114  1  0
114115  1  0
115116  1  0
113117  1  0
116117  1  0
115118  1  0
118119  1  0
118120  1  0
118121  1  0
117122  1  0
122124  1  0
123124  1  0
123125  1  0
122126  1  0
125127  1  0
126127  1  0
124128  1  0
123129  1  0
129130  1  0
130131  1  0
131133  1  0
132133  1  0
132134  1  0
131135  1  0
134136  1  0
135136  1  0
135137  1  0
133138  1  0
130139  1  0
130140  1  0
  1141  1  0
  2142  1  1
  3143  1  0
  4144  1  0
  4145  1  0
  5146  1  0
  6147  1  0
  6148  1  0
  7149  1  0
  7150  1  0
  8151  1  0
 10152  1  1
 11153  1  0
 12154  1  0
 14155  1  0
 14156  1  0
 14157  1  0
 15158  1  0
 15159  1  0
 15160  1  0
 16161  1  0
 16162  1  0
 16163  1  0
 17164  1  6
 18165  1  1
 19166  1  0
 20167  1  0
 20168  1  0
 21169  1  0
 21170  1  0
 22171  1  0
 22172  1  0
 24173  1  0
 26174  1  0
 27175  1  0
 27176  1  0
 28177  1  0
 29178  1  0
 29179  1  0
 30180  1  0
 31181  1  0
 31182  1  0
 34183  1  0
 35184  1  0
 36185  1  0
 37186  1  0
 38187  1  0
 39188  1  0
 39189  1  0
 40190  1  0
 41191  1  0
 41192  1  0
 42193  1  0
 42194  1  0
 43195  1  0
 45196  1  1
 46197  1  0
 47198  1  1
 49199  1  0
 49200  1  0
 49201  1  0
 50202  1  0
 50203  1  0
 50204  1  0
 51205  1  0
 51206  1  0
 51207  1  0
 52208  1  6
 53209  1  0
 54210  1  0
 55211  1  0
 55212  1  0
 56213  1  0
 56214  1  0
 57215  1  0
 57216  1  0
 59217  1  0
 61218  1  0
 62219  1  0
 62220  1  0
 63221  1  0
 64222  1  0
 64223  1  0
 65224  1  0
 66225  1  0
 66226  1  0
 69227  1  0
 70228  1  0
 71229  1  0
 72230  1  1
 73231  1  0
 74232  1  0
 74233  1  0
 75234  1  0
 76235  1  0
 76236  1  0
 77237  1  0
 77238  1  0
 78239  1  6
 80240  1  0
 81241  1  0
 82242  1  0
 84243  1  0
 84244  1  0
 84245  1  0
 85246  1  0
 85247  1  0
 85248  1  0
 86249  1  0
 86250  1  0
 86251  1  0
 87252  1  6
 88253  1  1
 89254  1  0
 90255  1  0
 90256  1  0
 91257  1  0
 91258  1  0
 92259  1  0
 92260  1  0
 94261  1  0
 96262  1  0
 97263  1  0
 97264  1  0
 98265  1  0
 99266  1  0
 99267  1  0
100268  1  0
101269  1  0
101270  1  0
104271  1  0
105272  1  0
106273  1  0
107274  1  1
108275  1  0
109276  1  0
109277  1  0
110278  1  0
111279  1  0
111280  1  0
112281  1  0
112282  1  0
113283  1  6
115284  1  1
116285  1  0
117286  1  1
119287  1  0
119288  1  0
119289  1  0
120290  1  0
120291  1  0
120292  1  0
121293  1  0
121294  1  0
121295  1  0
122296  1  1
123297  1  1
124298  1  0
125299  1  0
125300  1  0
126301  1  0
126302  1  0
127303  1  0
127304  1  0
129305  1  0
131306  1  0
132307  1  0
132308  1  0
133309  1  0
134310  1  0
134311  1  0
135312  1  1
136313  1  0
136314  1  0
139315  1  0
140316  1  0
M  END
>  <PDBID>  (1) 
5HIE

>  <PDB ID>  (1) 
5HIE

>  <Generic Name>  (1) 
Dabrafenib

>  <Brand Name>  (1) 
Tafinlar

>  <DrugBank ID>  (1) 
DB08912

>  <ATC Codes>  (1) 
L01XE23

>  <Ligand ID>  (1) 
P06

>  <Target Name>  (1) 
RAF proto-oncogene serine/threonine-protein kinase

>  <UniProt ID>  (1) 
P04049

>  <PDB ID.1>  (1) 
5HIE

>  <Seq. Identity>  (1) 
77%

$$$$
