PDB_DB01137_07
     RDKit          3D

116122  0  0  0  0  0  0  0  0999 V2000
   -4.9477    0.9014   -0.8699 C   0  0  0  0  0  0  0  0  0  0  0  0
    1.1624    2.8896    1.1546 F   0  0  0  0  0  0  0  0  0  0  0  0
    5.2283    0.3387   -0.4841 N   0  0  0  0  0  0  0  0  0  0  0  0
   -5.4512    1.8373    0.0627 O   0  0  0  0  0  0  0  0  0  0  0  0
    3.0036   -0.6132   -0.2620 C   0  0  0  0  0  0  0  0  0  0  0  0
    2.4785    0.6111    0.2629 N   0  0  0  0  0  0  0  0  0  0  0  0
    0.6321   -1.3452    0.6118 O   0  0  0  0  0  0  0  0  0  0  0  0
    3.3902    1.6438    0.5369 C   0  0  0  0  0  0  0  0  0  0  0  0
   -1.8602   -1.1691   -0.6749 N   0  0  0  0  0  0  0  0  0  0  0  0
   -2.5082    0.8273    1.7380 O   0  0  0  0  0  0  0  0  0  0  0  0
   -1.5628   -2.2390    0.1921 C   0  0  2  0  0  0  0  0  0  0  0  0
   -5.9864    0.1131   -1.3034 O   0  0  0  0  0  0  0  0  0  0  0  0
    1.1851    0.8685   -0.1712 C   0  0  0  0  0  0  0  0  0  0  0  0
   -0.9867   -0.0605   -0.6680 C   0  0  0  0  0  0  0  0  0  0  0  0
    0.1524   -0.1264    0.3139 C   0  0  0  0  0  0  0  0  0  0  0  0
    4.2006   -0.3524   -1.1794 C   0  0  0  0  0  0  0  0  0  0  0  0
    4.8405    1.1957    0.5718 C   0  0  0  0  0  0  0  0  0  0  0  0
   -0.0518   -2.4394    0.1738 C   0  0  0  0  0  0  0  0  0  0  0  0
   -1.6575    1.2665   -0.4583 C   0  0  0  0  0  0  0  0  0  0  0  0
    0.6313    2.2401    0.0405 C   0  0  0  0  0  0  0  0  0  0  0  0
   -3.2169   -0.9267   -0.9750 C   0  0  0  0  0  0  0  0  0  0  0  0
   -0.8415    2.3389    0.1405 C   0  0  0  0  0  0  0  0  0  0  0  0
   -2.1551   -3.5626   -0.3165 C   0  0  0  0  0  0  0  0  0  0  0  0
   -2.9035    1.1006    0.4289 C   0  0  0  0  0  0  0  0  0  0  0  0
    6.2309   -0.6035    0.0376 C   0  0  0  0  0  0  0  0  0  0  0  0
   -3.8726    0.1248   -0.1300 C   0  0  0  0  0  0  0  0  0  0  0  0
    2.2762   -1.1372   -0.9518 H   0  0  0  0  0  0  0  0  0  0  0  0
    3.3730   -1.2809    0.5328 H   0  0  0  0  0  0  0  0  0  0  0  0
    3.3505    2.5139   -0.1580 H   0  0  0  0  0  0  0  0  0  0  0  0
    3.1997    1.9882    1.6004 H   0  0  0  0  0  0  0  0  0  0  0  0
   -1.9198   -2.1271    1.2267 H   0  0  0  0  0  0  0  0  0  0  0  0
    3.8730    0.1526   -2.1209 H   0  0  0  0  0  0  0  0  0  0  0  0
    4.5773   -1.3524   -1.4778 H   0  0  0  0  0  0  0  0  0  0  0  0
    5.0697    0.7562    1.5851 H   0  0  0  0  0  0  0  0  0  0  0  0
    5.4579    2.1266    0.5275 H   0  0  0  0  0  0  0  0  0  0  0  0
    0.2447   -3.3366    0.7263 H   0  0  0  0  0  0  0  0  0  0  0  0
    0.2131   -2.5792   -0.9157 H   0  0  0  0  0  0  0  0  0  0  0  0
   -3.3313   -0.6125   -2.0451 H   0  0  0  0  0  0  0  0  0  0  0  0
   -1.1614    3.3046   -0.3587 H   0  0  0  0  0  0  0  0  0  0  0  0
   -2.2246   -3.5677   -1.4264 H   0  0  0  0  0  0  0  0  0  0  0  0
   -3.1541   -3.7004    0.1350 H   0  0  0  0  0  0  0  0  0  0  0  0
   -1.5413   -4.4304    0.0356 H   0  0  0  0  0  0  0  0  0  0  0  0
    6.7142   -0.2030    0.9520 H   0  0  0  0  0  0  0  0  0  0  0  0
    5.7411   -1.5667    0.3011 H   0  0  0  0  0  0  0  0  0  0  0  0
    7.0118   -0.7513   -0.7252 H   0  0  0  0  0  0  0  0  0  0  0  0
   -4.9477    0.9014   -0.8699 C   0  0  0  0  0  0  0  0  0  0  0  0
    1.1624    2.8896    1.1546 F   0  0  0  0  0  0  0  0  0  0  0  0
    5.2283    0.3387   -0.4841 N   0  0  0  0  0  0  0  0  0  0  0  0
   -5.4512    1.8373    0.0627 O   0  0  0  0  0  0  0  0  0  0  0  0
    3.0036   -0.6132   -0.2620 C   0  0  0  0  0  0  0  0  0  0  0  0
    2.4785    0.6111    0.2629 N   0  0  0  0  0  0  0  0  0  0  0  0
    0.6321   -1.3452    0.6118 O   0  0  0  0  0  0  0  0  0  0  0  0
    3.3902    1.6438    0.5369 C   0  0  0  0  0  0  0  0  0  0  0  0
   -1.8602   -1.1691   -0.6749 N   0  0  0  0  0  0  0  0  0  0  0  0
   -2.5082    0.8273    1.7380 O   0  0  0  0  0  0  0  0  0  0  0  0
   -1.5628   -2.2390    0.1921 C   0  0  2  0  0  0  0  0  0  0  0  0
   -5.9864    0.1131   -1.3034 O   0  0  0  0  0  0  0  0  0  0  0  0
    1.1851    0.8685   -0.1712 C   0  0  0  0  0  0  0  0  0  0  0  0
   -0.9867   -0.0605   -0.6680 C   0  0  0  0  0  0  0  0  0  0  0  0
    0.1524   -0.1264    0.3139 C   0  0  0  0  0  0  0  0  0  0  0  0
    4.2006   -0.3524   -1.1794 C   0  0  0  0  0  0  0  0  0  0  0  0
    4.8405    1.1957    0.5718 C   0  0  0  0  0  0  0  0  0  0  0  0
   -0.0518   -2.4394    0.1738 C   0  0  0  0  0  0  0  0  0  0  0  0
   -1.6575    1.2665   -0.4583 C   0  0  0  0  0  0  0  0  0  0  0  0
    0.6313    2.2401    0.0405 C   0  0  0  0  0  0  0  0  0  0  0  0
   -3.2169   -0.9267   -0.9750 C   0  0  0  0  0  0  0  0  0  0  0  0
   -0.8415    2.3389    0.1405 C   0  0  0  0  0  0  0  0  0  0  0  0
   -2.1551   -3.5626   -0.3165 C   0  0  0  0  0  0  0  0  0  0  0  0
   -2.9035    1.1006    0.4289 C   0  0  0  0  0  0  0  0  0  0  0  0
    6.2309   -0.6035    0.0376 C   0  0  0  0  0  0  0  0  0  0  0  0
   -3.8726    0.1248   -0.1300 C   0  0  0  0  0  0  0  0  0  0  0  0
    2.2762   -1.1372   -0.9518 H   0  0  0  0  0  0  0  0  0  0  0  0
    3.3730   -1.2809    0.5328 H   0  0  0  0  0  0  0  0  0  0  0  0
    3.3505    2.5139   -0.1580 H   0  0  0  0  0  0  0  0  0  0  0  0
    3.1997    1.9882    1.6004 H   0  0  0  0  0  0  0  0  0  0  0  0
   -1.9198   -2.1271    1.2267 H   0  0  0  0  0  0  0  0  0  0  0  0
    3.8730    0.1526   -2.1209 H   0  0  0  0  0  0  0  0  0  0  0  0
    4.5773   -1.3524   -1.4778 H   0  0  0  0  0  0  0  0  0  0  0  0
    5.0697    0.7562    1.5851 H   0  0  0  0  0  0  0  0  0  0  0  0
    5.4579    2.1266    0.5275 H   0  0  0  0  0  0  0  0  0  0  0  0
    0.2447   -3.3366    0.7263 H   0  0  0  0  0  0  0  0  0  0  0  0
    0.2131   -2.5792   -0.9157 H   0  0  0  0  0  0  0  0  0  0  0  0
   -3.3313   -0.6125   -2.0451 H   0  0  0  0  0  0  0  0  0  0  0  0
   -1.1614    3.3046   -0.3587 H   0  0  0  0  0  0  0  0  0  0  0  0
   -2.2246   -3.5677   -1.4264 H   0  0  0  0  0  0  0  0  0  0  0  0
   -3.1541   -3.7004    0.1350 H   0  0  0  0  0  0  0  0  0  0  0  0
   -1.5413   -4.4304    0.0356 H   0  0  0  0  0  0  0  0  0  0  0  0
    6.7142   -0.2030    0.9520 H   0  0  0  0  0  0  0  0  0  0  0  0
    5.7411   -1.5667    0.3011 H   0  0  0  0  0  0  0  0  0  0  0  0
    7.0118   -0.7513   -0.7252 H   0  0  0  0  0  0  0  0  0  0  0  0
   -4.4644    1.4837   -1.6720 H   0  0  0  0  0  0  0  0  0  0  0  0
   -6.2313    2.3144   -0.3149 H   0  0  0  0  0  0  0  0  0  0  0  0
   -2.9752    0.0313    2.0472 H   0  0  0  0  0  0  0  0  0  0  0  0
   -5.9119   -0.7900   -0.9422 H   0  0  0  0  0  0  0  0  0  0  0  0
    1.1815    0.7145   -1.3050 H   0  0  0  0  0  0  0  0  0  0  0  0
   -0.5050   -0.0141   -1.6882 H   0  0  0  0  0  0  0  0  0  0  0  0
   -0.2372    0.3288    1.2806 H   0  0  0  0  0  0  0  0  0  0  0  0
   -2.0853    1.5712   -1.4590 H   0  0  0  0  0  0  0  0  0  0  0  0
    0.9940    2.8823   -0.8199 H   0  0  0  0  0  0  0  0  0  0  0  0
   -3.7888   -1.8710   -0.8703 H   0  0  0  0  0  0  0  0  0  0  0  0
   -1.1426    2.5276    1.2167 H   0  0  0  0  0  0  0  0  0  0  0  0
   -3.3403    2.1430    0.4685 H   0  0  0  0  0  0  0  0  0  0  0  0
   -4.3969   -0.3779    0.7253 H   0  0  0  0  0  0  0  0  0  0  0  0
   -4.4644    1.4837   -1.6720 H   0  0  0  0  0  0  0  0  0  0  0  0
   -6.2313    2.3144   -0.3149 H   0  0  0  0  0  0  0  0  0  0  0  0
   -2.9752    0.0313    2.0472 H   0  0  0  0  0  0  0  0  0  0  0  0
   -5.9119   -0.7900   -0.9422 H   0  0  0  0  0  0  0  0  0  0  0  0
    1.1815    0.7145   -1.3050 H   0  0  0  0  0  0  0  0  0  0  0  0
   -0.5050   -0.0141   -1.6882 H   0  0  0  0  0  0  0  0  0  0  0  0
   -0.2372    0.3288    1.2806 H   0  0  0  0  0  0  0  0  0  0  0  0
   -2.0853    1.5712   -1.4590 H   0  0  0  0  0  0  0  0  0  0  0  0
    0.9940    2.8823   -0.8199 H   0  0  0  0  0  0  0  0  0  0  0  0
   -3.7888   -1.8710   -0.8703 H   0  0  0  0  0  0  0  0  0  0  0  0
   -1.1426    2.5276    1.2167 H   0  0  0  0  0  0  0  0  0  0  0  0
   -3.3403    2.1430    0.4685 H   0  0  0  0  0  0  0  0  0  0  0  0
   -4.3969   -0.3779    0.7253 H   0  0  0  0  0  0  0  0  0  0  0  0
  1  4  1  0
  5  6  1  0
  6  8  1  0
  9 11  1  0
  1 12  1  0
  6 13  1  0
  9 14  1  0
  7 15  1  0
 13 15  1  0
 14 15  1  0
  3 16  1  0
  5 16  1  0
  3 17  1  0
  8 17  1  0
  7 18  1  0
 11 18  1  0
 14 19  1  0
  2 20  1  0
 13 20  1  0
  9 21  1  0
 19 22  1  0
 20 22  1  0
 11 23  1  0
 19 24  1  0
 24 10  1  0
  3 25  1  0
  1 26  1  0
 21 26  1  0
 24 26  1  0
  5 27  1  0
  5 28  1  0
  8 29  1  0
  8 30  1  0
 11 31  1  1
 16 32  1  0
 16 33  1  0
 17 34  1  0
 17 35  1  0
 18 36  1  0
 18 37  1  0
 21 38  1  0
 22 39  1  0
 23 40  1  0
 23 41  1  0
 23 42  1  0
 25 43  1  0
 25 44  1  0
 25 45  1  0
 46 49  1  0
 50 51  1  0
 51 53  1  0
 54 56  1  0
 46 57  1  0
 51 58  1  0
 54 59  1  0
 52 60  1  0
 58 60  1  0
 59 60  1  0
 48 61  1  0
 50 61  1  0
 48 62  1  0
 53 62  1  0
 52 63  1  0
 56 63  1  0
 59 64  1  0
 47 65  1  0
 58 65  1  0
 54 66  1  0
 64 67  1  0
 65 67  1  0
 56 68  1  0
 64 69  1  0
 69 55  1  0
 48 70  1  0
 46 71  1  0
 66 71  1  0
 69 71  1  0
 50 72  1  0
 50 73  1  0
 53 74  1  0
 53 75  1  0
 56 76  1  1
 61 77  1  0
 61 78  1  0
 62 79  1  0
 62 80  1  0
 63 81  1  0
 63 82  1  0
 66 83  1  0
 67 84  1  0
 68 85  1  0
 68 86  1  0
 68 87  1  0
 70 88  1  0
 70 89  1  0
 70 90  1  0
  1 91  1  0
  4 92  1  0
 10 93  1  0
 12 94  1  0
 13 95  1  0
 14 96  1  0
 15 97  1  0
 19 98  1  0
 20 99  1  0
 21100  1  0
 22101  1  0
 24102  1  0
 26103  1  0
 46104  1  0
 49105  1  0
 55106  1  0
 57107  1  0
 58108  1  0
 59109  1  0
 60110  1  0
 64111  1  0
 65112  1  0
 66113  1  0
 67114  1  0
 69115  1  0
 71116  1  0
M  END
>  <PDBID>  (1) 
4Z2D

>  <PDB ID>  (1) 
4Z2D

>  <Generic Name>  (1) 
Levofloxacin

>  <Brand Name>  (1) 
Act Levofloxacin#Apo-levofloxacin#Auro-levofloxacin#Ava-levofloxacin#Dom-levofloxacin#Iquix#Levaquin#Levaquin 25mg/ml#Levaquin 500mg#Levaquin 5mg/ml#Levaquin 750mg#Levofloxacin#Levofloxacin In 5% Dextrose Injection#Levofloxacin Injection#Mylan-levofloxacin#Ntp-levofloxacin#PHL-levofloxacin#PMS-levofloxacin#Quinsair#Quixin#Sandoz Levofloxacin#Teva-levofloxacin#Cravit#Elequine#Floxel#Leroxacin#Levokacin#Levox#Levoxacin#Mosardal#Nofaxin#Reskuin#Tavanic

>  <DrugBank ID>  (1) 
DB01137

>  <ATC Codes>  (1) 
A02BD10#J01RA05#S01AE05#J01MA12

>  <Ligand ID>  (1) 
LFX

>  <Target Name>  (1) 
DNA gyrase subunit A

>  <UniProt ID>  (1) 
P43700

>  <PDB ID.1>  (1) 
4Z2D

>  <Seq. Identity>  (1) 
50%

$$$$
