PDB_DB08895_02
     RDKit          3D

114118  0  0  0  0  0  0  0  0999 V2000
    0.2073   -0.7217   -0.2850 C   0  0  1  0  0  0  0  0  0  0  0  0
    1.1735    0.0786    0.5990 C   0  0  0  0  0  0  0  0  0  0  0  0
    2.5457   -1.8442    1.0906 C   0  0  0  0  0  0  0  0  0  0  0  0
    1.7283   -2.7082    0.1893 C   0  0  0  0  0  0  0  0  0  0  0  0
    0.8758   -1.9803   -0.7862 C   0  0  1  0  0  0  0  0  0  0  0  0
    2.4546   -0.4832    0.6142 N   0  0  0  0  0  0  0  0  0  0  0  0
    3.3511    0.2547   -1.4390 O   0  0  0  0  0  0  0  0  0  0  0  0
    3.5452    0.0376   -0.0654 C   0  0  0  0  0  0  0  0  0  0  0  0
    3.9695    1.3890    0.4942 C   0  0  0  0  0  0  0  0  0  0  0  0
    5.1722    1.9128   -0.2811 C   0  0  0  0  0  0  0  0  0  0  0  0
    5.6033    3.1722    0.2406 N   0  0  0  0  0  0  0  0  0  0  0  0
   -0.1694   -2.9673   -1.2764 C   0  0  0  0  0  0  0  0  0  0  0  0
   -1.0633   -0.8861    0.2297 N   0  0  0  0  0  0  0  0  0  0  0  0
   -1.3336   -1.5532    1.4179 C   0  0  0  0  0  0  0  0  0  0  0  0
   -2.1698   -0.1751   -0.3073 C   0  0  0  0  0  0  0  0  0  0  0  0
   -3.0088    0.5717    0.6589 C   0  0  0  0  0  0  0  0  0  0  0  0
   -2.3904    1.6957    1.4008 C   0  0  0  0  0  0  0  0  0  0  0  0
   -3.4584    2.7872    1.3534 C   0  0  0  0  0  0  0  0  0  0  0  0
   -4.6533    2.1536    0.8072 N   0  0  0  0  0  0  0  0  0  0  0  0
   -4.0728    1.3015   -0.1798 C   0  0  0  0  0  0  0  0  0  0  0  0
   -4.9380    0.2732   -0.6780 N   0  0  0  0  0  0  0  0  0  0  0  0
   -4.1858   -0.5051   -1.6353 C   0  0  0  0  0  0  0  0  0  0  0  0
   -2.9749   -1.0668   -1.0818 N   0  0  0  0  0  0  0  0  0  0  0  0
    0.2073   -0.7217   -0.2850 C   0  0  1  0  0  0  0  0  0  0  0  0
    1.1735    0.0786    0.5990 C   0  0  0  0  0  0  0  0  0  0  0  0
    2.5457   -1.8442    1.0906 C   0  0  0  0  0  0  0  0  0  0  0  0
    1.7283   -2.7082    0.1893 C   0  0  0  0  0  0  0  0  0  0  0  0
    0.8758   -1.9803   -0.7862 C   0  0  1  0  0  0  0  0  0  0  0  0
    2.4546   -0.4832    0.6142 N   0  0  0  0  0  0  0  0  0  0  0  0
    3.3511    0.2547   -1.4390 O   0  0  0  0  0  0  0  0  0  0  0  0
    3.5452    0.0376   -0.0654 C   0  0  0  0  0  0  0  0  0  0  0  0
    3.9695    1.3890    0.4942 C   0  0  0  0  0  0  0  0  0  0  0  0
    5.1722    1.9128   -0.2811 C   0  0  0  0  0  0  0  0  0  0  0  0
    5.6033    3.1722    0.2406 N   0  0  0  0  0  0  0  0  0  0  0  0
   -0.1694   -2.9673   -1.2764 C   0  0  0  0  0  0  0  0  0  0  0  0
   -1.0633   -0.8861    0.2297 N   0  0  0  0  0  0  0  0  0  0  0  0
   -1.3336   -1.5532    1.4179 C   0  0  0  0  0  0  0  0  0  0  0  0
   -2.1698   -0.1751   -0.3073 C   0  0  0  0  0  0  0  0  0  0  0  0
   -3.0088    0.5717    0.6589 C   0  0  0  0  0  0  0  0  0  0  0  0
   -2.3904    1.6957    1.4008 C   0  0  0  0  0  0  0  0  0  0  0  0
   -3.4584    2.7872    1.3534 C   0  0  0  0  0  0  0  0  0  0  0  0
   -4.6533    2.1536    0.8072 N   0  0  0  0  0  0  0  0  0  0  0  0
   -4.0728    1.3015   -0.1798 C   0  0  0  0  0  0  0  0  0  0  0  0
   -4.9380    0.2732   -0.6780 N   0  0  0  0  0  0  0  0  0  0  0  0
   -4.1858   -0.5051   -1.6353 C   0  0  0  0  0  0  0  0  0  0  0  0
   -2.9749   -1.0668   -1.0818 N   0  0  0  0  0  0  0  0  0  0  0  0
    0.1035   -0.0759   -1.2071 H   0  0  0  0  0  0  0  0  0  0  0  0
    0.7519    0.0299    1.6471 H   0  0  0  0  0  0  0  0  0  0  0  0
    1.2293    1.1418    0.3443 H   0  0  0  0  0  0  0  0  0  0  0  0
    2.1922   -1.8349    2.1535 H   0  0  0  0  0  0  0  0  0  0  0  0
    3.6181   -2.1173    1.0941 H   0  0  0  0  0  0  0  0  0  0  0  0
    1.1586   -3.4537    0.7988 H   0  0  0  0  0  0  0  0  0  0  0  0
    2.4588   -3.3513   -0.3725 H   0  0  0  0  0  0  0  0  0  0  0  0
    1.5070   -1.7486   -1.6811 H   0  0  0  0  0  0  0  0  0  0  0  0
    3.8856   -0.4109   -1.9294 H   0  0  0  0  0  0  0  0  0  0  0  0
    4.4476   -0.6281    0.0652 H   0  0  0  0  0  0  0  0  0  0  0  0
    3.1372    2.1049    0.3721 H   0  0  0  0  0  0  0  0  0  0  0  0
    4.2623    1.3178    1.5484 H   0  0  0  0  0  0  0  0  0  0  0  0
    4.8474    1.9661   -1.3452 H   0  0  0  0  0  0  0  0  0  0  0  0
    6.0145    1.1843   -0.2045 H   0  0  0  0  0  0  0  0  0  0  0  0
    6.1110    3.7179   -0.4750 H   0  0  0  0  0  0  0  0  0  0  0  0
    4.8319    3.7317    0.6484 H   0  0  0  0  0  0  0  0  0  0  0  0
    0.3453   -3.9640   -1.4049 H   0  0  0  0  0  0  0  0  0  0  0  0
   -1.0428   -3.0656   -0.6287 H   0  0  0  0  0  0  0  0  0  0  0  0
   -0.4602   -2.6639   -2.3127 H   0  0  0  0  0  0  0  0  0  0  0  0
   -1.4465   -0.8062    2.2463 H   0  0  0  0  0  0  0  0  0  0  0  0
   -2.3647   -2.0012    1.3273 H   0  0  0  0  0  0  0  0  0  0  0  0
   -0.6762   -2.3235    1.7755 H   0  0  0  0  0  0  0  0  0  0  0  0
   -1.7498    0.5955   -1.0214 H   0  0  0  0  0  0  0  0  0  0  0  0
   -3.6064   -0.1090    1.3221 H   0  0  0  0  0  0  0  0  0  0  0  0
   -1.4082    2.0376    1.0474 H   0  0  0  0  0  0  0  0  0  0  0  0
   -2.3348    1.4511    2.5048 H   0  0  0  0  0  0  0  0  0  0  0  0
   -3.1173    3.5265    0.5736 H   0  0  0  0  0  0  0  0  0  0  0  0
   -3.6579    3.2527    2.3232 H   0  0  0  0  0  0  0  0  0  0  0  0
   -5.3038    2.8565    0.4284 H   0  0  0  0  0  0  0  0  0  0  0  0
   -3.5325    1.8495   -0.9518 H   0  0  0  0  0  0  0  0  0  0  0  0
   -5.2021   -0.3399    0.1198 H   0  0  0  0  0  0  0  0  0  0  0  0
   -3.9729    0.0685   -2.5418 H   0  0  0  0  0  0  0  0  0  0  0  0
   -4.8310   -1.3540   -1.9457 H   0  0  0  0  0  0  0  0  0  0  0  0
   -2.4031   -1.3208   -1.9408 H   0  0  0  0  0  0  0  0  0  0  0  0
    0.1035   -0.0759   -1.2071 H   0  0  0  0  0  0  0  0  0  0  0  0
    0.7519    0.0299    1.6471 H   0  0  0  0  0  0  0  0  0  0  0  0
    1.2293    1.1418    0.3443 H   0  0  0  0  0  0  0  0  0  0  0  0
    2.1922   -1.8349    2.1535 H   0  0  0  0  0  0  0  0  0  0  0  0
    3.6181   -2.1173    1.0941 H   0  0  0  0  0  0  0  0  0  0  0  0
    1.1586   -3.4537    0.7988 H   0  0  0  0  0  0  0  0  0  0  0  0
    2.4588   -3.3513   -0.3725 H   0  0  0  0  0  0  0  0  0  0  0  0
    1.5070   -1.7486   -1.6811 H   0  0  0  0  0  0  0  0  0  0  0  0
    3.8856   -0.4109   -1.9294 H   0  0  0  0  0  0  0  0  0  0  0  0
    4.4476   -0.6281    0.0652 H   0  0  0  0  0  0  0  0  0  0  0  0
    3.1372    2.1049    0.3721 H   0  0  0  0  0  0  0  0  0  0  0  0
    4.2623    1.3178    1.5484 H   0  0  0  0  0  0  0  0  0  0  0  0
    4.8474    1.9661   -1.3452 H   0  0  0  0  0  0  0  0  0  0  0  0
    6.0145    1.1843   -0.2045 H   0  0  0  0  0  0  0  0  0  0  0  0
    6.1110    3.7179   -0.4750 H   0  0  0  0  0  0  0  0  0  0  0  0
    4.8319    3.7317    0.6484 H   0  0  0  0  0  0  0  0  0  0  0  0
    0.3453   -3.9640   -1.4049 H   0  0  0  0  0  0  0  0  0  0  0  0
   -1.0428   -3.0656   -0.6287 H   0  0  0  0  0  0  0  0  0  0  0  0
   -0.4602   -2.6639   -2.3127 H   0  0  0  0  0  0  0  0  0  0  0  0
   -1.4465   -0.8062    2.2463 H   0  0  0  0  0  0  0  0  0  0  0  0
   -2.3647   -2.0012    1.3273 H   0  0  0  0  0  0  0  0  0  0  0  0
   -0.6762   -2.3235    1.7755 H   0  0  0  0  0  0  0  0  0  0  0  0
   -1.7498    0.5955   -1.0214 H   0  0  0  0  0  0  0  0  0  0  0  0
   -3.6064   -0.1090    1.3221 H   0  0  0  0  0  0  0  0  0  0  0  0
   -1.4082    2.0376    1.0474 H   0  0  0  0  0  0  0  0  0  0  0  0
   -2.3348    1.4511    2.5048 H   0  0  0  0  0  0  0  0  0  0  0  0
   -3.1173    3.5265    0.5736 H   0  0  0  0  0  0  0  0  0  0  0  0
   -3.6579    3.2527    2.3232 H   0  0  0  0  0  0  0  0  0  0  0  0
   -5.3038    2.8565    0.4284 H   0  0  0  0  0  0  0  0  0  0  0  0
   -3.5325    1.8495   -0.9518 H   0  0  0  0  0  0  0  0  0  0  0  0
   -5.2021   -0.3399    0.1198 H   0  0  0  0  0  0  0  0  0  0  0  0
   -3.9729    0.0685   -2.5418 H   0  0  0  0  0  0  0  0  0  0  0  0
   -4.8310   -1.3540   -1.9457 H   0  0  0  0  0  0  0  0  0  0  0  0
   -2.4031   -1.3208   -1.9408 H   0  0  0  0  0  0  0  0  0  0  0  0
  1  2  1  0
  3  4  1  0
  1  5  1  0
  4  5  1  0
  2  6  1  0
  3  6  1  0
  6  8  1  0
  7  8  1  0
  8  9  1  0
  9 10  1  0
 10 11  1  0
  5 12  1  0
  1 13  1  0
 13 14  1  0
 13 15  1  0
 15 16  1  0
 16 17  1  0
 17 18  1  0
 18 19  1  0
 16 20  1  0
 19 20  1  0
 20 21  1  0
 21 22  1  0
 15 23  1  0
 22 23  1  0
 24 25  1  0
 26 27  1  0
 24 28  1  0
 27 28  1  0
 25 29  1  0
 26 29  1  0
 29 31  1  0
 30 31  1  0
 31 32  1  0
 32 33  1  0
 33 34  1  0
 28 35  1  0
 24 36  1  0
 36 37  1  0
 36 38  1  0
 38 39  1  0
 39 40  1  0
 40 41  1  0
 41 42  1  0
 39 43  1  0
 42 43  1  0
 43 44  1  0
 44 45  1  0
 38 46  1  0
 45 46  1  0
  1 47  1  6
  2 48  1  0
  2 49  1  0
  3 50  1  0
  3 51  1  0
  4 52  1  0
  4 53  1  0
  5 54  1  6
  7 55  1  0
  8 56  1  0
  9 57  1  0
  9 58  1  0
 10 59  1  0
 10 60  1  0
 11 61  1  0
 11 62  1  0
 12 63  1  0
 12 64  1  0
 12 65  1  0
 14 66  1  0
 14 67  1  0
 14 68  1  0
 15 69  1  0
 16 70  1  0
 17 71  1  0
 17 72  1  0
 18 73  1  0
 18 74  1  0
 19 75  1  0
 20 76  1  0
 21 77  1  0
 22 78  1  0
 22 79  1  0
 23 80  1  0
 24 81  1  6
 25 82  1  0
 25 83  1  0
 26 84  1  0
 26 85  1  0
 27 86  1  0
 27 87  1  0
 28 88  1  6
 30 89  1  0
 31 90  1  0
 32 91  1  0
 32 92  1  0
 33 93  1  0
 33 94  1  0
 34 95  1  0
 34 96  1  0
 35 97  1  0
 35 98  1  0
 35 99  1  0
 37100  1  0
 37101  1  0
 37102  1  0
 38103  1  0
 39104  1  0
 40105  1  0
 40106  1  0
 41107  1  0
 41108  1  0
 42109  1  0
 43110  1  0
 44111  1  0
 45112  1  0
 45113  1  0
 46114  1  0
M  END
>  <PDBID>  (1) 
3FUP

>  <PDB ID>  (1) 
3FUP

>  <Generic Name>  (1) 
Tofacitinib

>  <Brand Name>  (1) 
Xeljanz#Xeljanz XR

>  <DrugBank ID>  (1) 
DB08895

>  <ATC Codes>  (1) 
L04AA29

>  <Ligand ID>  (1) 
MI1

>  <Target Name>  (1) 
Tyrosine-protein kinase JAK2

>  <UniProt ID>  (1) 
O60674

>  <PDB ID.1>  (1) 
3FUP

>  <Seq. Identity>  (1) 
100%

$$$$
