PDB_DB01132_07
     RDKit          3D

122126  0  0  0  0  0  0  0  0999 V2000
   -5.1725   -2.1685   -1.5326 O   0  0  0  0  0  0  0  0  0  0  0  0
   -5.9485   -1.2787   -0.8343 C   0  0  1  0  0  0  0  0  0  0  0  0
   -6.9379   -1.9979   -0.1015 N   0  0  0  0  0  0  0  0  0  0  0  0
   -5.0287   -0.5991    0.1997 C   0  0  2  0  0  0  0  0  0  0  0  0
   -6.3264   -0.0342    1.3769 S   0  0  0  0  0  0  0  0  0  0  0  0
   -7.7065   -1.0300    0.6772 C   0  0  0  0  0  0  0  0  0  0  0  0
   -8.3813   -1.7132    1.6802 O   0  0  0  0  0  0  0  0  0  0  0  0
   -4.3831    0.6148   -0.3853 C   0  0  0  0  0  0  0  0  0  0  0  0
    4.6389   -0.3707    1.0833 C   0  0  0  0  0  0  0  0  0  0  0  0
   -3.4706    1.3437    0.5663 C   0  0  0  0  0  0  0  0  0  0  0  0
   -2.8595    2.5682   -0.1007 C   0  0  0  0  0  0  0  0  0  0  0  0
   -1.7391    2.1418   -1.0615 C   0  0  0  0  0  0  0  0  0  0  0  0
   -0.7200    1.4373   -0.2360 C   0  0  0  0  0  0  0  0  0  0  0  0
   -1.3234    0.1076    0.1943 C   0  0  0  0  0  0  0  0  0  0  0  0
   -2.4193    0.4573    1.1621 C   0  0  0  0  0  0  0  0  0  0  0  0
    0.5158    1.3187   -0.7863 O   0  0  0  0  0  0  0  0  0  0  0  0
    1.5367    1.9188   -0.0710 C   0  0  0  0  0  0  0  0  0  0  0  0
    2.8579    1.7445   -0.7395 C   0  0  0  0  0  0  0  0  0  0  0  0
    7.7018   -2.0896   -0.4006 C   0  0  0  0  0  0  0  0  0  0  0  0
    6.5771   -1.8961    0.6028 C   0  0  0  0  0  0  0  0  0  0  0  0
    5.7996   -0.6889    0.1716 C   0  0  0  0  0  0  0  0  0  0  0  0
    5.3361   -0.8399   -1.2703 C   0  0  0  0  0  0  0  0  0  0  0  0
    4.5792    0.3455   -1.5856 N   0  0  0  0  0  0  0  0  0  0  0  0
    3.3095   -0.4870    0.3275 C   0  0  0  0  0  0  0  0  0  0  0  0
    3.2830    0.3158   -0.9248 C   0  0  0  0  0  0  0  0  0  0  0  0
   -4.6848   -2.3188   -1.6052 O   0  0  0  0  0  0  0  0  0  0  0  0
   -5.5937   -1.4323   -1.0755 C   0  0  0  0  0  0  0  0  0  0  0  0
   -6.6335   -2.1683   -0.4371 N   0  0  0  0  0  0  0  0  0  0  0  0
   -4.8521   -0.6722    0.0397 C   0  0  2  0  0  0  0  0  0  0  0  0
   -6.3143   -0.1244    1.0129 S   0  0  0  0  0  0  0  0  0  0  0  0
   -7.5381   -1.2389    0.2110 C   0  0  0  0  0  0  0  0  0  0  0  0
   -8.2672   -1.8742    1.2036 O   0  0  0  0  0  0  0  0  0  0  0  0
   -4.2358    0.5451   -0.5444 C   0  0  0  0  0  0  0  0  0  0  0  0
    4.8280   -0.4318    1.2264 C   0  0  0  0  0  0  0  0  0  0  0  0
   -3.4851    1.3795    0.4526 C   0  0  0  0  0  0  0  0  0  0  0  0
   -2.8874    2.6149   -0.2162 C   0  0  0  0  0  0  0  0  0  0  0  0
   -1.6565    2.2265   -1.0315 C   0  0  0  0  0  0  0  0  0  0  0  0
   -0.6777    1.6171   -0.0845 C   0  0  0  0  0  0  0  0  0  0  0  0
   -1.2372    0.2838    0.3781 C   0  0  0  0  0  0  0  0  0  0  0  0
   -2.4543    0.6224    1.2178 C   0  0  0  0  0  0  0  0  0  0  0  0
    0.6069    1.5402   -0.5627 O   0  0  0  0  0  0  0  0  0  0  0  0
    1.5298    2.2577    0.1768 C   0  0  0  0  0  0  0  0  0  0  0  0
    2.8895    2.1077   -0.4361 C   0  0  0  0  0  0  0  0  0  0  0  0
    6.8684   -2.8049   -0.9537 C   0  0  0  0  0  0  0  0  0  0  0  0
    5.9714   -2.4341    0.2105 C   0  0  0  0  0  0  0  0  0  0  0  0
    5.7037   -0.9586    0.1407 C   0  0  0  0  0  0  0  0  0  0  0  0
    5.2092   -0.5896   -1.2409 C   0  0  0  0  0  0  0  0  0  0  0  0
    4.7231    0.7829   -1.1391 N   0  0  0  0  0  0  0  0  0  0  0  0
    3.4363   -0.0420    0.7708 C   0  0  0  0  0  0  0  0  0  0  0  0
    3.4076    0.7133   -0.5145 C   0  0  0  0  0  0  0  0  0  0  0  0
   -5.5388   -2.2950   -2.4582 H   0  0  0  0  0  0  0  0  0  0  0  0
   -6.3515   -0.4984   -1.5036 H   0  0  0  0  0  0  0  0  0  0  0  0
   -6.4792   -2.6601    0.5299 H   0  0  0  0  0  0  0  0  0  0  0  0
   -4.3640   -1.3290    0.6597 H   0  0  0  0  0  0  0  0  0  0  0  0
   -8.3551   -0.4058    0.0561 H   0  0  0  0  0  0  0  0  0  0  0  0
   -8.5679   -2.6502    1.4219 H   0  0  0  0  0  0  0  0  0  0  0  0
   -5.2224    1.3379   -0.6111 H   0  0  0  0  0  0  0  0  0  0  0  0
   -3.8863    0.4083   -1.3621 H   0  0  0  0  0  0  0  0  0  0  0  0
    4.6001   -1.1453    1.8690 H   0  0  0  0  0  0  0  0  0  0  0  0
    4.7532    0.6159    1.5608 H   0  0  0  0  0  0  0  0  0  0  0  0
   -4.0935    1.7319    1.3986 H   0  0  0  0  0  0  0  0  0  0  0  0
   -2.4731    3.2868    0.6239 H   0  0  0  0  0  0  0  0  0  0  0  0
   -3.6534    3.0028   -0.7422 H   0  0  0  0  0  0  0  0  0  0  0  0
   -1.3610    3.0917   -1.4982 H   0  0  0  0  0  0  0  0  0  0  0  0
   -2.2339    1.5074   -1.8254 H   0  0  0  0  0  0  0  0  0  0  0  0
   -0.6090    2.0272    0.7215 H   0  0  0  0  0  0  0  0  0  0  0  0
   -1.7084   -0.3869   -0.7061 H   0  0  0  0  0  0  0  0  0  0  0  0
   -0.5514   -0.4401    0.7386 H   0  0  0  0  0  0  0  0  0  0  0  0
   -1.9325    0.9997    2.0014 H   0  0  0  0  0  0  0  0  0  0  0  0
   -2.8601   -0.4395    1.5880 H   0  0  0  0  0  0  0  0  0  0  0  0
    1.3776    3.0338    0.0183 H   0  0  0  0  0  0  0  0  0  0  0  0
    1.6185    1.5676    0.9776 H   0  0  0  0  0  0  0  0  0  0  0  0
    2.7506    2.1716   -1.7805 H   0  0  0  0  0  0  0  0  0  0  0  0
    3.6329    2.3664   -0.2603 H   0  0  0  0  0  0  0  0  0  0  0  0
    8.0541   -1.0488   -0.6602 H   0  0  0  0  0  0  0  0  0  0  0  0
    7.3488   -2.5224   -1.3494 H   0  0  0  0  0  0  0  0  0  0  0  0
    8.5633   -2.6256    0.0424 H   0  0  0  0  0  0  0  0  0  0  0  0
    7.0187   -1.7334    1.5947 H   0  0  0  0  0  0  0  0  0  0  0  0
    5.9761   -2.8286    0.5781 H   0  0  0  0  0  0  0  0  0  0  0  0
    6.4914    0.1785    0.1932 H   0  0  0  0  0  0  0  0  0  0  0  0
    4.6798   -1.7170   -1.3747 H   0  0  0  0  0  0  0  0  0  0  0  0
    6.2252   -0.8920   -1.9297 H   0  0  0  0  0  0  0  0  0  0  0  0
    5.1091    1.2044   -1.3299 H   0  0  0  0  0  0  0  0  0  0  0  0
    2.5292   -0.2500    1.0477 H   0  0  0  0  0  0  0  0  0  0  0  0
    3.1967   -1.5850    0.0991 H   0  0  0  0  0  0  0  0  0  0  0  0
    2.5973   -0.1987   -1.6489 H   0  0  0  0  0  0  0  0  0  0  0  0
   -5.2201   -3.0866   -1.9860 H   0  0  0  0  0  0  0  0  0  0  0  0
   -6.0171   -0.7251   -1.7902 H   0  0  0  0  0  0  0  0  0  0  0  0
   -6.2788   -2.8961    0.2093 H   0  0  0  0  0  0  0  0  0  0  0  0
   -4.2108   -1.3402    0.6061 H   0  0  0  0  0  0  0  0  0  0  0  0
   -8.1485   -0.7107   -0.5180 H   0  0  0  0  0  0  0  0  0  0  0  0
   -7.6609   -2.0111    1.9763 H   0  0  0  0  0  0  0  0  0  0  0  0
   -5.0876    1.1947   -0.9067 H   0  0  0  0  0  0  0  0  0  0  0  0
   -3.6426    0.3513   -1.4630 H   0  0  0  0  0  0  0  0  0  0  0  0
    4.7001   -1.2193    2.0059 H   0  0  0  0  0  0  0  0  0  0  0  0
    5.2734    0.4440    1.7661 H   0  0  0  0  0  0  0  0  0  0  0  0
   -4.2262    1.7749    1.1983 H   0  0  0  0  0  0  0  0  0  0  0  0
   -2.5497    3.3071    0.5650 H   0  0  0  0  0  0  0  0  0  0  0  0
   -3.6780    3.0420   -0.8680 H   0  0  0  0  0  0  0  0  0  0  0  0
   -1.2725    3.1705   -1.4754 H   0  0  0  0  0  0  0  0  0  0  0  0
   -2.0170    1.5198   -1.8069 H   0  0  0  0  0  0  0  0  0  0  0  0
   -0.6540    2.2739    0.8306 H   0  0  0  0  0  0  0  0  0  0  0  0
   -1.5656   -0.3237   -0.4768 H   0  0  0  0  0  0  0  0  0  0  0  0
   -0.5056   -0.2076    1.0355 H   0  0  0  0  0  0  0  0  0  0  0  0
   -2.1540    1.2458    2.0929 H   0  0  0  0  0  0  0  0  0  0  0  0
   -2.8780   -0.3024    1.6265 H   0  0  0  0  0  0  0  0  0  0  0  0
    1.3099    3.3445    0.1996 H   0  0  0  0  0  0  0  0  0  0  0  0
    1.5461    1.9260    1.2238 H   0  0  0  0  0  0  0  0  0  0  0  0
    2.7922    2.4705   -1.5011 H   0  0  0  0  0  0  0  0  0  0  0  0
    3.6291    2.8185    0.0248 H   0  0  0  0  0  0  0  0  0  0  0  0
    7.4445   -1.8862   -1.2587 H   0  0  0  0  0  0  0  0  0  0  0  0
    6.2657   -3.1469   -1.8082 H   0  0  0  0  0  0  0  0  0  0  0  0
    7.5786   -3.6163   -0.6596 H   0  0  0  0  0  0  0  0  0  0  0  0
    6.5315   -2.6925    1.1388 H   0  0  0  0  0  0  0  0  0  0  0  0
    5.0512   -3.0493    0.1227 H   0  0  0  0  0  0  0  0  0  0  0  0
    6.6989   -0.4529    0.2514 H   0  0  0  0  0  0  0  0  0  0  0  0
    4.3479   -1.2560   -1.4824 H   0  0  0  0  0  0  0  0  0  0  0  0
    6.0035   -0.6431   -1.9899 H   0  0  0  0  0  0  0  0  0  0  0  0
    5.3421    1.2800   -0.4612 H   0  0  0  0  0  0  0  0  0  0  0  0
    3.0310    0.6063    1.5745 H   0  0  0  0  0  0  0  0  0  0  0  0
    2.8039   -0.9612    0.7299 H   0  0  0  0  0  0  0  0  0  0  0  0
    2.7611    0.1558   -1.2337 H   0  0  0  0  0  0  0  0  0  0  0  0
  1  2  1  0
  2  3  1  0
  2  4  1  0
  4  5  1  0
  3  6  1  0
  5  6  1  0
  6  7  1  0
  4  8  1  0
  8 10  1  0
 10 11  1  0
 11 12  1  0
 12 13  1  0
 13 14  1  0
 10 15  1  0
 14 15  1  0
 13 16  1  0
 16 17  1  0
 17 18  1  0
 19 20  1  0
  9 21  1  0
 20 21  1  0
 21 22  1  0
 22 23  1  0
  9 24  1  0
 18 25  1  0
 23 25  1  0
 24 25  1  0
 26 27  1  0
 27 28  1  0
 27 29  1  0
 29 30  1  0
 28 31  1  0
 30 31  1  0
 31 32  1  0
 29 33  1  0
 33 35  1  0
 35 36  1  0
 36 37  1  0
 37 38  1  0
 38 39  1  0
 35 40  1  0
 39 40  1  0
 38 41  1  0
 41 42  1  0
 42 43  1  0
 44 45  1  0
 34 46  1  0
 45 46  1  0
 46 47  1  0
 47 48  1  0
 34 49  1  0
 43 50  1  0
 48 50  1  0
 49 50  1  0
  1 51  1  0
  2 52  1  6
  3 53  1  0
  4 54  1  1
  6 55  1  0
  7 56  1  0
  8 57  1  0
  8 58  1  0
  9 59  1  0
  9 60  1  0
 10 61  1  0
 11 62  1  0
 11 63  1  0
 12 64  1  0
 12 65  1  0
 13 66  1  0
 14 67  1  0
 14 68  1  0
 15 69  1  0
 15 70  1  0
 17 71  1  0
 17 72  1  0
 18 73  1  0
 18 74  1  0
 19 75  1  0
 19 76  1  0
 19 77  1  0
 20 78  1  0
 20 79  1  0
 21 80  1  0
 22 81  1  0
 22 82  1  0
 23 83  1  0
 24 84  1  0
 24 85  1  0
 25 86  1  0
 26 87  1  0
 27 88  1  0
 28 89  1  0
 29 90  1  1
 31 91  1  0
 32 92  1  0
 33 93  1  0
 33 94  1  0
 34 95  1  0
 34 96  1  0
 35 97  1  0
 36 98  1  0
 36 99  1  0
 37100  1  0
 37101  1  0
 38102  1  0
 39103  1  0
 39104  1  0
 40105  1  0
 40106  1  0
 42107  1  0
 42108  1  0
 43109  1  0
 43110  1  0
 44111  1  0
 44112  1  0
 44113  1  0
 45114  1  0
 45115  1  0
 46116  1  0
 47117  1  0
 47118  1  0
 48119  1  0
 49120  1  0
 49121  1  0
 50122  1  0
M  END
>  <PDBID>  (1) 
2XKW

>  <PDB ID>  (1) 
2XKW

>  <Generic Name>  (1) 
Pioglitazone

>  <Brand Name>  (1) 
Accel Pioglitazone#Ach-pioglitazone#Act Pioglitazone#Actoplus Met#Actoplus Met XR#Actos#Actos (15mg)#Actos (30mg)#Actos (45mg)#Ag-pioglitazone#Alogliptin and Pioglitazone#Apo-pioglitazone#Auro-pioglitazone#Ava-pioglitazone#Dom-pioglitazone#Duetact#Jamp-pioglitazone#Mint-pioglitazone#Mylan-pioglitazone#Oseni#PHL-pioglitazone#PMS-pioglitazone#Pioglitazole and Metformin Hydrochloride#Pioglitazone#Pioglitazone HCl#Pioglitazone HCl and Metformin HCl#Pioglitazone Hydrochloride#Pioglitazone Hydrochloride and Glimepiride#Pioglitazone Hydrochloride and Metformin Hydrochloride#Pioglitazone and Glimepiride#Pioglitazone and Metformin#Pioglitazone and Metformin Hydrochloride#Pioglitazone and Metformin Hydrocholride#Pioglitazonehydrochloride#Pro-pioglitazone#Ran-pioglitazone#Ratio-pioglitazone#Sandoz Pioglitazone#Teva-pioglitazone#Torrent-pioglitazone#Van-pioglitazone#Zym-pioglitazone#Actost#Glustin

>  <DrugBank ID>  (1) 
DB01132

>  <ATC Codes>  (1) 
A10BD12#A10BD09#A10BG03#A10BD06#A10BD05

>  <Ligand ID>  (1) 
8N6,P1B

>  <Target Name>  (1) 
Peroxisome proliferator-activated receptor gamma

>  <UniProt ID>  (1) 
P37231

>  <PDB ID.1>  (1) 
2XKW

>  <Seq. Identity>  (1) 
95%

$$$$
