PDB_DB08865_05
     RDKit          3D

 68 71  0  0  0  0  0  0  0  0999 V2000
   -6.6154    0.0417   -1.7871 Cl  0  0  0  0  0  0  0  0  0  0  0  0
   -5.3441    1.0126   -1.1028 C   0  0  0  0  0  0  0  0  0  0  0  0
   -5.6975    1.3568    0.3320 C   0  0  0  0  0  0  0  0  0  0  0  0
   -4.5901    2.1780    0.9699 C   0  0  0  0  0  0  0  0  0  0  0  0
   -3.6894    2.7478   -0.1141 C   0  0  0  0  0  0  0  0  0  0  0  0
   -2.6718    3.4190    0.5861 F   0  0  0  0  0  0  0  0  0  0  0  0
   -3.9470    0.4917   -1.2370 C   0  0  0  0  0  0  0  0  0  0  0  0
   -2.9874    1.5578   -0.7634 C   0  0  0  0  0  0  0  0  0  0  0  0
   -1.9483    2.0679   -2.0897 Cl  0  0  0  0  0  0  0  0  0  0  0  0
   -3.7042   -0.8347   -0.5327 C   0  0  1  0  0  0  0  0  0  0  0  0
   -4.6684   -1.8464   -1.1603 C   0  0  0  0  0  0  0  0  0  0  0  0
   -2.4599   -1.2802   -0.8432 O   0  0  0  0  0  0  0  0  0  0  0  0
   -1.5336   -1.4435    0.1420 C   0  0  0  0  0  0  0  0  0  0  0  0
   -0.2670   -0.7372   -0.2694 C   0  0  0  0  0  0  0  0  0  0  0  0
   -1.2577   -2.9325    0.3771 C   0  0  0  0  0  0  0  0  0  0  0  0
   -2.3923   -3.6903    0.7250 N   0  0  0  0  0  0  0  0  0  0  0  0
   -0.5299   -3.3785   -0.7938 N   0  0  0  0  0  0  0  0  0  0  0  0
    0.8613   -2.9961   -0.4814 C   0  0  0  0  0  0  0  0  0  0  0  0
    0.9842   -1.5657   -0.1416 C   0  0  0  0  0  0  0  0  0  0  0  0
    1.6583   -1.2253    1.1547 C   0  0  0  0  0  0  0  0  0  0  0  0
    2.8924   -1.9819    1.4611 C   0  0  0  0  0  0  0  0  0  0  0  0
    2.2914    0.1836    1.0561 C   0  0  0  0  0  0  0  0  0  0  0  0
    3.4774   -0.1282    0.3405 N   0  0  0  0  0  0  0  0  0  0  0  0
    3.8723   -1.4044    0.6083 N   0  0  0  0  0  0  0  0  0  0  0  0
    4.4663    0.8735    0.2248 C   0  0  0  0  0  0  0  0  0  0  0  0
    3.9691    2.0934   -0.5585 C   0  0  0  0  0  0  0  0  0  0  0  0
    5.2301    2.7773   -1.0972 C   0  0  0  0  0  0  0  0  0  0  0  0
    6.3314    2.5122   -0.2101 N   0  0  0  0  0  0  0  0  0  0  0  0
    5.9908    2.4985    1.1841 C   0  0  0  0  0  0  0  0  0  0  0  0
    4.9671    1.4290    1.5417 C   0  0  0  0  0  0  0  0  0  0  0  0
   -5.3506    1.9938   -1.6598 H   0  0  0  0  0  0  0  0  0  0  0  0
   -5.9690    0.4663    0.9117 H   0  0  0  0  0  0  0  0  0  0  0  0
   -6.5845    2.0215    0.2901 H   0  0  0  0  0  0  0  0  0  0  0  0
   -3.9878    1.4869    1.5871 H   0  0  0  0  0  0  0  0  0  0  0  0
   -4.9831    3.0281    1.5483 H   0  0  0  0  0  0  0  0  0  0  0  0
   -4.1896    3.4084   -0.8152 H   0  0  0  0  0  0  0  0  0  0  0  0
   -3.7551    0.3224   -2.3130 H   0  0  0  0  0  0  0  0  0  0  0  0
   -2.3835    1.1280    0.0626 H   0  0  0  0  0  0  0  0  0  0  0  0
   -3.8943   -0.6548    0.5327 H   0  0  0  0  0  0  0  0  0  0  0  0
   -4.2201   -2.8863   -1.1670 H   0  0  0  0  0  0  0  0  0  0  0  0
   -4.8141   -1.6318   -2.2402 H   0  0  0  0  0  0  0  0  0  0  0  0
   -5.6067   -1.9550   -0.6275 H   0  0  0  0  0  0  0  0  0  0  0  0
   -1.9269   -1.1219    1.1302 H   0  0  0  0  0  0  0  0  0  0  0  0
   -0.2105    0.1567    0.3878 H   0  0  0  0  0  0  0  0  0  0  0  0
   -0.3552   -0.3205   -1.2974 H   0  0  0  0  0  0  0  0  0  0  0  0
   -0.5919   -2.9256    1.2968 H   0  0  0  0  0  0  0  0  0  0  0  0
   -2.4301   -3.9876    1.7423 H   0  0  0  0  0  0  0  0  0  0  0  0
   -2.5133   -4.5456    0.1417 H   0  0  0  0  0  0  0  0  0  0  0  0
   -0.8066   -2.8261   -1.6446 H   0  0  0  0  0  0  0  0  0  0  0  0
    1.4491   -3.3260   -1.3870 H   0  0  0  0  0  0  0  0  0  0  0  0
    1.1482   -3.7060    0.3205 H   0  0  0  0  0  0  0  0  0  0  0  0
    1.6941   -1.1423   -0.9264 H   0  0  0  0  0  0  0  0  0  0  0  0
    0.9832   -1.2264    2.0281 H   0  0  0  0  0  0  0  0  0  0  0  0
    3.1740   -1.7233    2.5219 H   0  0  0  0  0  0  0  0  0  0  0  0
    2.8190   -3.0706    1.4352 H   0  0  0  0  0  0  0  0  0  0  0  0
    2.4464    0.4945    2.1039 H   0  0  0  0  0  0  0  0  0  0  0  0
    1.6673    0.8702    0.4600 H   0  0  0  0  0  0  0  0  0  0  0  0
    4.8110   -1.4759    1.0657 H   0  0  0  0  0  0  0  0  0  0  0  0
    5.3583    0.5008   -0.3148 H   0  0  0  0  0  0  0  0  0  0  0  0
    3.3010    1.7775   -1.3691 H   0  0  0  0  0  0  0  0  0  0  0  0
    3.5175    2.7887    0.1622 H   0  0  0  0  0  0  0  0  0  0  0  0
    5.0647    3.8390   -1.3163 H   0  0  0  0  0  0  0  0  0  0  0  0
    5.4618    2.2547   -2.0681 H   0  0  0  0  0  0  0  0  0  0  0  0
    6.9544    1.7514   -0.5065 H   0  0  0  0  0  0  0  0  0  0  0  0
    5.6216    3.5295    1.4323 H   0  0  0  0  0  0  0  0  0  0  0  0
    6.9069    2.3128    1.7545 H   0  0  0  0  0  0  0  0  0  0  0  0
    5.3943    0.6304    2.1458 H   0  0  0  0  0  0  0  0  0  0  0  0
    4.1119    1.9680    2.0243 H   0  0  0  0  0  0  0  0  0  0  0  0
  1  2  1  0
  2  3  1  0
  3  4  1  0
  4  5  1  0
  5  6  1  0
  2  7  1  0
  5  8  1  0
  7  8  1  0
  8  9  1  0
  7 10  1  0
 10 11  1  0
 10 12  1  0
 12 13  1  0
 13 14  1  0
 13 15  1  0
 15 16  1  0
 15 17  1  0
 17 18  1  0
 14 19  1  0
 18 19  1  0
 19 20  1  0
 20 21  1  0
 20 22  1  0
 22 23  1  0
 21 24  1  0
 23 24  1  0
 23 25  1  0
 25 26  1  0
 26 27  1  0
 27 28  1  0
 28 29  1  0
 25 30  1  0
 29 30  1  0
  2 31  1  0
  3 32  1  0
  3 33  1  0
  4 34  1  0
  4 35  1  0
  5 36  1  0
  7 37  1  0
  8 38  1  0
 10 39  1  1
 11 40  1  0
 11 41  1  0
 11 42  1  0
 13 43  1  0
 14 44  1  0
 14 45  1  0
 15 46  1  0
 16 47  1  0
 16 48  1  0
 17 49  1  0
 18 50  1  0
 18 51  1  0
 19 52  1  0
 20 53  1  0
 21 54  1  0
 21 55  1  0
 22 56  1  0
 22 57  1  0
 24 58  1  0
 25 59  1  0
 26 60  1  0
 26 61  1  0
 27 62  1  0
 27 63  1  0
 28 64  1  0
 29 65  1  0
 29 66  1  0
 30 67  1  0
 30 68  1  0
M  END
>  <PDBID>  (1) 
4ANQ

>  <PDB ID>  (1) 
4ANQ

>  <Generic Name>  (1) 
Crizotinib

>  <Brand Name>  (1) 
Xalkori

>  <DrugBank ID>  (1) 
DB08865

>  <ATC Codes>  (1) 
L01XE16

>  <Ligand ID>  (1) 
VGH

>  <Target Name>  (1) 
ALK tyrosine kinase receptor

>  <UniProt ID>  (1) 
Q9UM73

>  <PDB ID.1>  (1) 
4ANQ

>  <Seq. Identity>  (1) 
100%

$$$$
