PDB_DB01128_07
     RDKit          3D

 63 64  0  0  0  0  0  0  0  0999 V2000
   -5.8105    0.8310    0.6949 C   0  0  0  0  0  0  0  0  0  0  0  0
   -7.0997    0.1064    0.9171 C   0  0  0  0  0  0  0  0  0  0  0  0
   -7.4903   -0.6028   -0.3459 C   0  0  0  0  0  0  0  0  0  0  0  0
   -8.4785   -1.5269   -0.0801 F   0  0  0  0  0  0  0  0  0  0  0  0
   -6.3470   -1.1865   -1.1099 C   0  0  0  0  0  0  0  0  0  0  0  0
   -5.0898   -1.3646   -0.3009 C   0  0  0  0  0  0  0  0  0  0  0  0
   -4.6936   -0.1709    0.4971 C   0  0  0  0  0  0  0  0  0  0  0  0
   -3.3479    0.7003   -0.2031 S   0  0  0  0  0  0  0  0  0  0  0  0
   -3.3120    2.0054    1.1624 O   0  0  0  0  0  0  0  0  0  0  0  0
   -3.4643    1.2440   -1.4086 O   0  0  0  0  0  0  0  0  0  0  0  0
   -1.8902   -0.1357    0.3832 C   0  0  0  0  0  0  0  0  0  0  0  0
   -0.7258    0.6106   -0.2100 C   0  0  1  0  0  0  0  0  0  0  0  0
   -0.7958    0.5806   -1.5883 O   0  0  0  0  0  0  0  0  0  0  0  0
   -0.6323    2.0388    0.2741 C   0  0  0  0  0  0  0  0  0  0  0  0
    0.6068   -0.0599    0.1618 C   0  0  1  0  0  0  0  0  0  0  0  0
    0.5546   -1.3816   -0.2289 O   0  0  0  0  0  0  0  0  0  0  0  0
    1.6235    0.7255   -0.4549 N   0  0  0  0  0  0  0  0  0  0  0  0
    2.9718    0.3619   -0.2106 C   0  0  2  0  0  0  0  0  0  0  0  0
    3.3988   -0.9808   -0.6909 C   0  0  0  0  0  0  0  0  0  0  0  0
    3.3763    0.4783    1.2444 C   0  0  0  0  0  0  0  0  0  0  0  0
    4.8800    0.6189    1.2786 C   0  0  0  0  0  0  0  0  0  0  0  0
    5.5355    0.0642    0.0169 C   0  0  0  0  0  0  0  0  0  0  0  0
    6.9903   -0.2030    0.4095 C   0  0  0  0  0  0  0  0  0  0  0  0
    7.5481    1.0923    0.8307 N   0  0  0  0  0  0  0  0  0  0  0  0
    4.8516   -1.2246   -0.3068 C   0  0  0  0  0  0  0  0  0  0  0  0
    5.5199   -2.0065   -1.4264 C   0  0  0  0  0  0  0  0  0  0  0  0
    5.4854   -1.3107   -2.6163 F   0  0  0  0  0  0  0  0  0  0  0  0
    4.6994   -3.1334   -1.6165 F   0  0  0  0  0  0  0  0  0  0  0  0
    6.7570   -2.4859   -1.0943 F   0  0  0  0  0  0  0  0  0  0  0  0
   -5.6184    1.4642    1.5858 H   0  0  0  0  0  0  0  0  0  0  0  0
   -5.9301    1.4874   -0.2094 H   0  0  0  0  0  0  0  0  0  0  0  0
   -6.9957   -0.5918    1.7924 H   0  0  0  0  0  0  0  0  0  0  0  0
   -7.8971    0.8743    1.1291 H   0  0  0  0  0  0  0  0  0  0  0  0
   -7.9616    0.1765   -1.0133 H   0  0  0  0  0  0  0  0  0  0  0  0
   -6.6568   -2.2271   -1.4240 H   0  0  0  0  0  0  0  0  0  0  0  0
   -6.1312   -0.6513   -2.0578 H   0  0  0  0  0  0  0  0  0  0  0  0
   -4.2736   -1.5888   -1.0323 H   0  0  0  0  0  0  0  0  0  0  0  0
   -5.1815   -2.2757    0.3273 H   0  0  0  0  0  0  0  0  0  0  0  0
   -4.4185   -0.5276    1.5233 H   0  0  0  0  0  0  0  0  0  0  0  0
   -3.8616    2.6871    0.6965 H   0  0  0  0  0  0  0  0  0  0  0  0
   -3.2238    1.4256   -2.3303 H   0  0  0  0  0  0  0  0  0  0  0  0
   -1.8720   -0.1935    1.4676 H   0  0  0  0  0  0  0  0  0  0  0  0
   -1.9174   -1.1303   -0.1237 H   0  0  0  0  0  0  0  0  0  0  0  0
   -0.5572   -0.3293   -1.8903 H   0  0  0  0  0  0  0  0  0  0  0  0
    0.3962    2.3906   -0.0323 H   0  0  0  0  0  0  0  0  0  0  0  0
   -0.6580    2.1159    1.3654 H   0  0  0  0  0  0  0  0  0  0  0  0
   -1.3363    2.7145   -0.2363 H   0  0  0  0  0  0  0  0  0  0  0  0
    0.6574   -0.0326    1.2711 H   0  0  0  0  0  0  0  0  0  0  0  0
    0.5394   -2.0162    0.5338 H   0  0  0  0  0  0  0  0  0  0  0  0
    1.4484    0.8491   -1.4553 H   0  0  0  0  0  0  0  0  0  0  0  0
    3.5984    1.1192   -0.7594 H   0  0  0  0  0  0  0  0  0  0  0  0
    3.3218   -1.0009   -1.8165 H   0  0  0  0  0  0  0  0  0  0  0  0
    2.8220   -1.8329   -0.3333 H   0  0  0  0  0  0  0  0  0  0  0  0
    2.9613    1.4297    1.6815 H   0  0  0  0  0  0  0  0  0  0  0  0
    3.0495   -0.4055    1.8435 H   0  0  0  0  0  0  0  0  0  0  0  0
    5.2872    0.0255    2.1235 H   0  0  0  0  0  0  0  0  0  0  0  0
    5.1823    1.6870    1.4233 H   0  0  0  0  0  0  0  0  0  0  0  0
    5.5933    0.7864   -0.8033 H   0  0  0  0  0  0  0  0  0  0  0  0
    7.5957   -0.4612   -0.5019 H   0  0  0  0  0  0  0  0  0  0  0  0
    7.0680   -0.9664    1.2078 H   0  0  0  0  0  0  0  0  0  0  0  0
    7.1754    1.4011    1.7435 H   0  0  0  0  0  0  0  0  0  0  0  0
    7.2931    1.7707    0.0777 H   0  0  0  0  0  0  0  0  0  0  0  0
    4.8800   -1.8581    0.6021 H   0  0  0  0  0  0  0  0  0  0  0  0
  1  2  1  0
  2  3  1  0
  3  4  1  0
  3  5  1  0
  5  6  1  0
  1  7  1  0
  6  7  1  0
  7  8  1  0
  8  9  1  0
  8 10  1  0
  8 11  1  0
 11 12  1  0
 12 13  1  6
 12 14  1  0
 12 15  1  0
 15 16  1  0
 15 17  1  0
 17 18  1  0
 18 19  1  0
 18 20  1  0
 20 21  1  0
 21 22  1  0
 22 23  1  0
 23 24  1  0
 19 25  1  0
 22 25  1  0
 25 26  1  0
 26 27  1  0
 26 28  1  0
 26 29  1  0
  1 30  1  0
  1 31  1  0
  2 32  1  0
  2 33  1  0
  3 34  1  0
  5 35  1  0
  5 36  1  0
  6 37  1  0
  6 38  1  0
  7 39  1  0
  9 40  1  0
 10 41  1  0
 11 42  1  0
 11 43  1  0
 13 44  1  0
 14 45  1  0
 14 46  1  0
 14 47  1  0
 15 48  1  1
 16 49  1  0
 17 50  1  0
 18 51  1  6
 19 52  1  0
 19 53  1  0
 20 54  1  0
 20 55  1  0
 21 56  1  0
 21 57  1  0
 22 58  1  0
 23 59  1  0
 23 60  1  0
 24 61  1  0
 24 62  1  0
 25 63  1  0
M  END
>  <PDBID>  (1) 
1Z95

>  <PDB ID>  (1) 
1Z95

>  <Generic Name>  (1) 
Bicalutamide

>  <Brand Name>  (1) 
Accel-bicalutamide Tablets USP#Ach-bicalutamide#Act Bicalutamide#Ag-bicalutamide#Apo-bicalutamide#Ava-bicalutamide#Bicalutamide#Bicalutamide Tablets#Casodex#Dom-bicalutamide#Jamp-bicalutamide#Med-bicalutamide#Mylan-bicalutamide#Ntp-bicalutamide#Nu-bicalutamide#PHL-bicalutamide#PMS-bicalutamide#Pro-bicalutamide - 50#Ran-bicalutamide#Ratio-bicalutamide#Sandoz Bicalutamide#Teva-bicalutamide#Van-bicalutamide

>  <DrugBank ID>  (1) 
DB01128

>  <ATC Codes>  (1) 
L02BB03

>  <Ligand ID>  (1) 
0U9,198

>  <Target Name>  (1) 
Androgen receptor

>  <UniProt ID>  (1) 
P10275

>  <PDB ID.1>  (1) 
1Z95

>  <Seq. Identity>  (1) 
100%

$$$$
