PDB_DB00127_09
     RDKit          3D

 80 78  0  0  0  0  0  0  0  0999 V2000
   -5.9618    0.9716    0.6783 N   0  0  0  0  0  0  0  0  0  0  0  0
   -5.6782   -0.3298    0.1150 C   0  0  0  0  0  0  0  0  0  0  0  0
   -4.8511   -0.2758   -1.1183 C   0  0  0  0  0  0  0  0  0  0  0  0
   -3.4559    0.3185   -0.9095 C   0  0  0  0  0  0  0  0  0  0  0  0
   -2.7266   -0.4877    0.0636 N   0  0  0  0  0  0  0  0  0  0  0  0
   -1.3268   -0.1233    0.0244 C   0  0  0  0  0  0  0  0  0  0  0  0
   -0.5197   -1.0092    0.9467 C   0  0  0  0  0  0  0  0  0  0  0  0
    0.9295   -0.6902    0.8262 C   0  0  0  0  0  0  0  0  0  0  0  0
    1.3662    0.6848    1.1806 C   0  0  0  0  0  0  0  0  0  0  0  0
    2.8182    0.7489    0.9397 N   0  0  0  0  0  0  0  0  0  0  0  0
    3.1352    0.8168   -0.4528 C   0  0  0  0  0  0  0  0  0  0  0  0
    4.6303    0.7063   -0.6739 C   0  0  0  0  0  0  0  0  0  0  0  0
    5.1935   -0.6138   -0.2260 C   0  0  0  0  0  0  0  0  0  0  0  0
    6.6247   -0.6363   -0.4873 N   0  0  0  0  0  0  0  0  0  0  0  0
   -5.9618    0.9716    0.6783 N   0  0  0  0  0  0  0  0  0  0  0  0
   -5.6782   -0.3298    0.1150 C   0  0  0  0  0  0  0  0  0  0  0  0
   -4.8511   -0.2758   -1.1183 C   0  0  0  0  0  0  0  0  0  0  0  0
   -3.4559    0.3185   -0.9095 C   0  0  0  0  0  0  0  0  0  0  0  0
   -2.7266   -0.4877    0.0636 N   0  0  0  0  0  0  0  0  0  0  0  0
   -1.3268   -0.1233    0.0244 C   0  0  0  0  0  0  0  0  0  0  0  0
   -0.5197   -1.0092    0.9467 C   0  0  0  0  0  0  0  0  0  0  0  0
    0.9295   -0.6902    0.8262 C   0  0  0  0  0  0  0  0  0  0  0  0
    1.3662    0.6848    1.1806 C   0  0  0  0  0  0  0  0  0  0  0  0
    2.8182    0.7489    0.9397 N   0  0  0  0  0  0  0  0  0  0  0  0
    3.1352    0.8168   -0.4528 C   0  0  0  0  0  0  0  0  0  0  0  0
    4.6303    0.7063   -0.6739 C   0  0  0  0  0  0  0  0  0  0  0  0
    5.1935   -0.6138   -0.2260 C   0  0  0  0  0  0  0  0  0  0  0  0
    6.6247   -0.6363   -0.4873 N   0  0  0  0  0  0  0  0  0  0  0  0
   -6.8727    1.3730    0.3305 H   0  0  0  0  0  0  0  0  0  0  0  0
   -5.8639    1.0147    1.7201 H   0  0  0  0  0  0  0  0  0  0  0  0
   -6.5862   -0.9189   -0.1090 H   0  0  0  0  0  0  0  0  0  0  0  0
   -5.0441   -0.8678    0.8906 H   0  0  0  0  0  0  0  0  0  0  0  0
   -4.7034   -1.3307   -1.5031 H   0  0  0  0  0  0  0  0  0  0  0  0
   -5.3572    0.3498   -1.8865 H   0  0  0  0  0  0  0  0  0  0  0  0
   -3.5650    1.3796   -0.5552 H   0  0  0  0  0  0  0  0  0  0  0  0
   -2.9777    0.3586   -1.9042 H   0  0  0  0  0  0  0  0  0  0  0  0
   -3.1007   -0.2484    1.0300 H   0  0  0  0  0  0  0  0  0  0  0  0
   -0.9772   -0.2416   -1.0199 H   0  0  0  0  0  0  0  0  0  0  0  0
   -1.2371    0.9410    0.3267 H   0  0  0  0  0  0  0  0  0  0  0  0
   -0.6445   -2.0563    0.5428 H   0  0  0  0  0  0  0  0  0  0  0  0
   -0.9158   -1.0278    1.9654 H   0  0  0  0  0  0  0  0  0  0  0  0
    1.5613   -1.4133    1.4291 H   0  0  0  0  0  0  0  0  0  0  0  0
    1.2841   -0.9101   -0.2306 H   0  0  0  0  0  0  0  0  0  0  0  0
    1.1403    0.9441    2.2292 H   0  0  0  0  0  0  0  0  0  0  0  0
    0.9401    1.4860    0.5224 H   0  0  0  0  0  0  0  0  0  0  0  0
    3.2635   -0.0838    1.3714 H   0  0  0  0  0  0  0  0  0  0  0  0
    2.8685    1.8692   -0.7848 H   0  0  0  0  0  0  0  0  0  0  0  0
    2.5949    0.1264   -1.0986 H   0  0  0  0  0  0  0  0  0  0  0  0
    4.9366    1.0244   -1.6812 H   0  0  0  0  0  0  0  0  0  0  0  0
    5.1020    1.4759    0.0245 H   0  0  0  0  0  0  0  0  0  0  0  0
    4.7680   -1.4721   -0.8046 H   0  0  0  0  0  0  0  0  0  0  0  0
    5.0466   -0.7462    0.8376 H   0  0  0  0  0  0  0  0  0  0  0  0
    7.0815    0.2736   -0.2607 H   0  0  0  0  0  0  0  0  0  0  0  0
    7.0807   -1.3801    0.0567 H   0  0  0  0  0  0  0  0  0  0  0  0
   -6.8727    1.3730    0.3305 H   0  0  0  0  0  0  0  0  0  0  0  0
   -5.8639    1.0147    1.7201 H   0  0  0  0  0  0  0  0  0  0  0  0
   -6.5862   -0.9189   -0.1090 H   0  0  0  0  0  0  0  0  0  0  0  0
   -5.0441   -0.8678    0.8906 H   0  0  0  0  0  0  0  0  0  0  0  0
   -4.7034   -1.3307   -1.5031 H   0  0  0  0  0  0  0  0  0  0  0  0
   -5.3572    0.3498   -1.8865 H   0  0  0  0  0  0  0  0  0  0  0  0
   -3.5650    1.3796   -0.5552 H   0  0  0  0  0  0  0  0  0  0  0  0
   -2.9777    0.3586   -1.9042 H   0  0  0  0  0  0  0  0  0  0  0  0
   -3.1007   -0.2484    1.0300 H   0  0  0  0  0  0  0  0  0  0  0  0
   -0.9772   -0.2416   -1.0199 H   0  0  0  0  0  0  0  0  0  0  0  0
   -1.2371    0.9410    0.3267 H   0  0  0  0  0  0  0  0  0  0  0  0
   -0.6445   -2.0563    0.5428 H   0  0  0  0  0  0  0  0  0  0  0  0
   -0.9158   -1.0278    1.9654 H   0  0  0  0  0  0  0  0  0  0  0  0
    1.5613   -1.4133    1.4291 H   0  0  0  0  0  0  0  0  0  0  0  0
    1.2841   -0.9101   -0.2306 H   0  0  0  0  0  0  0  0  0  0  0  0
    1.1403    0.9441    2.2292 H   0  0  0  0  0  0  0  0  0  0  0  0
    0.9401    1.4860    0.5224 H   0  0  0  0  0  0  0  0  0  0  0  0
    3.2635   -0.0838    1.3714 H   0  0  0  0  0  0  0  0  0  0  0  0
    2.8685    1.8692   -0.7848 H   0  0  0  0  0  0  0  0  0  0  0  0
    2.5949    0.1264   -1.0986 H   0  0  0  0  0  0  0  0  0  0  0  0
    4.9366    1.0244   -1.6812 H   0  0  0  0  0  0  0  0  0  0  0  0
    5.1020    1.4759    0.0245 H   0  0  0  0  0  0  0  0  0  0  0  0
    4.7680   -1.4721   -0.8046 H   0  0  0  0  0  0  0  0  0  0  0  0
    5.0466   -0.7462    0.8376 H   0  0  0  0  0  0  0  0  0  0  0  0
    7.0815    0.2736   -0.2607 H   0  0  0  0  0  0  0  0  0  0  0  0
    7.0807   -1.3801    0.0567 H   0  0  0  0  0  0  0  0  0  0  0  0
  1  2  1  0
  2  3  1  0
  3  4  1  0
  4  5  1  0
  5  6  1  0
  6  7  1  0
  7  8  1  0
  8  9  1  0
  9 10  1  0
 10 11  1  0
 11 12  1  0
 12 13  1  0
 13 14  1  0
 15 16  1  0
 16 17  1  0
 17 18  1  0
 18 19  1  0
 19 20  1  0
 20 21  1  0
 21 22  1  0
 22 23  1  0
 23 24  1  0
 24 25  1  0
 25 26  1  0
 26 27  1  0
 27 28  1  0
  1 29  1  0
  1 30  1  0
  2 31  1  0
  2 32  1  0
  3 33  1  0
  3 34  1  0
  4 35  1  0
  4 36  1  0
  5 37  1  0
  6 38  1  0
  6 39  1  0
  7 40  1  0
  7 41  1  0
  8 42  1  0
  8 43  1  0
  9 44  1  0
  9 45  1  0
 10 46  1  0
 11 47  1  0
 11 48  1  0
 12 49  1  0
 12 50  1  0
 13 51  1  0
 13 52  1  0
 14 53  1  0
 14 54  1  0
 15 55  1  0
 15 56  1  0
 16 57  1  0
 16 58  1  0
 17 59  1  0
 17 60  1  0
 18 61  1  0
 18 62  1  0
 19 63  1  0
 20 64  1  0
 20 65  1  0
 21 66  1  0
 21 67  1  0
 22 68  1  0
 22 69  1  0
 23 70  1  0
 23 71  1  0
 24 72  1  0
 25 73  1  0
 25 74  1  0
 26 75  1  0
 26 76  1  0
 27 77  1  0
 27 78  1  0
 28 79  1  0
 28 80  1  0
M  END
>  <PDBID>  (1) 
3KU9

>  <PDB ID>  (1) 
3KU9

>  <Generic Name>  (1) 
Spermine

>  <Brand Name>  (1) 
nan

>  <DrugBank ID>  (1) 
DB00127

>  <ATC Codes>  (1) 
nan

>  <Ligand ID>  (1) 
SPM

>  <Target Name>  (1) 
Spermine oxidase

>  <UniProt ID>  (1) 
Q9NWM0

>  <PDB ID.1>  (1) 
3KU9

>  <Seq. Identity>  (1) 
31%

$$$$
