PDB_DB08882_04
     RDKit          3D

170178  0  0  0  0  0  0  0  0999 V2000
   -1.1511    0.0292   -0.4451 C   0  0  0  0  0  0  0  0  0  0  0  0
   -2.3448    0.7585   -0.1300 N   0  0  0  0  0  0  0  0  0  0  0  0
   -1.0930   -0.9876    0.7087 C   0  0  0  0  0  0  0  0  0  0  0  0
    0.1363    0.7806   -0.3683 C   0  0  0  0  0  0  0  0  0  0  0  0
   -3.0130    0.0291    0.8758 C   0  0  0  0  0  0  0  0  0  0  0  0
   -3.0606    1.0614   -1.3163 C   0  0  0  0  0  0  0  0  0  0  0  0
   -2.5152   -1.3262    0.7075 N   0  0  0  0  0  0  0  0  0  0  0  0
   -0.2303   -2.0112    0.3080 N   0  0  0  0  0  0  0  0  0  0  0  0
    1.1663   -0.0687    0.0286 N   0  0  0  0  0  0  0  0  0  0  0  0
    0.4015    1.4832   -1.5516 O   0  0  0  0  0  0  0  0  0  0  0  0
   -4.4012    0.1536    1.0479 N   0  0  0  0  0  0  0  0  0  0  0  0
   -3.6815   -0.0937   -2.0394 C   0  0  0  0  0  0  0  0  0  0  0  0
    1.1022   -1.4343    0.0734 C   0  0  0  0  0  0  0  0  0  0  0  0
   -0.6528   -2.8363   -0.7738 C   0  0  0  0  0  0  0  0  0  0  0  0
    2.2714    0.5815    0.5825 C   0  0  0  0  0  0  0  0  0  0  0  0
   -4.7867   -0.7989    2.1036 C   0  0  0  0  0  0  0  0  0  0  0  0
   -4.6891    1.4574    1.6189 C   0  0  0  0  0  0  0  0  0  0  0  0
   -4.3902    0.4962   -3.2705 C   0  0  0  0  0  0  0  0  0  0  0  0
    1.6559   -2.1070   -1.0349 O   0  0  0  0  0  0  0  0  0  0  0  0
    3.4222   -0.2682    1.0589 C   0  0  0  0  0  0  0  0  0  0  0  0
   -5.9873   -0.3560    2.8705 C   0  0  1  0  0  0  0  0  0  0  0  0
   -6.1863    1.6625    1.5158 C   0  0  0  0  0  0  0  0  0  0  0  0
   -5.0537   -0.6025   -4.0707 C   0  0  0  0  0  0  0  0  0  0  0  0
    4.4834    0.5727    1.5925 N   0  0  0  0  0  0  0  0  0  0  0  0
    3.8525   -1.2867    0.1776 N   0  0  0  0  0  0  0  0  0  0  0  0
   -6.9290    0.5059    2.0891 C   0  0  0  0  0  0  0  0  0  0  0  0
   -6.7279   -1.5850    3.2076 N   0  0  0  0  0  0  0  0  0  0  0  0
    5.4658    0.9507    0.5995 C   0  0  0  0  0  0  0  0  0  0  0  0
    4.8971   -0.9775   -0.7410 C   0  0  0  0  0  0  0  0  0  0  0  0
    6.0150   -0.3323    0.0264 C   0  0  0  0  0  0  0  0  0  0  0  0
    6.6030    1.6355    1.3265 C   0  0  0  0  0  0  0  0  0  0  0  0
    4.4886   -0.2301   -1.9665 C   0  0  0  0  0  0  0  0  0  0  0  0
    7.2840   -0.1840   -0.7382 C   0  0  0  0  0  0  0  0  0  0  0  0
    7.7848    1.9109    0.4326 C   0  0  0  0  0  0  0  0  0  0  0  0
    7.7304    1.2337   -0.8948 C   0  0  0  0  0  0  0  0  0  0  0  0
   -1.1511    0.0292   -0.4451 C   0  0  0  0  0  0  0  0  0  0  0  0
   -2.3448    0.7585   -0.1300 N   0  0  0  0  0  0  0  0  0  0  0  0
   -1.0930   -0.9876    0.7087 C   0  0  0  0  0  0  0  0  0  0  0  0
    0.1363    0.7806   -0.3683 C   0  0  0  0  0  0  0  0  0  0  0  0
   -3.0130    0.0291    0.8758 C   0  0  0  0  0  0  0  0  0  0  0  0
   -3.0606    1.0614   -1.3163 C   0  0  0  0  0  0  0  0  0  0  0  0
   -2.5152   -1.3262    0.7075 N   0  0  0  0  0  0  0  0  0  0  0  0
   -0.2303   -2.0112    0.3080 N   0  0  0  0  0  0  0  0  0  0  0  0
    1.1663   -0.0687    0.0286 N   0  0  0  0  0  0  0  0  0  0  0  0
    0.4015    1.4832   -1.5516 O   0  0  0  0  0  0  0  0  0  0  0  0
   -4.4012    0.1536    1.0479 N   0  0  0  0  0  0  0  0  0  0  0  0
   -3.6815   -0.0937   -2.0394 C   0  0  0  0  0  0  0  0  0  0  0  0
    1.1022   -1.4343    0.0734 C   0  0  0  0  0  0  0  0  0  0  0  0
   -0.6528   -2.8363   -0.7738 C   0  0  0  0  0  0  0  0  0  0  0  0
    2.2714    0.5815    0.5825 C   0  0  0  0  0  0  0  0  0  0  0  0
   -4.7867   -0.7989    2.1036 C   0  0  0  0  0  0  0  0  0  0  0  0
   -4.6891    1.4574    1.6189 C   0  0  0  0  0  0  0  0  0  0  0  0
   -4.3902    0.4962   -3.2705 C   0  0  0  0  0  0  0  0  0  0  0  0
    1.6559   -2.1070   -1.0349 O   0  0  0  0  0  0  0  0  0  0  0  0
    3.4222   -0.2682    1.0589 C   0  0  0  0  0  0  0  0  0  0  0  0
   -5.9873   -0.3560    2.8705 C   0  0  1  0  0  0  0  0  0  0  0  0
   -6.1863    1.6625    1.5158 C   0  0  0  0  0  0  0  0  0  0  0  0
   -5.0537   -0.6025   -4.0707 C   0  0  0  0  0  0  0  0  0  0  0  0
    4.4834    0.5727    1.5925 N   0  0  0  0  0  0  0  0  0  0  0  0
    3.8525   -1.2867    0.1776 N   0  0  0  0  0  0  0  0  0  0  0  0
   -6.9290    0.5059    2.0891 C   0  0  0  0  0  0  0  0  0  0  0  0
   -6.7279   -1.5850    3.2076 N   0  0  0  0  0  0  0  0  0  0  0  0
    5.4658    0.9507    0.5995 C   0  0  0  0  0  0  0  0  0  0  0  0
    4.8971   -0.9775   -0.7410 C   0  0  0  0  0  0  0  0  0  0  0  0
    6.0150   -0.3323    0.0264 C   0  0  0  0  0  0  0  0  0  0  0  0
    6.6030    1.6355    1.3265 C   0  0  0  0  0  0  0  0  0  0  0  0
    4.4886   -0.2301   -1.9665 C   0  0  0  0  0  0  0  0  0  0  0  0
    7.2840   -0.1840   -0.7382 C   0  0  0  0  0  0  0  0  0  0  0  0
    7.7848    1.9109    0.4326 C   0  0  0  0  0  0  0  0  0  0  0  0
    7.7304    1.2337   -0.8948 C   0  0  0  0  0  0  0  0  0  0  0  0
   -1.2802   -0.5585   -1.3508 H   0  0  0  0  0  0  0  0  0  0  0  0
   -0.7764   -0.5158    1.6371 H   0  0  0  0  0  0  0  0  0  0  0  0
   -0.0042    1.5895    0.4085 H   0  0  0  0  0  0  0  0  0  0  0  0
   -2.5457    0.3578    1.8583 H   0  0  0  0  0  0  0  0  0  0  0  0
   -2.3064    1.5039   -2.0393 H   0  0  0  0  0  0  0  0  0  0  0  0
   -3.7973    1.8805   -1.1851 H   0  0  0  0  0  0  0  0  0  0  0  0
   -2.7832   -1.9675    1.4471 H   0  0  0  0  0  0  0  0  0  0  0  0
    0.7537    2.3860   -1.3939 H   0  0  0  0  0  0  0  0  0  0  0  0
   -2.9431   -0.8001   -2.4721 H   0  0  0  0  0  0  0  0  0  0  0  0
   -4.3769   -0.6824   -1.4439 H   0  0  0  0  0  0  0  0  0  0  0  0
    1.6723   -1.8316    0.9616 H   0  0  0  0  0  0  0  0  0  0  0  0
    0.0059   -3.7544   -0.7544 H   0  0  0  0  0  0  0  0  0  0  0  0
   -1.6710   -3.1756   -0.5867 H   0  0  0  0  0  0  0  0  0  0  0  0
   -0.4826   -2.3882   -1.7741 H   0  0  0  0  0  0  0  0  0  0  0  0
    1.8987    1.0935    1.5364 H   0  0  0  0  0  0  0  0  0  0  0  0
    2.6370    1.4624   -0.0113 H   0  0  0  0  0  0  0  0  0  0  0  0
   -4.9961   -1.7497    1.5587 H   0  0  0  0  0  0  0  0  0  0  0  0
   -3.9715   -0.9386    2.8431 H   0  0  0  0  0  0  0  0  0  0  0  0
   -4.3598    1.4972    2.6989 H   0  0  0  0  0  0  0  0  0  0  0  0
   -4.2030    2.2964    1.1292 H   0  0  0  0  0  0  0  0  0  0  0  0
   -5.0980    1.2986   -2.9816 H   0  0  0  0  0  0  0  0  0  0  0  0
   -3.6243    0.9686   -3.9208 H   0  0  0  0  0  0  0  0  0  0  0  0
    1.5512   -1.5709   -1.8609 H   0  0  0  0  0  0  0  0  0  0  0  0
    3.0342   -0.7895    1.9918 H   0  0  0  0  0  0  0  0  0  0  0  0
   -5.7114    0.0832    3.8585 H   0  0  0  0  0  0  0  0  0  0  0  0
   -6.4317    1.7262    0.4371 H   0  0  0  0  0  0  0  0  0  0  0  0
   -6.4891    2.6176    2.0094 H   0  0  0  0  0  0  0  0  0  0  0  0
   -4.8758   -0.4545   -5.1605 H   0  0  0  0  0  0  0  0  0  0  0  0
   -6.1503   -0.4773   -3.9373 H   0  0  0  0  0  0  0  0  0  0  0  0
   -4.7277   -1.5949   -3.7420 H   0  0  0  0  0  0  0  0  0  0  0  0
    4.0525    1.4547    1.9464 H   0  0  0  0  0  0  0  0  0  0  0  0
    4.0021   -2.2117    0.6566 H   0  0  0  0  0  0  0  0  0  0  0  0
   -7.6981    0.8878    2.8137 H   0  0  0  0  0  0  0  0  0  0  0  0
   -7.4709   -0.1060    1.3419 H   0  0  0  0  0  0  0  0  0  0  0  0
   -7.5245   -1.3465    3.8424 H   0  0  0  0  0  0  0  0  0  0  0  0
   -6.0645   -2.1635    3.7820 H   0  0  0  0  0  0  0  0  0  0  0  0
    5.0918    1.6465   -0.1653 H   0  0  0  0  0  0  0  0  0  0  0  0
    5.3053   -1.9699   -1.1015 H   0  0  0  0  0  0  0  0  0  0  0  0
    6.2156   -1.0061    0.9047 H   0  0  0  0  0  0  0  0  0  0  0  0
    6.9595    0.9482    2.1238 H   0  0  0  0  0  0  0  0  0  0  0  0
    6.2745    2.5633    1.8476 H   0  0  0  0  0  0  0  0  0  0  0  0
    3.8232   -0.9070   -2.5747 H   0  0  0  0  0  0  0  0  0  0  0  0
    4.0547    0.7535   -1.8009 H   0  0  0  0  0  0  0  0  0  0  0  0
    5.3848   -0.0704   -2.6121 H   0  0  0  0  0  0  0  0  0  0  0  0
    8.1316   -0.7537   -0.2533 H   0  0  0  0  0  0  0  0  0  0  0  0
    7.1847   -0.6804   -1.7457 H   0  0  0  0  0  0  0  0  0  0  0  0
    7.8462    3.0080    0.2429 H   0  0  0  0  0  0  0  0  0  0  0  0
    8.7582    1.6442    0.9238 H   0  0  0  0  0  0  0  0  0  0  0  0
    7.0788    1.7808   -1.6007 H   0  0  0  0  0  0  0  0  0  0  0  0
    8.7803    1.2001   -1.2950 H   0  0  0  0  0  0  0  0  0  0  0  0
   -1.2802   -0.5585   -1.3508 H   0  0  0  0  0  0  0  0  0  0  0  0
   -0.7764   -0.5158    1.6371 H   0  0  0  0  0  0  0  0  0  0  0  0
   -0.0042    1.5895    0.4085 H   0  0  0  0  0  0  0  0  0  0  0  0
   -2.5457    0.3578    1.8583 H   0  0  0  0  0  0  0  0  0  0  0  0
   -2.3064    1.5039   -2.0393 H   0  0  0  0  0  0  0  0  0  0  0  0
   -3.7973    1.8805   -1.1851 H   0  0  0  0  0  0  0  0  0  0  0  0
   -2.7832   -1.9675    1.4471 H   0  0  0  0  0  0  0  0  0  0  0  0
    0.7537    2.3860   -1.3939 H   0  0  0  0  0  0  0  0  0  0  0  0
   -2.9431   -0.8001   -2.4721 H   0  0  0  0  0  0  0  0  0  0  0  0
   -4.3769   -0.6824   -1.4439 H   0  0  0  0  0  0  0  0  0  0  0  0
    1.6723   -1.8316    0.9616 H   0  0  0  0  0  0  0  0  0  0  0  0
    0.0059   -3.7544   -0.7544 H   0  0  0  0  0  0  0  0  0  0  0  0
   -1.6710   -3.1756   -0.5867 H   0  0  0  0  0  0  0  0  0  0  0  0
   -0.4826   -2.3882   -1.7741 H   0  0  0  0  0  0  0  0  0  0  0  0
    1.8987    1.0935    1.5364 H   0  0  0  0  0  0  0  0  0  0  0  0
    2.6370    1.4624   -0.0113 H   0  0  0  0  0  0  0  0  0  0  0  0
   -4.9961   -1.7497    1.5587 H   0  0  0  0  0  0  0  0  0  0  0  0
   -3.9715   -0.9386    2.8431 H   0  0  0  0  0  0  0  0  0  0  0  0
   -4.3598    1.4972    2.6989 H   0  0  0  0  0  0  0  0  0  0  0  0
   -4.2030    2.2964    1.1292 H   0  0  0  0  0  0  0  0  0  0  0  0
   -5.0980    1.2986   -2.9816 H   0  0  0  0  0  0  0  0  0  0  0  0
   -3.6243    0.9686   -3.9208 H   0  0  0  0  0  0  0  0  0  0  0  0
    1.5512   -1.5709   -1.8609 H   0  0  0  0  0  0  0  0  0  0  0  0
    3.0342   -0.7895    1.9918 H   0  0  0  0  0  0  0  0  0  0  0  0
   -5.7114    0.0832    3.8585 H   0  0  0  0  0  0  0  0  0  0  0  0
   -6.4317    1.7262    0.4371 H   0  0  0  0  0  0  0  0  0  0  0  0
   -6.4891    2.6176    2.0094 H   0  0  0  0  0  0  0  0  0  0  0  0
   -4.8758   -0.4545   -5.1605 H   0  0  0  0  0  0  0  0  0  0  0  0
   -6.1503   -0.4773   -3.9373 H   0  0  0  0  0  0  0  0  0  0  0  0
   -4.7277   -1.5949   -3.7420 H   0  0  0  0  0  0  0  0  0  0  0  0
    4.0525    1.4547    1.9464 H   0  0  0  0  0  0  0  0  0  0  0  0
    4.0021   -2.2117    0.6566 H   0  0  0  0  0  0  0  0  0  0  0  0
   -7.6981    0.8878    2.8137 H   0  0  0  0  0  0  0  0  0  0  0  0
   -7.4709   -0.1060    1.3419 H   0  0  0  0  0  0  0  0  0  0  0  0
   -7.5245   -1.3465    3.8424 H   0  0  0  0  0  0  0  0  0  0  0  0
   -6.0645   -2.1635    3.7820 H   0  0  0  0  0  0  0  0  0  0  0  0
    5.0918    1.6465   -0.1653 H   0  0  0  0  0  0  0  0  0  0  0  0
    5.3053   -1.9699   -1.1015 H   0  0  0  0  0  0  0  0  0  0  0  0
    6.2156   -1.0061    0.9047 H   0  0  0  0  0  0  0  0  0  0  0  0
    6.9595    0.9482    2.1238 H   0  0  0  0  0  0  0  0  0  0  0  0
    6.2745    2.5633    1.8476 H   0  0  0  0  0  0  0  0  0  0  0  0
    3.8232   -0.9070   -2.5747 H   0  0  0  0  0  0  0  0  0  0  0  0
    4.0547    0.7535   -1.8009 H   0  0  0  0  0  0  0  0  0  0  0  0
    5.3848   -0.0704   -2.6121 H   0  0  0  0  0  0  0  0  0  0  0  0
    8.1316   -0.7537   -0.2533 H   0  0  0  0  0  0  0  0  0  0  0  0
    7.1847   -0.6804   -1.7457 H   0  0  0  0  0  0  0  0  0  0  0  0
    7.8462    3.0080    0.2429 H   0  0  0  0  0  0  0  0  0  0  0  0
    8.7582    1.6442    0.9238 H   0  0  0  0  0  0  0  0  0  0  0  0
    7.0788    1.7808   -1.6007 H   0  0  0  0  0  0  0  0  0  0  0  0
    8.7803    1.2001   -1.2950 H   0  0  0  0  0  0  0  0  0  0  0  0
  1  2  1  0
  1  3  1  0
  1  4  1  0
  2  5  1  0
  2  6  1  0
  3  7  1  0
  5  7  1  0
  3  8  1  0
  4  9  1  0
  4 10  1  0
  5 11  1  0
  6 12  1  0
  8 13  1  0
  9 13  1  0
  8 14  1  0
  9 15  1  0
 11 16  1  0
 11 17  1  0
 12 18  1  0
 13 19  1  0
 15 20  1  0
 16 21  1  0
 17 22  1  0
 18 23  1  0
 20 24  1  0
 20 25  1  0
 21 26  1  0
 22 26  1  0
 21 27  1  0
 24 28  1  0
 25 29  1  0
 28 30  1  0
 29 30  1  0
 28 31  1  0
 29 32  1  0
 30 33  1  0
 31 34  1  0
 33 35  1  0
 34 35  1  0
 36 37  1  0
 36 38  1  0
 36 39  1  0
 37 40  1  0
 37 41  1  0
 38 42  1  0
 40 42  1  0
 38 43  1  0
 39 44  1  0
 39 45  1  0
 40 46  1  0
 41 47  1  0
 43 48  1  0
 44 48  1  0
 43 49  1  0
 44 50  1  0
 46 51  1  0
 46 52  1  0
 47 53  1  0
 48 54  1  0
 50 55  1  0
 51 56  1  0
 52 57  1  0
 53 58  1  0
 55 59  1  0
 55 60  1  0
 56 61  1  0
 57 61  1  0
 56 62  1  0
 59 63  1  0
 60 64  1  0
 63 65  1  0
 64 65  1  0
 63 66  1  0
 64 67  1  0
 65 68  1  0
 66 69  1  0
 68 70  1  0
 69 70  1  0
  1 71  1  0
  3 72  1  0
  4 73  1  0
  5 74  1  0
  6 75  1  0
  6 76  1  0
  7 77  1  0
 10 78  1  0
 12 79  1  0
 12 80  1  0
 13 81  1  0
 14 82  1  0
 14 83  1  0
 14 84  1  0
 15 85  1  0
 15 86  1  0
 16 87  1  0
 16 88  1  0
 17 89  1  0
 17 90  1  0
 18 91  1  0
 18 92  1  0
 19 93  1  0
 20 94  1  0
 21 95  1  1
 22 96  1  0
 22 97  1  0
 23 98  1  0
 23 99  1  0
 23100  1  0
 24101  1  0
 25102  1  0
 26103  1  0
 26104  1  0
 27105  1  0
 27106  1  0
 28107  1  0
 29108  1  0
 30109  1  0
 31110  1  0
 31111  1  0
 32112  1  0
 32113  1  0
 32114  1  0
 33115  1  0
 33116  1  0
 34117  1  0
 34118  1  0
 35119  1  0
 35120  1  0
 36121  1  0
 38122  1  0
 39123  1  0
 40124  1  0
 41125  1  0
 41126  1  0
 42127  1  0
 45128  1  0
 47129  1  0
 47130  1  0
 48131  1  0
 49132  1  0
 49133  1  0
 49134  1  0
 50135  1  0
 50136  1  0
 51137  1  0
 51138  1  0
 52139  1  0
 52140  1  0
 53141  1  0
 53142  1  0
 54143  1  0
 55144  1  0
 56145  1  1
 57146  1  0
 57147  1  0
 58148  1  0
 58149  1  0
 58150  1  0
 59151  1  0
 60152  1  0
 61153  1  0
 61154  1  0
 62155  1  0
 62156  1  0
 63157  1  0
 64158  1  0
 65159  1  0
 66160  1  0
 66161  1  0
 67162  1  0
 67163  1  0
 67164  1  0
 68165  1  0
 68166  1  0
 69167  1  0
 69168  1  0
 70169  1  0
 70170  1  0
M  END
>  <PDBID>  (1) 
2RGU

>  <PDB ID>  (1) 
2RGU

>  <Generic Name>  (1) 
Linagliptin

>  <Brand Name>  (1) 
Glyxambi#Jentadueto#Jentadueto XR#Tradjenta#Trajenta

>  <DrugBank ID>  (1) 
DB08882

>  <ATC Codes>  (1) 
A10BH05#A10BD19#A10BD11

>  <Ligand ID>  (1) 
356

>  <Target Name>  (1) 
Dipeptidyl peptidase 4

>  <UniProt ID>  (1) 
P27487

>  <PDB ID.1>  (1) 
2RGU

>  <Seq. Identity>  (1) 
100%

$$$$
