PDB_DB00273_09
     RDKit          3D

 45 47  0  0  0  0  0  0  0  0999 V2000
    1.9201    3.3773    0.9825 C   0  0  0  0  0  0  0  0  0  0  0  0
    0.7738    2.6913    0.2538 C   0  0  0  0  0  0  0  0  0  0  0  0
    0.1420    3.7569   -0.6337 C   0  0  0  0  0  0  0  0  0  0  0  0
    1.3196    1.7526   -0.5827 O   0  0  0  0  0  0  0  0  0  0  0  0
   -0.1165    2.0978    1.1064 O   0  0  0  0  0  0  0  0  0  0  0  0
   -0.1623    0.7315    0.8206 C   0  0  1  0  0  0  0  0  0  0  0  0
   -1.5772    0.3919    0.5329 C   0  0  2  0  0  0  0  0  0  0  0  0
   -1.8723   -0.9761    0.6521 O   0  0  0  0  0  0  0  0  0  0  0  0
   -3.0695   -1.0577   -0.0468 C   0  0  0  0  0  0  0  0  0  0  0  0
   -3.2887   -2.3896   -0.7058 C   0  0  0  0  0  0  0  0  0  0  0  0
   -4.1753   -0.8352    0.9722 C   0  0  0  0  0  0  0  0  0  0  0  0
   -3.0596   -0.0909   -1.0371 O   0  0  0  0  0  0  0  0  0  0  0  0
   -1.8055    0.5136   -0.9697 C   0  0  2  0  0  0  0  0  0  0  0  0
   -0.8240   -0.4376   -1.5798 C   0  0  0  0  0  0  0  0  0  0  0  0
    0.4870   -0.1556   -1.3577 O   0  0  0  0  0  0  0  0  0  0  0  0
    0.8329    0.5039   -0.2302 C   0  0  1  0  0  0  0  0  0  0  0  0
    2.0223   -0.2314    0.3844 C   0  0  0  0  0  0  0  0  0  0  0  0
    1.7278   -1.5534    0.6639 O   0  0  0  0  0  0  0  0  0  0  0  0
    3.0624   -2.5257    0.5427 S   0  0  0  0  0  0  0  0  0  0  0  0
    4.0941   -2.2889    1.7280 O   0  0  0  0  0  0  0  0  0  0  0  0
    2.6741   -4.0297    0.3458 O   0  0  0  0  0  0  0  0  0  0  0  0
    3.8158   -1.9041   -0.9047 N   0  0  0  0  0  0  0  0  0  0  0  0
    1.5625    3.9810    1.8380 H   0  0  0  0  0  0  0  0  0  0  0  0
    2.6899    2.6461    1.3169 H   0  0  0  0  0  0  0  0  0  0  0  0
    2.4177    4.0325    0.2239 H   0  0  0  0  0  0  0  0  0  0  0  0
    0.8229    4.6234   -0.7778 H   0  0  0  0  0  0  0  0  0  0  0  0
   -0.0508    3.3630   -1.6638 H   0  0  0  0  0  0  0  0  0  0  0  0
   -0.8392    4.0256   -0.2206 H   0  0  0  0  0  0  0  0  0  0  0  0
    0.1092    0.2232    1.7813 H   0  0  0  0  0  0  0  0  0  0  0  0
   -2.2984    1.0016    1.1017 H   0  0  0  0  0  0  0  0  0  0  0  0
   -4.3524   -2.7135   -0.5746 H   0  0  0  0  0  0  0  0  0  0  0  0
   -2.6598   -3.1987   -0.3100 H   0  0  0  0  0  0  0  0  0  0  0  0
   -3.1489   -2.3227   -1.8142 H   0  0  0  0  0  0  0  0  0  0  0  0
   -5.1422   -0.6321    0.4884 H   0  0  0  0  0  0  0  0  0  0  0  0
   -4.2725   -1.8052    1.5226 H   0  0  0  0  0  0  0  0  0  0  0  0
   -3.9035   -0.0860    1.7344 H   0  0  0  0  0  0  0  0  0  0  0  0
   -1.7706    1.5351   -1.3363 H   0  0  0  0  0  0  0  0  0  0  0  0
   -1.0530   -0.5485   -2.6500 H   0  0  0  0  0  0  0  0  0  0  0  0
   -1.0322   -1.4374   -1.1187 H   0  0  0  0  0  0  0  0  0  0  0  0
    2.9379   -0.1111   -0.2121 H   0  0  0  0  0  0  0  0  0  0  0  0
    2.2075    0.2863    1.3596 H   0  0  0  0  0  0  0  0  0  0  0  0
    4.5504   -1.4094    1.7359 H   0  0  0  0  0  0  0  0  0  0  0  0
    2.7070   -4.3663   -0.5861 H   0  0  0  0  0  0  0  0  0  0  0  0
    3.0277   -1.8679   -1.6018 H   0  0  0  0  0  0  0  0  0  0  0  0
    4.5700   -2.5602   -1.1737 H   0  0  0  0  0  0  0  0  0  0  0  0
  2  1  1  0
  2  3  1  0
  2  4  1  0
  2  5  1  0
  5  6  1  0
  6  7  1  0
  7  8  1  0
  8  9  1  0
  9 10  1  0
  9 11  1  0
  9 12  1  0
  7 13  1  0
 12 13  1  0
 13 14  1  0
 14 15  1  0
  4 16  1  0
  6 16  1  0
 15 16  1  0
 16 17  1  1
 17 18  1  0
 19 18  1  0
 19 20  1  0
 19 21  1  0
 19 22  1  0
  1 23  1  0
  1 24  1  0
  1 25  1  0
  3 26  1  0
  3 27  1  0
  3 28  1  0
  6 29  1  1
  7 30  1  1
 10 31  1  0
 10 32  1  0
 10 33  1  0
 11 34  1  0
 11 35  1  0
 11 36  1  0
 13 37  1  6
 14 38  1  0
 14 39  1  0
 17 40  1  0
 17 41  1  0
 20 42  1  0
 21 43  1  0
 22 44  1  0
 22 45  1  0
M  END
>  <PDBID>  (1) 
3HKU

>  <PDB ID>  (1) 
3HKU

>  <Generic Name>  (1) 
Topiramate

>  <Brand Name>  (1) 
Abbott-topiramate#Accel-topiramate#Act Topiramate#Apo-topiramate#Auro-topiramate#Ava-topiramate#Dom-topiramate#Gd-topiramate#Ipg-topiramate#Jamp-topiramate#Mar-topiramate#Mint-topiramate#Mylan-topiramate#Nu-topiramate#PHL-topiramate#PMS-topiramate#Pro-topiramate#Q-topiramate#Qsymia#Qudexy XR#Ran-topiramate#Ratio-topiramate#Sandoz Topiramate#Sandoz Topiramate Tablets#Teva-topiramate#Topamax#Topamax 100mg#Topamax 200mg#Topamax 25mg#Topiramate#Topiramate Tablets#Topiramate Tablets USP#Trokendi XR#Van-topiramate#Zym-topiramate

>  <DrugBank ID>  (1) 
DB00273

>  <ATC Codes>  (1) 
N03AX11

>  <Ligand ID>  (1) 
TOR

>  <Target Name>  (1) 
Carbonic anhydrase 2

>  <UniProt ID>  (1) 
P00918

>  <PDB ID.1>  (1) 
3HKU

>  <Seq. Identity>  (1) 
100%

$$$$
