PDB_DB00951_02
     RDKit          3D

 25 25  0  0  0  0  0  0  0  0999 V2000
    1.3716   -0.2723    0.7552 C   0  0  2  0  0  0  0  0  0  0  0  0
   -0.1554   -0.2642    0.9087 C   0  0  0  0  0  0  0  0  0  0  0  0
   -2.5891    0.1352   -0.5048 N   0  0  0  0  0  0  0  0  0  0  0  0
    1.9173    0.7248    1.5641 O   0  0  0  0  0  0  0  0  0  0  0  0
   -0.7075   -1.3360    0.0362 C   0  0  0  0  0  0  0  0  0  0  0  0
    1.7332    0.0698   -0.6185 N   0  0  0  0  0  0  0  0  0  0  0  0
   -1.5943   -0.7505   -1.0200 C   0  0  0  0  0  0  0  0  0  0  0  0
    3.1267    0.0442   -0.6884 N   0  0  0  0  0  0  0  0  0  0  0  0
   -2.0684    1.2287    0.2534 C   0  0  0  0  0  0  0  0  0  0  0  0
   -0.6106    1.1228    0.5485 C   0  0  0  0  0  0  0  0  0  0  0  0
    1.7940   -1.2549    0.9801 H   0  0  0  0  0  0  0  0  0  0  0  0
   -0.3393   -0.5070    1.9766 H   0  0  0  0  0  0  0  0  0  0  0  0
   -3.4318   -0.3085   -0.1301 H   0  0  0  0  0  0  0  0  0  0  0  0
    2.6322    0.3932    2.1324 H   0  0  0  0  0  0  0  0  0  0  0  0
   -1.2899   -2.0663    0.6532 H   0  0  0  0  0  0  0  0  0  0  0  0
    0.0805   -1.9403   -0.4624 H   0  0  0  0  0  0  0  0  0  0  0  0
    1.3658   -0.6015   -1.3096 H   0  0  0  0  0  0  0  0  0  0  0  0
   -0.9639   -0.1979   -1.7584 H   0  0  0  0  0  0  0  0  0  0  0  0
   -2.1230   -1.5400   -1.6092 H   0  0  0  0  0  0  0  0  0  0  0  0
    3.5693   -0.5497    0.0396 H   0  0  0  0  0  0  0  0  0  0  0  0
    3.5418    0.9997   -0.7366 H   0  0  0  0  0  0  0  0  0  0  0  0
   -2.6584    1.4471    1.1845 H   0  0  0  0  0  0  0  0  0  0  0  0
   -2.2068    2.1555   -0.3779 H   0  0  0  0  0  0  0  0  0  0  0  0
   -0.3779    1.7903    1.4123 H   0  0  0  0  0  0  0  0  0  0  0  0
   -0.0161    1.4778   -0.3119 H   0  0  0  0  0  0  0  0  0  0  0  0
  1  2  1  0
  1  4  1  0
  2  5  1  0
  1  6  1  0
  3  7  1  0
  5  7  1  0
  6  8  1  0
  3  9  1  0
  2 10  1  0
  9 10  1  0
  1 11  1  1
  2 12  1  0
  3 13  1  0
  4 14  1  0
  5 15  1  0
  5 16  1  0
  6 17  1  0
  7 18  1  0
  7 19  1  0
  8 20  1  0
  8 21  1  0
  9 22  1  0
  9 23  1  0
 10 24  1  0
 10 25  1  0
M  END
>  <PDBID>  (1) 
5KSG

>  <PDB ID>  (1) 
5KSG

>  <Generic Name>  (1) 
Isoniazid

>  <Brand Name>  (1) 
Dom-isoniazid 300mg Tablets#Isonarif#Isoniazid#Isoniazid Syrup 50mg/5ml#Isoniazid Tab 100mg#Isoniazid Tab 300mg#Isoniazid Tab 50mg#Isoniazide 100mg Tablets#Isotamine B 300#Isotamine Powder#Isotamine Syr Pediatric 50mg/5ml#Isotamine-100#Isotamine-300#Pdp-isoniazid#Rifamate#Rifater#Nicozid#Nidrazid#Nydrazid#Rimicid#Rimifon#Servizid#Tibinide

>  <DrugBank ID>  (1) 
DB00951

>  <ATC Codes>  (1) 
J04AM04#J04AM02#J04AM06#J04AM03#J04AM05#J04AM01#J04AC51#J04AC01

>  <Ligand ID>  (1) 
NIZ

>  <Target Name>  (1) 
Catalase-peroxidase

>  <UniProt ID>  (1) 
Q08129

>  <PDB ID.1>  (1) 
5KSG

>  <Seq. Identity>  (1) 
66%

$$$$
