PDB_DB00642_01
     RDKit          3D

288296  0  0  0  0  0  0  0  0999 V2000
   -0.4438   -1.5490   -0.1993 C   0  0  0  0  0  0  0  0  0  0  0  0
    0.4213   -0.3193   -0.0523 C   0  0  0  0  0  0  0  0  0  0  0  0
    1.7502   -0.6388    0.5867 C   0  0  0  0  0  0  0  0  0  0  0  0
    2.5057   -1.7609   -0.0731 C   0  0  0  0  0  0  0  0  0  0  0  0
    1.5326   -2.9039   -0.4507 C   0  0  0  0  0  0  0  0  0  0  0  0
    0.3064   -2.7271    0.4075 C   0  0  0  0  0  0  0  0  0  0  0  0
   -1.8012   -1.4318    0.3994 C   0  0  0  0  0  0  0  0  0  0  0  0
   -2.6111   -0.3285   -0.1937 C   0  0  0  0  0  0  0  0  0  0  0  0
   -3.9757   -0.2783    0.4582 C   0  0  0  0  0  0  0  0  0  0  0  0
   -4.7301   -1.5803    0.2604 C   0  0  0  0  0  0  0  0  0  0  0  0
   -6.1087   -1.1556    0.5472 N   0  0  0  0  0  0  0  0  0  0  0  0
   -6.2040   -0.0069   -0.3336 C   0  0  0  0  0  0  0  0  0  0  0  0
   -4.8946    0.6986   -0.2590 C   0  0  0  0  0  0  0  0  0  0  0  0
   -4.9167    2.0067    0.4769 C   0  0  0  0  0  0  0  0  0  0  0  0
   -3.7259    2.1149    1.2042 O   0  0  0  0  0  0  0  0  0  0  0  0
   -5.9988    2.0035    1.4099 N   0  0  0  0  0  0  0  0  0  0  0  0
   -7.2939    1.8295    0.8169 C   0  0  0  0  0  0  0  0  0  0  0  0
   -7.3666    0.7841   -0.1438 N   0  0  0  0  0  0  0  0  0  0  0  0
   -7.6767    3.0791    0.1837 N   0  0  0  0  0  0  0  0  0  0  0  0
    3.3063   -1.3833   -1.2622 C   0  0  0  0  0  0  0  0  0  0  0  0
    3.9012   -2.6145   -1.7142 O   0  0  0  0  0  0  0  0  0  0  0  0
    4.2606   -0.3873   -1.1486 N   0  0  0  0  0  0  0  0  0  0  0  0
    5.4840   -0.4698   -0.4741 C   0  0  1  0  0  0  0  0  0  0  0  0
    6.4227    0.6647   -0.7097 C   0  0  0  0  0  0  0  0  0  0  0  0
    6.1492    2.0321   -0.3571 C   0  0  0  0  0  0  0  0  0  0  0  0
    4.9731    2.7365   -0.9536 C   0  0  0  0  0  0  0  0  0  0  0  0
    3.7495    2.2037   -0.6732 O   0  0  0  0  0  0  0  0  0  0  0  0
    5.1148    2.8172   -2.3559 O   0  0  0  0  0  0  0  0  0  0  0  0
    5.4568   -0.9614    0.9139 C   0  0  0  0  0  0  0  0  0  0  0  0
    4.6698   -0.2729    1.8132 O   0  0  0  0  0  0  0  0  0  0  0  0
    6.8114   -0.9739    1.4368 O   0  0  0  0  0  0  0  0  0  0  0  0
   -0.4438   -1.5490   -0.1993 C   0  0  0  0  0  0  0  0  0  0  0  0
    0.4213   -0.3193   -0.0523 C   0  0  0  0  0  0  0  0  0  0  0  0
    1.7502   -0.6388    0.5867 C   0  0  0  0  0  0  0  0  0  0  0  0
    2.5057   -1.7609   -0.0731 C   0  0  0  0  0  0  0  0  0  0  0  0
    1.5326   -2.9039   -0.4507 C   0  0  0  0  0  0  0  0  0  0  0  0
    0.3064   -2.7271    0.4075 C   0  0  0  0  0  0  0  0  0  0  0  0
   -1.8012   -1.4318    0.3994 C   0  0  0  0  0  0  0  0  0  0  0  0
   -2.6111   -0.3285   -0.1937 C   0  0  0  0  0  0  0  0  0  0  0  0
   -3.9757   -0.2783    0.4582 C   0  0  0  0  0  0  0  0  0  0  0  0
   -4.7301   -1.5803    0.2604 C   0  0  0  0  0  0  0  0  0  0  0  0
   -6.1087   -1.1556    0.5472 N   0  0  0  0  0  0  0  0  0  0  0  0
   -6.2040   -0.0069   -0.3336 C   0  0  0  0  0  0  0  0  0  0  0  0
   -4.8946    0.6986   -0.2590 C   0  0  0  0  0  0  0  0  0  0  0  0
   -4.9167    2.0067    0.4769 C   0  0  0  0  0  0  0  0  0  0  0  0
   -3.7259    2.1149    1.2042 O   0  0  0  0  0  0  0  0  0  0  0  0
   -5.9988    2.0035    1.4099 N   0  0  0  0  0  0  0  0  0  0  0  0
   -7.2939    1.8295    0.8169 C   0  0  0  0  0  0  0  0  0  0  0  0
   -7.3666    0.7841   -0.1438 N   0  0  0  0  0  0  0  0  0  0  0  0
   -7.6767    3.0791    0.1837 N   0  0  0  0  0  0  0  0  0  0  0  0
    3.3063   -1.3833   -1.2622 C   0  0  0  0  0  0  0  0  0  0  0  0
    3.9012   -2.6145   -1.7142 O   0  0  0  0  0  0  0  0  0  0  0  0
    4.2606   -0.3873   -1.1486 N   0  0  0  0  0  0  0  0  0  0  0  0
    5.4840   -0.4698   -0.4741 C   0  0  1  0  0  0  0  0  0  0  0  0
    6.4227    0.6647   -0.7097 C   0  0  0  0  0  0  0  0  0  0  0  0
    6.1492    2.0321   -0.3571 C   0  0  0  0  0  0  0  0  0  0  0  0
    4.9731    2.7365   -0.9536 C   0  0  0  0  0  0  0  0  0  0  0  0
    3.7495    2.2037   -0.6732 O   0  0  0  0  0  0  0  0  0  0  0  0
    5.1148    2.8172   -2.3559 O   0  0  0  0  0  0  0  0  0  0  0  0
    5.4568   -0.9614    0.9139 C   0  0  0  0  0  0  0  0  0  0  0  0
    4.6698   -0.2729    1.8132 O   0  0  0  0  0  0  0  0  0  0  0  0
    6.8114   -0.9739    1.4368 O   0  0  0  0  0  0  0  0  0  0  0  0
   -0.4438   -1.5490   -0.1993 C   0  0  0  0  0  0  0  0  0  0  0  0
    0.4213   -0.3193   -0.0523 C   0  0  0  0  0  0  0  0  0  0  0  0
    1.7502   -0.6388    0.5867 C   0  0  0  0  0  0  0  0  0  0  0  0
    2.5057   -1.7609   -0.0731 C   0  0  0  0  0  0  0  0  0  0  0  0
    1.5326   -2.9039   -0.4507 C   0  0  0  0  0  0  0  0  0  0  0  0
    0.3064   -2.7271    0.4075 C   0  0  0  0  0  0  0  0  0  0  0  0
   -1.8012   -1.4318    0.3994 C   0  0  0  0  0  0  0  0  0  0  0  0
   -2.6111   -0.3285   -0.1937 C   0  0  0  0  0  0  0  0  0  0  0  0
   -3.9757   -0.2783    0.4582 C   0  0  0  0  0  0  0  0  0  0  0  0
   -4.7301   -1.5803    0.2604 C   0  0  0  0  0  0  0  0  0  0  0  0
   -6.1087   -1.1556    0.5472 N   0  0  0  0  0  0  0  0  0  0  0  0
   -6.2040   -0.0069   -0.3336 C   0  0  0  0  0  0  0  0  0  0  0  0
   -4.8946    0.6986   -0.2590 C   0  0  0  0  0  0  0  0  0  0  0  0
   -4.9167    2.0067    0.4769 C   0  0  0  0  0  0  0  0  0  0  0  0
   -3.7259    2.1149    1.2042 O   0  0  0  0  0  0  0  0  0  0  0  0
   -5.9988    2.0035    1.4099 N   0  0  0  0  0  0  0  0  0  0  0  0
   -7.2939    1.8295    0.8169 C   0  0  0  0  0  0  0  0  0  0  0  0
   -7.3666    0.7841   -0.1438 N   0  0  0  0  0  0  0  0  0  0  0  0
   -7.6767    3.0791    0.1837 N   0  0  0  0  0  0  0  0  0  0  0  0
    3.3063   -1.3833   -1.2622 C   0  0  0  0  0  0  0  0  0  0  0  0
    3.9012   -2.6145   -1.7142 O   0  0  0  0  0  0  0  0  0  0  0  0
    4.2606   -0.3873   -1.1486 N   0  0  0  0  0  0  0  0  0  0  0  0
    5.4840   -0.4698   -0.4741 C   0  0  1  0  0  0  0  0  0  0  0  0
    6.4227    0.6647   -0.7097 C   0  0  0  0  0  0  0  0  0  0  0  0
    6.1492    2.0321   -0.3571 C   0  0  0  0  0  0  0  0  0  0  0  0
    4.9731    2.7365   -0.9536 C   0  0  0  0  0  0  0  0  0  0  0  0
    3.7495    2.2037   -0.6732 O   0  0  0  0  0  0  0  0  0  0  0  0
    5.1148    2.8172   -2.3559 O   0  0  0  0  0  0  0  0  0  0  0  0
    5.4568   -0.9614    0.9139 C   0  0  0  0  0  0  0  0  0  0  0  0
    4.6698   -0.2729    1.8132 O   0  0  0  0  0  0  0  0  0  0  0  0
    6.8114   -0.9739    1.4368 O   0  0  0  0  0  0  0  0  0  0  0  0
   -0.4438   -1.5490   -0.1993 C   0  0  0  0  0  0  0  0  0  0  0  0
    0.4213   -0.3193   -0.0523 C   0  0  0  0  0  0  0  0  0  0  0  0
    1.7502   -0.6388    0.5867 C   0  0  0  0  0  0  0  0  0  0  0  0
    2.5057   -1.7609   -0.0731 C   0  0  0  0  0  0  0  0  0  0  0  0
    1.5326   -2.9039   -0.4507 C   0  0  0  0  0  0  0  0  0  0  0  0
    0.3064   -2.7271    0.4075 C   0  0  0  0  0  0  0  0  0  0  0  0
   -1.8012   -1.4318    0.3994 C   0  0  0  0  0  0  0  0  0  0  0  0
   -2.6111   -0.3285   -0.1937 C   0  0  0  0  0  0  0  0  0  0  0  0
   -3.9757   -0.2783    0.4582 C   0  0  0  0  0  0  0  0  0  0  0  0
   -4.7301   -1.5803    0.2604 C   0  0  0  0  0  0  0  0  0  0  0  0
   -6.1087   -1.1556    0.5472 N   0  0  0  0  0  0  0  0  0  0  0  0
   -6.2040   -0.0069   -0.3336 C   0  0  0  0  0  0  0  0  0  0  0  0
   -4.8946    0.6986   -0.2590 C   0  0  0  0  0  0  0  0  0  0  0  0
   -4.9167    2.0067    0.4769 C   0  0  0  0  0  0  0  0  0  0  0  0
   -3.7259    2.1149    1.2042 O   0  0  0  0  0  0  0  0  0  0  0  0
   -5.9988    2.0035    1.4099 N   0  0  0  0  0  0  0  0  0  0  0  0
   -7.2939    1.8295    0.8169 C   0  0  0  0  0  0  0  0  0  0  0  0
   -7.3666    0.7841   -0.1438 N   0  0  0  0  0  0  0  0  0  0  0  0
   -7.6767    3.0791    0.1837 N   0  0  0  0  0  0  0  0  0  0  0  0
    3.3063   -1.3833   -1.2622 C   0  0  0  0  0  0  0  0  0  0  0  0
    3.9012   -2.6145   -1.7142 O   0  0  0  0  0  0  0  0  0  0  0  0
    4.2606   -0.3873   -1.1486 N   0  0  0  0  0  0  0  0  0  0  0  0
    5.4840   -0.4698   -0.4741 C   0  0  1  0  0  0  0  0  0  0  0  0
    6.4227    0.6647   -0.7097 C   0  0  0  0  0  0  0  0  0  0  0  0
    6.1492    2.0321   -0.3571 C   0  0  0  0  0  0  0  0  0  0  0  0
    4.9731    2.7365   -0.9536 C   0  0  0  0  0  0  0  0  0  0  0  0
    3.7495    2.2037   -0.6732 O   0  0  0  0  0  0  0  0  0  0  0  0
    5.1148    2.8172   -2.3559 O   0  0  0  0  0  0  0  0  0  0  0  0
    5.4568   -0.9614    0.9139 C   0  0  0  0  0  0  0  0  0  0  0  0
    4.6698   -0.2729    1.8132 O   0  0  0  0  0  0  0  0  0  0  0  0
    6.8114   -0.9739    1.4368 O   0  0  0  0  0  0  0  0  0  0  0  0
   -0.5429   -1.7599   -1.2804 H   0  0  0  0  0  0  0  0  0  0  0  0
   -0.1120    0.3585    0.6456 H   0  0  0  0  0  0  0  0  0  0  0  0
    0.5376    0.2259   -1.0022 H   0  0  0  0  0  0  0  0  0  0  0  0
    1.5714   -0.8377    1.6581 H   0  0  0  0  0  0  0  0  0  0  0  0
    2.3531    0.2781    0.5290 H   0  0  0  0  0  0  0  0  0  0  0  0
    3.1274   -2.2156    0.7036 H   0  0  0  0  0  0  0  0  0  0  0  0
    1.2343   -2.8235   -1.5151 H   0  0  0  0  0  0  0  0  0  0  0  0
    1.9729   -3.8894   -0.2140 H   0  0  0  0  0  0  0  0  0  0  0  0
    0.5189   -2.5735    1.4711 H   0  0  0  0  0  0  0  0  0  0  0  0
   -0.3416   -3.6099    0.2438 H   0  0  0  0  0  0  0  0  0  0  0  0
   -1.7395   -1.3027    1.4899 H   0  0  0  0  0  0  0  0  0  0  0  0
   -2.3185   -2.4132    0.1875 H   0  0  0  0  0  0  0  0  0  0  0  0
   -2.0971    0.6395    0.0541 H   0  0  0  0  0  0  0  0  0  0  0  0
   -2.6921   -0.3594   -1.2780 H   0  0  0  0  0  0  0  0  0  0  0  0
   -3.9268   -0.0822    1.5466 H   0  0  0  0  0  0  0  0  0  0  0  0
   -4.4082   -2.3484    0.9620 H   0  0  0  0  0  0  0  0  0  0  0  0
   -4.7318   -1.8775   -0.8017 H   0  0  0  0  0  0  0  0  0  0  0  0
   -6.1119   -0.8962    1.5472 H   0  0  0  0  0  0  0  0  0  0  0  0
   -6.2837   -0.4452   -1.3738 H   0  0  0  0  0  0  0  0  0  0  0  0
   -4.4346    0.8364   -1.2739 H   0  0  0  0  0  0  0  0  0  0  0  0
   -4.9848    2.8810   -0.2031 H   0  0  0  0  0  0  0  0  0  0  0  0
   -3.1588    2.8505    0.8559 H   0  0  0  0  0  0  0  0  0  0  0  0
   -5.8288    1.3879    2.2263 H   0  0  0  0  0  0  0  0  0  0  0  0
   -8.0119    1.6586    1.6631 H   0  0  0  0  0  0  0  0  0  0  0  0
   -7.9677    0.9473   -0.9551 H   0  0  0  0  0  0  0  0  0  0  0  0
   -8.1448    2.8840   -0.7281 H   0  0  0  0  0  0  0  0  0  0  0  0
   -6.8873    3.7238    0.0765 H   0  0  0  0  0  0  0  0  0  0  0  0
    2.5821   -1.1816   -2.1331 H   0  0  0  0  0  0  0  0  0  0  0  0
    3.1856   -3.2457   -1.9583 H   0  0  0  0  0  0  0  0  0  0  0  0
    4.3972    0.1249   -2.1062 H   0  0  0  0  0  0  0  0  0  0  0  0
    6.0351   -1.3557   -1.0352 H   0  0  0  0  0  0  0  0  0  0  0  0
    7.4487    0.3826   -0.3062 H   0  0  0  0  0  0  0  0  0  0  0  0
    6.6324    0.6318   -1.8355 H   0  0  0  0  0  0  0  0  0  0  0  0
    6.0797    2.2476    0.7474 H   0  0  0  0  0  0  0  0  0  0  0  0
    7.0384    2.7106   -0.6370 H   0  0  0  0  0  0  0  0  0  0  0  0
    5.0222    3.8039   -0.5688 H   0  0  0  0  0  0  0  0  0  0  0  0
    3.0645    2.8557   -0.3664 H   0  0  0  0  0  0  0  0  0  0  0  0
    5.8160    3.4932   -2.5792 H   0  0  0  0  0  0  0  0  0  0  0  0
    5.2203   -2.0243    0.9467 H   0  0  0  0  0  0  0  0  0  0  0  0
    4.4928    0.6442    1.5335 H   0  0  0  0  0  0  0  0  0  0  0  0
    7.3264   -1.5516    0.8170 H   0  0  0  0  0  0  0  0  0  0  0  0
   -0.5429   -1.7599   -1.2804 H   0  0  0  0  0  0  0  0  0  0  0  0
   -0.1120    0.3585    0.6456 H   0  0  0  0  0  0  0  0  0  0  0  0
    0.5376    0.2259   -1.0022 H   0  0  0  0  0  0  0  0  0  0  0  0
    1.5714   -0.8377    1.6581 H   0  0  0  0  0  0  0  0  0  0  0  0
    2.3531    0.2781    0.5290 H   0  0  0  0  0  0  0  0  0  0  0  0
    3.1274   -2.2156    0.7036 H   0  0  0  0  0  0  0  0  0  0  0  0
    1.2343   -2.8235   -1.5151 H   0  0  0  0  0  0  0  0  0  0  0  0
    1.9729   -3.8894   -0.2140 H   0  0  0  0  0  0  0  0  0  0  0  0
    0.5189   -2.5735    1.4711 H   0  0  0  0  0  0  0  0  0  0  0  0
   -0.3416   -3.6099    0.2438 H   0  0  0  0  0  0  0  0  0  0  0  0
   -1.7395   -1.3027    1.4899 H   0  0  0  0  0  0  0  0  0  0  0  0
   -2.3185   -2.4132    0.1875 H   0  0  0  0  0  0  0  0  0  0  0  0
   -2.0971    0.6395    0.0541 H   0  0  0  0  0  0  0  0  0  0  0  0
   -2.6921   -0.3594   -1.2780 H   0  0  0  0  0  0  0  0  0  0  0  0
   -3.9268   -0.0822    1.5466 H   0  0  0  0  0  0  0  0  0  0  0  0
   -4.4082   -2.3484    0.9620 H   0  0  0  0  0  0  0  0  0  0  0  0
   -4.7318   -1.8775   -0.8017 H   0  0  0  0  0  0  0  0  0  0  0  0
   -6.1119   -0.8962    1.5472 H   0  0  0  0  0  0  0  0  0  0  0  0
   -6.2837   -0.4452   -1.3738 H   0  0  0  0  0  0  0  0  0  0  0  0
   -4.4346    0.8364   -1.2739 H   0  0  0  0  0  0  0  0  0  0  0  0
   -4.9848    2.8810   -0.2031 H   0  0  0  0  0  0  0  0  0  0  0  0
   -3.1588    2.8505    0.8559 H   0  0  0  0  0  0  0  0  0  0  0  0
   -5.8288    1.3879    2.2263 H   0  0  0  0  0  0  0  0  0  0  0  0
   -8.0119    1.6586    1.6631 H   0  0  0  0  0  0  0  0  0  0  0  0
   -7.9677    0.9473   -0.9551 H   0  0  0  0  0  0  0  0  0  0  0  0
   -8.1448    2.8840   -0.7281 H   0  0  0  0  0  0  0  0  0  0  0  0
   -6.8873    3.7238    0.0765 H   0  0  0  0  0  0  0  0  0  0  0  0
    2.5821   -1.1816   -2.1331 H   0  0  0  0  0  0  0  0  0  0  0  0
    3.1856   -3.2457   -1.9583 H   0  0  0  0  0  0  0  0  0  0  0  0
    4.3972    0.1249   -2.1062 H   0  0  0  0  0  0  0  0  0  0  0  0
    6.0351   -1.3557   -1.0352 H   0  0  0  0  0  0  0  0  0  0  0  0
    7.4487    0.3826   -0.3062 H   0  0  0  0  0  0  0  0  0  0  0  0
    6.6324    0.6318   -1.8355 H   0  0  0  0  0  0  0  0  0  0  0  0
    6.0797    2.2476    0.7474 H   0  0  0  0  0  0  0  0  0  0  0  0
    7.0384    2.7106   -0.6370 H   0  0  0  0  0  0  0  0  0  0  0  0
    5.0222    3.8039   -0.5688 H   0  0  0  0  0  0  0  0  0  0  0  0
    3.0645    2.8557   -0.3664 H   0  0  0  0  0  0  0  0  0  0  0  0
    5.8160    3.4932   -2.5792 H   0  0  0  0  0  0  0  0  0  0  0  0
    5.2203   -2.0243    0.9467 H   0  0  0  0  0  0  0  0  0  0  0  0
    4.4928    0.6442    1.5335 H   0  0  0  0  0  0  0  0  0  0  0  0
    7.3264   -1.5516    0.8170 H   0  0  0  0  0  0  0  0  0  0  0  0
   -0.5429   -1.7599   -1.2804 H   0  0  0  0  0  0  0  0  0  0  0  0
   -0.1120    0.3585    0.6456 H   0  0  0  0  0  0  0  0  0  0  0  0
    0.5376    0.2259   -1.0022 H   0  0  0  0  0  0  0  0  0  0  0  0
    1.5714   -0.8377    1.6581 H   0  0  0  0  0  0  0  0  0  0  0  0
    2.3531    0.2781    0.5290 H   0  0  0  0  0  0  0  0  0  0  0  0
    3.1274   -2.2156    0.7036 H   0  0  0  0  0  0  0  0  0  0  0  0
    1.2343   -2.8235   -1.5151 H   0  0  0  0  0  0  0  0  0  0  0  0
    1.9729   -3.8894   -0.2140 H   0  0  0  0  0  0  0  0  0  0  0  0
    0.5189   -2.5735    1.4711 H   0  0  0  0  0  0  0  0  0  0  0  0
   -0.3416   -3.6099    0.2438 H   0  0  0  0  0  0  0  0  0  0  0  0
   -1.7395   -1.3027    1.4899 H   0  0  0  0  0  0  0  0  0  0  0  0
   -2.3185   -2.4132    0.1875 H   0  0  0  0  0  0  0  0  0  0  0  0
   -2.0971    0.6395    0.0541 H   0  0  0  0  0  0  0  0  0  0  0  0
   -2.6921   -0.3594   -1.2780 H   0  0  0  0  0  0  0  0  0  0  0  0
   -3.9268   -0.0822    1.5466 H   0  0  0  0  0  0  0  0  0  0  0  0
   -4.4082   -2.3484    0.9620 H   0  0  0  0  0  0  0  0  0  0  0  0
   -4.7318   -1.8775   -0.8017 H   0  0  0  0  0  0  0  0  0  0  0  0
   -6.1119   -0.8962    1.5472 H   0  0  0  0  0  0  0  0  0  0  0  0
   -6.2837   -0.4452   -1.3738 H   0  0  0  0  0  0  0  0  0  0  0  0
   -4.4346    0.8364   -1.2739 H   0  0  0  0  0  0  0  0  0  0  0  0
   -4.9848    2.8810   -0.2031 H   0  0  0  0  0  0  0  0  0  0  0  0
   -3.1588    2.8505    0.8559 H   0  0  0  0  0  0  0  0  0  0  0  0
   -5.8288    1.3879    2.2263 H   0  0  0  0  0  0  0  0  0  0  0  0
   -8.0119    1.6586    1.6631 H   0  0  0  0  0  0  0  0  0  0  0  0
   -7.9677    0.9473   -0.9551 H   0  0  0  0  0  0  0  0  0  0  0  0
   -8.1448    2.8840   -0.7281 H   0  0  0  0  0  0  0  0  0  0  0  0
   -6.8873    3.7238    0.0765 H   0  0  0  0  0  0  0  0  0  0  0  0
    2.5821   -1.1816   -2.1331 H   0  0  0  0  0  0  0  0  0  0  0  0
    3.1856   -3.2457   -1.9583 H   0  0  0  0  0  0  0  0  0  0  0  0
    4.3972    0.1249   -2.1062 H   0  0  0  0  0  0  0  0  0  0  0  0
    6.0351   -1.3557   -1.0352 H   0  0  0  0  0  0  0  0  0  0  0  0
    7.4487    0.3826   -0.3062 H   0  0  0  0  0  0  0  0  0  0  0  0
    6.6324    0.6318   -1.8355 H   0  0  0  0  0  0  0  0  0  0  0  0
    6.0797    2.2476    0.7474 H   0  0  0  0  0  0  0  0  0  0  0  0
    7.0384    2.7106   -0.6370 H   0  0  0  0  0  0  0  0  0  0  0  0
    5.0222    3.8039   -0.5688 H   0  0  0  0  0  0  0  0  0  0  0  0
    3.0645    2.8557   -0.3664 H   0  0  0  0  0  0  0  0  0  0  0  0
    5.8160    3.4932   -2.5792 H   0  0  0  0  0  0  0  0  0  0  0  0
    5.2203   -2.0243    0.9467 H   0  0  0  0  0  0  0  0  0  0  0  0
    4.4928    0.6442    1.5335 H   0  0  0  0  0  0  0  0  0  0  0  0
    7.3264   -1.5516    0.8170 H   0  0  0  0  0  0  0  0  0  0  0  0
   -0.5429   -1.7599   -1.2804 H   0  0  0  0  0  0  0  0  0  0  0  0
   -0.1120    0.3585    0.6456 H   0  0  0  0  0  0  0  0  0  0  0  0
    0.5376    0.2259   -1.0022 H   0  0  0  0  0  0  0  0  0  0  0  0
    1.5714   -0.8377    1.6581 H   0  0  0  0  0  0  0  0  0  0  0  0
    2.3531    0.2781    0.5290 H   0  0  0  0  0  0  0  0  0  0  0  0
    3.1274   -2.2156    0.7036 H   0  0  0  0  0  0  0  0  0  0  0  0
    1.2343   -2.8235   -1.5151 H   0  0  0  0  0  0  0  0  0  0  0  0
    1.9729   -3.8894   -0.2140 H   0  0  0  0  0  0  0  0  0  0  0  0
    0.5189   -2.5735    1.4711 H   0  0  0  0  0  0  0  0  0  0  0  0
   -0.3416   -3.6099    0.2438 H   0  0  0  0  0  0  0  0  0  0  0  0
   -1.7395   -1.3027    1.4899 H   0  0  0  0  0  0  0  0  0  0  0  0
   -2.3185   -2.4132    0.1875 H   0  0  0  0  0  0  0  0  0  0  0  0
   -2.0971    0.6395    0.0541 H   0  0  0  0  0  0  0  0  0  0  0  0
   -2.6921   -0.3594   -1.2780 H   0  0  0  0  0  0  0  0  0  0  0  0
   -3.9268   -0.0822    1.5466 H   0  0  0  0  0  0  0  0  0  0  0  0
   -4.4082   -2.3484    0.9620 H   0  0  0  0  0  0  0  0  0  0  0  0
   -4.7318   -1.8775   -0.8017 H   0  0  0  0  0  0  0  0  0  0  0  0
   -6.1119   -0.8962    1.5472 H   0  0  0  0  0  0  0  0  0  0  0  0
   -6.2837   -0.4452   -1.3738 H   0  0  0  0  0  0  0  0  0  0  0  0
   -4.4346    0.8364   -1.2739 H   0  0  0  0  0  0  0  0  0  0  0  0
   -4.9848    2.8810   -0.2031 H   0  0  0  0  0  0  0  0  0  0  0  0
   -3.1588    2.8505    0.8559 H   0  0  0  0  0  0  0  0  0  0  0  0
   -5.8288    1.3879    2.2263 H   0  0  0  0  0  0  0  0  0  0  0  0
   -8.0119    1.6586    1.6631 H   0  0  0  0  0  0  0  0  0  0  0  0
   -7.9677    0.9473   -0.9551 H   0  0  0  0  0  0  0  0  0  0  0  0
   -8.1448    2.8840   -0.7281 H   0  0  0  0  0  0  0  0  0  0  0  0
   -6.8873    3.7238    0.0765 H   0  0  0  0  0  0  0  0  0  0  0  0
    2.5821   -1.1816   -2.1331 H   0  0  0  0  0  0  0  0  0  0  0  0
    3.1856   -3.2457   -1.9583 H   0  0  0  0  0  0  0  0  0  0  0  0
    4.3972    0.1249   -2.1062 H   0  0  0  0  0  0  0  0  0  0  0  0
    6.0351   -1.3557   -1.0352 H   0  0  0  0  0  0  0  0  0  0  0  0
    7.4487    0.3826   -0.3062 H   0  0  0  0  0  0  0  0  0  0  0  0
    6.6324    0.6318   -1.8355 H   0  0  0  0  0  0  0  0  0  0  0  0
    6.0797    2.2476    0.7474 H   0  0  0  0  0  0  0  0  0  0  0  0
    7.0384    2.7106   -0.6370 H   0  0  0  0  0  0  0  0  0  0  0  0
    5.0222    3.8039   -0.5688 H   0  0  0  0  0  0  0  0  0  0  0  0
    3.0645    2.8557   -0.3664 H   0  0  0  0  0  0  0  0  0  0  0  0
    5.8160    3.4932   -2.5792 H   0  0  0  0  0  0  0  0  0  0  0  0
    5.2203   -2.0243    0.9467 H   0  0  0  0  0  0  0  0  0  0  0  0
    4.4928    0.6442    1.5335 H   0  0  0  0  0  0  0  0  0  0  0  0
    7.3264   -1.5516    0.8170 H   0  0  0  0  0  0  0  0  0  0  0  0
  1  2  1  0
  2  3  1  0
  3  4  1  0
  4  5  1  0
  1  6  1  0
  5  6  1  0
  1  7  1  0
  7  8  1  0
  8  9  1  0
  9 10  1  0
 10 11  1  0
 11 12  1  0
  9 13  1  0
 12 13  1  0
 13 14  1  0
 14 15  1  0
 14 16  1  0
 16 17  1  0
 12 18  1  0
 17 18  1  0
 17 19  1  0
  4 20  1  0
 20 21  1  0
 20 22  1  0
 22 23  1  0
 23 24  1  0
 24 25  1  0
 25 26  1  0
 26 27  1  0
 26 28  1  0
 23 29  1  0
 29 30  1  0
 29 31  1  0
 32 33  1  0
 33 34  1  0
 34 35  1  0
 35 36  1  0
 32 37  1  0
 36 37  1  0
 32 38  1  0
 38 39  1  0
 39 40  1  0
 40 41  1  0
 41 42  1  0
 42 43  1  0
 40 44  1  0
 43 44  1  0
 44 45  1  0
 45 46  1  0
 45 47  1  0
 47 48  1  0
 43 49  1  0
 48 49  1  0
 48 50  1  0
 35 51  1  0
 51 52  1  0
 51 53  1  0
 53 54  1  0
 54 55  1  0
 55 56  1  0
 56 57  1  0
 57 58  1  0
 57 59  1  0
 54 60  1  0
 60 61  1  0
 60 62  1  0
 63 64  1  0
 64 65  1  0
 65 66  1  0
 66 67  1  0
 63 68  1  0
 67 68  1  0
 63 69  1  0
 69 70  1  0
 70 71  1  0
 71 72  1  0
 72 73  1  0
 73 74  1  0
 71 75  1  0
 74 75  1  0
 75 76  1  0
 76 77  1  0
 76 78  1  0
 78 79  1  0
 74 80  1  0
 79 80  1  0
 79 81  1  0
 66 82  1  0
 82 83  1  0
 82 84  1  0
 84 85  1  0
 85 86  1  0
 86 87  1  0
 87 88  1  0
 88 89  1  0
 88 90  1  0
 85 91  1  0
 91 92  1  0
 91 93  1  0
 94 95  1  0
 95 96  1  0
 96 97  1  0
 97 98  1  0
 94 99  1  0
 98 99  1  0
 94100  1  0
100101  1  0
101102  1  0
102103  1  0
103104  1  0
104105  1  0
102106  1  0
105106  1  0
106107  1  0
107108  1  0
107109  1  0
109110  1  0
105111  1  0
110111  1  0
110112  1  0
 97113  1  0
113114  1  0
113115  1  0
115116  1  0
116117  1  0
117118  1  0
118119  1  0
119120  1  0
119121  1  0
116122  1  0
122123  1  0
122124  1  0
  1125  1  0
  2126  1  0
  2127  1  0
  3128  1  0
  3129  1  0
  4130  1  0
  5131  1  0
  5132  1  0
  6133  1  0
  6134  1  0
  7135  1  0
  7136  1  0
  8137  1  0
  8138  1  0
  9139  1  0
 10140  1  0
 10141  1  0
 11142  1  0
 12143  1  0
 13144  1  0
 14145  1  0
 15146  1  0
 16147  1  0
 17148  1  0
 18149  1  0
 19150  1  0
 19151  1  0
 20152  1  0
 21153  1  0
 22154  1  0
 23155  1  6
 24156  1  0
 24157  1  0
 25158  1  0
 25159  1  0
 26160  1  0
 27161  1  0
 28162  1  0
 29163  1  0
 30164  1  0
 31165  1  0
 32166  1  0
 33167  1  0
 33168  1  0
 34169  1  0
 34170  1  0
 35171  1  0
 36172  1  0
 36173  1  0
 37174  1  0
 37175  1  0
 38176  1  0
 38177  1  0
 39178  1  0
 39179  1  0
 40180  1  0
 41181  1  0
 41182  1  0
 42183  1  0
 43184  1  0
 44185  1  0
 45186  1  0
 46187  1  0
 47188  1  0
 48189  1  0
 49190  1  0
 50191  1  0
 50192  1  0
 51193  1  0
 52194  1  0
 53195  1  0
 54196  1  6
 55197  1  0
 55198  1  0
 56199  1  0
 56200  1  0
 57201  1  0
 58202  1  0
 59203  1  0
 60204  1  0
 61205  1  0
 62206  1  0
 63207  1  0
 64208  1  0
 64209  1  0
 65210  1  0
 65211  1  0
 66212  1  0
 67213  1  0
 67214  1  0
 68215  1  0
 68216  1  0
 69217  1  0
 69218  1  0
 70219  1  0
 70220  1  0
 71221  1  0
 72222  1  0
 72223  1  0
 73224  1  0
 74225  1  0
 75226  1  0
 76227  1  0
 77228  1  0
 78229  1  0
 79230  1  0
 80231  1  0
 81232  1  0
 81233  1  0
 82234  1  0
 83235  1  0
 84236  1  0
 85237  1  6
 86238  1  0
 86239  1  0
 87240  1  0
 87241  1  0
 88242  1  0
 89243  1  0
 90244  1  0
 91245  1  0
 92246  1  0
 93247  1  0
 94248  1  0
 95249  1  0
 95250  1  0
 96251  1  0
 96252  1  0
 97253  1  0
 98254  1  0
 98255  1  0
 99256  1  0
 99257  1  0
100258  1  0
100259  1  0
101260  1  0
101261  1  0
102262  1  0
103263  1  0
103264  1  0
104265  1  0
105266  1  0
106267  1  0
107268  1  0
108269  1  0
109270  1  0
110271  1  0
111272  1  0
112273  1  0
112274  1  0
113275  1  0
114276  1  0
115277  1  0
116278  1  6
117279  1  0
117280  1  0
118281  1  0
118282  1  0
119283  1  0
120284  1  0
121285  1  0
122286  1  0
123287  1  0
124288  1  0
M  END
>  <PDBID>  (1) 
1JU6

>  <PDB ID>  (1) 
1JU6

>  <Generic Name>  (1) 
Pemetrexed

>  <Brand Name>  (1) 
Act Pemetrexed#Alimta#Pemetrexed#Pemetrexed Disodium for Injection#Taro-pemetrexed

>  <DrugBank ID>  (1) 
DB00642

>  <ATC Codes>  (1) 
L01BA04

>  <Ligand ID>  (1) 
LYA

>  <Target Name>  (1) 
Thymidylate synthase

>  <UniProt ID>  (1) 
P04818

>  <PDB ID.1>  (1) 
1JU6

>  <Seq. Identity>  (1) 
100%

$$$$
