PDB_DB00655_07
     RDKit          3D

100106  0  0  0  0  0  0  0  0999 V2000
    0.2735    0.0118    1.1349 C   0  0  2  0  0  0  0  0  0  0  0  0
   -1.6962    1.5209    1.1678 C   0  0  0  0  0  0  0  0  0  0  0  0
   -2.3925    0.6685    0.1552 C   0  0  2  0  0  0  0  0  0  0  0  0
   -2.2231    1.1410   -1.2547 C   0  0  0  0  0  0  0  0  0  0  0  0
   -4.6628    1.4107   -0.1529 O   0  0  0  0  0  0  0  0  0  0  0  0
    4.7490    1.3145   -1.2954 O   0  0  0  0  0  0  0  0  0  0  0  0
   -3.8427    0.4427    0.4196 C   0  0  1  0  0  0  0  0  0  0  0  0
   -4.1347   -0.9357   -0.1820 C   0  0  0  0  0  0  0  0  0  0  0  0
   -2.7740   -1.5318   -0.5222 C   0  0  0  0  0  0  0  0  0  0  0  0
   -1.8682   -0.7609    0.3500 C   0  0  1  0  0  0  0  0  0  0  0  0
   -0.4282   -0.7927    0.0389 C   0  0  2  0  0  0  0  0  0  0  0  0
   -0.1970    1.4418    0.9442 C   0  0  0  0  0  0  0  0  0  0  0  0
    0.1330   -2.1883    0.1189 C   0  0  0  0  0  0  0  0  0  0  0  0
    1.5319   -2.0852   -0.4361 C   0  0  0  0  0  0  0  0  0  0  0  0
    2.3698   -1.0361    0.1824 C   0  0  0  0  0  0  0  0  0  0  0  0
    1.7293   -0.1548    1.1772 C   0  0  0  0  0  0  0  0  0  0  0  0
    3.0011   -0.2126   -0.9520 C   0  0  0  0  0  0  0  0  0  0  0  0
    4.2816    0.3771   -0.3916 C   0  0  0  0  0  0  0  0  0  0  0  0
    3.9442    0.9720    0.9547 C   0  0  0  0  0  0  0  0  0  0  0  0
    2.4423    1.2067    1.1059 C   0  0  0  0  0  0  0  0  0  0  0  0
    0.2735    0.0118    1.1349 C   0  0  2  0  0  0  0  0  0  0  0  0
   -1.6962    1.5209    1.1678 C   0  0  0  0  0  0  0  0  0  0  0  0
   -2.3925    0.6685    0.1552 C   0  0  2  0  0  0  0  0  0  0  0  0
   -2.2231    1.1410   -1.2547 C   0  0  0  0  0  0  0  0  0  0  0  0
   -4.6628    1.4107   -0.1529 O   0  0  0  0  0  0  0  0  0  0  0  0
    4.7490    1.3145   -1.2954 O   0  0  0  0  0  0  0  0  0  0  0  0
   -3.8427    0.4427    0.4196 C   0  0  1  0  0  0  0  0  0  0  0  0
   -4.1347   -0.9357   -0.1820 C   0  0  0  0  0  0  0  0  0  0  0  0
   -2.7740   -1.5318   -0.5222 C   0  0  0  0  0  0  0  0  0  0  0  0
   -1.8682   -0.7609    0.3500 C   0  0  1  0  0  0  0  0  0  0  0  0
   -0.4282   -0.7927    0.0389 C   0  0  2  0  0  0  0  0  0  0  0  0
   -0.1970    1.4418    0.9442 C   0  0  0  0  0  0  0  0  0  0  0  0
    0.1330   -2.1883    0.1189 C   0  0  0  0  0  0  0  0  0  0  0  0
    1.5319   -2.0852   -0.4361 C   0  0  0  0  0  0  0  0  0  0  0  0
    2.3698   -1.0361    0.1824 C   0  0  0  0  0  0  0  0  0  0  0  0
    1.7293   -0.1548    1.1772 C   0  0  0  0  0  0  0  0  0  0  0  0
    3.0011   -0.2126   -0.9520 C   0  0  0  0  0  0  0  0  0  0  0  0
    4.2816    0.3771   -0.3916 C   0  0  0  0  0  0  0  0  0  0  0  0
    3.9442    0.9720    0.9547 C   0  0  0  0  0  0  0  0  0  0  0  0
    2.4423    1.2067    1.1059 C   0  0  0  0  0  0  0  0  0  0  0  0
   -0.2269   -0.3279    2.0912 H   0  0  0  0  0  0  0  0  0  0  0  0
   -1.9355    1.1183    2.1708 H   0  0  0  0  0  0  0  0  0  0  0  0
   -1.9896    2.5811    1.0599 H   0  0  0  0  0  0  0  0  0  0  0  0
   -3.2133    1.4976   -1.6651 H   0  0  0  0  0  0  0  0  0  0  0  0
   -1.5906    2.0621   -1.2324 H   0  0  0  0  0  0  0  0  0  0  0  0
   -1.7749    0.4221   -1.9374 H   0  0  0  0  0  0  0  0  0  0  0  0
   -5.3994    0.9480   -0.6233 H   0  0  0  0  0  0  0  0  0  0  0  0
    4.4751    2.2148   -0.9886 H   0  0  0  0  0  0  0  0  0  0  0  0
   -4.0204    0.4323    1.5041 H   0  0  0  0  0  0  0  0  0  0  0  0
   -4.7994   -0.8819   -1.0460 H   0  0  0  0  0  0  0  0  0  0  0  0
   -4.5590   -1.5749    0.6286 H   0  0  0  0  0  0  0  0  0  0  0  0
   -2.5658   -1.4290   -1.6065 H   0  0  0  0  0  0  0  0  0  0  0  0
   -2.7739   -2.6348   -0.3158 H   0  0  0  0  0  0  0  0  0  0  0  0
   -2.0539   -1.0145    1.3978 H   0  0  0  0  0  0  0  0  0  0  0  0
   -0.1792   -0.3875   -0.9586 H   0  0  0  0  0  0  0  0  0  0  0  0
    0.2570    2.1199    1.7149 H   0  0  0  0  0  0  0  0  0  0  0  0
    0.0616    1.7505   -0.0775 H   0  0  0  0  0  0  0  0  0  0  0  0
   -0.4474   -2.8246   -0.6033 H   0  0  0  0  0  0  0  0  0  0  0  0
    0.0916   -2.6053    1.1289 H   0  0  0  0  0  0  0  0  0  0  0  0
    1.9723   -3.1193   -0.3499 H   0  0  0  0  0  0  0  0  0  0  0  0
    1.4136   -1.9364   -1.5436 H   0  0  0  0  0  0  0  0  0  0  0  0
    3.2629   -1.5598    0.6412 H   0  0  0  0  0  0  0  0  0  0  0  0
    2.0138   -0.5285    2.2079 H   0  0  0  0  0  0  0  0  0  0  0  0
    3.3106   -0.9669   -1.7103 H   0  0  0  0  0  0  0  0  0  0  0  0
    2.3169    0.5376   -1.3452 H   0  0  0  0  0  0  0  0  0  0  0  0
    5.0168   -0.4657   -0.3070 H   0  0  0  0  0  0  0  0  0  0  0  0
    4.2800    0.2961    1.7590 H   0  0  0  0  0  0  0  0  0  0  0  0
    4.4395    1.9566    1.0142 H   0  0  0  0  0  0  0  0  0  0  0  0
    2.3097    1.7056    2.0884 H   0  0  0  0  0  0  0  0  0  0  0  0
    2.0713    1.8048    0.2677 H   0  0  0  0  0  0  0  0  0  0  0  0
   -0.2269   -0.3279    2.0912 H   0  0  0  0  0  0  0  0  0  0  0  0
   -1.9355    1.1183    2.1708 H   0  0  0  0  0  0  0  0  0  0  0  0
   -1.9896    2.5811    1.0599 H   0  0  0  0  0  0  0  0  0  0  0  0
   -3.2133    1.4976   -1.6651 H   0  0  0  0  0  0  0  0  0  0  0  0
   -1.5906    2.0621   -1.2324 H   0  0  0  0  0  0  0  0  0  0  0  0
   -1.7749    0.4221   -1.9374 H   0  0  0  0  0  0  0  0  0  0  0  0
   -5.3994    0.9480   -0.6233 H   0  0  0  0  0  0  0  0  0  0  0  0
    4.4751    2.2148   -0.9886 H   0  0  0  0  0  0  0  0  0  0  0  0
   -4.0204    0.4323    1.5041 H   0  0  0  0  0  0  0  0  0  0  0  0
   -4.7994   -0.8819   -1.0460 H   0  0  0  0  0  0  0  0  0  0  0  0
   -4.5590   -1.5749    0.6286 H   0  0  0  0  0  0  0  0  0  0  0  0
   -2.5658   -1.4290   -1.6065 H   0  0  0  0  0  0  0  0  0  0  0  0
   -2.7739   -2.6348   -0.3158 H   0  0  0  0  0  0  0  0  0  0  0  0
   -2.0539   -1.0145    1.3978 H   0  0  0  0  0  0  0  0  0  0  0  0
   -0.1792   -0.3875   -0.9586 H   0  0  0  0  0  0  0  0  0  0  0  0
    0.2570    2.1199    1.7149 H   0  0  0  0  0  0  0  0  0  0  0  0
    0.0616    1.7505   -0.0775 H   0  0  0  0  0  0  0  0  0  0  0  0
   -0.4474   -2.8246   -0.6033 H   0  0  0  0  0  0  0  0  0  0  0  0
    0.0916   -2.6053    1.1289 H   0  0  0  0  0  0  0  0  0  0  0  0
    1.9723   -3.1193   -0.3499 H   0  0  0  0  0  0  0  0  0  0  0  0
    1.4136   -1.9364   -1.5436 H   0  0  0  0  0  0  0  0  0  0  0  0
    3.2629   -1.5598    0.6412 H   0  0  0  0  0  0  0  0  0  0  0  0
    2.0138   -0.5285    2.2079 H   0  0  0  0  0  0  0  0  0  0  0  0
    3.3106   -0.9669   -1.7103 H   0  0  0  0  0  0  0  0  0  0  0  0
    2.3169    0.5376   -1.3452 H   0  0  0  0  0  0  0  0  0  0  0  0
    5.0168   -0.4657   -0.3070 H   0  0  0  0  0  0  0  0  0  0  0  0
    4.2800    0.2961    1.7590 H   0  0  0  0  0  0  0  0  0  0  0  0
    4.4395    1.9566    1.0142 H   0  0  0  0  0  0  0  0  0  0  0  0
    2.3097    1.7056    2.0884 H   0  0  0  0  0  0  0  0  0  0  0  0
    2.0713    1.8048    0.2677 H   0  0  0  0  0  0  0  0  0  0  0  0
  2  3  1  0
  3  4  1  6
  3  7  1  0
  5  7  1  0
  7  8  1  0
  8  9  1  0
  3 10  1  0
  9 10  1  0
  1 11  1  0
 10 11  1  0
  1 12  1  0
  2 12  1  0
 11 13  1  0
 13 14  1  0
 14 15  1  0
  1 16  1  0
 15 16  1  0
 15 17  1  0
  6 18  1  0
 17 18  1  0
 18 19  1  0
 16 20  1  0
 19 20  1  0
 22 23  1  0
 23 24  1  6
 23 27  1  0
 25 27  1  0
 27 28  1  0
 28 29  1  0
 23 30  1  0
 29 30  1  0
 21 31  1  0
 30 31  1  0
 21 32  1  0
 22 32  1  0
 31 33  1  0
 33 34  1  0
 34 35  1  0
 21 36  1  0
 35 36  1  0
 35 37  1  0
 26 38  1  0
 37 38  1  0
 38 39  1  0
 36 40  1  0
 39 40  1  0
  1 41  1  1
  2 42  1  0
  2 43  1  0
  4 44  1  0
  4 45  1  0
  4 46  1  0
  5 47  1  0
  6 48  1  0
  7 49  1  1
  8 50  1  0
  8 51  1  0
  9 52  1  0
  9 53  1  0
 10 54  1  1
 11 55  1  6
 12 56  1  0
 12 57  1  0
 13 58  1  0
 13 59  1  0
 14 60  1  0
 14 61  1  0
 15 62  1  0
 16 63  1  0
 17 64  1  0
 17 65  1  0
 18 66  1  0
 19 67  1  0
 19 68  1  0
 20 69  1  0
 20 70  1  0
 21 71  1  1
 22 72  1  0
 22 73  1  0
 24 74  1  0
 24 75  1  0
 24 76  1  0
 25 77  1  0
 26 78  1  0
 27 79  1  1
 28 80  1  0
 28 81  1  0
 29 82  1  0
 29 83  1  0
 30 84  1  1
 31 85  1  6
 32 86  1  0
 32 87  1  0
 33 88  1  0
 33 89  1  0
 34 90  1  0
 34 91  1  0
 35 92  1  0
 36 93  1  0
 37 94  1  0
 37 95  1  0
 38 96  1  0
 39 97  1  0
 39 98  1  0
 40 99  1  0
 40100  1  0
M  END
>  <PDBID>  (1) 
3HM1

>  <PDB ID>  (1) 
3HM1

>  <Generic Name>  (1) 
Estrone

>  <Brand Name>  (1) 
Estragyn Vaginal Cream#Oestrilin Cones Vaginaux#Oestrilin Creme Vaginale 1mg#Estrone

>  <DrugBank ID>  (1) 
DB00655

>  <ATC Codes>  (1) 
G03CA07#G03CC04

>  <Ligand ID>  (1) 
J3Z

>  <Target Name>  (1) 
Estrogen receptor

>  <UniProt ID>  (1) 
P03372

>  <PDB ID.1>  (1) 
3HM1

>  <Seq. Identity>  (1) 
93%

$$$$
