PDB_DB00273_07
     RDKit          3D

 45 47  0  0  0  0  0  0  0  0999 V2000
    0.7995    3.7827   -0.4737 C   0  0  0  0  0  0  0  0  0  0  0  0
    0.3075    2.4064   -0.9047 C   0  0  0  0  0  0  0  0  0  0  0  0
   -0.2384    2.5270   -2.3115 C   0  0  0  0  0  0  0  0  0  0  0  0
    1.3154    1.4650   -0.9167 O   0  0  0  0  0  0  0  0  0  0  0  0
   -0.6466    2.0172    0.0141 O   0  0  0  0  0  0  0  0  0  0  0  0
   -0.4892    0.6661    0.2520 C   0  0  1  0  0  0  0  0  0  0  0  0
   -1.3857   -0.0589   -0.7425 C   0  0  2  0  0  0  0  0  0  0  0  0
   -2.7148    0.1490   -0.4328 O   0  0  0  0  0  0  0  0  0  0  0  0
   -3.2099   -1.0242    0.1162 C   0  0  0  0  0  0  0  0  0  0  0  0
   -4.0311   -1.7869   -0.8902 C   0  0  0  0  0  0  0  0  0  0  0  0
   -4.0573   -0.6344    1.3118 C   0  0  0  0  0  0  0  0  0  0  0  0
   -2.1140   -1.7989    0.4883 O   0  0  0  0  0  0  0  0  0  0  0  0
   -1.2230   -1.5432   -0.5475 C   0  0  2  0  0  0  0  0  0  0  0  0
    0.2136   -1.7624   -0.0945 C   0  0  0  0  0  0  0  0  0  0  0  0
    1.0771   -0.8217   -0.6350 O   0  0  0  0  0  0  0  0  0  0  0  0
    0.9568    0.4339   -0.0678 C   0  0  1  0  0  0  0  0  0  0  0  0
    1.8548    0.5103    1.1471 C   0  0  0  0  0  0  0  0  0  0  0  0
    2.1962   -0.7380    1.6331 O   0  0  0  0  0  0  0  0  0  0  0  0
    3.4205   -1.4985    1.0511 S   0  0  0  0  0  0  0  0  0  0  0  0
    3.4219   -2.2287   -0.2387 O   0  0  0  0  0  0  0  0  0  0  0  0
    3.8785   -2.6237    2.3049 O   0  0  0  0  0  0  0  0  0  0  0  0
    4.8349   -0.3942    1.1810 N   0  0  0  0  0  0  0  0  0  0  0  0
    0.4480    4.0386    0.5576 H   0  0  0  0  0  0  0  0  0  0  0  0
    0.3550    4.5634   -1.1393 H   0  0  0  0  0  0  0  0  0  0  0  0
    1.9076    3.8268   -0.4535 H   0  0  0  0  0  0  0  0  0  0  0  0
    0.2080    1.7584   -2.9921 H   0  0  0  0  0  0  0  0  0  0  0  0
   -1.3563    2.4912   -2.3270 H   0  0  0  0  0  0  0  0  0  0  0  0
    0.0209    3.5093   -2.7809 H   0  0  0  0  0  0  0  0  0  0  0  0
   -0.7708    0.3526    1.2673 H   0  0  0  0  0  0  0  0  0  0  0  0
   -1.1190    0.1672   -1.7839 H   0  0  0  0  0  0  0  0  0  0  0  0
   -5.0097   -2.0583   -0.4651 H   0  0  0  0  0  0  0  0  0  0  0  0
   -4.1129   -1.1764   -1.8085 H   0  0  0  0  0  0  0  0  0  0  0  0
   -3.5079   -2.7300   -1.1836 H   0  0  0  0  0  0  0  0  0  0  0  0
   -4.4020    0.4115    1.2028 H   0  0  0  0  0  0  0  0  0  0  0  0
   -3.4924   -0.6893    2.2660 H   0  0  0  0  0  0  0  0  0  0  0  0
   -4.9632   -1.2678    1.3568 H   0  0  0  0  0  0  0  0  0  0  0  0
   -1.4742   -2.1219   -1.4495 H   0  0  0  0  0  0  0  0  0  0  0  0
    0.5833   -2.7652   -0.4226 H   0  0  0  0  0  0  0  0  0  0  0  0
    0.1943   -1.7613    1.0058 H   0  0  0  0  0  0  0  0  0  0  0  0
    2.8162    1.0130    0.8715 H   0  0  0  0  0  0  0  0  0  0  0  0
    1.4142    1.1366    1.9578 H   0  0  0  0  0  0  0  0  0  0  0  0
    4.0141   -2.1645   -1.0175 H   0  0  0  0  0  0  0  0  0  0  0  0
    3.4469   -2.3382    3.1391 H   0  0  0  0  0  0  0  0  0  0  0  0
    5.6274   -0.9151    0.7389 H   0  0  0  0  0  0  0  0  0  0  0  0
    5.0056   -0.3249    2.2156 H   0  0  0  0  0  0  0  0  0  0  0  0
  2  1  1  0
  2  3  1  0
  2  4  1  0
  2  5  1  0
  5  6  1  0
  6  7  1  0
  7  8  1  0
  8  9  1  0
  9 10  1  0
  9 11  1  0
  9 12  1  0
  7 13  1  0
 12 13  1  0
 13 14  1  0
 14 15  1  0
  4 16  1  0
  6 16  1  0
 15 16  1  0
 16 17  1  1
 17 18  1  0
 19 18  1  0
 19 20  1  0
 19 21  1  0
 19 22  1  0
  1 23  1  0
  1 24  1  0
  1 25  1  0
  3 26  1  0
  3 27  1  0
  3 28  1  0
  6 29  1  1
  7 30  1  6
 10 31  1  0
 10 32  1  0
 10 33  1  0
 11 34  1  0
 11 35  1  0
 11 36  1  0
 13 37  1  6
 14 38  1  0
 14 39  1  0
 17 40  1  0
 17 41  1  0
 20 42  1  0
 21 43  1  0
 22 44  1  0
 22 45  1  0
M  END
>  <PDBID>  (1) 
3HKU

>  <PDB ID>  (1) 
3HKU

>  <Generic Name>  (1) 
Topiramate

>  <Brand Name>  (1) 
Abbott-topiramate#Accel-topiramate#Act Topiramate#Apo-topiramate#Auro-topiramate#Ava-topiramate#Dom-topiramate#Gd-topiramate#Ipg-topiramate#Jamp-topiramate#Mar-topiramate#Mint-topiramate#Mylan-topiramate#Nu-topiramate#PHL-topiramate#PMS-topiramate#Pro-topiramate#Q-topiramate#Qsymia#Qudexy XR#Ran-topiramate#Ratio-topiramate#Sandoz Topiramate#Sandoz Topiramate Tablets#Teva-topiramate#Topamax#Topamax 100mg#Topamax 200mg#Topamax 25mg#Topiramate#Topiramate Tablets#Topiramate Tablets USP#Trokendi XR#Van-topiramate#Zym-topiramate

>  <DrugBank ID>  (1) 
DB00273

>  <ATC Codes>  (1) 
N03AX11

>  <Ligand ID>  (1) 
TOR

>  <Target Name>  (1) 
Carbonic anhydrase 2

>  <UniProt ID>  (1) 
P00918

>  <PDB ID.1>  (1) 
3HKU

>  <Seq. Identity>  (1) 
100%

$$$$
