PDB_DB00421_04
     RDKit          3D

138146  0  0  0  0  0  0  0  0999 V2000
    3.4504    1.4066    0.4690 C   0  0  0  0  0  0  0  0  0  0  0  0
    1.7995   -1.8315   -0.1575 C   0  0  0  0  0  0  0  0  0  0  0  0
    2.2169   -0.4124   -0.3825 C   0  0  1  0  0  0  0  0  0  0  0  0
   -1.9569   -1.2000   -0.3781 C   0  0  1  0  0  0  0  0  0  0  0  0
    1.2548    0.4936    0.3828 C   0  0  1  0  0  0  0  0  0  0  0  0
   -2.3188   -2.6521   -0.1309 C   0  0  0  0  0  0  0  0  0  0  0  0
    0.3980   -2.0492   -0.6586 C   0  0  0  0  0  0  0  0  0  0  0  0
    1.9750    1.7802    0.3749 C   0  0  0  0  0  0  0  0  0  0  0  0
    3.5565   -0.0581    0.1655 C   0  0  2  0  0  0  0  0  0  0  0  0
    2.2360   -0.0615   -1.8644 C   0  0  0  0  0  0  0  0  0  0  0  0
   -2.2661   -0.8761   -1.8043 C   0  0  0  0  0  0  0  0  0  0  0  0
   -3.7552   -2.7604    0.2934 C   0  0  0  0  0  0  0  0  0  0  0  0
    3.9737   -0.8531    1.3651 C   0  0  0  0  0  0  0  0  0  0  0  0
    5.4898   -0.6996    1.3108 C   0  0  0  0  0  0  0  0  0  0  0  0
    5.7244   -0.5328   -0.1612 C   0  0  0  0  0  0  0  0  0  0  0  0
   -1.7547    4.2346    0.6326 C   0  0  0  0  0  0  0  0  0  0  0  0
   -2.4731    4.6078   -0.6347 C   0  0  0  0  0  0  0  0  0  0  0  0
   -4.6275   -1.6501   -0.2162 C   0  0  0  0  0  0  0  0  0  0  0  0
   -4.1771   -0.2811    0.2293 C   0  0  0  0  0  0  0  0  0  0  0  0
   -2.7315   -0.3936    0.6264 C   0  0  2  0  0  0  0  0  0  0  0  0
   -2.0969    0.9194    0.9747 C   0  0  0  0  0  0  0  0  0  0  0  0
   -1.0823    1.3874   -0.0478 C   0  0  2  0  0  0  0  0  0  0  0  0
   -0.0276    0.3996   -0.3531 C   0  0  2  0  0  0  0  0  0  0  0  0
   -0.5084   -1.0196   -0.0553 C   0  0  1  0  0  0  0  0  0  0  0  0
    6.3032   -1.6946   -0.6894 O   0  0  0  0  0  0  0  0  0  0  0  0
    4.5099   -0.3656   -0.7840 O   0  0  0  0  0  0  0  0  0  0  0  0
   -2.7039    3.9154    1.5860 O   0  0  0  0  0  0  0  0  0  0  0  0
   -5.8982   -1.8432    0.3503 O   0  0  0  0  0  0  0  0  0  0  0  0
   -0.4748    3.0129    0.4181 S   0  0  0  0  0  0  0  0  0  0  0  0
    3.4504    1.4066    0.4690 C   0  0  0  0  0  0  0  0  0  0  0  0
    1.7995   -1.8315   -0.1575 C   0  0  0  0  0  0  0  0  0  0  0  0
    2.2169   -0.4124   -0.3825 C   0  0  1  0  0  0  0  0  0  0  0  0
   -1.9569   -1.2000   -0.3781 C   0  0  1  0  0  0  0  0  0  0  0  0
    1.2548    0.4936    0.3828 C   0  0  1  0  0  0  0  0  0  0  0  0
   -2.3188   -2.6521   -0.1309 C   0  0  0  0  0  0  0  0  0  0  0  0
    0.3980   -2.0492   -0.6586 C   0  0  0  0  0  0  0  0  0  0  0  0
    1.9750    1.7802    0.3749 C   0  0  0  0  0  0  0  0  0  0  0  0
    3.5565   -0.0581    0.1655 C   0  0  2  0  0  0  0  0  0  0  0  0
    2.2360   -0.0615   -1.8644 C   0  0  0  0  0  0  0  0  0  0  0  0
   -2.2661   -0.8761   -1.8043 C   0  0  0  0  0  0  0  0  0  0  0  0
   -3.7552   -2.7604    0.2934 C   0  0  0  0  0  0  0  0  0  0  0  0
    3.9737   -0.8531    1.3651 C   0  0  0  0  0  0  0  0  0  0  0  0
    5.4898   -0.6996    1.3108 C   0  0  0  0  0  0  0  0  0  0  0  0
    5.7244   -0.5328   -0.1612 C   0  0  0  0  0  0  0  0  0  0  0  0
   -1.7547    4.2346    0.6326 C   0  0  0  0  0  0  0  0  0  0  0  0
   -2.4731    4.6078   -0.6347 C   0  0  0  0  0  0  0  0  0  0  0  0
   -4.6275   -1.6501   -0.2162 C   0  0  0  0  0  0  0  0  0  0  0  0
   -4.1771   -0.2811    0.2293 C   0  0  0  0  0  0  0  0  0  0  0  0
   -2.7315   -0.3936    0.6264 C   0  0  2  0  0  0  0  0  0  0  0  0
   -2.0969    0.9194    0.9747 C   0  0  0  0  0  0  0  0  0  0  0  0
   -1.0823    1.3874   -0.0478 C   0  0  2  0  0  0  0  0  0  0  0  0
   -0.0276    0.3996   -0.3531 C   0  0  2  0  0  0  0  0  0  0  0  0
   -0.5084   -1.0196   -0.0553 C   0  0  1  0  0  0  0  0  0  0  0  0
    6.3032   -1.6946   -0.6894 O   0  0  0  0  0  0  0  0  0  0  0  0
    4.5099   -0.3656   -0.7840 O   0  0  0  0  0  0  0  0  0  0  0  0
   -2.7039    3.9154    1.5860 O   0  0  0  0  0  0  0  0  0  0  0  0
   -5.8982   -1.8432    0.3503 O   0  0  0  0  0  0  0  0  0  0  0  0
   -0.4748    3.0129    0.4181 S   0  0  0  0  0  0  0  0  0  0  0  0
    4.0287    1.9559   -0.3134 H   0  0  0  0  0  0  0  0  0  0  0  0
    3.8686    1.5714    1.4723 H   0  0  0  0  0  0  0  0  0  0  0  0
    2.4921   -2.4937   -0.6930 H   0  0  0  0  0  0  0  0  0  0  0  0
    1.7731   -1.9995    0.9417 H   0  0  0  0  0  0  0  0  0  0  0  0
    1.1337    0.0741    1.3906 H   0  0  0  0  0  0  0  0  0  0  0  0
   -2.0501   -3.3138   -0.9669 H   0  0  0  0  0  0  0  0  0  0  0  0
   -1.7011   -2.9688    0.7473 H   0  0  0  0  0  0  0  0  0  0  0  0
    0.3189   -2.1444   -1.7503 H   0  0  0  0  0  0  0  0  0  0  0  0
    0.0766   -3.0390   -0.2451 H   0  0  0  0  0  0  0  0  0  0  0  0
    1.7659    2.3283    1.3286 H   0  0  0  0  0  0  0  0  0  0  0  0
    1.8120    2.3890   -0.5230 H   0  0  0  0  0  0  0  0  0  0  0  0
    1.5750   -0.7116   -2.4604 H   0  0  0  0  0  0  0  0  0  0  0  0
    2.0578    1.0225   -2.0374 H   0  0  0  0  0  0  0  0  0  0  0  0
    3.2697   -0.2511   -2.2507 H   0  0  0  0  0  0  0  0  0  0  0  0
   -3.0783   -0.1545   -1.9528 H   0  0  0  0  0  0  0  0  0  0  0  0
   -1.3821   -0.4768   -2.3636 H   0  0  0  0  0  0  0  0  0  0  0  0
   -2.5590   -1.7961   -2.3716 H   0  0  0  0  0  0  0  0  0  0  0  0
   -3.8806   -2.8247    1.4025 H   0  0  0  0  0  0  0  0  0  0  0  0
   -4.1576   -3.7063   -0.1151 H   0  0  0  0  0  0  0  0  0  0  0  0
    3.6014   -0.4141    2.3054 H   0  0  0  0  0  0  0  0  0  0  0  0
    3.7801   -1.9291    1.2545 H   0  0  0  0  0  0  0  0  0  0  0  0
    5.8380    0.1653    1.9114 H   0  0  0  0  0  0  0  0  0  0  0  0
    6.0018   -1.6240    1.6593 H   0  0  0  0  0  0  0  0  0  0  0  0
    6.4341    0.2904   -0.3768 H   0  0  0  0  0  0  0  0  0  0  0  0
   -1.2572    5.1689    0.9995 H   0  0  0  0  0  0  0  0  0  0  0  0
   -3.0741    5.5233   -0.4022 H   0  0  0  0  0  0  0  0  0  0  0  0
   -3.2289    3.8388   -0.9331 H   0  0  0  0  0  0  0  0  0  0  0  0
   -1.8061    4.8820   -1.4639 H   0  0  0  0  0  0  0  0  0  0  0  0
   -4.7795   -1.7227   -1.3126 H   0  0  0  0  0  0  0  0  0  0  0  0
   -4.7278    0.0495    1.1468 H   0  0  0  0  0  0  0  0  0  0  0  0
   -4.3670    0.5056   -0.5232 H   0  0  0  0  0  0  0  0  0  0  0  0
   -2.7244   -0.9925    1.5743 H   0  0  0  0  0  0  0  0  0  0  0  0
   -2.9192    1.6673    1.0159 H   0  0  0  0  0  0  0  0  0  0  0  0
   -1.5908    0.9160    1.9666 H   0  0  0  0  0  0  0  0  0  0  0  0
   -1.6792    1.5422   -0.9847 H   0  0  0  0  0  0  0  0  0  0  0  0
    0.2070    0.4086   -1.4477 H   0  0  0  0  0  0  0  0  0  0  0  0
   -0.4106   -1.1224    1.0561 H   0  0  0  0  0  0  0  0  0  0  0  0
    5.8120   -2.4887   -0.3712 H   0  0  0  0  0  0  0  0  0  0  0  0
   -2.3408    3.7372    2.4786 H   0  0  0  0  0  0  0  0  0  0  0  0
   -6.1672   -2.7853    0.3465 H   0  0  0  0  0  0  0  0  0  0  0  0
    4.0287    1.9559   -0.3134 H   0  0  0  0  0  0  0  0  0  0  0  0
    3.8686    1.5714    1.4723 H   0  0  0  0  0  0  0  0  0  0  0  0
    2.4921   -2.4937   -0.6930 H   0  0  0  0  0  0  0  0  0  0  0  0
    1.7731   -1.9995    0.9417 H   0  0  0  0  0  0  0  0  0  0  0  0
    1.1337    0.0741    1.3906 H   0  0  0  0  0  0  0  0  0  0  0  0
   -2.0501   -3.3138   -0.9669 H   0  0  0  0  0  0  0  0  0  0  0  0
   -1.7011   -2.9688    0.7473 H   0  0  0  0  0  0  0  0  0  0  0  0
    0.3189   -2.1444   -1.7503 H   0  0  0  0  0  0  0  0  0  0  0  0
    0.0766   -3.0390   -0.2451 H   0  0  0  0  0  0  0  0  0  0  0  0
    1.7659    2.3283    1.3286 H   0  0  0  0  0  0  0  0  0  0  0  0
    1.8120    2.3890   -0.5230 H   0  0  0  0  0  0  0  0  0  0  0  0
    1.5750   -0.7116   -2.4604 H   0  0  0  0  0  0  0  0  0  0  0  0
    2.0578    1.0225   -2.0374 H   0  0  0  0  0  0  0  0  0  0  0  0
    3.2697   -0.2511   -2.2507 H   0  0  0  0  0  0  0  0  0  0  0  0
   -3.0783   -0.1545   -1.9528 H   0  0  0  0  0  0  0  0  0  0  0  0
   -1.3821   -0.4768   -2.3636 H   0  0  0  0  0  0  0  0  0  0  0  0
   -2.5590   -1.7961   -2.3716 H   0  0  0  0  0  0  0  0  0  0  0  0
   -3.8806   -2.8247    1.4025 H   0  0  0  0  0  0  0  0  0  0  0  0
   -4.1576   -3.7063   -0.1151 H   0  0  0  0  0  0  0  0  0  0  0  0
    3.6014   -0.4141    2.3054 H   0  0  0  0  0  0  0  0  0  0  0  0
    3.7801   -1.9291    1.2545 H   0  0  0  0  0  0  0  0  0  0  0  0
    5.8380    0.1653    1.9114 H   0  0  0  0  0  0  0  0  0  0  0  0
    6.0018   -1.6240    1.6593 H   0  0  0  0  0  0  0  0  0  0  0  0
    6.4341    0.2904   -0.3768 H   0  0  0  0  0  0  0  0  0  0  0  0
   -1.2572    5.1689    0.9995 H   0  0  0  0  0  0  0  0  0  0  0  0
   -3.0741    5.5233   -0.4022 H   0  0  0  0  0  0  0  0  0  0  0  0
   -3.2289    3.8388   -0.9331 H   0  0  0  0  0  0  0  0  0  0  0  0
   -1.8061    4.8820   -1.4639 H   0  0  0  0  0  0  0  0  0  0  0  0
   -4.7795   -1.7227   -1.3126 H   0  0  0  0  0  0  0  0  0  0  0  0
   -4.7278    0.0495    1.1468 H   0  0  0  0  0  0  0  0  0  0  0  0
   -4.3670    0.5056   -0.5232 H   0  0  0  0  0  0  0  0  0  0  0  0
   -2.7244   -0.9925    1.5743 H   0  0  0  0  0  0  0  0  0  0  0  0
   -2.9192    1.6673    1.0159 H   0  0  0  0  0  0  0  0  0  0  0  0
   -1.5908    0.9160    1.9666 H   0  0  0  0  0  0  0  0  0  0  0  0
   -1.6792    1.5422   -0.9847 H   0  0  0  0  0  0  0  0  0  0  0  0
    0.2070    0.4086   -1.4477 H   0  0  0  0  0  0  0  0  0  0  0  0
   -0.4106   -1.1224    1.0561 H   0  0  0  0  0  0  0  0  0  0  0  0
    5.8120   -2.4887   -0.3712 H   0  0  0  0  0  0  0  0  0  0  0  0
   -2.3408    3.7372    2.4786 H   0  0  0  0  0  0  0  0  0  0  0  0
   -6.1672   -2.7853    0.3465 H   0  0  0  0  0  0  0  0  0  0  0  0
  2  3  1  0
  3  5  1  0
  4  6  1  0
  2  7  1  0
  1  8  1  0
  5  8  1  0
  1  9  1  0
  3  9  1  0
  3 10  1  6
  4 11  1  6
  6 12  1  0
  9 13  1  0
 13 14  1  0
 14 15  1  0
 16 17  1  0
 12 18  1  0
 18 19  1  0
  4 20  1  0
 19 20  1  0
 20 21  1  0
 21 22  1  0
  5 23  1  0
 22 23  1  0
  4 24  1  0
  7 24  1  0
 23 24  1  0
 15 25  1  0
  9 26  1  6
 15 26  1  0
 16 27  1  0
 18 28  1  0
 16 29  1  0
 22 29  1  0
 31 32  1  0
 32 34  1  0
 33 35  1  0
 31 36  1  0
 30 37  1  0
 34 37  1  0
 30 38  1  0
 32 38  1  0
 32 39  1  6
 33 40  1  6
 35 41  1  0
 38 42  1  0
 42 43  1  0
 43 44  1  0
 45 46  1  0
 41 47  1  0
 47 48  1  0
 33 49  1  0
 48 49  1  0
 49 50  1  0
 50 51  1  0
 34 52  1  0
 51 52  1  0
 33 53  1  0
 36 53  1  0
 52 53  1  0
 44 54  1  0
 38 55  1  6
 44 55  1  0
 45 56  1  0
 47 57  1  0
 45 58  1  0
 51 58  1  0
  1 59  1  0
  1 60  1  0
  2 61  1  0
  2 62  1  0
  5 63  1  1
  6 64  1  0
  6 65  1  0
  7 66  1  0
  7 67  1  0
  8 68  1  0
  8 69  1  0
 10 70  1  0
 10 71  1  0
 10 72  1  0
 11 73  1  0
 11 74  1  0
 11 75  1  0
 12 76  1  0
 12 77  1  0
 13 78  1  0
 13 79  1  0
 14 80  1  0
 14 81  1  0
 15 82  1  0
 16 83  1  0
 17 84  1  0
 17 85  1  0
 17 86  1  0
 18 87  1  0
 19 88  1  0
 19 89  1  0
 20 90  1  1
 21 91  1  0
 21 92  1  0
 22 93  1  6
 23 94  1  6
 24 95  1  1
 25 96  1  0
 27 97  1  0
 28 98  1  0
 30 99  1  0
 30100  1  0
 31101  1  0
 31102  1  0
 34103  1  1
 35104  1  0
 35105  1  0
 36106  1  0
 36107  1  0
 37108  1  0
 37109  1  0
 39110  1  0
 39111  1  0
 39112  1  0
 40113  1  0
 40114  1  0
 40115  1  0
 41116  1  0
 41117  1  0
 42118  1  0
 42119  1  0
 43120  1  0
 43121  1  0
 44122  1  0
 45123  1  0
 46124  1  0
 46125  1  0
 46126  1  0
 47127  1  0
 48128  1  0
 48129  1  0
 49130  1  1
 50131  1  0
 50132  1  0
 51133  1  6
 52134  1  6
 53135  1  1
 54136  1  0
 56137  1  0
 57138  1  0
M  END
>  <PDBID>  (1) 
2AB2

>  <PDB ID>  (1) 
2AB2

>  <Generic Name>  (1) 
Spironolactone

>  <Brand Name>  (1) 
Aldactazide#Aldactazide 25#Aldactazide 50#Aldactone#Aldactone 100 mg#Aldactone 25 mg#Apo-spirozide Tab#Ntp-spironolactone#Spironolactone#Spironolactone and Hydrochlorothiazide#Teva-spironolactone#Teva-spironolactone/hctz#Osyrol#Spiresis#Spiretic#Spiroctan#Uractone#Verospiron#Xenalon

>  <DrugBank ID>  (1) 
DB00421

>  <ATC Codes>  (1) 
C03DA01

>  <Ligand ID>  (1) 
SNL

>  <Target Name>  (1) 
Mineralocorticoid receptor

>  <UniProt ID>  (1) 
P08235

>  <PDB ID.1>  (1) 
2AB2

>  <Seq. Identity>  (1) 
99%

$$$$
