PDB_DB01204_00
     RDKit          3D

152156  0  0  0  0  0  0  0  0999 V2000
    6.5813   -1.5904   -1.1844 O   0  0  0  0  0  0  0  0  0  0  0  0
    6.8845   -2.2694   -0.0172 C   0  0  0  0  0  0  0  0  0  0  0  0
    6.6782   -1.4181    1.2096 C   0  0  0  0  0  0  0  0  0  0  0  0
    5.3112   -0.9662    1.3382 N   0  0  0  0  0  0  0  0  0  0  0  0
    4.4420   -2.0739    1.6306 C   0  0  0  0  0  0  0  0  0  0  0  0
    3.0010   -1.6428    1.7959 C   0  0  0  0  0  0  0  0  0  0  0  0
    2.5661   -1.0321    0.5728 N   0  0  0  0  0  0  0  0  0  0  0  0
    1.1924   -0.5944    0.6170 C   0  0  0  0  0  0  0  0  0  0  0  0
    0.3329   -1.8033    0.8149 C   0  0  0  0  0  0  0  0  0  0  0  0
   -1.1483   -1.4611    0.7519 C   0  0  0  0  0  0  0  0  0  0  0  0
    0.8881    0.0564   -0.7371 C   0  0  0  0  0  0  0  0  0  0  0  0
    1.6963    1.2694   -0.9427 C   0  0  0  0  0  0  0  0  0  0  0  0
    2.6416    1.0635   -1.9847 O   0  0  0  0  0  0  0  0  0  0  0  0
    1.0370    2.5827   -1.0835 C   0  0  0  0  0  0  0  0  0  0  0  0
    1.4081    3.5032    0.0610 C   0  0  0  0  0  0  0  0  0  0  0  0
    2.7659    3.8402   -0.1476 O   0  0  0  0  0  0  0  0  0  0  0  0
    0.6133    4.7515    0.1589 C   0  0  0  0  0  0  0  0  0  0  0  0
   -0.2631    5.0301   -1.0080 C   0  0  0  0  0  0  0  0  0  0  0  0
   -1.1086    3.8594   -1.4067 C   0  0  0  0  0  0  0  0  0  0  0  0
   -1.6699    4.1736   -2.6616 O   0  0  0  0  0  0  0  0  0  0  0  0
   -0.4325    2.5505   -1.3874 C   0  0  0  0  0  0  0  0  0  0  0  0
   -1.1129    1.5168   -0.5063 C   0  0  0  0  0  0  0  0  0  0  0  0
   -0.7632    1.6767    0.8290 O   0  0  0  0  0  0  0  0  0  0  0  0
   -0.5723    0.1905   -1.0128 C   0  0  0  0  0  0  0  0  0  0  0  0
   -1.4419   -0.9286   -0.6169 C   0  0  0  0  0  0  0  0  0  0  0  0
   -2.8278   -0.4352   -0.7010 N   0  0  0  0  0  0  0  0  0  0  0  0
   -3.7630   -1.5125   -0.4575 C   0  0  0  0  0  0  0  0  0  0  0  0
   -5.1851   -1.0351   -0.5315 C   0  0  0  0  0  0  0  0  0  0  0  0
   -6.1230   -2.1349   -0.2826 N   0  0  0  0  0  0  0  0  0  0  0  0
   -6.0459   -2.5778    1.0941 C   0  0  0  0  0  0  0  0  0  0  0  0
   -7.0025   -3.7266    1.3609 C   0  0  0  0  0  0  0  0  0  0  0  0
   -8.3028   -3.3570    1.1148 O   0  0  0  0  0  0  0  0  0  0  0  0
    6.5813   -1.5904   -1.1844 O   0  0  0  0  0  0  0  0  0  0  0  0
    6.8845   -2.2694   -0.0172 C   0  0  0  0  0  0  0  0  0  0  0  0
    6.6782   -1.4181    1.2096 C   0  0  0  0  0  0  0  0  0  0  0  0
    5.3112   -0.9662    1.3382 N   0  0  0  0  0  0  0  0  0  0  0  0
    4.4420   -2.0739    1.6306 C   0  0  0  0  0  0  0  0  0  0  0  0
    3.0010   -1.6428    1.7959 C   0  0  0  0  0  0  0  0  0  0  0  0
    2.5661   -1.0321    0.5728 N   0  0  0  0  0  0  0  0  0  0  0  0
    1.1924   -0.5944    0.6170 C   0  0  0  0  0  0  0  0  0  0  0  0
    0.3329   -1.8033    0.8149 C   0  0  0  0  0  0  0  0  0  0  0  0
   -1.1483   -1.4611    0.7519 C   0  0  0  0  0  0  0  0  0  0  0  0
    0.8881    0.0564   -0.7371 C   0  0  0  0  0  0  0  0  0  0  0  0
    1.6963    1.2694   -0.9427 C   0  0  0  0  0  0  0  0  0  0  0  0
    2.6416    1.0635   -1.9847 O   0  0  0  0  0  0  0  0  0  0  0  0
    1.0370    2.5827   -1.0835 C   0  0  0  0  0  0  0  0  0  0  0  0
    1.4081    3.5032    0.0610 C   0  0  0  0  0  0  0  0  0  0  0  0
    2.7659    3.8402   -0.1476 O   0  0  0  0  0  0  0  0  0  0  0  0
    0.6133    4.7515    0.1589 C   0  0  0  0  0  0  0  0  0  0  0  0
   -0.2631    5.0301   -1.0080 C   0  0  0  0  0  0  0  0  0  0  0  0
   -1.1086    3.8594   -1.4067 C   0  0  0  0  0  0  0  0  0  0  0  0
   -1.6699    4.1736   -2.6616 O   0  0  0  0  0  0  0  0  0  0  0  0
   -0.4325    2.5505   -1.3874 C   0  0  0  0  0  0  0  0  0  0  0  0
   -1.1129    1.5168   -0.5063 C   0  0  0  0  0  0  0  0  0  0  0  0
   -0.7632    1.6767    0.8290 O   0  0  0  0  0  0  0  0  0  0  0  0
   -0.5723    0.1905   -1.0128 C   0  0  0  0  0  0  0  0  0  0  0  0
   -1.4419   -0.9286   -0.6169 C   0  0  0  0  0  0  0  0  0  0  0  0
   -2.8278   -0.4352   -0.7010 N   0  0  0  0  0  0  0  0  0  0  0  0
   -3.7630   -1.5125   -0.4575 C   0  0  0  0  0  0  0  0  0  0  0  0
   -5.1851   -1.0351   -0.5315 C   0  0  0  0  0  0  0  0  0  0  0  0
   -6.1230   -2.1349   -0.2826 N   0  0  0  0  0  0  0  0  0  0  0  0
   -6.0459   -2.5778    1.0941 C   0  0  0  0  0  0  0  0  0  0  0  0
   -7.0025   -3.7266    1.3609 C   0  0  0  0  0  0  0  0  0  0  0  0
   -8.3028   -3.3570    1.1148 O   0  0  0  0  0  0  0  0  0  0  0  0
    6.8612   -0.6492   -1.1675 H   0  0  0  0  0  0  0  0  0  0  0  0
    6.3296   -3.2064    0.0595 H   0  0  0  0  0  0  0  0  0  0  0  0
    7.9721   -2.5557   -0.1099 H   0  0  0  0  0  0  0  0  0  0  0  0
    6.9612   -2.0533    2.1009 H   0  0  0  0  0  0  0  0  0  0  0  0
    7.3982   -0.5933    1.1801 H   0  0  0  0  0  0  0  0  0  0  0  0
    5.0034   -0.5370    0.4429 H   0  0  0  0  0  0  0  0  0  0  0  0
    4.8239   -2.5761    2.5537 H   0  0  0  0  0  0  0  0  0  0  0  0
    4.4925   -2.8583    0.8350 H   0  0  0  0  0  0  0  0  0  0  0  0
    2.8994   -0.9750    2.6801 H   0  0  0  0  0  0  0  0  0  0  0  0
    2.4473   -2.5758    2.0644 H   0  0  0  0  0  0  0  0  0  0  0  0
    2.6734   -1.7182   -0.1874 H   0  0  0  0  0  0  0  0  0  0  0  0
    1.0406    0.0794    1.4522 H   0  0  0  0  0  0  0  0  0  0  0  0
    0.5290   -2.5917    0.0556 H   0  0  0  0  0  0  0  0  0  0  0  0
    0.4937   -2.1693    1.8521 H   0  0  0  0  0  0  0  0  0  0  0  0
   -1.5014   -0.8521    1.5777 H   0  0  0  0  0  0  0  0  0  0  0  0
   -1.6405   -2.4708    0.8867 H   0  0  0  0  0  0  0  0  0  0  0  0
    1.2468   -0.7353   -1.4707 H   0  0  0  0  0  0  0  0  0  0  0  0
    2.3820    1.3448   -0.0354 H   0  0  0  0  0  0  0  0  0  0  0  0
    2.1959    1.0969   -2.8471 H   0  0  0  0  0  0  0  0  0  0  0  0
    1.4868    3.0946   -1.9934 H   0  0  0  0  0  0  0  0  0  0  0  0
    1.3843    2.9964    1.0419 H   0  0  0  0  0  0  0  0  0  0  0  0
    2.8895    4.8061   -0.0161 H   0  0  0  0  0  0  0  0  0  0  0  0
   -0.0292    4.7892    1.0883 H   0  0  0  0  0  0  0  0  0  0  0  0
    1.2929    5.6356    0.2821 H   0  0  0  0  0  0  0  0  0  0  0  0
   -0.9535    5.8588   -0.7411 H   0  0  0  0  0  0  0  0  0  0  0  0
    0.3123    5.4171   -1.8958 H   0  0  0  0  0  0  0  0  0  0  0  0
   -1.9995    3.8121   -0.7133 H   0  0  0  0  0  0  0  0  0  0  0  0
   -1.2357    3.7211   -3.4060 H   0  0  0  0  0  0  0  0  0  0  0  0
   -0.5054    2.1334   -2.4381 H   0  0  0  0  0  0  0  0  0  0  0  0
   -2.2074    1.5547   -0.6048 H   0  0  0  0  0  0  0  0  0  0  0  0
   -1.2698    2.4307    1.2224 H   0  0  0  0  0  0  0  0  0  0  0  0
   -0.6513    0.2784   -2.1442 H   0  0  0  0  0  0  0  0  0  0  0  0
   -1.3056   -1.7591   -1.3407 H   0  0  0  0  0  0  0  0  0  0  0  0
   -2.9469   -0.0196   -1.6555 H   0  0  0  0  0  0  0  0  0  0  0  0
   -3.6266   -2.2939   -1.2132 H   0  0  0  0  0  0  0  0  0  0  0  0
   -3.5489   -1.8798    0.5734 H   0  0  0  0  0  0  0  0  0  0  0  0
   -5.3872   -0.2736    0.2597 H   0  0  0  0  0  0  0  0  0  0  0  0
   -5.4504   -0.6025   -1.5073 H   0  0  0  0  0  0  0  0  0  0  0  0
   -5.8292   -2.9396   -0.8938 H   0  0  0  0  0  0  0  0  0  0  0  0
   -6.3712   -1.7113    1.7398 H   0  0  0  0  0  0  0  0  0  0  0  0
   -5.0485   -2.9580    1.3907 H   0  0  0  0  0  0  0  0  0  0  0  0
   -6.8299   -4.0534    2.4086 H   0  0  0  0  0  0  0  0  0  0  0  0
   -6.6756   -4.5733    0.7246 H   0  0  0  0  0  0  0  0  0  0  0  0
   -8.3791   -2.3726    1.2287 H   0  0  0  0  0  0  0  0  0  0  0  0
    6.8612   -0.6492   -1.1675 H   0  0  0  0  0  0  0  0  0  0  0  0
    6.3296   -3.2064    0.0595 H   0  0  0  0  0  0  0  0  0  0  0  0
    7.9721   -2.5557   -0.1099 H   0  0  0  0  0  0  0  0  0  0  0  0
    6.9612   -2.0533    2.1009 H   0  0  0  0  0  0  0  0  0  0  0  0
    7.3982   -0.5933    1.1801 H   0  0  0  0  0  0  0  0  0  0  0  0
    5.0034   -0.5370    0.4429 H   0  0  0  0  0  0  0  0  0  0  0  0
    4.8239   -2.5761    2.5537 H   0  0  0  0  0  0  0  0  0  0  0  0
    4.4925   -2.8583    0.8350 H   0  0  0  0  0  0  0  0  0  0  0  0
    2.8994   -0.9750    2.6801 H   0  0  0  0  0  0  0  0  0  0  0  0
    2.4473   -2.5758    2.0644 H   0  0  0  0  0  0  0  0  0  0  0  0
    2.6734   -1.7182   -0.1874 H   0  0  0  0  0  0  0  0  0  0  0  0
    1.0406    0.0794    1.4522 H   0  0  0  0  0  0  0  0  0  0  0  0
    0.5290   -2.5917    0.0556 H   0  0  0  0  0  0  0  0  0  0  0  0
    0.4937   -2.1693    1.8521 H   0  0  0  0  0  0  0  0  0  0  0  0
   -1.5014   -0.8521    1.5777 H   0  0  0  0  0  0  0  0  0  0  0  0
   -1.6405   -2.4708    0.8867 H   0  0  0  0  0  0  0  0  0  0  0  0
    1.2468   -0.7353   -1.4707 H   0  0  0  0  0  0  0  0  0  0  0  0
    2.3820    1.3448   -0.0354 H   0  0  0  0  0  0  0  0  0  0  0  0
    2.1959    1.0969   -2.8471 H   0  0  0  0  0  0  0  0  0  0  0  0
    1.4868    3.0946   -1.9934 H   0  0  0  0  0  0  0  0  0  0  0  0
    1.3843    2.9964    1.0419 H   0  0  0  0  0  0  0  0  0  0  0  0
    2.8895    4.8061   -0.0161 H   0  0  0  0  0  0  0  0  0  0  0  0
   -0.0292    4.7892    1.0883 H   0  0  0  0  0  0  0  0  0  0  0  0
    1.2929    5.6356    0.2821 H   0  0  0  0  0  0  0  0  0  0  0  0
   -0.9535    5.8588   -0.7411 H   0  0  0  0  0  0  0  0  0  0  0  0
    0.3123    5.4171   -1.8958 H   0  0  0  0  0  0  0  0  0  0  0  0
   -1.9995    3.8121   -0.7133 H   0  0  0  0  0  0  0  0  0  0  0  0
   -1.2357    3.7211   -3.4060 H   0  0  0  0  0  0  0  0  0  0  0  0
   -0.5054    2.1334   -2.4381 H   0  0  0  0  0  0  0  0  0  0  0  0
   -2.2074    1.5547   -0.6048 H   0  0  0  0  0  0  0  0  0  0  0  0
   -1.2698    2.4307    1.2224 H   0  0  0  0  0  0  0  0  0  0  0  0
   -0.6513    0.2784   -2.1442 H   0  0  0  0  0  0  0  0  0  0  0  0
   -1.3056   -1.7591   -1.3407 H   0  0  0  0  0  0  0  0  0  0  0  0
   -2.9469   -0.0196   -1.6555 H   0  0  0  0  0  0  0  0  0  0  0  0
   -3.6266   -2.2939   -1.2132 H   0  0  0  0  0  0  0  0  0  0  0  0
   -3.5489   -1.8798    0.5734 H   0  0  0  0  0  0  0  0  0  0  0  0
   -5.3872   -0.2736    0.2597 H   0  0  0  0  0  0  0  0  0  0  0  0
   -5.4504   -0.6025   -1.5073 H   0  0  0  0  0  0  0  0  0  0  0  0
   -5.8292   -2.9396   -0.8938 H   0  0  0  0  0  0  0  0  0  0  0  0
   -6.3712   -1.7113    1.7398 H   0  0  0  0  0  0  0  0  0  0  0  0
   -5.0485   -2.9580    1.3907 H   0  0  0  0  0  0  0  0  0  0  0  0
   -6.8299   -4.0534    2.4086 H   0  0  0  0  0  0  0  0  0  0  0  0
   -6.6756   -4.5733    0.7246 H   0  0  0  0  0  0  0  0  0  0  0  0
   -8.3791   -2.3726    1.2287 H   0  0  0  0  0  0  0  0  0  0  0  0
  1  2  1  0
  2  3  1  0
  3  4  1  0
  4  5  1  0
  5  6  1  0
  6  7  1  0
  7  8  1  0
  8  9  1  0
  9 10  1  0
  8 11  1  0
 11 12  1  0
 12 13  1  0
 12 14  1  0
 14 15  1  0
 15 16  1  0
 15 17  1  0
 17 18  1  0
 18 19  1  0
 19 20  1  0
 14 21  1  0
 19 21  1  0
 21 22  1  0
 22 23  1  0
 11 24  1  0
 22 24  1  0
 10 25  1  0
 24 25  1  0
 25 26  1  0
 26 27  1  0
 27 28  1  0
 28 29  1  0
 29 30  1  0
 30 31  1  0
 31 32  1  0
 33 34  1  0
 34 35  1  0
 35 36  1  0
 36 37  1  0
 37 38  1  0
 38 39  1  0
 39 40  1  0
 40 41  1  0
 41 42  1  0
 40 43  1  0
 43 44  1  0
 44 45  1  0
 44 46  1  0
 46 47  1  0
 47 48  1  0
 47 49  1  0
 49 50  1  0
 50 51  1  0
 51 52  1  0
 46 53  1  0
 51 53  1  0
 53 54  1  0
 54 55  1  0
 43 56  1  0
 54 56  1  0
 42 57  1  0
 56 57  1  0
 57 58  1  0
 58 59  1  0
 59 60  1  0
 60 61  1  0
 61 62  1  0
 62 63  1  0
 63 64  1  0
  1 65  1  0
  2 66  1  0
  2 67  1  0
  3 68  1  0
  3 69  1  0
  4 70  1  0
  5 71  1  0
  5 72  1  0
  6 73  1  0
  6 74  1  0
  7 75  1  0
  8 76  1  0
  9 77  1  0
  9 78  1  0
 10 79  1  0
 10 80  1  0
 11 81  1  0
 12 82  1  0
 13 83  1  0
 14 84  1  0
 15 85  1  0
 16 86  1  0
 17 87  1  0
 17 88  1  0
 18 89  1  0
 18 90  1  0
 19 91  1  0
 20 92  1  0
 21 93  1  0
 22 94  1  0
 23 95  1  0
 24 96  1  0
 25 97  1  0
 26 98  1  0
 27 99  1  0
 27100  1  0
 28101  1  0
 28102  1  0
 29103  1  0
 30104  1  0
 30105  1  0
 31106  1  0
 31107  1  0
 32108  1  0
 33109  1  0
 34110  1  0
 34111  1  0
 35112  1  0
 35113  1  0
 36114  1  0
 37115  1  0
 37116  1  0
 38117  1  0
 38118  1  0
 39119  1  0
 40120  1  0
 41121  1  0
 41122  1  0
 42123  1  0
 42124  1  0
 43125  1  0
 44126  1  0
 45127  1  0
 46128  1  0
 47129  1  0
 48130  1  0
 49131  1  0
 49132  1  0
 50133  1  0
 50134  1  0
 51135  1  0
 52136  1  0
 53137  1  0
 54138  1  0
 55139  1  0
 56140  1  0
 57141  1  0
 58142  1  0
 59143  1  0
 59144  1  0
 60145  1  0
 60146  1  0
 61147  1  0
 62148  1  0
 62149  1  0
 63150  1  0
 63151  1  0
 64152  1  0
M  END
>  <PDBID>  (1) 
4G0V

>  <PDB ID>  (1) 
4G0V

>  <Generic Name>  (1) 
Mitoxantrone

>  <Brand Name>  (1) 
Mitoxantrone#Mitoxantrone Hydrochloride#Mitoxantrone Injection#Mitoxantrone Injection USP#Novantrone#Novantrone Inj 2mg/ml

>  <DrugBank ID>  (1) 
DB01204

>  <ATC Codes>  (1) 
L01DB07

>  <Ligand ID>  (1) 
MIX

>  <Target Name>  (1) 
DNA topoisomerase 2-alpha

>  <UniProt ID>  (1) 
P11388

>  <PDB ID.1>  (1) 
4G0V

>  <Seq. Identity>  (1) 
78%

$$$$
