PDB_DB01283_04
     RDKit          3D

 94 96  0  0  0  0  0  0  0  0999 V2000
   -2.2306   -2.7172    2.0138 O   0  0  0  0  0  0  0  0  0  0  0  0
   -1.5098   -2.2159    0.8805 C   0  0  0  0  0  0  0  0  0  0  0  0
   -1.4790   -3.2586   -0.0192 O   0  0  0  0  0  0  0  0  0  0  0  0
   -2.3015   -1.0382    0.4045 C   0  0  0  0  0  0  0  0  0  0  0  0
   -1.8200   -0.3151   -0.7848 C   0  0  0  0  0  0  0  0  0  0  0  0
   -2.7875    0.8533   -1.1236 C   0  0  0  0  0  0  0  0  0  0  0  0
   -2.8680    1.7833    0.0666 C   0  0  0  0  0  0  0  0  0  0  0  0
   -3.5504    3.0677   -0.3669 C   0  0  0  0  0  0  0  0  0  0  0  0
   -1.4958    2.0085    0.6026 C   0  0  0  0  0  0  0  0  0  0  0  0
   -0.3842    1.6104   -0.3333 C   0  0  0  0  0  0  0  0  0  0  0  0
   -0.4086    0.1967   -0.8001 C   0  0  0  0  0  0  0  0  0  0  0  0
    0.4700   -0.6966   -0.1950 N   0  0  0  0  0  0  0  0  0  0  0  0
    1.7978   -0.3597    0.1079 C   0  0  0  0  0  0  0  0  0  0  0  0
    2.7381   -0.0463   -0.9923 C   0  0  0  0  0  0  0  0  0  0  0  0
    2.1773    1.0709   -2.2191 Cl  0  0  0  0  0  0  0  0  0  0  0  0
    3.9758    0.6156   -0.3661 C   0  0  0  0  0  0  0  0  0  0  0  0
    4.5133   -0.2781    0.6899 C   0  0  0  0  0  0  0  0  0  0  0  0
    3.8720   -1.6201    0.7353 C   0  0  0  0  0  0  0  0  0  0  0  0
    2.3854   -1.5942    0.8287 C   0  0  0  0  0  0  0  0  0  0  0  0
    1.9064   -2.7596    0.2617 F   0  0  0  0  0  0  0  0  0  0  0  0
   -2.2306   -2.7172    2.0138 O   0  0  0  0  0  0  0  0  0  0  0  0
   -1.5098   -2.2159    0.8805 C   0  0  0  0  0  0  0  0  0  0  0  0
   -1.4790   -3.2586   -0.0192 O   0  0  0  0  0  0  0  0  0  0  0  0
   -2.3015   -1.0382    0.4045 C   0  0  0  0  0  0  0  0  0  0  0  0
   -1.8200   -0.3151   -0.7848 C   0  0  0  0  0  0  0  0  0  0  0  0
   -2.7875    0.8533   -1.1236 C   0  0  0  0  0  0  0  0  0  0  0  0
   -2.8680    1.7833    0.0666 C   0  0  0  0  0  0  0  0  0  0  0  0
   -3.5504    3.0677   -0.3669 C   0  0  0  0  0  0  0  0  0  0  0  0
   -1.4958    2.0085    0.6026 C   0  0  0  0  0  0  0  0  0  0  0  0
   -0.3842    1.6104   -0.3333 C   0  0  0  0  0  0  0  0  0  0  0  0
   -0.4086    0.1967   -0.8001 C   0  0  0  0  0  0  0  0  0  0  0  0
    0.4700   -0.6966   -0.1950 N   0  0  0  0  0  0  0  0  0  0  0  0
    1.7978   -0.3597    0.1079 C   0  0  0  0  0  0  0  0  0  0  0  0
    2.7381   -0.0463   -0.9923 C   0  0  0  0  0  0  0  0  0  0  0  0
    2.1773    1.0709   -2.2191 Cl  0  0  0  0  0  0  0  0  0  0  0  0
    3.9758    0.6156   -0.3661 C   0  0  0  0  0  0  0  0  0  0  0  0
    4.5133   -0.2781    0.6899 C   0  0  0  0  0  0  0  0  0  0  0  0
    3.8720   -1.6201    0.7353 C   0  0  0  0  0  0  0  0  0  0  0  0
    2.3854   -1.5942    0.8287 C   0  0  0  0  0  0  0  0  0  0  0  0
    1.9064   -2.7596    0.2617 F   0  0  0  0  0  0  0  0  0  0  0  0
   -3.1641   -2.8762    1.6944 H   0  0  0  0  0  0  0  0  0  0  0  0
   -0.5164   -1.9717    1.3094 H   0  0  0  0  0  0  0  0  0  0  0  0
   -2.2480   -3.1361   -0.6524 H   0  0  0  0  0  0  0  0  0  0  0  0
   -3.3229   -1.4764    0.1294 H   0  0  0  0  0  0  0  0  0  0  0  0
   -2.4947   -0.3523    1.2772 H   0  0  0  0  0  0  0  0  0  0  0  0
   -1.9962   -1.0092   -1.6729 H   0  0  0  0  0  0  0  0  0  0  0  0
   -2.4043    1.3408   -2.0206 H   0  0  0  0  0  0  0  0  0  0  0  0
   -3.7574    0.3927   -1.3482 H   0  0  0  0  0  0  0  0  0  0  0  0
   -3.5084    1.3435    0.8491 H   0  0  0  0  0  0  0  0  0  0  0  0
   -4.6101    2.8095   -0.5602 H   0  0  0  0  0  0  0  0  0  0  0  0
   -3.5266    3.7842    0.4686 H   0  0  0  0  0  0  0  0  0  0  0  0
   -3.1444    3.4627   -1.3050 H   0  0  0  0  0  0  0  0  0  0  0  0
   -1.3948    3.1378    0.6960 H   0  0  0  0  0  0  0  0  0  0  0  0
   -1.3337    1.6631    1.6499 H   0  0  0  0  0  0  0  0  0  0  0  0
   -0.5110    2.2738   -1.2274 H   0  0  0  0  0  0  0  0  0  0  0  0
    0.5680    1.9350    0.1350 H   0  0  0  0  0  0  0  0  0  0  0  0
   -0.1684    0.2393   -1.9261 H   0  0  0  0  0  0  0  0  0  0  0  0
    0.5168   -1.5687   -0.8152 H   0  0  0  0  0  0  0  0  0  0  0  0
    1.9096    0.4463    0.8771 H   0  0  0  0  0  0  0  0  0  0  0  0
    3.0820   -0.9755   -1.5415 H   0  0  0  0  0  0  0  0  0  0  0  0
    3.5863    1.5493    0.1165 H   0  0  0  0  0  0  0  0  0  0  0  0
    4.7091    0.8975   -1.1502 H   0  0  0  0  0  0  0  0  0  0  0  0
    5.6037   -0.4540    0.4424 H   0  0  0  0  0  0  0  0  0  0  0  0
    4.5643    0.2246    1.6928 H   0  0  0  0  0  0  0  0  0  0  0  0
    4.2689   -2.2665   -0.0814 H   0  0  0  0  0  0  0  0  0  0  0  0
    4.2376   -2.1202    1.6804 H   0  0  0  0  0  0  0  0  0  0  0  0
    2.0546   -1.6000    1.8921 H   0  0  0  0  0  0  0  0  0  0  0  0
   -3.1641   -2.8762    1.6944 H   0  0  0  0  0  0  0  0  0  0  0  0
   -0.5164   -1.9717    1.3094 H   0  0  0  0  0  0  0  0  0  0  0  0
   -2.2480   -3.1361   -0.6524 H   0  0  0  0  0  0  0  0  0  0  0  0
   -3.3229   -1.4764    0.1294 H   0  0  0  0  0  0  0  0  0  0  0  0
   -2.4947   -0.3523    1.2772 H   0  0  0  0  0  0  0  0  0  0  0  0
   -1.9962   -1.0092   -1.6729 H   0  0  0  0  0  0  0  0  0  0  0  0
   -2.4043    1.3408   -2.0206 H   0  0  0  0  0  0  0  0  0  0  0  0
   -3.7574    0.3927   -1.3482 H   0  0  0  0  0  0  0  0  0  0  0  0
   -3.5084    1.3435    0.8491 H   0  0  0  0  0  0  0  0  0  0  0  0
   -4.6101    2.8095   -0.5602 H   0  0  0  0  0  0  0  0  0  0  0  0
   -3.5266    3.7842    0.4686 H   0  0  0  0  0  0  0  0  0  0  0  0
   -3.1444    3.4627   -1.3050 H   0  0  0  0  0  0  0  0  0  0  0  0
   -1.3948    3.1378    0.6960 H   0  0  0  0  0  0  0  0  0  0  0  0
   -1.3337    1.6631    1.6499 H   0  0  0  0  0  0  0  0  0  0  0  0
   -0.5110    2.2738   -1.2274 H   0  0  0  0  0  0  0  0  0  0  0  0
    0.5680    1.9350    0.1350 H   0  0  0  0  0  0  0  0  0  0  0  0
   -0.1684    0.2393   -1.9261 H   0  0  0  0  0  0  0  0  0  0  0  0
    0.5168   -1.5687   -0.8152 H   0  0  0  0  0  0  0  0  0  0  0  0
    1.9096    0.4463    0.8771 H   0  0  0  0  0  0  0  0  0  0  0  0
    3.0820   -0.9755   -1.5415 H   0  0  0  0  0  0  0  0  0  0  0  0
    3.5863    1.5493    0.1165 H   0  0  0  0  0  0  0  0  0  0  0  0
    4.7091    0.8975   -1.1502 H   0  0  0  0  0  0  0  0  0  0  0  0
    5.6037   -0.4540    0.4424 H   0  0  0  0  0  0  0  0  0  0  0  0
    4.5643    0.2246    1.6928 H   0  0  0  0  0  0  0  0  0  0  0  0
    4.2689   -2.2665   -0.0814 H   0  0  0  0  0  0  0  0  0  0  0  0
    4.2376   -2.1202    1.6804 H   0  0  0  0  0  0  0  0  0  0  0  0
    2.0546   -1.6000    1.8921 H   0  0  0  0  0  0  0  0  0  0  0  0
  1  2  1  0
  2  3  1  0
  2  4  1  0
  4  5  1  0
  5  6  1  0
  6  7  1  0
  7  8  1  0
  7  9  1  0
  9 10  1  0
  5 11  1  0
 10 11  1  0
 11 12  1  0
 12 13  1  0
 13 14  1  0
 14 15  1  0
 14 16  1  0
 16 17  1  0
 17 18  1  0
 13 19  1  0
 18 19  1  0
 19 20  1  0
 21 22  1  0
 22 23  1  0
 22 24  1  0
 24 25  1  0
 25 26  1  0
 26 27  1  0
 27 28  1  0
 27 29  1  0
 29 30  1  0
 25 31  1  0
 30 31  1  0
 31 32  1  0
 32 33  1  0
 33 34  1  0
 34 35  1  0
 34 36  1  0
 36 37  1  0
 37 38  1  0
 33 39  1  0
 38 39  1  0
 39 40  1  0
  1 41  1  0
  2 42  1  0
  3 43  1  0
  4 44  1  0
  4 45  1  0
  5 46  1  0
  6 47  1  0
  6 48  1  0
  7 49  1  0
  8 50  1  0
  8 51  1  0
  8 52  1  0
  9 53  1  0
  9 54  1  0
 10 55  1  0
 10 56  1  0
 11 57  1  0
 12 58  1  0
 13 59  1  0
 14 60  1  0
 16 61  1  0
 16 62  1  0
 17 63  1  0
 17 64  1  0
 18 65  1  0
 18 66  1  0
 19 67  1  0
 21 68  1  0
 22 69  1  0
 23 70  1  0
 24 71  1  0
 24 72  1  0
 25 73  1  0
 26 74  1  0
 26 75  1  0
 27 76  1  0
 28 77  1  0
 28 78  1  0
 28 79  1  0
 29 80  1  0
 29 81  1  0
 30 82  1  0
 30 83  1  0
 31 84  1  0
 32 85  1  0
 33 86  1  0
 34 87  1  0
 36 88  1  0
 36 89  1  0
 37 90  1  0
 37 91  1  0
 38 92  1  0
 38 93  1  0
 39 94  1  0
M  END
>  <PDBID>  (1) 
4OTY

>  <PDB ID>  (1) 
4OTY

>  <Generic Name>  (1) 
Lumiracoxib

>  <Brand Name>  (1) 
Prexige

>  <DrugBank ID>  (1) 
DB01283

>  <ATC Codes>  (1) 
M01AH06

>  <Ligand ID>  (1) 
LUR

>  <Target Name>  (1) 
Prostaglandin G/H synthase 1

>  <UniProt ID>  (1) 
P23219

>  <PDB ID.1>  (1) 
4OTY

>  <Seq. Identity>  (1) 
62%

$$$$
