PDB_DB01016_04
     RDKit          3D

316324  0  0  0  0  0  0  0  0999 V2000
   -5.3098   -1.4456   -1.3968 O   0  0  0  0  0  0  0  0  0  0  0  0
   -2.7052   -3.5833   -0.5782 O   0  0  0  0  0  0  0  0  0  0  0  0
   -2.9204   -1.3890   -2.1467 O   0  0  0  0  0  0  0  0  0  0  0  0
    3.9982   -0.0875   -1.6342 O   0  0  0  0  0  0  0  0  0  0  0  0
    6.9745    4.0462   -1.7268 Cl  0  0  0  0  0  0  0  0  0  0  0  0
   -2.6353   -1.9377   -0.6856 S   0  0  0  0  0  0  0  0  0  0  0  0
    6.7059   -0.7435    1.0268 O   0  0  0  0  0  0  0  0  0  0  0  0
   -5.7708   -0.0574    0.4288 N   0  0  0  0  0  0  0  0  0  0  0  0
   -3.8140   -1.3213    0.3341 N   0  0  0  0  0  0  0  0  0  0  0  0
    4.6825   -0.0033    0.6474 N   0  0  0  0  0  0  0  0  0  0  0  0
   -6.8149    0.6849   -0.2069 C   0  0  0  0  0  0  0  0  0  0  0  0
   -7.6302   -0.0912   -1.1880 C   0  0  0  0  0  0  0  0  0  0  0  0
   -7.7502    1.2066    0.8755 C   0  0  0  0  0  0  0  0  0  0  0  0
   -8.9730    0.5987   -1.3763 C   0  0  0  0  0  0  0  0  0  0  0  0
   -8.4859    2.3969    0.2899 C   0  0  0  0  0  0  0  0  0  0  0  0
   -8.8390    2.0957   -1.1567 C   0  0  0  0  0  0  0  0  0  0  0  0
   -4.7615   -0.5576   -0.4547 C   0  0  0  0  0  0  0  0  0  0  0  0
   -1.1048   -1.4043   -0.1850 C   0  0  0  0  0  0  0  0  0  0  0  0
    0.9571    0.0019    1.3240 C   0  0  0  0  0  0  0  0  0  0  0  0
    2.2714    0.3875    0.6595 C   0  0  0  0  0  0  0  0  0  0  0  0
   -0.9240    0.0771   -0.3627 C   0  0  0  0  0  0  0  0  0  0  0  0
   -0.7296   -1.7515    1.2356 C   0  0  0  0  0  0  0  0  0  0  0  0
   -0.1804    0.7642    0.7268 C   0  0  0  0  0  0  0  0  0  0  0  0
    0.7689   -1.4868    1.3568 C   0  0  0  0  0  0  0  0  0  0  0  0
    3.4297   -0.3519    1.2393 C   0  0  0  0  0  0  0  0  0  0  0  0
    4.9270   -0.4112   -0.6827 C   0  0  0  0  0  0  0  0  0  0  0  0
    6.3038    0.0943   -1.1637 C   0  0  0  0  0  0  0  0  0  0  0  0
    7.3021   -0.2527   -0.1294 C   0  0  0  0  0  0  0  0  0  0  0  0
    6.1355    1.5049   -1.5537 C   0  0  0  0  0  0  0  0  0  0  0  0
    8.2279    0.8452    0.2875 C   0  0  0  0  0  0  0  0  0  0  0  0
    7.3569    2.3670   -1.3700 C   0  0  0  0  0  0  0  0  0  0  0  0
    7.7289    2.2319    0.1084 C   0  0  0  0  0  0  0  0  0  0  0  0
    7.1348   -2.0469    1.2361 C   0  0  0  0  0  0  0  0  0  0  0  0
   -5.3098   -1.4456   -1.3968 O   0  0  0  0  0  0  0  0  0  0  0  0
   -2.7052   -3.5833   -0.5782 O   0  0  0  0  0  0  0  0  0  0  0  0
   -2.9204   -1.3890   -2.1467 O   0  0  0  0  0  0  0  0  0  0  0  0
    3.9982   -0.0875   -1.6342 O   0  0  0  0  0  0  0  0  0  0  0  0
    6.9745    4.0462   -1.7268 Cl  0  0  0  0  0  0  0  0  0  0  0  0
   -2.6353   -1.9377   -0.6856 S   0  0  0  0  0  0  0  0  0  0  0  0
    6.7059   -0.7435    1.0268 O   0  0  0  0  0  0  0  0  0  0  0  0
   -5.7708   -0.0574    0.4288 N   0  0  0  0  0  0  0  0  0  0  0  0
   -3.8140   -1.3213    0.3341 N   0  0  0  0  0  0  0  0  0  0  0  0
    4.6825   -0.0033    0.6474 N   0  0  0  0  0  0  0  0  0  0  0  0
   -6.8149    0.6849   -0.2069 C   0  0  0  0  0  0  0  0  0  0  0  0
   -7.6302   -0.0912   -1.1880 C   0  0  0  0  0  0  0  0  0  0  0  0
   -7.7502    1.2066    0.8755 C   0  0  0  0  0  0  0  0  0  0  0  0
   -8.9730    0.5987   -1.3763 C   0  0  0  0  0  0  0  0  0  0  0  0
   -8.4859    2.3969    0.2899 C   0  0  0  0  0  0  0  0  0  0  0  0
   -8.8390    2.0957   -1.1567 C   0  0  0  0  0  0  0  0  0  0  0  0
   -4.7615   -0.5576   -0.4547 C   0  0  0  0  0  0  0  0  0  0  0  0
   -1.1048   -1.4043   -0.1850 C   0  0  0  0  0  0  0  0  0  0  0  0
    0.9571    0.0019    1.3240 C   0  0  0  0  0  0  0  0  0  0  0  0
    2.2714    0.3875    0.6595 C   0  0  0  0  0  0  0  0  0  0  0  0
   -0.9240    0.0771   -0.3627 C   0  0  0  0  0  0  0  0  0  0  0  0
   -0.7296   -1.7515    1.2356 C   0  0  0  0  0  0  0  0  0  0  0  0
   -0.1804    0.7642    0.7268 C   0  0  0  0  0  0  0  0  0  0  0  0
    0.7689   -1.4868    1.3568 C   0  0  0  0  0  0  0  0  0  0  0  0
    3.4297   -0.3519    1.2393 C   0  0  0  0  0  0  0  0  0  0  0  0
    4.9270   -0.4112   -0.6827 C   0  0  0  0  0  0  0  0  0  0  0  0
    6.3038    0.0943   -1.1637 C   0  0  0  0  0  0  0  0  0  0  0  0
    7.3021   -0.2527   -0.1294 C   0  0  0  0  0  0  0  0  0  0  0  0
    6.1355    1.5049   -1.5537 C   0  0  0  0  0  0  0  0  0  0  0  0
    8.2279    0.8452    0.2875 C   0  0  0  0  0  0  0  0  0  0  0  0
    7.3569    2.3670   -1.3700 C   0  0  0  0  0  0  0  0  0  0  0  0
    7.7289    2.2319    0.1084 C   0  0  0  0  0  0  0  0  0  0  0  0
    7.1348   -2.0469    1.2361 C   0  0  0  0  0  0  0  0  0  0  0  0
   -5.3098   -1.4456   -1.3968 O   0  0  0  0  0  0  0  0  0  0  0  0
   -2.7052   -3.5833   -0.5782 O   0  0  0  0  0  0  0  0  0  0  0  0
   -2.9204   -1.3890   -2.1467 O   0  0  0  0  0  0  0  0  0  0  0  0
    3.9982   -0.0875   -1.6342 O   0  0  0  0  0  0  0  0  0  0  0  0
    6.9745    4.0462   -1.7268 Cl  0  0  0  0  0  0  0  0  0  0  0  0
   -2.6353   -1.9377   -0.6856 S   0  0  0  0  0  0  0  0  0  0  0  0
    6.7059   -0.7435    1.0268 O   0  0  0  0  0  0  0  0  0  0  0  0
   -5.7708   -0.0574    0.4288 N   0  0  0  0  0  0  0  0  0  0  0  0
   -3.8140   -1.3213    0.3341 N   0  0  0  0  0  0  0  0  0  0  0  0
    4.6825   -0.0033    0.6474 N   0  0  0  0  0  0  0  0  0  0  0  0
   -6.8149    0.6849   -0.2069 C   0  0  0  0  0  0  0  0  0  0  0  0
   -7.6302   -0.0912   -1.1880 C   0  0  0  0  0  0  0  0  0  0  0  0
   -7.7502    1.2066    0.8755 C   0  0  0  0  0  0  0  0  0  0  0  0
   -8.9730    0.5987   -1.3763 C   0  0  0  0  0  0  0  0  0  0  0  0
   -8.4859    2.3969    0.2899 C   0  0  0  0  0  0  0  0  0  0  0  0
   -8.8390    2.0957   -1.1567 C   0  0  0  0  0  0  0  0  0  0  0  0
   -4.7615   -0.5576   -0.4547 C   0  0  0  0  0  0  0  0  0  0  0  0
   -1.1048   -1.4043   -0.1850 C   0  0  0  0  0  0  0  0  0  0  0  0
    0.9571    0.0019    1.3240 C   0  0  0  0  0  0  0  0  0  0  0  0
    2.2714    0.3875    0.6595 C   0  0  0  0  0  0  0  0  0  0  0  0
   -0.9240    0.0771   -0.3627 C   0  0  0  0  0  0  0  0  0  0  0  0
   -0.7296   -1.7515    1.2356 C   0  0  0  0  0  0  0  0  0  0  0  0
   -0.1804    0.7642    0.7268 C   0  0  0  0  0  0  0  0  0  0  0  0
    0.7689   -1.4868    1.3568 C   0  0  0  0  0  0  0  0  0  0  0  0
    3.4297   -0.3519    1.2393 C   0  0  0  0  0  0  0  0  0  0  0  0
    4.9270   -0.4112   -0.6827 C   0  0  0  0  0  0  0  0  0  0  0  0
    6.3038    0.0943   -1.1637 C   0  0  0  0  0  0  0  0  0  0  0  0
    7.3021   -0.2527   -0.1294 C   0  0  0  0  0  0  0  0  0  0  0  0
    6.1355    1.5049   -1.5537 C   0  0  0  0  0  0  0  0  0  0  0  0
    8.2279    0.8452    0.2875 C   0  0  0  0  0  0  0  0  0  0  0  0
    7.3569    2.3670   -1.3700 C   0  0  0  0  0  0  0  0  0  0  0  0
    7.7289    2.2319    0.1084 C   0  0  0  0  0  0  0  0  0  0  0  0
    7.1348   -2.0469    1.2361 C   0  0  0  0  0  0  0  0  0  0  0  0
   -5.3098   -1.4456   -1.3968 O   0  0  0  0  0  0  0  0  0  0  0  0
   -2.7052   -3.5833   -0.5782 O   0  0  0  0  0  0  0  0  0  0  0  0
   -2.9204   -1.3890   -2.1467 O   0  0  0  0  0  0  0  0  0  0  0  0
    3.9982   -0.0875   -1.6342 O   0  0  0  0  0  0  0  0  0  0  0  0
    6.9745    4.0462   -1.7268 Cl  0  0  0  0  0  0  0  0  0  0  0  0
   -2.6353   -1.9377   -0.6856 S   0  0  0  0  0  0  0  0  0  0  0  0
    6.7059   -0.7435    1.0268 O   0  0  0  0  0  0  0  0  0  0  0  0
   -5.7708   -0.0574    0.4288 N   0  0  0  0  0  0  0  0  0  0  0  0
   -3.8140   -1.3213    0.3341 N   0  0  0  0  0  0  0  0  0  0  0  0
    4.6825   -0.0033    0.6474 N   0  0  0  0  0  0  0  0  0  0  0  0
   -6.8149    0.6849   -0.2069 C   0  0  0  0  0  0  0  0  0  0  0  0
   -7.6302   -0.0912   -1.1880 C   0  0  0  0  0  0  0  0  0  0  0  0
   -7.7502    1.2066    0.8755 C   0  0  0  0  0  0  0  0  0  0  0  0
   -8.9730    0.5987   -1.3763 C   0  0  0  0  0  0  0  0  0  0  0  0
   -8.4859    2.3969    0.2899 C   0  0  0  0  0  0  0  0  0  0  0  0
   -8.8390    2.0957   -1.1567 C   0  0  0  0  0  0  0  0  0  0  0  0
   -4.7615   -0.5576   -0.4547 C   0  0  0  0  0  0  0  0  0  0  0  0
   -1.1048   -1.4043   -0.1850 C   0  0  0  0  0  0  0  0  0  0  0  0
    0.9571    0.0019    1.3240 C   0  0  0  0  0  0  0  0  0  0  0  0
    2.2714    0.3875    0.6595 C   0  0  0  0  0  0  0  0  0  0  0  0
   -0.9240    0.0771   -0.3627 C   0  0  0  0  0  0  0  0  0  0  0  0
   -0.7296   -1.7515    1.2356 C   0  0  0  0  0  0  0  0  0  0  0  0
   -0.1804    0.7642    0.7268 C   0  0  0  0  0  0  0  0  0  0  0  0
    0.7689   -1.4868    1.3568 C   0  0  0  0  0  0  0  0  0  0  0  0
    3.4297   -0.3519    1.2393 C   0  0  0  0  0  0  0  0  0  0  0  0
    4.9270   -0.4112   -0.6827 C   0  0  0  0  0  0  0  0  0  0  0  0
    6.3038    0.0943   -1.1637 C   0  0  0  0  0  0  0  0  0  0  0  0
    7.3021   -0.2527   -0.1294 C   0  0  0  0  0  0  0  0  0  0  0  0
    6.1355    1.5049   -1.5537 C   0  0  0  0  0  0  0  0  0  0  0  0
    8.2279    0.8452    0.2875 C   0  0  0  0  0  0  0  0  0  0  0  0
    7.3569    2.3670   -1.3700 C   0  0  0  0  0  0  0  0  0  0  0  0
    7.7289    2.2319    0.1084 C   0  0  0  0  0  0  0  0  0  0  0  0
    7.1348   -2.0469    1.2361 C   0  0  0  0  0  0  0  0  0  0  0  0
   -5.5481   -2.2674   -0.9157 H   0  0  0  0  0  0  0  0  0  0  0  0
   -2.2271   -3.9681    0.1733 H   0  0  0  0  0  0  0  0  0  0  0  0
   -3.4026   -1.9383   -2.7965 H   0  0  0  0  0  0  0  0  0  0  0  0
    3.8189   -0.8391   -2.2528 H   0  0  0  0  0  0  0  0  0  0  0  0
   -6.1030   -0.8363    1.0121 H   0  0  0  0  0  0  0  0  0  0  0  0
   -4.3248   -2.1082    0.7686 H   0  0  0  0  0  0  0  0  0  0  0  0
    4.9088    0.9696    0.8844 H   0  0  0  0  0  0  0  0  0  0  0  0
   -6.4010    1.5774   -0.7117 H   0  0  0  0  0  0  0  0  0  0  0  0
   -7.7888   -1.1247   -0.8395 H   0  0  0  0  0  0  0  0  0  0  0  0
   -7.0905   -0.1493   -2.1658 H   0  0  0  0  0  0  0  0  0  0  0  0
   -7.2263    1.4392    1.8078 H   0  0  0  0  0  0  0  0  0  0  0  0
   -8.5279    0.4052    1.0185 H   0  0  0  0  0  0  0  0  0  0  0  0
   -9.2713    0.4413   -2.4257 H   0  0  0  0  0  0  0  0  0  0  0  0
   -9.7092    0.1853   -0.6739 H   0  0  0  0  0  0  0  0  0  0  0  0
   -7.8018    3.2739    0.2920 H   0  0  0  0  0  0  0  0  0  0  0  0
   -9.3900    2.6621    0.8676 H   0  0  0  0  0  0  0  0  0  0  0  0
   -9.8161    2.5498   -1.3600 H   0  0  0  0  0  0  0  0  0  0  0  0
   -8.0841    2.5080   -1.8439 H   0  0  0  0  0  0  0  0  0  0  0  0
   -4.2499    0.2444   -1.0268 H   0  0  0  0  0  0  0  0  0  0  0  0
   -0.3243   -1.8774   -0.8456 H   0  0  0  0  0  0  0  0  0  0  0  0
    1.0611    0.3445    2.3935 H   0  0  0  0  0  0  0  0  0  0  0  0
    2.1272    0.2131   -0.4045 H   0  0  0  0  0  0  0  0  0  0  0  0
    2.4742    1.4760    0.8070 H   0  0  0  0  0  0  0  0  0  0  0  0
   -1.9667    0.5141   -0.3684 H   0  0  0  0  0  0  0  0  0  0  0  0
   -0.5351    0.3011   -1.3971 H   0  0  0  0  0  0  0  0  0  0  0  0
   -1.2442   -1.0888    1.9662 H   0  0  0  0  0  0  0  0  0  0  0  0
   -1.0002   -2.7850    1.5201 H   0  0  0  0  0  0  0  0  0  0  0  0
    0.2742    1.6932    0.2675 H   0  0  0  0  0  0  0  0  0  0  0  0
   -0.8758    1.1633    1.5089 H   0  0  0  0  0  0  0  0  0  0  0  0
    1.2303   -1.9841    0.4607 H   0  0  0  0  0  0  0  0  0  0  0  0
    1.0952   -1.9699    2.2979 H   0  0  0  0  0  0  0  0  0  0  0  0
    3.2270   -1.4594    1.1582 H   0  0  0  0  0  0  0  0  0  0  0  0
    3.5307   -0.0859    2.3366 H   0  0  0  0  0  0  0  0  0  0  0  0
    5.0057   -1.5403   -0.6922 H   0  0  0  0  0  0  0  0  0  0  0  0
    6.4641   -0.4986   -2.1170 H   0  0  0  0  0  0  0  0  0  0  0  0
    7.9446   -1.0626   -0.5308 H   0  0  0  0  0  0  0  0  0  0  0  0
    5.8414    1.5944   -2.6387 H   0  0  0  0  0  0  0  0  0  0  0  0
    5.2997    2.0088   -1.0073 H   0  0  0  0  0  0  0  0  0  0  0  0
    8.4982    0.7461    1.3803 H   0  0  0  0  0  0  0  0  0  0  0  0
    9.2120    0.7749   -0.2410 H   0  0  0  0  0  0  0  0  0  0  0  0
    8.2154    2.0426   -1.9803 H   0  0  0  0  0  0  0  0  0  0  0  0
    8.5494    2.9286    0.3765 H   0  0  0  0  0  0  0  0  0  0  0  0
    6.8259    2.3979    0.7301 H   0  0  0  0  0  0  0  0  0  0  0  0
    6.6309   -2.4090    2.1788 H   0  0  0  0  0  0  0  0  0  0  0  0
    8.2213   -2.1030    1.4584 H   0  0  0  0  0  0  0  0  0  0  0  0
    6.8966   -2.7399    0.4198 H   0  0  0  0  0  0  0  0  0  0  0  0
   -5.5481   -2.2674   -0.9157 H   0  0  0  0  0  0  0  0  0  0  0  0
   -2.2271   -3.9681    0.1733 H   0  0  0  0  0  0  0  0  0  0  0  0
   -3.4026   -1.9383   -2.7965 H   0  0  0  0  0  0  0  0  0  0  0  0
    3.8189   -0.8391   -2.2528 H   0  0  0  0  0  0  0  0  0  0  0  0
   -6.1030   -0.8363    1.0121 H   0  0  0  0  0  0  0  0  0  0  0  0
   -4.3248   -2.1082    0.7686 H   0  0  0  0  0  0  0  0  0  0  0  0
    4.9088    0.9696    0.8844 H   0  0  0  0  0  0  0  0  0  0  0  0
   -6.4010    1.5774   -0.7117 H   0  0  0  0  0  0  0  0  0  0  0  0
   -7.7888   -1.1247   -0.8395 H   0  0  0  0  0  0  0  0  0  0  0  0
   -7.0905   -0.1493   -2.1658 H   0  0  0  0  0  0  0  0  0  0  0  0
   -7.2263    1.4392    1.8078 H   0  0  0  0  0  0  0  0  0  0  0  0
   -8.5279    0.4052    1.0185 H   0  0  0  0  0  0  0  0  0  0  0  0
   -9.2713    0.4413   -2.4257 H   0  0  0  0  0  0  0  0  0  0  0  0
   -9.7092    0.1853   -0.6739 H   0  0  0  0  0  0  0  0  0  0  0  0
   -7.8018    3.2739    0.2920 H   0  0  0  0  0  0  0  0  0  0  0  0
   -9.3900    2.6621    0.8676 H   0  0  0  0  0  0  0  0  0  0  0  0
   -9.8161    2.5498   -1.3600 H   0  0  0  0  0  0  0  0  0  0  0  0
   -8.0841    2.5080   -1.8439 H   0  0  0  0  0  0  0  0  0  0  0  0
   -4.2499    0.2444   -1.0268 H   0  0  0  0  0  0  0  0  0  0  0  0
   -0.3243   -1.8774   -0.8456 H   0  0  0  0  0  0  0  0  0  0  0  0
    1.0611    0.3445    2.3935 H   0  0  0  0  0  0  0  0  0  0  0  0
    2.1272    0.2131   -0.4045 H   0  0  0  0  0  0  0  0  0  0  0  0
    2.4742    1.4760    0.8070 H   0  0  0  0  0  0  0  0  0  0  0  0
   -1.9667    0.5141   -0.3684 H   0  0  0  0  0  0  0  0  0  0  0  0
   -0.5351    0.3011   -1.3971 H   0  0  0  0  0  0  0  0  0  0  0  0
   -1.2442   -1.0888    1.9662 H   0  0  0  0  0  0  0  0  0  0  0  0
   -1.0002   -2.7850    1.5201 H   0  0  0  0  0  0  0  0  0  0  0  0
    0.2742    1.6932    0.2675 H   0  0  0  0  0  0  0  0  0  0  0  0
   -0.8758    1.1633    1.5089 H   0  0  0  0  0  0  0  0  0  0  0  0
    1.2303   -1.9841    0.4607 H   0  0  0  0  0  0  0  0  0  0  0  0
    1.0952   -1.9699    2.2979 H   0  0  0  0  0  0  0  0  0  0  0  0
    3.2270   -1.4594    1.1582 H   0  0  0  0  0  0  0  0  0  0  0  0
    3.5307   -0.0859    2.3366 H   0  0  0  0  0  0  0  0  0  0  0  0
    5.0057   -1.5403   -0.6922 H   0  0  0  0  0  0  0  0  0  0  0  0
    6.4641   -0.4986   -2.1170 H   0  0  0  0  0  0  0  0  0  0  0  0
    7.9446   -1.0626   -0.5308 H   0  0  0  0  0  0  0  0  0  0  0  0
    5.8414    1.5944   -2.6387 H   0  0  0  0  0  0  0  0  0  0  0  0
    5.2997    2.0088   -1.0073 H   0  0  0  0  0  0  0  0  0  0  0  0
    8.4982    0.7461    1.3803 H   0  0  0  0  0  0  0  0  0  0  0  0
    9.2120    0.7749   -0.2410 H   0  0  0  0  0  0  0  0  0  0  0  0
    8.2154    2.0426   -1.9803 H   0  0  0  0  0  0  0  0  0  0  0  0
    8.5494    2.9286    0.3765 H   0  0  0  0  0  0  0  0  0  0  0  0
    6.8259    2.3979    0.7301 H   0  0  0  0  0  0  0  0  0  0  0  0
    6.6309   -2.4090    2.1788 H   0  0  0  0  0  0  0  0  0  0  0  0
    8.2213   -2.1030    1.4584 H   0  0  0  0  0  0  0  0  0  0  0  0
    6.8966   -2.7399    0.4198 H   0  0  0  0  0  0  0  0  0  0  0  0
   -5.5481   -2.2674   -0.9157 H   0  0  0  0  0  0  0  0  0  0  0  0
   -2.2271   -3.9681    0.1733 H   0  0  0  0  0  0  0  0  0  0  0  0
   -3.4026   -1.9383   -2.7965 H   0  0  0  0  0  0  0  0  0  0  0  0
    3.8189   -0.8391   -2.2528 H   0  0  0  0  0  0  0  0  0  0  0  0
   -6.1030   -0.8363    1.0121 H   0  0  0  0  0  0  0  0  0  0  0  0
   -4.3248   -2.1082    0.7686 H   0  0  0  0  0  0  0  0  0  0  0  0
    4.9088    0.9696    0.8844 H   0  0  0  0  0  0  0  0  0  0  0  0
   -6.4010    1.5774   -0.7117 H   0  0  0  0  0  0  0  0  0  0  0  0
   -7.7888   -1.1247   -0.8395 H   0  0  0  0  0  0  0  0  0  0  0  0
   -7.0905   -0.1493   -2.1658 H   0  0  0  0  0  0  0  0  0  0  0  0
   -7.2263    1.4392    1.8078 H   0  0  0  0  0  0  0  0  0  0  0  0
   -8.5279    0.4052    1.0185 H   0  0  0  0  0  0  0  0  0  0  0  0
   -9.2713    0.4413   -2.4257 H   0  0  0  0  0  0  0  0  0  0  0  0
   -9.7092    0.1853   -0.6739 H   0  0  0  0  0  0  0  0  0  0  0  0
   -7.8018    3.2739    0.2920 H   0  0  0  0  0  0  0  0  0  0  0  0
   -9.3900    2.6621    0.8676 H   0  0  0  0  0  0  0  0  0  0  0  0
   -9.8161    2.5498   -1.3600 H   0  0  0  0  0  0  0  0  0  0  0  0
   -8.0841    2.5080   -1.8439 H   0  0  0  0  0  0  0  0  0  0  0  0
   -4.2499    0.2444   -1.0268 H   0  0  0  0  0  0  0  0  0  0  0  0
   -0.3243   -1.8774   -0.8456 H   0  0  0  0  0  0  0  0  0  0  0  0
    1.0611    0.3445    2.3935 H   0  0  0  0  0  0  0  0  0  0  0  0
    2.1272    0.2131   -0.4045 H   0  0  0  0  0  0  0  0  0  0  0  0
    2.4742    1.4760    0.8070 H   0  0  0  0  0  0  0  0  0  0  0  0
   -1.9667    0.5141   -0.3684 H   0  0  0  0  0  0  0  0  0  0  0  0
   -0.5351    0.3011   -1.3971 H   0  0  0  0  0  0  0  0  0  0  0  0
   -1.2442   -1.0888    1.9662 H   0  0  0  0  0  0  0  0  0  0  0  0
   -1.0002   -2.7850    1.5201 H   0  0  0  0  0  0  0  0  0  0  0  0
    0.2742    1.6932    0.2675 H   0  0  0  0  0  0  0  0  0  0  0  0
   -0.8758    1.1633    1.5089 H   0  0  0  0  0  0  0  0  0  0  0  0
    1.2303   -1.9841    0.4607 H   0  0  0  0  0  0  0  0  0  0  0  0
    1.0952   -1.9699    2.2979 H   0  0  0  0  0  0  0  0  0  0  0  0
    3.2270   -1.4594    1.1582 H   0  0  0  0  0  0  0  0  0  0  0  0
    3.5307   -0.0859    2.3366 H   0  0  0  0  0  0  0  0  0  0  0  0
    5.0057   -1.5403   -0.6922 H   0  0  0  0  0  0  0  0  0  0  0  0
    6.4641   -0.4986   -2.1170 H   0  0  0  0  0  0  0  0  0  0  0  0
    7.9446   -1.0626   -0.5308 H   0  0  0  0  0  0  0  0  0  0  0  0
    5.8414    1.5944   -2.6387 H   0  0  0  0  0  0  0  0  0  0  0  0
    5.2997    2.0088   -1.0073 H   0  0  0  0  0  0  0  0  0  0  0  0
    8.4982    0.7461    1.3803 H   0  0  0  0  0  0  0  0  0  0  0  0
    9.2120    0.7749   -0.2410 H   0  0  0  0  0  0  0  0  0  0  0  0
    8.2154    2.0426   -1.9803 H   0  0  0  0  0  0  0  0  0  0  0  0
    8.5494    2.9286    0.3765 H   0  0  0  0  0  0  0  0  0  0  0  0
    6.8259    2.3979    0.7301 H   0  0  0  0  0  0  0  0  0  0  0  0
    6.6309   -2.4090    2.1788 H   0  0  0  0  0  0  0  0  0  0  0  0
    8.2213   -2.1030    1.4584 H   0  0  0  0  0  0  0  0  0  0  0  0
    6.8966   -2.7399    0.4198 H   0  0  0  0  0  0  0  0  0  0  0  0
   -5.5481   -2.2674   -0.9157 H   0  0  0  0  0  0  0  0  0  0  0  0
   -2.2271   -3.9681    0.1733 H   0  0  0  0  0  0  0  0  0  0  0  0
   -3.4026   -1.9383   -2.7965 H   0  0  0  0  0  0  0  0  0  0  0  0
    3.8189   -0.8391   -2.2528 H   0  0  0  0  0  0  0  0  0  0  0  0
   -6.1030   -0.8363    1.0121 H   0  0  0  0  0  0  0  0  0  0  0  0
   -4.3248   -2.1082    0.7686 H   0  0  0  0  0  0  0  0  0  0  0  0
    4.9088    0.9696    0.8844 H   0  0  0  0  0  0  0  0  0  0  0  0
   -6.4010    1.5774   -0.7117 H   0  0  0  0  0  0  0  0  0  0  0  0
   -7.7888   -1.1247   -0.8395 H   0  0  0  0  0  0  0  0  0  0  0  0
   -7.0905   -0.1493   -2.1658 H   0  0  0  0  0  0  0  0  0  0  0  0
   -7.2263    1.4392    1.8078 H   0  0  0  0  0  0  0  0  0  0  0  0
   -8.5279    0.4052    1.0185 H   0  0  0  0  0  0  0  0  0  0  0  0
   -9.2713    0.4413   -2.4257 H   0  0  0  0  0  0  0  0  0  0  0  0
   -9.7092    0.1853   -0.6739 H   0  0  0  0  0  0  0  0  0  0  0  0
   -7.8018    3.2739    0.2920 H   0  0  0  0  0  0  0  0  0  0  0  0
   -9.3900    2.6621    0.8676 H   0  0  0  0  0  0  0  0  0  0  0  0
   -9.8161    2.5498   -1.3600 H   0  0  0  0  0  0  0  0  0  0  0  0
   -8.0841    2.5080   -1.8439 H   0  0  0  0  0  0  0  0  0  0  0  0
   -4.2499    0.2444   -1.0268 H   0  0  0  0  0  0  0  0  0  0  0  0
   -0.3243   -1.8774   -0.8456 H   0  0  0  0  0  0  0  0  0  0  0  0
    1.0611    0.3445    2.3935 H   0  0  0  0  0  0  0  0  0  0  0  0
    2.1272    0.2131   -0.4045 H   0  0  0  0  0  0  0  0  0  0  0  0
    2.4742    1.4760    0.8070 H   0  0  0  0  0  0  0  0  0  0  0  0
   -1.9667    0.5141   -0.3684 H   0  0  0  0  0  0  0  0  0  0  0  0
   -0.5351    0.3011   -1.3971 H   0  0  0  0  0  0  0  0  0  0  0  0
   -1.2442   -1.0888    1.9662 H   0  0  0  0  0  0  0  0  0  0  0  0
   -1.0002   -2.7850    1.5201 H   0  0  0  0  0  0  0  0  0  0  0  0
    0.2742    1.6932    0.2675 H   0  0  0  0  0  0  0  0  0  0  0  0
   -0.8758    1.1633    1.5089 H   0  0  0  0  0  0  0  0  0  0  0  0
    1.2303   -1.9841    0.4607 H   0  0  0  0  0  0  0  0  0  0  0  0
    1.0952   -1.9699    2.2979 H   0  0  0  0  0  0  0  0  0  0  0  0
    3.2270   -1.4594    1.1582 H   0  0  0  0  0  0  0  0  0  0  0  0
    3.5307   -0.0859    2.3366 H   0  0  0  0  0  0  0  0  0  0  0  0
    5.0057   -1.5403   -0.6922 H   0  0  0  0  0  0  0  0  0  0  0  0
    6.4641   -0.4986   -2.1170 H   0  0  0  0  0  0  0  0  0  0  0  0
    7.9446   -1.0626   -0.5308 H   0  0  0  0  0  0  0  0  0  0  0  0
    5.8414    1.5944   -2.6387 H   0  0  0  0  0  0  0  0  0  0  0  0
    5.2997    2.0088   -1.0073 H   0  0  0  0  0  0  0  0  0  0  0  0
    8.4982    0.7461    1.3803 H   0  0  0  0  0  0  0  0  0  0  0  0
    9.2120    0.7749   -0.2410 H   0  0  0  0  0  0  0  0  0  0  0  0
    8.2154    2.0426   -1.9803 H   0  0  0  0  0  0  0  0  0  0  0  0
    8.5494    2.9286    0.3765 H   0  0  0  0  0  0  0  0  0  0  0  0
    6.8259    2.3979    0.7301 H   0  0  0  0  0  0  0  0  0  0  0  0
    6.6309   -2.4090    2.1788 H   0  0  0  0  0  0  0  0  0  0  0  0
    8.2213   -2.1030    1.4584 H   0  0  0  0  0  0  0  0  0  0  0  0
    6.8966   -2.7399    0.4198 H   0  0  0  0  0  0  0  0  0  0  0  0
  6  2  1  0
  3  6  1  0
  6  9  1  0
  8 11  1  0
 11 12  1  0
 11 13  1  0
 12 14  1  0
 13 15  1  0
 14 16  1  0
 15 16  1  0
  1 17  1  0
  8 17  1  0
  9 17  1  0
  6 18  1  0
 19 20  1  0
 18 21  1  0
 18 22  1  0
 19 23  1  0
 21 23  1  0
 19 24  1  0
 22 24  1  0
 10 25  1  0
 20 25  1  0
  4 26  1  0
 10 26  1  0
 26 27  1  0
  7 28  1  0
 27 28  1  0
 27 29  1  0
 28 30  1  0
  5 31  1  0
 29 31  1  0
 30 32  1  0
 31 32  1  0
  7 33  1  0
 39 35  1  0
 36 39  1  0
 39 42  1  0
 41 44  1  0
 44 45  1  0
 44 46  1  0
 45 47  1  0
 46 48  1  0
 47 49  1  0
 48 49  1  0
 34 50  1  0
 41 50  1  0
 42 50  1  0
 39 51  1  0
 52 53  1  0
 51 54  1  0
 51 55  1  0
 52 56  1  0
 54 56  1  0
 52 57  1  0
 55 57  1  0
 43 58  1  0
 53 58  1  0
 37 59  1  0
 43 59  1  0
 59 60  1  0
 40 61  1  0
 60 61  1  0
 60 62  1  0
 61 63  1  0
 38 64  1  0
 62 64  1  0
 63 65  1  0
 64 65  1  0
 40 66  1  0
 72 68  1  0
 69 72  1  0
 72 75  1  0
 74 77  1  0
 77 78  1  0
 77 79  1  0
 78 80  1  0
 79 81  1  0
 80 82  1  0
 81 82  1  0
 67 83  1  0
 74 83  1  0
 75 83  1  0
 72 84  1  0
 85 86  1  0
 84 87  1  0
 84 88  1  0
 85 89  1  0
 87 89  1  0
 85 90  1  0
 88 90  1  0
 76 91  1  0
 86 91  1  0
 70 92  1  0
 76 92  1  0
 92 93  1  0
 73 94  1  0
 93 94  1  0
 93 95  1  0
 94 96  1  0
 71 97  1  0
 95 97  1  0
 96 98  1  0
 97 98  1  0
 73 99  1  0
105101  1  0
102105  1  0
105108  1  0
107110  1  0
110111  1  0
110112  1  0
111113  1  0
112114  1  0
113115  1  0
114115  1  0
100116  1  0
107116  1  0
108116  1  0
105117  1  0
118119  1  0
117120  1  0
117121  1  0
118122  1  0
120122  1  0
118123  1  0
121123  1  0
109124  1  0
119124  1  0
103125  1  0
109125  1  0
125126  1  0
106127  1  0
126127  1  0
126128  1  0
127129  1  0
104130  1  0
128130  1  0
129131  1  0
130131  1  0
106132  1  0
  1133  1  0
  2134  1  0
  3135  1  0
  4136  1  0
  8137  1  0
  9138  1  0
 10139  1  0
 11140  1  0
 12141  1  0
 12142  1  0
 13143  1  0
 13144  1  0
 14145  1  0
 14146  1  0
 15147  1  0
 15148  1  0
 16149  1  0
 16150  1  0
 17151  1  0
 18152  1  0
 19153  1  0
 20154  1  0
 20155  1  0
 21156  1  0
 21157  1  0
 22158  1  0
 22159  1  0
 23160  1  0
 23161  1  0
 24162  1  0
 24163  1  0
 25164  1  0
 25165  1  0
 26166  1  0
 27167  1  0
 28168  1  0
 29169  1  0
 29170  1  0
 30171  1  0
 30172  1  0
 31173  1  0
 32174  1  0
 32175  1  0
 33176  1  0
 33177  1  0
 33178  1  0
 34179  1  0
 35180  1  0
 36181  1  0
 37182  1  0
 41183  1  0
 42184  1  0
 43185  1  0
 44186  1  0
 45187  1  0
 45188  1  0
 46189  1  0
 46190  1  0
 47191  1  0
 47192  1  0
 48193  1  0
 48194  1  0
 49195  1  0
 49196  1  0
 50197  1  0
 51198  1  0
 52199  1  0
 53200  1  0
 53201  1  0
 54202  1  0
 54203  1  0
 55204  1  0
 55205  1  0
 56206  1  0
 56207  1  0
 57208  1  0
 57209  1  0
 58210  1  0
 58211  1  0
 59212  1  0
 60213  1  0
 61214  1  0
 62215  1  0
 62216  1  0
 63217  1  0
 63218  1  0
 64219  1  0
 65220  1  0
 65221  1  0
 66222  1  0
 66223  1  0
 66224  1  0
 67225  1  0
 68226  1  0
 69227  1  0
 70228  1  0
 74229  1  0
 75230  1  0
 76231  1  0
 77232  1  0
 78233  1  0
 78234  1  0
 79235  1  0
 79236  1  0
 80237  1  0
 80238  1  0
 81239  1  0
 81240  1  0
 82241  1  0
 82242  1  0
 83243  1  0
 84244  1  0
 85245  1  0
 86246  1  0
 86247  1  0
 87248  1  0
 87249  1  0
 88250  1  0
 88251  1  0
 89252  1  0
 89253  1  0
 90254  1  0
 90255  1  0
 91256  1  0
 91257  1  0
 92258  1  0
 93259  1  0
 94260  1  0
 95261  1  0
 95262  1  0
 96263  1  0
 96264  1  0
 97265  1  0
 98266  1  0
 98267  1  0
 99268  1  0
 99269  1  0
 99270  1  0
100271  1  0
101272  1  0
102273  1  0
103274  1  0
107275  1  0
108276  1  0
109277  1  0
110278  1  0
111279  1  0
111280  1  0
112281  1  0
112282  1  0
113283  1  0
113284  1  0
114285  1  0
114286  1  0
115287  1  0
115288  1  0
116289  1  0
117290  1  0
118291  1  0
119292  1  0
119293  1  0
120294  1  0
120295  1  0
121296  1  0
121297  1  0
122298  1  0
122299  1  0
123300  1  0
123301  1  0
124302  1  0
124303  1  0
125304  1  0
126305  1  0
127306  1  0
128307  1  0
128308  1  0
129309  1  0
129310  1  0
130311  1  0
131312  1  0
131313  1  0
132314  1  0
132315  1  0
132316  1  0
M  END
>  <PDBID>  (1) 
6BAA

>  <PDB ID>  (1) 
6BAA

>  <Generic Name>  (1) 
Glyburide

>  <Brand Name>  (1) 
Apo Glyburide Tab 2.5mg#Apo Glyburide Tab 5mg#Ava-glyburide#Diabeta#Diabeta 5mg#Diabeta Tab 2.5mg#Diabeta Tab 5mg#Diabeta Tablets 2.5mg#Dom-glyburide#Euglucon#Glucovance#Glyburide#Glyburide (micronized) and Metformin Hydrochloride#Glyburide Tablets 2.5mg#Glyburide Tablets 5mg#Glyburide and Metformin#Glyburide and Metformin Hydrochloride#Glyburide-2.5 Tab 2.5mg#Glyburide-5 Tab 5mg#Glyburide-metformin Hydrochloride#Glynase#Med Glybe Tab 2.5mg#Med Glybe Tab 5mg#Mylan-glybe#Ntp-glyburide#Nu-glyburide Tab 2.5mg#Nu-glyburide Tab 5mg#PMS-glyburide#Penta-glyburide - 2.5mg#Penta-glyburide - 5mg#Pro-glyburide#Ratio-glyburide#Riva-glyburide#Sandoz Glyburide#Teva-glyburide#Daonil#Delmide#Micronase#Novo-Glyburide#Semi-Daonil

>  <DrugBank ID>  (1) 
DB01016

>  <ATC Codes>  (1) 
A10BB01

>  <Ligand ID>  (1) 
GBM

>  <Target Name>  (1) 
ATP-sensitive inward rectifier potassium channel 11

>  <UniProt ID>  (1) 
Q14654

>  <PDB ID.1>  (1) 
6BAA

>  <Seq. Identity>  (1) 
94%

$$$$
