PDB_DB06700_04
     RDKit          3D

 50 51  0  0  0  0  0  0  0  0999 V2000
   -2.0085    0.0026    1.2394 O   0  0  0  0  0  0  0  0  0  0  0  0
   -1.1265    0.6080    0.3016 C   0  0  0  0  0  0  0  0  0  0  0  0
   -1.8857    0.8476   -0.9973 C   0  0  0  0  0  0  0  0  0  0  0  0
   -0.9062    1.9876    0.8574 C   0  0  0  0  0  0  0  0  0  0  0  0
   -2.1347    2.8406    0.5227 C   0  0  0  0  0  0  0  0  0  0  0  0
   -3.3998    2.0658    0.4402 C   0  0  0  0  0  0  0  0  0  0  0  0
   -3.3381    0.9877   -0.6319 C   0  0  0  0  0  0  0  0  0  0  0  0
    0.0204   -0.2801    0.1505 C   0  0  1  0  0  0  0  0  0  0  0  0
   -0.2433   -1.6415   -0.3400 C   0  0  0  0  0  0  0  0  0  0  0  0
   -1.1071   -2.5164    0.4273 N   0  0  0  0  0  0  0  0  0  0  0  0
   -0.7263   -3.9372    0.0484 C   0  0  0  0  0  0  0  0  0  0  0  0
   -2.5005   -2.4884   -0.0477 C   0  0  0  0  0  0  0  0  0  0  0  0
    1.3244    0.2955   -0.3524 C   0  0  0  0  0  0  0  0  0  0  0  0
    2.3518   -0.8054   -0.5806 C   0  0  0  0  0  0  0  0  0  0  0  0
    3.6824   -0.1333   -0.9554 C   0  0  0  0  0  0  0  0  0  0  0  0
    4.2889    0.5159    0.2684 C   0  0  0  0  0  0  0  0  0  0  0  0
    4.8388    1.7530    0.0362 O   0  0  0  0  0  0  0  0  0  0  0  0
    3.2294    0.5751    1.3087 C   0  0  0  0  0  0  0  0  0  0  0  0
    1.9236    1.1710    0.7454 C   0  0  0  0  0  0  0  0  0  0  0  0
   -1.4158   -0.4104    1.9163 H   0  0  0  0  0  0  0  0  0  0  0  0
   -1.6690    0.1037   -1.7767 H   0  0  0  0  0  0  0  0  0  0  0  0
   -1.5516    1.8260   -1.4492 H   0  0  0  0  0  0  0  0  0  0  0  0
   -0.0823    2.5334    0.3658 H   0  0  0  0  0  0  0  0  0  0  0  0
   -0.7633    2.0102    1.9620 H   0  0  0  0  0  0  0  0  0  0  0  0
   -2.0004    3.4538   -0.3703 H   0  0  0  0  0  0  0  0  0  0  0  0
   -2.2490    3.5585    1.3690 H   0  0  0  0  0  0  0  0  0  0  0  0
   -4.2038    2.7633    0.1322 H   0  0  0  0  0  0  0  0  0  0  0  0
   -3.7353    1.6592    1.4294 H   0  0  0  0  0  0  0  0  0  0  0  0
   -3.9614    1.2502   -1.5135 H   0  0  0  0  0  0  0  0  0  0  0  0
   -3.6765    0.0614   -0.1463 H   0  0  0  0  0  0  0  0  0  0  0  0
    0.3129   -0.4954    1.2887 H   0  0  0  0  0  0  0  0  0  0  0  0
    0.6891   -2.2438   -0.5035 H   0  0  0  0  0  0  0  0  0  0  0  0
   -0.7084   -1.6352   -1.3742 H   0  0  0  0  0  0  0  0  0  0  0  0
    0.1068   -4.2520    0.6694 H   0  0  0  0  0  0  0  0  0  0  0  0
   -1.6099   -4.5882    0.1168 H   0  0  0  0  0  0  0  0  0  0  0  0
   -0.4502   -3.8503   -1.0183 H   0  0  0  0  0  0  0  0  0  0  0  0
   -3.1960   -2.2750    0.7803 H   0  0  0  0  0  0  0  0  0  0  0  0
   -2.8307   -3.5312   -0.3814 H   0  0  0  0  0  0  0  0  0  0  0  0
   -2.6316   -1.8948   -0.9598 H   0  0  0  0  0  0  0  0  0  0  0  0
    1.1582    0.8217   -1.2846 H   0  0  0  0  0  0  0  0  0  0  0  0
    2.1062   -1.3695   -1.5334 H   0  0  0  0  0  0  0  0  0  0  0  0
    2.5152   -1.4338    0.2744 H   0  0  0  0  0  0  0  0  0  0  0  0
    3.5646    0.5550   -1.8017 H   0  0  0  0  0  0  0  0  0  0  0  0
    4.3606   -0.9519   -1.2645 H   0  0  0  0  0  0  0  0  0  0  0  0
    5.1104   -0.1324    0.6856 H   0  0  0  0  0  0  0  0  0  0  0  0
    4.4396    2.2492   -0.7103 H   0  0  0  0  0  0  0  0  0  0  0  0
    3.0404   -0.3372    1.8727 H   0  0  0  0  0  0  0  0  0  0  0  0
    3.5623    1.3744    2.0428 H   0  0  0  0  0  0  0  0  0  0  0  0
    1.2854    1.2025    1.6513 H   0  0  0  0  0  0  0  0  0  0  0  0
    2.2003    2.1305    0.3119 H   0  0  0  0  0  0  0  0  0  0  0  0
  2  1  1  0
  2  3  1  0
  2  4  1  0
  4  5  1  0
  5  6  1  0
  3  7  1  0
  6  7  1  0
  2  8  1  0
  8  9  1  0
  9 10  1  0
 10 11  1  0
 10 12  1  0
  8 13  1  0
 13 14  1  0
 14 15  1  0
 15 16  1  0
 16 17  1  0
 16 18  1  0
 13 19  1  0
 18 19  1  0
  1 20  1  0
  3 21  1  0
  3 22  1  0
  4 23  1  0
  4 24  1  0
  5 25  1  0
  5 26  1  0
  6 27  1  0
  6 28  1  0
  7 29  1  0
  7 30  1  0
  8 31  1  1
  9 32  1  0
  9 33  1  0
 11 34  1  0
 11 35  1  0
 11 36  1  0
 12 37  1  0
 12 38  1  0
 12 39  1  0
 13 40  1  0
 14 41  1  0
 14 42  1  0
 15 43  1  0
 15 44  1  0
 16 45  1  0
 17 46  1  0
 18 47  1  0
 18 48  1  0
 19 49  1  0
 19 50  1  0
M  END
>  <PDBID>  (1) 
4MM7

>  <PDB ID>  (1) 
4MM7

>  <Generic Name>  (1) 
Desvenlafaxine

>  <Brand Name>  (1) 
Desvenlafaxine#Desvenlafaxine Extended-release#Desvenlafaxine Succinate#Gd-desvenlafaxine#Khedezla Extended-release#Pristiq#Pristiq Extended Release#Pristiq Extended-release#Pristiq Extended-release Extended-release#Zyven-OD

>  <DrugBank ID>  (1) 
DB06700

>  <ATC Codes>  (1) 
N06AX23

>  <Ligand ID>  (1) 
29J

>  <Target Name>  (1) 
Sodium-dependent noradrenaline transporter

>  <UniProt ID>  (1) 
P23975

>  <PDB ID.1>  (1) 
4MM7

>  <Seq. Identity>  (1) 
30%

$$$$
