PDB_DB00299_08
     RDKit          3D

 82 84  0  0  0  0  0  0  0  0999 V2000
   -3.2699    0.7573   -1.2262 C   0  0  0  0  0  0  0  0  0  0  0  0
   -1.1614    0.0820   -0.2471 C   0  0  0  0  0  0  0  0  0  0  0  0
   -1.9328   -0.2823    0.9729 C   0  0  0  0  0  0  0  0  0  0  0  0
    4.1611    0.9304   -1.3813 C   0  0  0  0  0  0  0  0  0  0  0  0
    3.8009    2.2578   -1.2201 O   0  0  0  0  0  0  0  0  0  0  0  0
    3.5040    0.3850    0.9051 C   0  0  0  0  0  0  0  0  0  0  0  0
    4.8930    0.2346    1.1529 O   0  0  0  0  0  0  0  0  0  0  0  0
    3.3085   -0.0061   -0.5211 C   0  0  0  0  0  0  0  0  0  0  0  0
    1.8730    0.0028   -0.9929 C   0  0  0  0  0  0  0  0  0  0  0  0
    1.0708   -0.9010   -0.1482 C   0  0  0  0  0  0  0  0  0  0  0  0
   -0.3038   -1.0313   -0.4619 N   0  0  0  0  0  0  0  0  0  0  0  0
   -1.9375    0.2915   -1.4347 N   0  0  0  0  0  0  0  0  0  0  0  0
   -3.3244    2.1148   -0.7675 N   0  0  0  0  0  0  0  0  0  0  0  0
   -3.9779   -0.1848   -0.4312 N   0  0  0  0  0  0  0  0  0  0  0  0
   -3.3749   -0.5735    0.7920 C   0  0  0  0  0  0  0  0  0  0  0  0
   -4.0785    0.0768    1.8289 O   0  0  0  0  0  0  0  0  0  0  0  0
   -1.2933   -1.4870    1.4812 N   0  0  0  0  0  0  0  0  0  0  0  0
   -0.8619   -2.1513    0.2733 C   0  0  0  0  0  0  0  0  0  0  0  0
   -3.2699    0.7573   -1.2262 C   0  0  0  0  0  0  0  0  0  0  0  0
   -1.1614    0.0820   -0.2471 C   0  0  0  0  0  0  0  0  0  0  0  0
   -1.9328   -0.2823    0.9729 C   0  0  0  0  0  0  0  0  0  0  0  0
    4.1611    0.9304   -1.3813 C   0  0  0  0  0  0  0  0  0  0  0  0
    3.8009    2.2578   -1.2201 O   0  0  0  0  0  0  0  0  0  0  0  0
    3.5040    0.3850    0.9051 C   0  0  0  0  0  0  0  0  0  0  0  0
    4.8930    0.2346    1.1529 O   0  0  0  0  0  0  0  0  0  0  0  0
    3.3085   -0.0061   -0.5211 C   0  0  0  0  0  0  0  0  0  0  0  0
    1.8730    0.0028   -0.9929 C   0  0  0  0  0  0  0  0  0  0  0  0
    1.0708   -0.9010   -0.1482 C   0  0  0  0  0  0  0  0  0  0  0  0
   -0.3038   -1.0313   -0.4619 N   0  0  0  0  0  0  0  0  0  0  0  0
   -1.9375    0.2915   -1.4347 N   0  0  0  0  0  0  0  0  0  0  0  0
   -3.3244    2.1148   -0.7675 N   0  0  0  0  0  0  0  0  0  0  0  0
   -3.9779   -0.1848   -0.4312 N   0  0  0  0  0  0  0  0  0  0  0  0
   -3.3749   -0.5735    0.7920 C   0  0  0  0  0  0  0  0  0  0  0  0
   -4.0785    0.0768    1.8289 O   0  0  0  0  0  0  0  0  0  0  0  0
   -1.2933   -1.4870    1.4812 N   0  0  0  0  0  0  0  0  0  0  0  0
   -0.8619   -2.1513    0.2733 C   0  0  0  0  0  0  0  0  0  0  0  0
   -3.7651    0.7372   -2.2441 H   0  0  0  0  0  0  0  0  0  0  0  0
   -0.6281    1.0348   -0.0498 H   0  0  0  0  0  0  0  0  0  0  0  0
   -1.7825    0.4898    1.7878 H   0  0  0  0  0  0  0  0  0  0  0  0
    5.2314    0.8246   -1.1771 H   0  0  0  0  0  0  0  0  0  0  0  0
    4.0274    0.6964   -2.4698 H   0  0  0  0  0  0  0  0  0  0  0  0
    3.0244    2.4154   -0.6523 H   0  0  0  0  0  0  0  0  0  0  0  0
    3.2884    1.4495    1.1169 H   0  0  0  0  0  0  0  0  0  0  0  0
    3.0366   -0.3130    1.6301 H   0  0  0  0  0  0  0  0  0  0  0  0
    5.2187   -0.6058    0.7465 H   0  0  0  0  0  0  0  0  0  0  0  0
    3.7848   -1.0077   -0.6605 H   0  0  0  0  0  0  0  0  0  0  0  0
    1.8942   -0.4174   -2.0303 H   0  0  0  0  0  0  0  0  0  0  0  0
    1.5496    1.0612   -0.9936 H   0  0  0  0  0  0  0  0  0  0  0  0
    1.1607   -0.5349    0.9090 H   0  0  0  0  0  0  0  0  0  0  0  0
    1.5242   -1.9097   -0.1582 H   0  0  0  0  0  0  0  0  0  0  0  0
   -1.9313   -0.5162   -2.0924 H   0  0  0  0  0  0  0  0  0  0  0  0
   -3.8108    2.1434    0.1625 H   0  0  0  0  0  0  0  0  0  0  0  0
   -3.8896    2.7230   -1.3972 H   0  0  0  0  0  0  0  0  0  0  0  0
   -4.9764    0.0959   -0.3466 H   0  0  0  0  0  0  0  0  0  0  0  0
   -3.6002   -1.6602    0.9428 H   0  0  0  0  0  0  0  0  0  0  0  0
   -4.3061   -0.5267    2.5636 H   0  0  0  0  0  0  0  0  0  0  0  0
   -0.4334   -1.1736    1.9852 H   0  0  0  0  0  0  0  0  0  0  0  0
   -1.6633   -2.6596   -0.2809 H   0  0  0  0  0  0  0  0  0  0  0  0
   -0.0486   -2.8621    0.4852 H   0  0  0  0  0  0  0  0  0  0  0  0
   -3.7651    0.7372   -2.2441 H   0  0  0  0  0  0  0  0  0  0  0  0
   -0.6281    1.0348   -0.0498 H   0  0  0  0  0  0  0  0  0  0  0  0
   -1.7825    0.4898    1.7878 H   0  0  0  0  0  0  0  0  0  0  0  0
    5.2314    0.8246   -1.1771 H   0  0  0  0  0  0  0  0  0  0  0  0
    4.0274    0.6964   -2.4698 H   0  0  0  0  0  0  0  0  0  0  0  0
    3.0244    2.4154   -0.6523 H   0  0  0  0  0  0  0  0  0  0  0  0
    3.2884    1.4495    1.1169 H   0  0  0  0  0  0  0  0  0  0  0  0
    3.0366   -0.3130    1.6301 H   0  0  0  0  0  0  0  0  0  0  0  0
    5.2187   -0.6058    0.7465 H   0  0  0  0  0  0  0  0  0  0  0  0
    3.7848   -1.0077   -0.6605 H   0  0  0  0  0  0  0  0  0  0  0  0
    1.8942   -0.4174   -2.0303 H   0  0  0  0  0  0  0  0  0  0  0  0
    1.5496    1.0612   -0.9936 H   0  0  0  0  0  0  0  0  0  0  0  0
    1.1607   -0.5349    0.9090 H   0  0  0  0  0  0  0  0  0  0  0  0
    1.5242   -1.9097   -0.1582 H   0  0  0  0  0  0  0  0  0  0  0  0
   -1.9313   -0.5162   -2.0924 H   0  0  0  0  0  0  0  0  0  0  0  0
   -3.8108    2.1434    0.1625 H   0  0  0  0  0  0  0  0  0  0  0  0
   -3.8896    2.7230   -1.3972 H   0  0  0  0  0  0  0  0  0  0  0  0
   -4.9764    0.0959   -0.3466 H   0  0  0  0  0  0  0  0  0  0  0  0
   -3.6002   -1.6602    0.9428 H   0  0  0  0  0  0  0  0  0  0  0  0
   -4.3061   -0.5267    2.5636 H   0  0  0  0  0  0  0  0  0  0  0  0
   -0.4334   -1.1736    1.9852 H   0  0  0  0  0  0  0  0  0  0  0  0
   -1.6633   -2.6596   -0.2809 H   0  0  0  0  0  0  0  0  0  0  0  0
   -0.0486   -2.8621    0.4852 H   0  0  0  0  0  0  0  0  0  0  0  0
  2  3  1  0
  4  5  1  0
  6  7  1  0
  4  8  1  0
  6  8  1  0
  8  9  1  0
  9 10  1  0
  2 11  1  0
 10 11  1  0
  1 12  1  0
  2 12  1  0
  1 13  1  0
  1 14  1  0
  3 15  1  0
 14 15  1  0
 15 16  1  0
  3 17  1  0
 11 18  1  0
 17 18  1  0
 20 21  1  0
 22 23  1  0
 24 25  1  0
 22 26  1  0
 24 26  1  0
 26 27  1  0
 27 28  1  0
 20 29  1  0
 28 29  1  0
 19 30  1  0
 20 30  1  0
 19 31  1  0
 19 32  1  0
 21 33  1  0
 32 33  1  0
 33 34  1  0
 21 35  1  0
 29 36  1  0
 35 36  1  0
  1 37  1  0
  2 38  1  0
  3 39  1  0
  4 40  1  0
  4 41  1  0
  5 42  1  0
  6 43  1  0
  6 44  1  0
  7 45  1  0
  8 46  1  0
  9 47  1  0
  9 48  1  0
 10 49  1  0
 10 50  1  0
 12 51  1  0
 13 52  1  0
 13 53  1  0
 14 54  1  0
 15 55  1  0
 16 56  1  0
 17 57  1  0
 18 58  1  0
 18 59  1  0
 19 60  1  0
 20 61  1  0
 21 62  1  0
 22 63  1  0
 22 64  1  0
 23 65  1  0
 24 66  1  0
 24 67  1  0
 25 68  1  0
 26 69  1  0
 27 70  1  0
 27 71  1  0
 28 72  1  0
 28 73  1  0
 30 74  1  0
 31 75  1  0
 31 76  1  0
 32 77  1  0
 33 78  1  0
 34 79  1  0
 35 80  1  0
 36 81  1  0
 36 82  1  0
M  END
>  <PDBID>  (1) 
1KI3

>  <PDB ID>  (1) 
1KI3

>  <Generic Name>  (1) 
Penciclovir

>  <Brand Name>  (1) 
Denavir#Penciclovir

>  <DrugBank ID>  (1) 
DB00299

>  <ATC Codes>  (1) 
D06BB06#J05AB13

>  <Ligand ID>  (1) 
PE2

>  <Target Name>  (1) 
Thymidine kinase

>  <UniProt ID>  (1) 
P06478

>  <PDB ID.1>  (1) 
1KI3

>  <Seq. Identity>  (1) 
98%

$$$$
