PDB_DB01263_02
     RDKit          3D

119125  0  0  0  0  0  0  0  0999 V2000
   11.9793   -2.9193   -0.1947 C   0  0  0  0  0  0  0  0  0  0  0  0
   12.2032    1.1255    0.5603 C   0  0  0  0  0  0  0  0  0  0  0  0
    8.2770   -0.9728   -2.0959 O   0  0  0  0  0  0  0  0  0  0  0  0
   12.5450    0.2366   -1.5830 O   0  0  0  0  0  0  0  0  0  0  0  0
   -9.8401   -0.8307   -2.0734 F   0  0  0  0  0  0  0  0  0  0  0  0
  -12.4225   -0.4930   -1.8506 F   0  0  0  0  0  0  0  0  0  0  0  0
  -10.8687    1.2489   -1.9091 C   0  0  0  0  0  0  0  0  0  0  0  0
   -1.9751    2.3546    0.9627 C   0  0  0  0  0  0  0  0  0  0  0  0
   -3.0541    0.2074    0.6515 C   0  0  0  0  0  0  0  0  0  0  0  0
   -1.2775    1.4404    1.9418 C   0  0  0  0  0  0  0  0  0  0  0  0
   -1.6832   -0.0147    0.0526 C   0  0  0  0  0  0  0  0  0  0  0  0
    5.0109   -1.0435    1.2012 C   0  0  0  0  0  0  0  0  0  0  0  0
    4.9125   -1.2071   -1.1814 C   0  0  0  0  0  0  0  0  0  0  0  0
    6.1516   -0.1184    1.0909 C   0  0  0  0  0  0  0  0  0  0  0  0
    5.5876    0.1350   -1.3624 C   0  0  0  0  0  0  0  0  0  0  0  0
  -11.8297    0.4590   -1.0490 C   0  0  0  0  0  0  0  0  0  0  0  0
   -8.6716   -3.9032    1.5344 C   0  0  0  0  0  0  0  0  0  0  0  0
   -8.9178    0.7761   -0.5342 C   0  0  1  0  0  0  0  0  0  0  0  0
   -7.4456   -1.9446    1.8397 C   0  0  0  0  0  0  0  0  0  0  0  0
    8.5350    1.5099    0.3305 C   0  0  0  0  0  0  0  0  0  0  0  0
   10.9723   -2.1059   -1.0116 C   0  0  0  0  0  0  0  0  0  0  0  0
   -6.5912    0.8620   -1.3332 C   0  0  0  0  0  0  0  0  0  0  0  0
    0.9690   -0.1636   -0.5389 C   0  0  0  0  0  0  0  0  0  0  0  0
    1.6265    0.5794    1.6057 C   0  0  0  0  0  0  0  0  0  0  0  0
    2.3363    0.1999   -1.0815 C   0  0  0  0  0  0  0  0  0  0  0  0
    2.9844    0.9521    1.0455 C   0  0  0  0  0  0  0  0  0  0  0  0
   -4.9352    2.7059   -0.8447 C   0  0  0  0  0  0  0  0  0  0  0  0
   -7.4382   -1.2604   -0.4764 C   0  0  0  0  0  0  0  0  0  0  0  0
   -8.0031   -3.1137    2.5372 N   0  0  0  0  0  0  0  0  0  0  0  0
   -8.0709   -3.3961    0.2955 N   0  0  0  0  0  0  0  0  0  0  0  0
    9.8753    1.3234   -0.2513 N   0  0  0  0  0  0  0  0  0  0  0  0
   -3.8425    2.0863   -0.4879 O   0  0  0  0  0  0  0  0  0  0  0  0
   -7.0239    0.6252    0.8597 O   0  0  0  0  0  0  0  0  0  0  0  0
   -9.5355    0.4813   -1.8893 C   0  0  0  0  0  0  0  0  0  0  0  0
   -9.9068    0.5306    0.5494 C   0  0  0  0  0  0  0  0  0  0  0  0
   -3.3604    1.7138    0.6789 C   0  0  0  0  0  0  0  0  0  0  0  0
   -0.6546    0.3113    1.1209 C   0  0  0  0  0  0  0  0  0  0  0  0
    4.0234   -1.0095    0.0642 C   0  0  0  0  0  0  0  0  0  0  0  0
    6.3687    0.5982   -0.1732 C   0  0  0  0  0  0  0  0  0  0  0  0
  -11.1300   -0.2472    0.0797 C   0  0  0  0  0  0  0  0  0  0  0  0
    8.4921   -0.4123   -0.8365 C   0  0  0  0  0  0  0  0  0  0  0  0
   12.1648   -0.1256   -0.2679 C   0  0  2  0  0  0  0  0  0  0  0  0
   10.8108   -0.7952   -0.3075 C   0  0  1  0  0  0  0  0  0  0  0  0
    0.6075    0.6996    0.5737 N   0  0  0  0  0  0  0  0  0  0  0  0
    3.3731    0.2429   -0.1154 N   0  0  0  0  0  0  0  0  0  0  0  0
   -8.0760   -2.0272    0.5437 N   0  0  0  0  0  0  0  0  0  0  0  0
    7.7434    0.7495   -0.5803 N   0  0  0  0  0  0  0  0  0  0  0  0
    9.8537    0.0821   -0.8519 N   0  0  0  0  0  0  0  0  0  0  0  0
   -7.5557    0.2288   -0.3368 C   0  0  2  0  0  0  0  0  0  0  0  0
   -6.7406    2.0077    0.7286 C   0  0  0  0  0  0  0  0  0  0  0  0
   -6.3039    2.1957   -0.6652 C   0  0  2  0  0  0  0  0  0  0  0  0
   11.8411   -2.6872    0.8991 H   0  0  0  0  0  0  0  0  0  0  0  0
   11.7542   -4.0116   -0.2837 H   0  0  0  0  0  0  0  0  0  0  0  0
   13.0102   -2.7668   -0.5097 H   0  0  0  0  0  0  0  0  0  0  0  0
   13.2343    1.1903    1.0130 H   0  0  0  0  0  0  0  0  0  0  0  0
   11.5241    1.1208    1.4342 H   0  0  0  0  0  0  0  0  0  0  0  0
   12.1299    2.0427   -0.0646 H   0  0  0  0  0  0  0  0  0  0  0  0
    7.9084   -1.8755   -1.9770 H   0  0  0  0  0  0  0  0  0  0  0  0
   11.7982    0.0364   -2.2000 H   0  0  0  0  0  0  0  0  0  0  0  0
  -11.2510    1.3365   -2.9382 H   0  0  0  0  0  0  0  0  0  0  0  0
  -10.7346    2.2422   -1.4140 H   0  0  0  0  0  0  0  0  0  0  0  0
   -2.1194    3.3342    1.4788 H   0  0  0  0  0  0  0  0  0  0  0  0
   -1.3657    2.4165    0.0550 H   0  0  0  0  0  0  0  0  0  0  0  0
   -3.7678   -0.3199   -0.0498 H   0  0  0  0  0  0  0  0  0  0  0  0
   -3.1197   -0.2516    1.6431 H   0  0  0  0  0  0  0  0  0  0  0  0
   -1.9333    0.9915    2.6916 H   0  0  0  0  0  0  0  0  0  0  0  0
   -0.4909    1.9866    2.5185 H   0  0  0  0  0  0  0  0  0  0  0  0
   -1.5640   -1.0925   -0.1767 H   0  0  0  0  0  0  0  0  0  0  0  0
   -1.6174    0.6097   -0.8364 H   0  0  0  0  0  0  0  0  0  0  0  0
    5.3645   -2.1183    1.2452 H   0  0  0  0  0  0  0  0  0  0  0  0
    4.4154   -0.9364    2.1470 H   0  0  0  0  0  0  0  0  0  0  0  0
    5.6049   -2.0135   -0.9298 H   0  0  0  0  0  0  0  0  0  0  0  0
    4.3280   -1.4156   -2.0775 H   0  0  0  0  0  0  0  0  0  0  0  0
    6.0712    0.5962    1.9699 H   0  0  0  0  0  0  0  0  0  0  0  0
    7.0960   -0.6886    1.3418 H   0  0  0  0  0  0  0  0  0  0  0  0
    6.1975    0.0640   -2.2868 H   0  0  0  0  0  0  0  0  0  0  0  0
    4.7454    0.8404   -1.6438 H   0  0  0  0  0  0  0  0  0  0  0  0
  -12.6542    1.1111   -0.6824 H   0  0  0  0  0  0  0  0  0  0  0  0
   -8.4565   -4.9927    1.6282 H   0  0  0  0  0  0  0  0  0  0  0  0
   -9.7629   -3.7033    1.5379 H   0  0  0  0  0  0  0  0  0  0  0  0
   -8.7807    1.9069   -0.5654 H   0  0  0  0  0  0  0  0  0  0  0  0
   -6.3568   -2.1899    1.7200 H   0  0  0  0  0  0  0  0  0  0  0  0
   -7.6158   -1.0262    2.3899 H   0  0  0  0  0  0  0  0  0  0  0  0
    8.2324    2.5579    0.3319 H   0  0  0  0  0  0  0  0  0  0  0  0
    8.5236    1.1153    1.3700 H   0  0  0  0  0  0  0  0  0  0  0  0
   10.0525   -2.7097   -1.0386 H   0  0  0  0  0  0  0  0  0  0  0  0
   11.4499   -1.9854   -2.0214 H   0  0  0  0  0  0  0  0  0  0  0  0
   -5.6548    0.2792   -1.3234 H   0  0  0  0  0  0  0  0  0  0  0  0
   -6.9929    0.9786   -2.3346 H   0  0  0  0  0  0  0  0  0  0  0  0
    0.2572    0.0501   -1.3621 H   0  0  0  0  0  0  0  0  0  0  0  0
    0.9290   -1.2217   -0.2762 H   0  0  0  0  0  0  0  0  0  0  0  0
    1.6036   -0.4258    2.0386 H   0  0  0  0  0  0  0  0  0  0  0  0
    1.4068    1.3270    2.3869 H   0  0  0  0  0  0  0  0  0  0  0  0
    2.5225   -0.4910   -1.9268 H   0  0  0  0  0  0  0  0  0  0  0  0
    2.2317    1.2232   -1.5402 H   0  0  0  0  0  0  0  0  0  0  0  0
    3.6977    0.9476    1.8831 H   0  0  0  0  0  0  0  0  0  0  0  0
    2.8948    2.0365    0.7515 H   0  0  0  0  0  0  0  0  0  0  0  0
   -4.8456    2.9137   -1.9892 H   0  0  0  0  0  0  0  0  0  0  0  0
   -4.9816    3.8002   -0.4852 H   0  0  0  0  0  0  0  0  0  0  0  0
   -6.3305   -1.4839   -0.3960 H   0  0  0  0  0  0  0  0  0  0  0  0
   -7.6921   -1.6149   -1.5059 H   0  0  0  0  0  0  0  0  0  0  0  0
   -8.6617   -2.8405    3.2913 H   0  0  0  0  0  0  0  0  0  0  0  0
   -8.7707   -3.5756   -0.4783 H   0  0  0  0  0  0  0  0  0  0  0  0
    9.9275    2.0677   -0.9952 H   0  0  0  0  0  0  0  0  0  0  0  0
   -8.9481    0.9155   -2.6966 H   0  0  0  0  0  0  0  0  0  0  0  0
  -10.3478    1.4863    0.9716 H   0  0  0  0  0  0  0  0  0  0  0  0
   -9.5240   -0.0002    1.4240 H   0  0  0  0  0  0  0  0  0  0  0  0
   -3.9163    1.8937    1.6007 H   0  0  0  0  0  0  0  0  0  0  0  0
   -0.5148   -0.5709    1.7656 H   0  0  0  0  0  0  0  0  0  0  0  0
    3.3372   -1.8775    0.1890 H   0  0  0  0  0  0  0  0  0  0  0  0
    6.0282    1.6704   -0.0024 H   0  0  0  0  0  0  0  0  0  0  0  0
  -11.8437   -0.2187    0.9547 H   0  0  0  0  0  0  0  0  0  0  0  0
  -10.9238   -1.3091   -0.1109 H   0  0  0  0  0  0  0  0  0  0  0  0
    8.4632   -1.2050   -0.0646 H   0  0  0  0  0  0  0  0  0  0  0  0
   12.9548   -0.8213    0.0994 H   0  0  0  0  0  0  0  0  0  0  0  0
   10.5372   -1.0266    0.7442 H   0  0  0  0  0  0  0  0  0  0  0  0
   -7.6867    2.5886    0.9536 H   0  0  0  0  0  0  0  0  0  0  0  0
   -6.0574    2.3131    1.5234 H   0  0  0  0  0  0  0  0  0  0  0  0
   -7.0389    2.9118   -1.2100 H   0  0  0  0  0  0  0  0  0  0  0  0
  8 10  1  0
  9 11  1  0
 12 14  1  0
 13 15  1  0
  6 16  1  0
  7 16  1  0
  1 21  1  0
 23 25  1  0
 24 26  1  0
 17 29  1  0
 19 29  1  0
 17 30  1  0
 20 31  1  0
 27 32  1  0
  5 34  1  0
  7 34  1  0
 18 34  1  0
 18 35  1  0
  8 36  1  0
  9 36  1  0
 32 36  1  0
 10 37  1  0
 11 37  1  0
 12 38  1  0
 13 38  1  0
 14 39  1  0
 15 39  1  0
 16 40  1  0
 35 40  1  0
  3 41  1  0
  2 42  1  0
  4 42  1  0
 21 43  1  0
 42 43  1  0
 23 44  1  0
 24 44  1  0
 37 44  1  0
 25 45  1  0
 26 45  1  0
 38 45  1  0
 19 46  1  0
 28 46  1  0
 30 46  1  0
 20 47  1  0
 39 47  1  0
 41 47  1  0
 31 48  1  0
 41 48  1  0
 43 48  1  0
 18 49  1  0
 22 49  1  0
 49 28  1  1
 33 49  1  0
 33 50  1  0
 22 51  1  0
 27 51  1  0
 50 51  1  0
  1 52  1  0
  1 53  1  0
  1 54  1  0
  2 55  1  0
  2 56  1  0
  2 57  1  0
  3 58  1  0
  4 59  1  0
  7 60  1  0
  7 61  1  0
  8 62  1  0
  8 63  1  0
  9 64  1  0
  9 65  1  0
 10 66  1  0
 10 67  1  0
 11 68  1  0
 11 69  1  0
 12 70  1  0
 12 71  1  0
 13 72  1  0
 13 73  1  0
 14 74  1  0
 14 75  1  0
 15 76  1  0
 15 77  1  0
 16 78  1  0
 17 79  1  0
 17 80  1  0
 18 81  1  6
 19 82  1  0
 19 83  1  0
 20 84  1  0
 20 85  1  0
 21 86  1  0
 21 87  1  0
 22 88  1  0
 22 89  1  0
 23 90  1  0
 23 91  1  0
 24 92  1  0
 24 93  1  0
 25 94  1  0
 25 95  1  0
 26 96  1  0
 26 97  1  0
 27 98  1  0
 27 99  1  0
 28100  1  0
 28101  1  0
 29102  1  0
 30103  1  0
 31104  1  0
 34105  1  0
 35106  1  0
 35107  1  0
 36108  1  0
 37109  1  0
 38110  1  0
 39111  1  0
 40112  1  0
 40113  1  0
 41114  1  0
 42115  1  1
 43116  1  1
 50117  1  0
 50118  1  0
 51119  1  6
M  END
>  <PDBID>  (1) 
4ZE1

>  <PDB ID>  (1) 
4ZE1

>  <Generic Name>  (1) 
Posaconazole

>  <Brand Name>  (1) 
Noxafil#Posanol

>  <DrugBank ID>  (1) 
DB01263

>  <ATC Codes>  (1) 
J02AC04

>  <Ligand ID>  (1) 
X2N

>  <Target Name>  (1) 
Lanosterol 14-alpha demethylase

>  <UniProt ID>  (1) 
P10613

>  <PDB ID.1>  (1) 
4ZE1

>  <Seq. Identity>  (1) 
65%

$$$$
