PDB_DB01045_08
     RDKit          3D

141145  0  0  0  0  0  0  0  0999 V2000
    3.3334   -0.3764   -2.8709 C   0  0  0  0  0  0  0  0  0  0  0  0
    2.5331   -1.3728   -2.0402 C   0  0  2  0  0  0  0  0  0  0  0  0
    2.3470   -0.9542   -0.6270 C   0  0  0  0  0  0  0  0  0  0  0  0
    1.5975    0.3480   -0.5796 C   0  0  0  0  0  0  0  0  0  0  0  0
    1.0156    2.4273   -1.8844 C   0  0  0  0  0  0  0  0  0  0  0  0
    1.9290    3.4447   -1.3377 C   0  0  0  0  0  0  0  0  0  0  0  0
    3.3507    3.1361   -1.5349 C   0  0  0  0  0  0  0  0  0  0  0  0
    3.6878    2.1118   -2.5681 C   0  0  0  0  0  0  0  0  0  0  0  0
    2.7173    1.0012   -2.7732 C   0  0  0  0  0  0  0  0  0  0  0  0
    1.4995    1.0168   -1.8873 C   0  0  0  0  0  0  0  0  0  0  0  0
   -0.2628    2.6380   -1.1236 C   0  0  0  0  0  0  0  0  0  0  0  0
    0.1122    3.5796   -0.0547 C   0  0  2  0  0  0  0  0  0  0  0  0
   -0.2288    5.0090   -0.5126 C   0  0  0  0  0  0  0  0  0  0  0  0
    4.0529    4.4590   -1.9192 C   0  0  0  0  0  0  0  0  0  0  0  0
    2.0916   -3.6186   -2.8309 C   0  0  0  0  0  0  0  0  0  0  0  0
    1.5813   -4.6717   -1.8846 C   0  0  1  0  0  0  0  0  0  0  0  0
    0.2419   -4.3889   -1.2933 C   0  0  0  0  0  0  0  0  0  0  0  0
   -0.9197   -4.6823   -2.2178 C   0  0  0  0  0  0  0  0  0  0  0  0
   -2.2022   -4.9577   -1.4951 C   0  0  0  0  0  0  0  0  0  0  0  0
   -2.4281   -4.0991   -0.2819 C   0  0  1  0  0  0  0  0  0  0  0  0
   -3.1284   -2.8538   -0.6908 C   0  0  1  0  0  0  0  0  0  0  0  0
   -3.6337   -2.0130    0.4624 C   0  0  2  0  0  0  0  0  0  0  0  0
   -4.7147   -1.1041    0.0127 C   0  0  2  0  0  0  0  0  0  0  0  0
   -4.3991    0.3742    0.0370 C   0  0  2  0  0  0  0  0  0  0  0  0
   -4.5797    1.0045    1.3554 C   0  0  1  0  0  0  0  0  0  0  0  0
   -4.8935    2.4861    1.3566 C   0  0  1  0  0  0  0  0  0  0  0  0
   -3.8132    3.3604    0.8150 C   0  0  2  0  0  0  0  0  0  0  0  0
   -2.6795    3.5592    1.8353 C   0  0  0  0  0  0  0  0  0  0  0  0
   -1.4577    2.7371    1.4989 C   0  0  0  0  0  0  0  0  0  0  0  0
    1.5764   -6.0583   -2.5150 C   0  0  0  0  0  0  0  0  0  0  0  0
   -3.2215   -4.9303    0.7112 C   0  0  0  0  0  0  0  0  0  0  0  0
   -2.5196   -1.4140    1.2437 C   0  0  0  0  0  0  0  0  0  0  0  0
   -5.2730    0.9611   -1.0774 C   0  0  0  0  0  0  0  0  0  0  0  0
   -6.2844    2.8188    0.9210 C   0  0  0  0  0  0  0  0  0  0  0  0
   -5.0370    0.0567    3.4269 C   0  0  2  0  0  0  0  0  0  0  0  0
   -5.7217    0.8058    4.5670 C   0  0  0  0  0  0  0  0  0  0  0  0
   -4.2063    5.0169   -0.7649 C   0  0  0  0  0  0  0  0  0  0  0  0
    7.4873    0.4794    4.2554 C   0  0  0  0  0  0  0  0  0  0  0  0
    7.0241    0.1737    1.9140 C   0  0  0  0  0  0  0  0  0  0  0  0
    5.5615    0.6314    1.8313 C   0  0  0  0  0  0  0  0  0  0  0  0
    5.3688   -1.7197    2.3496 C   0  0  0  0  0  0  0  0  0  0  0  0
    6.3608   -1.5107    3.5018 C   0  0  0  0  0  0  0  0  0  0  0  0
    3.6577   -0.9105    0.0983 C   0  0  0  0  0  0  0  0  0  0  0  0
    3.0385   -2.7105   -2.2061 N   0  0  0  0  0  0  0  0  0  0  0  0
    3.5160   -0.5091    1.4866 N   0  0  0  0  0  0  0  0  0  0  0  0
    4.7192   -0.4687    2.1318 N   0  0  0  0  0  0  0  0  0  0  0  0
    7.2939   -0.4598    3.1851 N   0  0  0  0  0  0  0  0  0  0  0  0
    4.6828   -0.4256   -2.6232 O   0  0  0  0  0  0  0  0  0  0  0  0
    4.9916    1.6751   -2.2559 O   0  0  0  0  0  0  0  0  0  0  0  0
    1.5327    3.5837    0.0001 O   0  0  0  0  0  0  0  0  0  0  0  0
   -1.2374    3.2163   -1.9379 O   0  0  0  0  0  0  0  0  0  0  0  0
   -0.3436    3.4234    1.1901 O   0  0  0  0  0  0  0  0  0  0  0  0
   -4.4066    4.5905    0.5192 O   0  0  0  0  0  0  0  0  0  0  0  0
   -5.5229    0.4230    2.1964 O   0  0  0  0  0  0  0  0  0  0  0  0
   -5.3299   -1.2862    3.6449 O   0  0  0  0  0  0  0  0  0  0  0  0
   -5.9588   -1.3428    0.6484 O   0  0  0  0  0  0  0  0  0  0  0  0
   -2.2420   -2.0544   -1.4085 O   0  0  0  0  0  0  0  0  0  0  0  0
    1.0922   -2.9839   -3.5301 O   0  0  0  0  0  0  0  0  0  0  0  0
    2.1111    1.0659    0.4684 O   0  0  0  0  0  0  0  0  0  0  0  0
    3.2385   -0.8147   -3.9162 H   0  0  0  0  0  0  0  0  0  0  0  0
    1.5160   -1.3931   -2.5420 H   0  0  0  0  0  0  0  0  0  0  0  0
    1.7675   -1.7916   -0.1320 H   0  0  0  0  0  0  0  0  0  0  0  0
    0.5401    0.0772   -0.2671 H   0  0  0  0  0  0  0  0  0  0  0  0
    0.8104    2.6845   -2.9595 H   0  0  0  0  0  0  0  0  0  0  0  0
    1.6437    4.4343   -1.8092 H   0  0  0  0  0  0  0  0  0  0  0  0
    3.8571    2.8982   -0.5503 H   0  0  0  0  0  0  0  0  0  0  0  0
    3.8640    2.6874   -3.5310 H   0  0  0  0  0  0  0  0  0  0  0  0
    2.2820    1.1823   -3.8146 H   0  0  0  0  0  0  0  0  0  0  0  0
    0.6874    0.4610   -2.4614 H   0  0  0  0  0  0  0  0  0  0  0  0
   -0.6249    1.6462   -0.8505 H   0  0  0  0  0  0  0  0  0  0  0  0
    0.6213    5.7063   -0.3625 H   0  0  0  0  0  0  0  0  0  0  0  0
   -0.4752    5.0287   -1.5806 H   0  0  0  0  0  0  0  0  0  0  0  0
   -1.0499    5.4340    0.1332 H   0  0  0  0  0  0  0  0  0  0  0  0
    5.1142    4.2954   -2.1047 H   0  0  0  0  0  0  0  0  0  0  0  0
    3.5684    4.7721   -2.8718 H   0  0  0  0  0  0  0  0  0  0  0  0
    3.8500    5.2261   -1.1434 H   0  0  0  0  0  0  0  0  0  0  0  0
    2.7018   -4.1782   -3.6014 H   0  0  0  0  0  0  0  0  0  0  0  0
    2.3086   -4.7373   -1.0368 H   0  0  0  0  0  0  0  0  0  0  0  0
    0.1513   -5.0295   -0.3800 H   0  0  0  0  0  0  0  0  0  0  0  0
    0.1598   -3.3481   -0.9680 H   0  0  0  0  0  0  0  0  0  0  0  0
   -0.6517   -5.5991   -2.7837 H   0  0  0  0  0  0  0  0  0  0  0  0
   -1.0364   -3.8762   -2.9882 H   0  0  0  0  0  0  0  0  0  0  0  0
   -2.1999   -6.0146   -1.1916 H   0  0  0  0  0  0  0  0  0  0  0  0
   -3.0262   -4.8321   -2.2313 H   0  0  0  0  0  0  0  0  0  0  0  0
   -1.4448   -3.8918    0.1624 H   0  0  0  0  0  0  0  0  0  0  0  0
   -3.9998   -3.0653   -1.3386 H   0  0  0  0  0  0  0  0  0  0  0  0
   -4.1282   -2.7589    1.1596 H   0  0  0  0  0  0  0  0  0  0  0  0
   -4.9654   -1.4099   -1.0555 H   0  0  0  0  0  0  0  0  0  0  0  0
   -3.3565    0.5402   -0.3055 H   0  0  0  0  0  0  0  0  0  0  0  0
   -3.6160    0.9622    1.9496 H   0  0  0  0  0  0  0  0  0  0  0  0
   -4.9013    2.7389    2.4712 H   0  0  0  0  0  0  0  0  0  0  0  0
   -3.2940    2.9753   -0.0838 H   0  0  0  0  0  0  0  0  0  0  0  0
   -2.3832    4.5988    1.9358 H   0  0  0  0  0  0  0  0  0  0  0  0
   -3.1423    3.2719    2.8218 H   0  0  0  0  0  0  0  0  0  0  0  0
   -1.7253    1.8862    0.8108 H   0  0  0  0  0  0  0  0  0  0  0  0
   -1.2196    2.1756    2.4608 H   0  0  0  0  0  0  0  0  0  0  0  0
    2.5818   -6.5420   -2.4178 H   0  0  0  0  0  0  0  0  0  0  0  0
    1.2609   -5.9446   -3.5651 H   0  0  0  0  0  0  0  0  0  0  0  0
    0.8716   -6.7223   -1.9859 H   0  0  0  0  0  0  0  0  0  0  0  0
   -4.3041   -4.7955    0.6236 H   0  0  0  0  0  0  0  0  0  0  0  0
   -3.0122   -6.0158    0.6105 H   0  0  0  0  0  0  0  0  0  0  0  0
   -2.9459   -4.6674    1.7641 H   0  0  0  0  0  0  0  0  0  0  0  0
   -2.7805   -1.3794    2.3245 H   0  0  0  0  0  0  0  0  0  0  0  0
   -2.0713   -0.5044    0.8521 H   0  0  0  0  0  0  0  0  0  0  0  0
   -1.6749   -2.1714    1.2191 H   0  0  0  0  0  0  0  0  0  0  0  0
   -6.3454    0.8850   -0.8586 H   0  0  0  0  0  0  0  0  0  0  0  0
   -4.9107    1.9027   -1.4720 H   0  0  0  0  0  0  0  0  0  0  0  0
   -5.1304    0.2324   -1.9392 H   0  0  0  0  0  0  0  0  0  0  0  0
   -6.7359    3.6451    1.5540 H   0  0  0  0  0  0  0  0  0  0  0  0
   -6.9244    1.9327    1.2066 H   0  0  0  0  0  0  0  0  0  0  0  0
   -6.4101    3.1522   -0.1030 H   0  0  0  0  0  0  0  0  0  0  0  0
   -3.9429    0.2888    3.5691 H   0  0  0  0  0  0  0  0  0  0  0  0
   -5.3351    1.8335    4.6640 H   0  0  0  0  0  0  0  0  0  0  0  0
   -6.8129    0.7338    4.5056 H   0  0  0  0  0  0  0  0  0  0  0  0
   -5.4199    0.2692    5.4973 H   0  0  0  0  0  0  0  0  0  0  0  0
   -4.6351    4.2681   -1.4630 H   0  0  0  0  0  0  0  0  0  0  0  0
   -4.6662    5.9697   -1.0156 H   0  0  0  0  0  0  0  0  0  0  0  0
   -3.1071    5.0246   -1.0202 H   0  0  0  0  0  0  0  0  0  0  0  0
    7.0634    0.1772    5.2162 H   0  0  0  0  0  0  0  0  0  0  0  0
    7.1257    1.4754    3.9069 H   0  0  0  0  0  0  0  0  0  0  0  0
    8.6001    0.6081    4.3643 H   0  0  0  0  0  0  0  0  0  0  0  0
    7.2619   -0.5272    1.1035 H   0  0  0  0  0  0  0  0  0  0  0  0
    7.7087    1.0339    1.8153 H   0  0  0  0  0  0  0  0  0  0  0  0
    5.4512    1.4829    2.5610 H   0  0  0  0  0  0  0  0  0  0  0  0
    5.4506    1.0666    0.8361 H   0  0  0  0  0  0  0  0  0  0  0  0
    5.9734   -2.0628    1.4804 H   0  0  0  0  0  0  0  0  0  0  0  0
    4.6292   -2.4611    2.6750 H   0  0  0  0  0  0  0  0  0  0  0  0
    5.8393   -1.2616    4.4322 H   0  0  0  0  0  0  0  0  0  0  0  0
    6.9582   -2.4438    3.6490 H   0  0  0  0  0  0  0  0  0  0  0  0
    4.3219   -0.1728   -0.3549 H   0  0  0  0  0  0  0  0  0  0  0  0
    4.0669   -1.9406    0.1178 H   0  0  0  0  0  0  0  0  0  0  0  0
    3.3330   -3.1738   -1.3177 H   0  0  0  0  0  0  0  0  0  0  0  0
    2.9059   -1.2279    1.9460 H   0  0  0  0  0  0  0  0  0  0  0  0
    5.1459   -1.1308   -3.1030 H   0  0  0  0  0  0  0  0  0  0  0  0
    5.4709    2.3282   -1.7041 H   0  0  0  0  0  0  0  0  0  0  0  0
   -0.8655    3.2954   -2.8578 H   0  0  0  0  0  0  0  0  0  0  0  0
   -6.1985   -1.4016    4.1265 H   0  0  0  0  0  0  0  0  0  0  0  0
   -6.1893   -2.2794    0.4313 H   0  0  0  0  0  0  0  0  0  0  0  0
   -1.5957   -1.6863   -0.7556 H   0  0  0  0  0  0  0  0  0  0  0  0
    1.4749   -2.6830   -4.4112 H   0  0  0  0  0  0  0  0  0  0  0  0
    1.6172    0.9100    1.3111 H   0  0  0  0  0  0  0  0  0  0  0  0
  1  2  1  0
  2  3  1  0
  3  4  1  0
  5  6  1  0
  6  7  1  0
  7  8  1  0
  1  9  1  0
  8  9  1  0
  4 10  1  0
  5 10  1  0
  9 10  1  0
  5 11  1  0
 11 12  1  0
 12 13  1  6
  7 14  1  0
 15 16  1  0
 16 17  1  0
 17 18  1  0
 18 19  1  0
 19 20  1  0
 20 21  1  0
 21 22  1  0
 22 23  1  0
 23 24  1  0
 24 25  1  0
 25 26  1  0
 26 27  1  0
 27 28  1  0
 28 29  1  0
 16 30  1  0
 20 31  1  0
 22 32  1  0
 24 33  1  0
 26 34  1  0
 35 36  1  0
 39 40  1  0
 41 42  1  0
  3 43  1  0
  2 44  1  0
 15 44  1  0
 43 45  1  0
 40 46  1  0
 41 46  1  0
 45 46  1  0
 38 47  1  0
 39 47  1  0
 42 47  1  0
  1 48  1  0
  8 49  1  0
  6 50  1  0
 12 50  1  0
 11 51  1  0
 12 52  1  0
 29 52  1  0
 27 53  1  0
 37 53  1  0
 25 54  1  0
 35 54  1  0
 35 55  1  0
 23 56  1  0
 21 57  1  0
 15 58  1  0
  4 59  1  0
  1 60  1  0
  2 61  1  6
  3 62  1  0
  4 63  1  0
  5 64  1  0
  6 65  1  0
  7 66  1  0
  8 67  1  0
  9 68  1  0
 10 69  1  0
 11 70  1  0
 13 71  1  0
 13 72  1  0
 13 73  1  0
 14 74  1  0
 14 75  1  0
 14 76  1  0
 15 77  1  0
 16 78  1  1
 17 79  1  0
 17 80  1  0
 18 81  1  0
 18 82  1  0
 19 83  1  0
 19 84  1  0
 20 85  1  1
 21 86  1  6
 22 87  1  1
 23 88  1  6
 24 89  1  6
 25 90  1  1
 26 91  1  1
 27 92  1  6
 28 93  1  0
 28 94  1  0
 29 95  1  0
 29 96  1  0
 30 97  1  0
 30 98  1  0
 30 99  1  0
 31100  1  0
 31101  1  0
 31102  1  0
 32103  1  0
 32104  1  0
 32105  1  0
 33106  1  0
 33107  1  0
 33108  1  0
 34109  1  0
 34110  1  0
 34111  1  0
 35112  1  6
 36113  1  0
 36114  1  0
 36115  1  0
 37116  1  0
 37117  1  0
 37118  1  0
 38119  1  0
 38120  1  0
 38121  1  0
 39122  1  0
 39123  1  0
 40124  1  0
 40125  1  0
 41126  1  0
 41127  1  0
 42128  1  0
 42129  1  0
 43130  1  0
 43131  1  0
 44132  1  0
 45133  1  0
 48134  1  0
 49135  1  0
 51136  1  0
 55137  1  0
 56138  1  0
 57139  1  0
 58140  1  0
 59141  1  0
M  END
>  <PDBID>  (1) 
5UAC

>  <PDB ID>  (1) 
5UAC

>  <Generic Name>  (1) 
Rifampicin

>  <Brand Name>  (1) 
Isonarif#Rifadin#Rifadin Cap 300mg#Rifadin IV#Rifadin IV Novaplus#Rifamate#Rifampin#Rifater#Rofact 150mg#Rofact 300mg#Rifadine#Rifaldin#Rifoldin#Rimactan#Rimactane#Rofact#Tubocin

>  <DrugBank ID>  (1) 
DB01045

>  <ATC Codes>  (1) 
J04AM02#J04AB02#J04AM06#J04AM05

>  <Ligand ID>  (1) 
RFP

>  <Target Name>  (1) 
DNA-directed RNA polymerase subunit beta

>  <UniProt ID>  (1) 
P0A8V2

>  <PDB ID.1>  (1) 
5UAC

>  <Seq. Identity>  (1) 
100%

$$$$
