PDB_DB09026_09
     RDKit          3D

204204  0  0  0  0  0  0  0  0999 V2000
    8.9118   -0.1557    2.4736 C   0  0  0  0  0  0  0  0  0  0  0  0
    7.6473   -0.5303    2.0885 O   0  0  0  0  0  0  0  0  0  0  0  0
    6.9046    0.5619    1.6880 C   0  0  0  0  0  0  0  0  0  0  0  0
    7.5785    1.2172    0.5071 C   0  0  0  0  0  0  0  0  0  0  0  0
    7.7297    0.2999   -0.6696 C   0  0  0  0  0  0  0  0  0  0  0  0
    6.5409   -0.0868   -1.1775 O   0  0  0  0  0  0  0  0  0  0  0  0
    5.7583    0.8690   -1.7997 C   0  0  0  0  0  0  0  0  0  0  0  0
    4.4075    1.1015   -1.2086 C   0  0  0  0  0  0  0  0  0  0  0  0
    3.4175    0.0985   -1.7247 C   0  0  0  0  0  0  0  0  0  0  0  0
    3.1677    0.3781   -3.2216 C   0  0  0  0  0  0  0  0  0  0  0  0
    4.3432    1.1500   -3.7808 C   0  0  0  0  0  0  0  0  0  0  0  0
    5.6532    0.6102   -3.2833 C   0  0  0  0  0  0  0  0  0  0  0  0
    5.6001   -0.7792   -3.5473 O   0  0  0  0  0  0  0  0  0  0  0  0
    6.6992   -1.0668   -4.3506 C   0  0  0  0  0  0  0  0  0  0  0  0
    2.0958    0.0631   -1.0818 C   0  0  0  0  0  0  0  0  0  0  0  0
    2.0439   -0.2254    0.3720 C   0  0  2  0  0  0  0  0  0  0  0  0
    2.6096   -1.5462    0.7681 C   0  0  0  0  0  0  0  0  0  0  0  0
    2.5156   -1.7525    2.2520 C   0  0  0  0  0  0  0  0  0  0  0  0
    2.0748   -2.7213    0.0219 C   0  0  0  0  0  0  0  0  0  0  0  0
    0.7160    0.1373    0.9261 C   0  0  0  0  0  0  0  0  0  0  0  0
   -0.4864   -0.5214    0.4074 C   0  0  2  0  0  0  0  0  0  0  0  0
   -0.6947   -0.3123   -0.9904 N   0  0  0  0  0  0  0  0  0  0  0  0
   -1.7006    0.0801    1.1532 C   0  0  1  0  0  0  0  0  0  0  0  0
   -1.8589    1.4013    0.9214 O   0  0  0  0  0  0  0  0  0  0  0  0
   -2.9157   -0.7190    0.9049 C   0  0  0  0  0  0  0  0  0  0  0  0
   -4.1972   -0.3514    1.5324 C   0  0  1  0  0  0  0  0  0  0  0  0
   -4.1009   -0.3312    3.0495 C   0  0  0  0  0  0  0  0  0  0  0  0
   -3.6932   -1.7041    3.5735 C   0  0  0  0  0  0  0  0  0  0  0  0
   -5.4668   -0.0692    3.6257 C   0  0  0  0  0  0  0  0  0  0  0  0
   -4.9094    0.8698    1.0648 C   0  0  0  0  0  0  0  0  0  0  0  0
   -4.1591    2.0458    1.3045 O   0  0  0  0  0  0  0  0  0  0  0  0
   -5.2462    0.8051   -0.3252 N   0  0  0  0  0  0  0  0  0  0  0  0
   -6.4364    1.3652   -0.7681 C   0  0  0  0  0  0  0  0  0  0  0  0
   -7.7486    0.7610   -0.4596 C   0  0  0  0  0  0  0  0  0  0  0  0
   -8.8046    1.6658   -1.1669 C   0  0  0  0  0  0  0  0  0  0  0  0
   -8.1935    0.7752    0.9806 C   0  0  0  0  0  0  0  0  0  0  0  0
   -7.8328   -0.6426   -1.0202 C   0  0  1  0  0  0  0  0  0  0  0  0
   -9.0636   -1.2342   -0.7426 O   0  0  0  0  0  0  0  0  0  0  0  0
   -7.6134   -0.6654   -2.4412 N   0  0  0  0  0  0  0  0  0  0  0  0
    7.9133   -0.8404    3.7172 C   0  0  0  0  0  0  0  0  0  0  0  0
    6.9528   -1.3975    2.9045 O   0  0  0  0  0  0  0  0  0  0  0  0
    6.1109   -0.4590    2.3189 C   0  0  0  0  0  0  0  0  0  0  0  0
    6.8590    0.5284    1.4495 C   0  0  0  0  0  0  0  0  0  0  0  0
    7.5906   -0.1539    0.3223 C   0  0  0  0  0  0  0  0  0  0  0  0
    6.7097   -0.7963   -0.4938 O   0  0  0  0  0  0  0  0  0  0  0  0
    5.8077   -0.0064   -1.1768 C   0  0  0  0  0  0  0  0  0  0  0  0
    4.3634   -0.2428   -0.8142 C   0  0  0  0  0  0  0  0  0  0  0  0
    3.4770    0.2207   -1.9239 C   0  0  2  0  0  0  0  0  0  0  0  0
    4.0232    1.4139   -2.6841 C   0  0  0  0  0  0  0  0  0  0  0  0
    5.3642    1.1512   -3.2805 C   0  0  0  0  0  0  0  0  0  0  0  0
    6.0512   -0.0510   -2.6753 C   0  0  0  0  0  0  0  0  0  0  0  0
    5.5286   -1.1847   -3.2820 O   0  0  0  0  0  0  0  0  0  0  0  0
    6.5894   -1.8867   -3.8500 C   0  0  0  0  0  0  0  0  0  0  0  0
    2.0999    0.6366   -1.4500 C   0  0  0  0  0  0  0  0  0  0  0  0
    1.3319   -0.4235   -0.7800 C   0  0  2  0  0  0  0  0  0  0  0  0
    1.0479   -1.6334   -1.6170 C   0  0  0  0  0  0  0  0  0  0  0  0
    0.2589   -2.6590   -0.8412 C   0  0  0  0  0  0  0  0  0  0  0  0
    0.3277   -1.3635   -2.8935 C   0  0  0  0  0  0  0  0  0  0  0  0
    0.1783    0.1323   -0.0145 C   0  0  0  0  0  0  0  0  0  0  0  0
   -0.8416    0.8911   -0.7747 C   0  0  2  0  0  0  0  0  0  0  0  0
   -0.2171    2.0634   -1.4217 N   0  0  0  0  0  0  0  0  0  0  0  0
   -1.8267    1.5278    0.2362 C   0  0  1  0  0  0  0  0  0  0  0  0
   -2.7035    2.3485   -0.5328 O   0  0  0  0  0  0  0  0  0  0  0  0
   -2.6524    0.5070    0.9279 C   0  0  0  0  0  0  0  0  0  0  0  0
   -3.6221    0.9520    1.9557 C   0  0  1  0  0  0  0  0  0  0  0  0
   -2.9302    1.6932    3.0963 C   0  0  0  0  0  0  0  0  0  0  0  0
   -1.9059    0.8176    3.7780 C   0  0  0  0  0  0  0  0  0  0  0  0
   -3.9736    2.0181    4.1398 C   0  0  0  0  0  0  0  0  0  0  0  0
   -4.8160    1.7048    1.5592 C   0  0  0  0  0  0  0  0  0  0  0  0
   -4.5334    2.8993    0.9666 O   0  0  0  0  0  0  0  0  0  0  0  0
   -5.7339    0.9706    0.7041 N   0  0  0  0  0  0  0  0  0  0  0  0
   -6.2907   -0.1818    1.3107 C   0  0  0  0  0  0  0  0  0  0  0  0
   -7.2572   -0.8437    0.3587 C   0  0  0  0  0  0  0  0  0  0  0  0
   -7.8803   -2.0824    0.9756 C   0  0  0  0  0  0  0  0  0  0  0  0
   -8.4109    0.1307    0.0838 C   0  0  0  0  0  0  0  0  0  0  0  0
   -6.6630   -1.1715   -0.9869 C   0  0  0  0  0  0  0  0  0  0  0  0
   -5.5741   -2.0350   -0.8915 O   0  0  0  0  0  0  0  0  0  0  0  0
   -7.7548   -1.8175   -1.7389 N   0  0  0  0  0  0  0  0  0  0  0  0
    9.4929    0.3147    1.6821 H   0  0  0  0  0  0  0  0  0  0  0  0
    8.8834    0.4934    3.3944 H   0  0  0  0  0  0  0  0  0  0  0  0
    9.4376   -1.1036    2.7795 H   0  0  0  0  0  0  0  0  0  0  0  0
    6.8059    1.3224    2.4974 H   0  0  0  0  0  0  0  0  0  0  0  0
    5.8942    0.2176    1.4728 H   0  0  0  0  0  0  0  0  0  0  0  0
    8.5103    1.7570    0.7822 H   0  0  0  0  0  0  0  0  0  0  0  0
    6.8584    2.0347    0.1694 H   0  0  0  0  0  0  0  0  0  0  0  0
    8.2980   -0.5996   -0.2703 H   0  0  0  0  0  0  0  0  0  0  0  0
    8.3823    0.8515   -1.3911 H   0  0  0  0  0  0  0  0  0  0  0  0
    6.3291    1.8405   -1.7227 H   0  0  0  0  0  0  0  0  0  0  0  0
    4.1277    2.1497   -1.4358 H   0  0  0  0  0  0  0  0  0  0  0  0
    4.4780    1.0609   -0.1075 H   0  0  0  0  0  0  0  0  0  0  0  0
    3.8820   -0.8991   -1.6846 H   0  0  0  0  0  0  0  0  0  0  0  0
    3.1381   -0.5991   -3.7247 H   0  0  0  0  0  0  0  0  0  0  0  0
    2.2171    0.8985   -3.3149 H   0  0  0  0  0  0  0  0  0  0  0  0
    4.3019    1.1882   -4.8973 H   0  0  0  0  0  0  0  0  0  0  0  0
    4.2501    2.1969   -3.4426 H   0  0  0  0  0  0  0  0  0  0  0  0
    6.5214    1.0639   -3.7744 H   0  0  0  0  0  0  0  0  0  0  0  0
    6.7509   -2.1466   -4.6209 H   0  0  0  0  0  0  0  0  0  0  0  0
    7.6704   -0.8542   -3.8209 H   0  0  0  0  0  0  0  0  0  0  0  0
    6.7173   -0.4794   -5.2724 H   0  0  0  0  0  0  0  0  0  0  0  0
    1.5404    1.0010   -1.2770 H   0  0  0  0  0  0  0  0  0  0  0  0
    1.4992   -0.7405   -1.6151 H   0  0  0  0  0  0  0  0  0  0  0  0
    2.7476    0.5318    0.8548 H   0  0  0  0  0  0  0  0  0  0  0  0
    3.7165   -1.4978    0.5329 H   0  0  0  0  0  0  0  0  0  0  0  0
    2.7591   -0.8675    2.8391 H   0  0  0  0  0  0  0  0  0  0  0  0
    1.5063   -2.1240    2.5770 H   0  0  0  0  0  0  0  0  0  0  0  0
    3.2262   -2.5555    2.6002 H   0  0  0  0  0  0  0  0  0  0  0  0
    2.8595   -3.2526   -0.5935 H   0  0  0  0  0  0  0  0  0  0  0  0
    1.7366   -3.5125    0.7512 H   0  0  0  0  0  0  0  0  0  0  0  0
    1.2464   -2.5176   -0.6462 H   0  0  0  0  0  0  0  0  0  0  0  0
    0.6092    1.2522    0.7877 H   0  0  0  0  0  0  0  0  0  0  0  0
    0.6897    0.0450    2.0574 H   0  0  0  0  0  0  0  0  0  0  0  0
   -0.5517   -1.6150    0.6596 H   0  0  0  0  0  0  0  0  0  0  0  0
   -0.8325    0.6381   -1.2885 H   0  0  0  0  0  0  0  0  0  0  0  0
   -1.4368   -0.9523   -1.3271 H   0  0  0  0  0  0  0  0  0  0  0  0
   -1.4944   -0.0156    2.2734 H   0  0  0  0  0  0  0  0  0  0  0  0
   -1.2414    1.7529    0.2769 H   0  0  0  0  0  0  0  0  0  0  0  0
   -3.1016   -0.6837   -0.2227 H   0  0  0  0  0  0  0  0  0  0  0  0
   -2.7337   -1.8163    1.0730 H   0  0  0  0  0  0  0  0  0  0  0  0
   -4.9138   -1.2143    1.3204 H   0  0  0  0  0  0  0  0  0  0  0  0
   -3.4289    0.4677    3.4244 H   0  0  0  0  0  0  0  0  0  0  0  0
   -4.1933   -1.9022    4.5590 H   0  0  0  0  0  0  0  0  0  0  0  0
   -3.9988   -2.5070    2.8943 H   0  0  0  0  0  0  0  0  0  0  0  0
   -2.5940   -1.7713    3.6898 H   0  0  0  0  0  0  0  0  0  0  0  0
   -6.2590   -0.6225    3.0954 H   0  0  0  0  0  0  0  0  0  0  0  0
   -5.7544    1.0019    3.6338 H   0  0  0  0  0  0  0  0  0  0  0  0
   -5.4626   -0.3490    4.7195 H   0  0  0  0  0  0  0  0  0  0  0  0
   -5.8175    0.9853    1.6585 H   0  0  0  0  0  0  0  0  0  0  0  0
   -4.2798    2.7130    0.5879 H   0  0  0  0  0  0  0  0  0  0  0  0
   -4.4446    1.1654   -0.8799 H   0  0  0  0  0  0  0  0  0  0  0  0
   -6.3864    1.4063   -1.9169 H   0  0  0  0  0  0  0  0  0  0  0  0
   -6.5196    2.4797   -0.5378 H   0  0  0  0  0  0  0  0  0  0  0  0
   -8.5121    2.6982   -0.9797 H   0  0  0  0  0  0  0  0  0  0  0  0
   -9.8035    1.4795   -0.7391 H   0  0  0  0  0  0  0  0  0  0  0  0
   -8.7867    1.4817   -2.2414 H   0  0  0  0  0  0  0  0  0  0  0  0
   -7.9840    1.7415    1.4634 H   0  0  0  0  0  0  0  0  0  0  0  0
   -7.8954   -0.1179    1.5330 H   0  0  0  0  0  0  0  0  0  0  0  0
   -9.3451    0.7351    1.0040 H   0  0  0  0  0  0  0  0  0  0  0  0
   -7.0185   -1.2223   -0.5497 H   0  0  0  0  0  0  0  0  0  0  0  0
   -9.1919   -1.4261    0.2082 H   0  0  0  0  0  0  0  0  0  0  0  0
   -7.8016   -1.6380   -2.7777 H   0  0  0  0  0  0  0  0  0  0  0  0
   -6.5934   -0.5019   -2.6359 H   0  0  0  0  0  0  0  0  0  0  0  0
    7.4875   -0.2463    4.5688 H   0  0  0  0  0  0  0  0  0  0  0  0
    8.6822   -0.2514    3.2180 H   0  0  0  0  0  0  0  0  0  0  0  0
    8.4707   -1.6788    4.2279 H   0  0  0  0  0  0  0  0  0  0  0  0
    5.7079    0.1537    3.1782 H   0  0  0  0  0  0  0  0  0  0  0  0
    5.2443   -0.9219    1.8544 H   0  0  0  0  0  0  0  0  0  0  0  0
    7.5976    1.0482    2.1146 H   0  0  0  0  0  0  0  0  0  0  0  0
    6.1908    1.3255    1.0863 H   0  0  0  0  0  0  0  0  0  0  0  0
    8.3957   -0.8028    0.7160 H   0  0  0  0  0  0  0  0  0  0  0  0
    8.1414    0.6834   -0.2066 H   0  0  0  0  0  0  0  0  0  0  0  0
    6.0265    1.0561   -0.8913 H   0  0  0  0  0  0  0  0  0  0  0  0
    4.1809    0.2978    0.1393 H   0  0  0  0  0  0  0  0  0  0  0  0
    4.2558   -1.3472   -0.6454 H   0  0  0  0  0  0  0  0  0  0  0  0
    3.3742   -0.6000   -2.6621 H   0  0  0  0  0  0  0  0  0  0  0  0
    3.3069    1.5783   -3.5356 H   0  0  0  0  0  0  0  0  0  0  0  0
    3.9732    2.3432   -2.0832 H   0  0  0  0  0  0  0  0  0  0  0  0
    5.3451    1.0742   -4.3903 H   0  0  0  0  0  0  0  0  0  0  0  0
    6.0249    2.0335   -3.0663 H   0  0  0  0  0  0  0  0  0  0  0  0
    7.1580    0.0034   -2.7971 H   0  0  0  0  0  0  0  0  0  0  0  0
    6.2503   -2.8146   -4.3587 H   0  0  0  0  0  0  0  0  0  0  0  0
    7.3391   -2.2112   -3.0958 H   0  0  0  0  0  0  0  0  0  0  0  0
    7.1684   -1.2323   -4.5629 H   0  0  0  0  0  0  0  0  0  0  0  0
    2.2271    1.5017   -0.7772 H   0  0  0  0  0  0  0  0  0  0  0  0
    1.6080    1.0367   -2.3816 H   0  0  0  0  0  0  0  0  0  0  0  0
    2.0208   -0.8229    0.0439 H   0  0  0  0  0  0  0  0  0  0  0  0
    2.0250   -2.1021   -1.8633 H   0  0  0  0  0  0  0  0  0  0  0  0
    0.3231   -2.5365    0.2455 H   0  0  0  0  0  0  0  0  0  0  0  0
   -0.8261   -2.6481   -1.1057 H   0  0  0  0  0  0  0  0  0  0  0  0
    0.5951   -3.7086   -1.0654 H   0  0  0  0  0  0  0  0  0  0  0  0
    0.6787   -2.0400   -3.7295 H   0  0  0  0  0  0  0  0  0  0  0  0
   -0.7775   -1.5979   -2.8309 H   0  0  0  0  0  0  0  0  0  0  0  0
    0.4171   -0.3460   -3.2841 H   0  0  0  0  0  0  0  0  0  0  0  0
    0.6380    0.8798    0.7078 H   0  0  0  0  0  0  0  0  0  0  0  0
   -0.2495   -0.6307    0.6985 H   0  0  0  0  0  0  0  0  0  0  0  0
   -1.4511    0.3500   -1.4864 H   0  0  0  0  0  0  0  0  0  0  0  0
    0.0037    2.7455   -0.6764 H   0  0  0  0  0  0  0  0  0  0  0  0
   -0.9303    2.4482   -2.0782 H   0  0  0  0  0  0  0  0  0  0  0  0
   -1.3365    2.1822    0.9495 H   0  0  0  0  0  0  0  0  0  0  0  0
   -2.9133    1.9099   -1.3924 H   0  0  0  0  0  0  0  0  0  0  0  0
   -3.2608    0.0041    0.1008 H   0  0  0  0  0  0  0  0  0  0  0  0
   -2.0640   -0.3727    1.3193 H   0  0  0  0  0  0  0  0  0  0  0  0
   -3.9743   -0.0132    2.4685 H   0  0  0  0  0  0  0  0  0  0  0  0
   -2.5166    2.6464    2.7245 H   0  0  0  0  0  0  0  0  0  0  0  0
   -1.7111    1.1150    4.8148 H   0  0  0  0  0  0  0  0  0  0  0  0
   -2.1444   -0.2420    3.7430 H   0  0  0  0  0  0  0  0  0  0  0  0
   -0.9479    0.9546    3.2203 H   0  0  0  0  0  0  0  0  0  0  0  0
   -4.7184    1.2043    4.2149 H   0  0  0  0  0  0  0  0  0  0  0  0
   -4.5130    2.9623    3.9457 H   0  0  0  0  0  0  0  0  0  0  0  0
   -3.4932    2.0863    5.1638 H   0  0  0  0  0  0  0  0  0  0  0  0
   -5.4166    1.9327    2.4782 H   0  0  0  0  0  0  0  0  0  0  0  0
   -5.3007    3.5162    0.8907 H   0  0  0  0  0  0  0  0  0  0  0  0
   -5.4066    0.8736   -0.2535 H   0  0  0  0  0  0  0  0  0  0  0  0
   -6.7653    0.0309    2.2891 H   0  0  0  0  0  0  0  0  0  0  0  0
   -5.4598   -0.9361    1.4588 H   0  0  0  0  0  0  0  0  0  0  0  0
   -7.9063   -1.9441    2.0657 H   0  0  0  0  0  0  0  0  0  0  0  0
   -7.3060   -2.9812    0.6591 H   0  0  0  0  0  0  0  0  0  0  0  0
   -8.9098   -2.1837    0.5769 H   0  0  0  0  0  0  0  0  0  0  0  0
   -8.0991    0.8362   -0.7114 H   0  0  0  0  0  0  0  0  0  0  0  0
   -8.7403    0.6213    1.0086 H   0  0  0  0  0  0  0  0  0  0  0  0
   -9.2253   -0.4773   -0.3318 H   0  0  0  0  0  0  0  0  0  0  0  0
   -6.3850   -0.2793   -1.5350 H   0  0  0  0  0  0  0  0  0  0  0  0
   -5.5063   -2.6109   -1.6949 H   0  0  0  0  0  0  0  0  0  0  0  0
   -7.5804   -1.8126   -2.7538 H   0  0  0  0  0  0  0  0  0  0  0  0
   -8.0207   -2.7182   -1.3268 H   0  0  0  0  0  0  0  0  0  0  0  0
  1  2  1  0
  2  3  1  0
  3  4  1  0
  4  5  1  0
  5  6  1  0
  6  7  1  0
  7  8  1  0
  8  9  1  0
  9 10  1  0
 10 11  1  0
  7 12  1  0
 11 12  1  0
 12 13  1  0
 13 14  1  0
  9 15  1  0
 15 16  1  0
 16 17  1  0
 17 18  1  0
 17 19  1  0
 16 20  1  0
 20 21  1  0
 21 22  1  0
 21 23  1  0
 23 24  1  0
 23 25  1  0
 25 26  1  0
 26 27  1  0
 27 28  1  0
 27 29  1  0
 26 30  1  0
 30 31  1  0
 30 32  1  0
 32 33  1  0
 34 33  1  0
 34 35  1  0
 34 36  1  0
 34 37  1  0
 37 38  1  0
 37 39  1  0
 40 41  1  0
 41 42  1  0
 42 43  1  0
 43 44  1  0
 44 45  1  0
 45 46  1  0
 46 47  1  0
 47 48  1  0
 48 49  1  0
 49 50  1  0
 46 51  1  0
 50 51  1  0
 51 52  1  0
 52 53  1  0
 48 54  1  0
 54 55  1  0
 55 56  1  0
 56 57  1  0
 56 58  1  0
 55 59  1  0
 59 60  1  0
 60 61  1  0
 60 62  1  0
 62 63  1  0
 62 64  1  0
 64 65  1  0
 65 66  1  0
 66 67  1  0
 66 68  1  0
 65 69  1  0
 69 70  1  0
 69 71  1  0
 71 72  1  0
 73 72  1  0
 73 74  1  0
 73 75  1  0
 73 76  1  0
 76 77  1  0
 76 78  1  0
  1 79  1  0
  1 80  1  0
  1 81  1  0
  3 82  1  0
  3 83  1  0
  4 84  1  0
  4 85  1  0
  5 86  1  0
  5 87  1  0
  7 88  1  0
  8 89  1  0
  8 90  1  0
  9 91  1  0
 10 92  1  0
 10 93  1  0
 11 94  1  0
 11 95  1  0
 12 96  1  0
 14 97  1  0
 14 98  1  0
 14 99  1  0
 15100  1  0
 15101  1  0
 16102  1  1
 17103  1  0
 18104  1  0
 18105  1  0
 18106  1  0
 19107  1  0
 19108  1  0
 19109  1  0
 20110  1  0
 20111  1  0
 21112  1  6
 22113  1  0
 22114  1  0
 23115  1  1
 24116  1  0
 25117  1  0
 25118  1  0
 26119  1  1
 27120  1  0
 28121  1  0
 28122  1  0
 28123  1  0
 29124  1  0
 29125  1  0
 29126  1  0
 30127  1  0
 31128  1  0
 32129  1  0
 33130  1  0
 33131  1  0
 35132  1  0
 35133  1  0
 35134  1  0
 36135  1  0
 36136  1  0
 36137  1  0
 37138  1  1
 38139  1  0
 39140  1  0
 39141  1  0
 40142  1  0
 40143  1  0
 40144  1  0
 42145  1  0
 42146  1  0
 43147  1  0
 43148  1  0
 44149  1  0
 44150  1  0
 46151  1  0
 47152  1  0
 47153  1  0
 48154  1  6
 49155  1  0
 49156  1  0
 50157  1  0
 50158  1  0
 51159  1  0
 53160  1  0
 53161  1  0
 53162  1  0
 54163  1  0
 54164  1  0
 55165  1  1
 56166  1  0
 57167  1  0
 57168  1  0
 57169  1  0
 58170  1  0
 58171  1  0
 58172  1  0
 59173  1  0
 59174  1  0
 60175  1  6
 61176  1  0
 61177  1  0
 62178  1  1
 63179  1  0
 64180  1  0
 64181  1  0
 65182  1  1
 66183  1  0
 67184  1  0
 67185  1  0
 67186  1  0
 68187  1  0
 68188  1  0
 68189  1  0
 69190  1  0
 70191  1  0
 71192  1  0
 72193  1  0
 72194  1  0
 74195  1  0
 74196  1  0
 74197  1  0
 75198  1  0
 75199  1  0
 75200  1  0
 76201  1  0
 77202  1  0
 78203  1  0
 78204  1  0
M  END
>  <PDBID>  (1) 
2V0Z

>  <PDB ID>  (1) 
2V0Z

>  <Generic Name>  (1) 
Aliskiren

>  <Brand Name>  (1) 
Amturnide#Rasilez#Rasilez Hct#Sandoz Aliskiren#Tekamlo#Tekturna#Tekturna Hct

>  <DrugBank ID>  (1) 
DB09026

>  <ATC Codes>  (1) 
C09DX02#C09XA02#C09XA52#C09XA53#C09XA54

>  <Ligand ID>  (1) 
C41

>  <Target Name>  (1) 
Renin

>  <UniProt ID>  (1) 
P00797

>  <PDB ID.1>  (1) 
2V0Z

>  <Seq. Identity>  (1) 
100%

$$$$
