PDB_DB01259_09
     RDKit          3D

 94 98  0  0  0  0  0  0  0  0999 V2000
    9.5241    3.4026   -1.2706 C   0  0  0  0  0  0  0  0  0  0  0  0
    8.8013    4.0142    0.1636 S   0  0  0  0  0  0  0  0  0  0  0  0
    8.6039    5.4710    0.3161 O   0  0  0  0  0  0  0  0  0  0  0  0
    9.7034    3.3616    1.4182 O   0  0  0  0  0  0  0  0  0  0  0  0
    7.2158    3.1443    0.2825 C   0  0  0  0  0  0  0  0  0  0  0  0
    7.5156    1.6820    0.3584 C   0  0  0  0  0  0  0  0  0  0  0  0
    6.4011    0.8057    0.4649 N   0  0  0  0  0  0  0  0  0  0  0  0
    5.6897    0.8745    1.7113 C   0  0  0  0  0  0  0  0  0  0  0  0
    4.6217   -0.1442    1.9008 C   0  0  0  0  0  0  0  0  0  0  0  0
    5.1750   -1.5594    1.7771 C   0  0  0  0  0  0  0  0  0  0  0  0
    5.0949   -1.7593    0.2706 C   0  0  0  0  0  0  0  0  0  0  0  0
    3.7889   -0.9994   -0.0105 C   0  0  0  0  0  0  0  0  0  0  0  0
    3.5812   -0.1663    1.0300 O   0  0  0  0  0  0  0  0  0  0  0  0
    2.7526   -2.0249   -0.2274 C   0  0  0  0  0  0  0  0  0  0  0  0
    2.9722   -2.8380   -1.4874 C   0  0  0  0  0  0  0  0  0  0  0  0
    2.1966   -4.1221   -1.3444 C   0  0  0  0  0  0  0  0  0  0  0  0
    0.7228   -3.8371   -1.0967 C   0  0  0  0  0  0  0  0  0  0  0  0
    0.1106   -5.1019   -0.7636 N   0  0  0  0  0  0  0  0  0  0  0  0
   -1.2175   -5.0099   -0.2393 C   0  0  0  0  0  0  0  0  0  0  0  0
   -1.2396   -4.1606    0.9676 N   0  0  0  0  0  0  0  0  0  0  0  0
   -0.8762   -2.8282    0.4183 C   0  0  0  0  0  0  0  0  0  0  0  0
   -1.3289   -1.7846    1.2463 N   0  0  0  0  0  0  0  0  0  0  0  0
   -2.4393   -1.0377    0.7919 C   0  0  0  0  0  0  0  0  0  0  0  0
   -3.6856   -1.8739    0.6187 C   0  0  0  0  0  0  0  0  0  0  0  0
   -4.8624   -0.9458    0.5147 C   0  0  0  0  0  0  0  0  0  0  0  0
   -4.7402    0.0572   -0.6134 C   0  0  0  0  0  0  0  0  0  0  0  0
   -5.7366    1.0018   -0.3729 O   0  0  0  0  0  0  0  0  0  0  0  0
   -6.6961    1.0106   -1.3826 C   0  0  0  0  0  0  0  0  0  0  0  0
   -7.7880    1.9942   -1.0619 C   0  0  0  0  0  0  0  0  0  0  0  0
   -8.4364    1.5671    0.2483 C   0  0  0  0  0  0  0  0  0  0  0  0
   -9.7252    2.3442    0.4367 C   0  0  0  0  0  0  0  0  0  0  0  0
   -9.5252    3.8126    0.1179 C   0  0  0  0  0  0  0  0  0  0  0  0
   -8.0558    4.1669    0.1583 C   0  0  0  0  0  0  0  0  0  0  0  0
   -7.5010    3.9273    1.3950 F   0  0  0  0  0  0  0  0  0  0  0  0
   -7.3398    3.4167   -0.9593 C   0  0  0  0  0  0  0  0  0  0  0  0
   -3.4125    0.7472   -0.6237 C   0  0  0  0  0  0  0  0  0  0  0  0
   -3.3387    2.0881    0.5296 Cl  0  0  0  0  0  0  0  0  0  0  0  0
   -2.2543   -0.2217   -0.4539 C   0  0  0  0  0  0  0  0  0  0  0  0
    0.5433   -2.8920    0.0733 C   0  0  0  0  0  0  0  0  0  0  0  0
    1.3049   -1.6066   -0.1027 C   0  0  0  0  0  0  0  0  0  0  0  0
   10.1871    4.1870   -1.7031 H   0  0  0  0  0  0  0  0  0  0  0  0
   10.0992    2.4683   -1.0319 H   0  0  0  0  0  0  0  0  0  0  0  0
    8.7035    3.1329   -1.9886 H   0  0  0  0  0  0  0  0  0  0  0  0
    9.3493    6.0879    0.4061 H   0  0  0  0  0  0  0  0  0  0  0  0
   10.1232    2.4900    1.1529 H   0  0  0  0  0  0  0  0  0  0  0  0
    6.6510    3.3725   -0.6616 H   0  0  0  0  0  0  0  0  0  0  0  0
    6.7111    3.5070    1.1875 H   0  0  0  0  0  0  0  0  0  0  0  0
    8.0830    1.3759   -0.5710 H   0  0  0  0  0  0  0  0  0  0  0  0
    8.2730    1.5080    1.1734 H   0  0  0  0  0  0  0  0  0  0  0  0
    5.7759    1.0036   -0.3582 H   0  0  0  0  0  0  0  0  0  0  0  0
    5.1963    1.8895    1.7320 H   0  0  0  0  0  0  0  0  0  0  0  0
    6.3878    0.8956    2.5732 H   0  0  0  0  0  0  0  0  0  0  0  0
    4.2808   -0.0634    2.9636 H   0  0  0  0  0  0  0  0  0  0  0  0
    4.4439   -2.2372    2.2410 H   0  0  0  0  0  0  0  0  0  0  0  0
    6.1757   -1.6629    2.1875 H   0  0  0  0  0  0  0  0  0  0  0  0
    5.0092   -2.8376    0.1203 H   0  0  0  0  0  0  0  0  0  0  0  0
    5.9447   -1.3854   -0.2862 H   0  0  0  0  0  0  0  0  0  0  0  0
    3.9407   -0.3769   -0.9379 H   0  0  0  0  0  0  0  0  0  0  0  0
    2.8913   -2.7913    0.6106 H   0  0  0  0  0  0  0  0  0  0  0  0
    2.5973   -2.2280   -2.3484 H   0  0  0  0  0  0  0  0  0  0  0  0
    4.0445   -3.0574   -1.5764 H   0  0  0  0  0  0  0  0  0  0  0  0
    2.2700   -4.6599   -2.3232 H   0  0  0  0  0  0  0  0  0  0  0  0
    2.6189   -4.7036   -0.5152 H   0  0  0  0  0  0  0  0  0  0  0  0
    0.3197   -3.4040   -2.0332 H   0  0  0  0  0  0  0  0  0  0  0  0
    0.0824   -5.7569   -1.5758 H   0  0  0  0  0  0  0  0  0  0  0  0
   -1.6150   -6.0064   -0.0760 H   0  0  0  0  0  0  0  0  0  0  0  0
   -1.8183   -4.4179   -0.9914 H   0  0  0  0  0  0  0  0  0  0  0  0
   -0.4081   -4.4689    1.5157 H   0  0  0  0  0  0  0  0  0  0  0  0
   -1.4852   -2.7359   -0.5505 H   0  0  0  0  0  0  0  0  0  0  0  0
   -0.5740   -1.2947    1.7230 H   0  0  0  0  0  0  0  0  0  0  0  0
   -2.6966   -0.3000    1.6085 H   0  0  0  0  0  0  0  0  0  0  0  0
   -3.8772   -2.5593    1.4580 H   0  0  0  0  0  0  0  0  0  0  0  0
   -3.5710   -2.4994   -0.2927 H   0  0  0  0  0  0  0  0  0  0  0  0
   -5.7879   -1.5380    0.3162 H   0  0  0  0  0  0  0  0  0  0  0  0
   -4.9972   -0.4136    1.4612 H   0  0  0  0  0  0  0  0  0  0  0  0
   -4.9598   -0.4795   -1.5547 H   0  0  0  0  0  0  0  0  0  0  0  0
   -7.0683    0.0211   -1.6489 H   0  0  0  0  0  0  0  0  0  0  0  0
   -6.1788    1.4091   -2.3057 H   0  0  0  0  0  0  0  0  0  0  0  0
   -8.5746    1.8975   -1.8520 H   0  0  0  0  0  0  0  0  0  0  0  0
   -7.7694    1.6730    1.1006 H   0  0  0  0  0  0  0  0  0  0  0  0
   -8.7129    0.5098    0.1457 H   0  0  0  0  0  0  0  0  0  0  0  0
  -10.0501    2.2768    1.4897 H   0  0  0  0  0  0  0  0  0  0  0  0
  -10.5395    1.8841   -0.1802 H   0  0  0  0  0  0  0  0  0  0  0  0
  -10.1326    4.4700    0.7636 H   0  0  0  0  0  0  0  0  0  0  0  0
   -9.8561    3.9745   -0.9228 H   0  0  0  0  0  0  0  0  0  0  0  0
   -7.9861    5.2421   -0.0562 H   0  0  0  0  0  0  0  0  0  0  0  0
   -7.5938    3.9459   -1.9043 H   0  0  0  0  0  0  0  0  0  0  0  0
   -6.2611    3.5313   -0.7659 H   0  0  0  0  0  0  0  0  0  0  0  0
   -3.2929    1.1982   -1.6500 H   0  0  0  0  0  0  0  0  0  0  0  0
   -1.3313    0.3626   -0.4857 H   0  0  0  0  0  0  0  0  0  0  0  0
   -2.3202   -0.9320   -1.3118 H   0  0  0  0  0  0  0  0  0  0  0  0
    1.0737   -3.4208    0.9322 H   0  0  0  0  0  0  0  0  0  0  0  0
    0.9447   -1.0813   -1.0295 H   0  0  0  0  0  0  0  0  0  0  0  0
    1.1597   -0.9783    0.7736 H   0  0  0  0  0  0  0  0  0  0  0  0
  1  2  1  0
  2  3  1  0
  2  4  1  0
  2  5  1  0
  5  6  1  0
  6  7  1  0
  7  8  1  0
  8  9  1  0
  9 10  1  0
 10 11  1  0
 11 12  1  0
  9 13  1  0
 12 13  1  0
 12 14  1  0
 14 15  1  0
 15 16  1  0
 16 17  1  0
 17 18  1  0
 18 19  1  0
 19 20  1  0
 20 21  1  0
 21 22  1  0
 22 23  1  0
 23 24  1  0
 24 25  1  0
 25 26  1  0
 26 27  1  0
 27 28  1  0
 28 29  1  0
 29 30  1  0
 30 31  1  0
 31 32  1  0
 32 33  1  0
 33 34  1  0
 29 35  1  0
 33 35  1  0
 26 36  1  0
 36 37  1  0
 23 38  1  0
 36 38  1  0
 17 39  1  0
 21 39  1  0
 14 40  1  0
 39 40  1  0
  1 41  1  0
  1 42  1  0
  1 43  1  0
  3 44  1  0
  4 45  1  0
  5 46  1  0
  5 47  1  0
  6 48  1  0
  6 49  1  0
  7 50  1  0
  8 51  1  0
  8 52  1  0
  9 53  1  0
 10 54  1  0
 10 55  1  0
 11 56  1  0
 11 57  1  0
 12 58  1  0
 14 59  1  0
 15 60  1  0
 15 61  1  0
 16 62  1  0
 16 63  1  0
 17 64  1  0
 18 65  1  0
 19 66  1  0
 19 67  1  0
 20 68  1  0
 21 69  1  0
 22 70  1  0
 23 71  1  0
 24 72  1  0
 24 73  1  0
 25 74  1  0
 25 75  1  0
 26 76  1  0
 28 77  1  0
 28 78  1  0
 29 79  1  0
 30 80  1  0
 30 81  1  0
 31 82  1  0
 31 83  1  0
 32 84  1  0
 32 85  1  0
 33 86  1  0
 35 87  1  0
 35 88  1  0
 36 89  1  0
 38 90  1  0
 38 91  1  0
 39 92  1  0
 40 93  1  0
 40 94  1  0
M  END
>  <PDBID>  (1) 
1XKK

>  <PDB ID>  (1) 
1XKK

>  <Generic Name>  (1) 
Lapatinib

>  <Brand Name>  (1) 
Tykerb#Tycerb

>  <DrugBank ID>  (1) 
DB01259

>  <ATC Codes>  (1) 
L01XE07

>  <Ligand ID>  (1) 
FMM

>  <Target Name>  (1) 
Receptor tyrosine-protein kinase erbB-2

>  <UniProt ID>  (1) 
P04626

>  <PDB ID.1>  (1) 
1XKK

>  <Seq. Identity>  (1) 
78%

$$$$
