PDB_DB00668_06
     RDKit          3D

 32 32  0  0  0  0  0  0  0  0999 V2000
   -0.1277   -0.7737    0.1017 C   0  0  0  0  0  0  0  0  0  0  0  0
   -0.8850   -0.5557    1.4019 C   0  0  0  0  0  0  0  0  0  0  0  0
   -2.3590   -0.3956    1.1572 C   0  0  0  0  0  0  0  0  0  0  0  0
   -2.5658    0.8130    0.2806 C   0  0  0  0  0  0  0  0  0  0  0  0
   -1.7009    0.8087   -0.9615 C   0  0  0  0  0  0  0  0  0  0  0  0
   -0.9694   -0.5157   -1.0947 C   0  0  0  0  0  0  0  0  0  0  0  0
   -2.9681   -1.5470    0.6763 O   0  0  0  0  0  0  0  0  0  0  0  0
   -3.9083    0.9786   -0.0556 O   0  0  0  0  0  0  0  0  0  0  0  0
    1.8572   -0.2438    1.2475 O   0  0  0  0  0  0  0  0  0  0  0  0
    4.0452    0.2312   -0.0195 C   0  0  0  0  0  0  0  0  0  0  0  0
    3.1527    0.7062   -1.0375 N   0  0  0  0  0  0  0  0  0  0  0  0
    1.9315   -0.0940   -1.1123 C   0  0  0  0  0  0  0  0  0  0  0  0
    1.0842    0.1243    0.1216 C   0  0  1  0  0  0  0  0  0  0  0  0
    0.2382   -1.8217    0.0629 H   0  0  0  0  0  0  0  0  0  0  0  0
   -0.5314    0.3644    1.8832 H   0  0  0  0  0  0  0  0  0  0  0  0
   -0.6599   -1.3925    2.1036 H   0  0  0  0  0  0  0  0  0  0  0  0
   -2.8273   -0.1751    2.1409 H   0  0  0  0  0  0  0  0  0  0  0  0
   -2.2728    1.6985    0.8811 H   0  0  0  0  0  0  0  0  0  0  0  0
   -0.9083    1.5926   -0.9119 H   0  0  0  0  0  0  0  0  0  0  0  0
   -2.2923    0.9829   -1.8795 H   0  0  0  0  0  0  0  0  0  0  0  0
   -0.3695   -0.4897   -2.0065 H   0  0  0  0  0  0  0  0  0  0  0  0
   -1.7341   -1.3158   -1.2661 H   0  0  0  0  0  0  0  0  0  0  0  0
   -3.1107   -2.1421    1.4667 H   0  0  0  0  0  0  0  0  0  0  0  0
   -4.1388    1.9288   -0.0416 H   0  0  0  0  0  0  0  0  0  0  0  0
    1.6528   -1.1783    1.4691 H   0  0  0  0  0  0  0  0  0  0  0  0
    5.0962    0.3124   -0.3791 H   0  0  0  0  0  0  0  0  0  0  0  0
    3.9948    0.9014    0.8703 H   0  0  0  0  0  0  0  0  0  0  0  0
    3.8805   -0.8083    0.2855 H   0  0  0  0  0  0  0  0  0  0  0  0
    2.9095    1.7114   -0.8556 H   0  0  0  0  0  0  0  0  0  0  0  0
    1.4412    0.2451   -2.0485 H   0  0  0  0  0  0  0  0  0  0  0  0
    2.2355   -1.1331   -1.2391 H   0  0  0  0  0  0  0  0  0  0  0  0
    0.8096    1.1824    0.2363 H   0  0  0  0  0  0  0  0  0  0  0  0
  1  2  1  0
  2  3  1  0
  3  4  1  0
  4  5  1  0
  1  6  1  0
  5  6  1  0
  3  7  1  0
  4  8  1  0
 10 11  1  0
 11 12  1  0
  1 13  1  0
  9 13  1  0
 12 13  1  0
  1 14  1  0
  2 15  1  0
  2 16  1  0
  3 17  1  0
  4 18  1  0
  5 19  1  0
  5 20  1  0
  6 21  1  0
  6 22  1  0
  7 23  1  0
  8 24  1  0
  9 25  1  0
 10 26  1  0
 10 27  1  0
 10 28  1  0
 11 29  1  0
 12 30  1  0
 12 31  1  0
 13 32  1  1
M  END
>  <PDBID>  (1) 
4LDO

>  <PDB ID>  (1) 
4LDO

>  <Generic Name>  (1) 
Epinephrine

>  <Brand Name>  (1) 
2% Lidocaine and Epinephrine 1:100,000 Injection USP#4% Astracaine Dental With Epinephrine 1:200,000 (0.005mg/ml)#4% Astracaine Dental With Epinephrine Forte 1:100,000 (0.01mg/ml)#4% Citanest Forte Dental With Epinephrine 1:200,000#Adrenaclick#Adrenaclick 0.15mg Auto-injector#Adrenaclick 0.30mg Auto-injector#Adrenalin#Adrenalin Chloride Sol 1:1000#Adrenalin Chloride Sol 1:1000 Amp#Adyphren Amp II Kit#Adyphren Amp Kit#Adyphren II Kit#Allerject#Ana-kit#Ana-kit (2mg/tab Orl, 1mg/ml Liq Sc Im)#Anakit Insect Sting Treatment Kit#Anapen#Anapen Junior#Articadent#Articaine#Articaine HCl and Epinephrine#Articaine Hydrochloride and Epinephrine#Auvi-Q#Bronkaid Mistometer Aem 0.5%#Bupivacaine HCl 0.5% and Epinephrine 1:200,000 Injection#Bupivacaine Hydrochloride and Epinephrine#Citanest Forte#Dentsply 2% Lidocaine With Epinephrine 1:100,000#Dentsply 2% Lidocaine With Epinephrine 1:50,000#Dentsply 4% Prilocaine and Epinephrine Injection 1:200,000#Dysne Inhal#E-pilo 1 Ophthalmic Solution#E-pilo 2 Ophthalmic Solution#E-pilo 4 Ophthalmic Solution#E-pilo 6 Ophthalmic Solution#E-pilo-1 Oph Soln#E-pilo-2 Oph Soln#E-pilo-4 Oph Soln#E-pilo-6 Oph Soln#Ephinephrine#Epi E-Z Pen  -  Liquid - 0.3mg/0.3ml#Epinephrine#Epinephrine 1:1000 Inj 1mg/ml USP#Epinephrine Inj 0.1mg/ml USP#Epinephrine Inj 1mg/ml USP#Epinephrine Injection#Epinephrine Injection USP#Epinephrine Injection USP 1 mg/ml#Epipen#Epipen Jr#Episnap Epinephrine Convenience Kit#Gingi Pak Cord No 1#Karticaine#Karticaine Forte#Lidocaine#Lidocaine 2% and Epinephrine 1:100 000#Lidocaine 2% and Epinephrine 1:100,000#Lidocaine 2% and Epinephrine 1:100,000 Injection#Lidocaine 2% and Epinephrine 1:50 000#Lidocaine 2% and Epinephrine 1:50,000#Lidocaine HCl#Lidocaine Hydrochloride 0.5% and Epinephrine 1:200000 Injection USP#Lidocaine Hydrochloride 1% and Epinephrine 1:100 000 Injection USP#Lidocaine Hydrochloride 1.5% and Epinephrine 1:200000 Injection USP#Lidocaine Hydrochloride 1.5% and Epinephrine 1:200000 Injection USP Test Dose#Lidocaine Hydrochloride 2% and Epinephrine 1:100 000 Injection USP#Lidocaine Hydrochloride 2% and Epinephrine 1:200000 Injection USP#Lidocaine Hydrochloride and Epinephrine#Lidocaine Hydrochloride and Epinephrine Bitartrate#Lidocaine and Epinephrine Inj.usp 2% 1:100000#Lignospan Forte#Lignospan Speciale Inj#Lignospan Standard#Marcaine#Marcaine 0.5% and Epinephrine 1:200,000 Liq#Marcaine E 0.25% Liq Prt#Marcaine E 2.5 mg/ml#Marcaine E 5.0 mg/ml#Marcaine E Liq Prt 0.50%#Marcaine With Epinephrine#Numbing Hemorrhoidal Label#Numquick Analgesic#Numquick Topical Analgesic#Octocaine 100#Octocaine 100 Needleject Inj#Octocaine 50#Octocaine HCl 2% Epinephrine 1:100000#Octocaine HCl 2% Epinephrine 1:50000#Orabloc#Orabloc 1:100,000#Orabloc 1:200,000#Posicaine N#Posicaine Sp#Prilocaine HCl 4% Epineph 1:200000inj#Prilocaine Hydrochloride With Epinephrine#Prime Asthma Relief#Scandonest 2% Special Inj#Sensorcaine#Sensorcaine 0.25% With Epinephrine#Sensorcaine 0.5% With Epinephrine#Sensorcaine Forte#Sensorcaine Mpf#Septanest N#Septanest Sp#Septocaine and Epinephrine#Taro-epinephrine Auto-injector#Twinject 0.15mg Auto-injector#Twinject 0.3mg Auto-injector#Ultracaine D-S Forte Injection#Ultracaine D-S Injection#Ultracaine DS Forte Inj#Ultracaine DS Inj#Vivacaine#Xylocaine#Xylocaine 0.5% W Epinephrine 1:100000#Xylocaine 0.5% W Epinephrine 1:200000#Xylocaine 1% W Epinephrine 1:100000#Xylocaine 1% W Epinephrine 1:200000#Xylocaine 1.5% W Epinephrine 1:200000#Xylocaine 1.5% W Epinephrine 1:200000 Test Dose#Xylocaine 2% W Epinephrine 1:100000#Xylocaine 2% W Epinephrine 1:200000#Xylocaine Dental Lidocaine HCl 2% and Epinephrine 1:100,000#Xylocaine Dental Lidocaine Hydrochloride 2% and Epinephrine 1:50,000#Xylocaine Mpf#Xylocaine Mpf 1.5% With Epinephrine#Zorcaine#Epi EZ Pen JR#Medihaler-Epi#Twinject

>  <DrugBank ID>  (1) 
DB00668

>  <ATC Codes>  (1) 
R03AK01#R01AA14#S01EA51#C01CA24#R03AA01#S01EA01#A01AD01#B02BC09

>  <Ligand ID>  (1) 
ALE

>  <Target Name>  (1) 
Beta-1 adrenergic receptor

>  <UniProt ID>  (1) 
P08588

>  <PDB ID.1>  (1) 
4LDO

>  <Seq. Identity>  (1) 
54%

$$$$
