PDB_DB00476_05
     RDKit          3D

 54 56  0  0  0  0  0  0  0  0999 V2000
   -3.4269    3.0340   -2.2323 C   0  0  0  0  0  0  0  0  0  0  0  0
   -3.0475    3.1567   -0.8394 N   0  0  0  0  0  0  0  0  0  0  0  0
   -2.9045    1.7942   -0.2458 C   0  0  0  0  0  0  0  0  0  0  0  0
   -1.7222    1.1120   -0.8544 C   0  0  0  0  0  0  0  0  0  0  0  0
   -1.4349   -0.2371   -0.2466 C   0  0  1  0  0  0  0  0  0  0  0  0
   -2.5499   -1.1864   -0.3567 C   0  0  0  0  0  0  0  0  0  0  0  0
   -4.0642   -0.6777    0.5643 S   0  0  0  0  0  0  0  0  0  0  0  0
   -3.9876   -1.9400    1.8991 C   0  0  0  0  0  0  0  0  0  0  0  0
   -2.5449   -2.4295    1.7043 C   0  0  0  0  0  0  0  0  0  0  0  0
   -2.3951   -2.5548    0.2028 C   0  0  0  0  0  0  0  0  0  0  0  0
   -0.2311   -0.7671   -0.7358 O   0  0  0  0  0  0  0  0  0  0  0  0
    0.8217   -0.7144    0.1697 C   0  0  0  0  0  0  0  0  0  0  0  0
    2.0388   -0.1303   -0.4815 C   0  0  0  0  0  0  0  0  0  0  0  0
    1.8692    1.2667   -0.9996 C   0  0  0  0  0  0  0  0  0  0  0  0
    3.1528    1.9179   -1.4111 C   0  0  0  0  0  0  0  0  0  0  0  0
    4.2931    1.7937   -0.4708 C   0  0  0  0  0  0  0  0  0  0  0  0
    3.7919    1.1161    0.7851 C   0  0  0  0  0  0  0  0  0  0  0  0
    3.3064   -0.2604    0.3319 C   0  0  0  0  0  0  0  0  0  0  0  0
    3.0812   -1.0920    1.5484 C   0  0  0  0  0  0  0  0  0  0  0  0
    2.4081   -2.4047    1.2050 C   0  0  0  0  0  0  0  0  0  0  0  0
    1.1029   -2.1838    0.5287 C   0  0  0  0  0  0  0  0  0  0  0  0
   -3.9971    3.9494   -2.4916 H   0  0  0  0  0  0  0  0  0  0  0  0
   -2.5086    3.0058   -2.8577 H   0  0  0  0  0  0  0  0  0  0  0  0
   -4.0622    2.1484   -2.3510 H   0  0  0  0  0  0  0  0  0  0  0  0
   -2.1119    3.6294   -0.8094 H   0  0  0  0  0  0  0  0  0  0  0  0
   -3.8479    1.2910   -0.5730 H   0  0  0  0  0  0  0  0  0  0  0  0
   -2.9185    1.9179    0.8203 H   0  0  0  0  0  0  0  0  0  0  0  0
   -1.8312    1.0408   -1.9710 H   0  0  0  0  0  0  0  0  0  0  0  0
   -0.8421    1.7731   -0.6181 H   0  0  0  0  0  0  0  0  0  0  0  0
   -1.2870    0.0227    0.8605 H   0  0  0  0  0  0  0  0  0  0  0  0
   -2.9429   -1.2560   -1.4305 H   0  0  0  0  0  0  0  0  0  0  0  0
   -4.6913   -2.7459    1.6095 H   0  0  0  0  0  0  0  0  0  0  0  0
   -4.1562   -1.5086    2.8816 H   0  0  0  0  0  0  0  0  0  0  0  0
   -2.3968   -3.4251    2.1331 H   0  0  0  0  0  0  0  0  0  0  0  0
   -1.8547   -1.6656    2.0857 H   0  0  0  0  0  0  0  0  0  0  0  0
   -1.4858   -3.0420   -0.0734 H   0  0  0  0  0  0  0  0  0  0  0  0
   -3.3088   -3.1473   -0.1248 H   0  0  0  0  0  0  0  0  0  0  0  0
    0.5741   -0.1618    1.0985 H   0  0  0  0  0  0  0  0  0  0  0  0
    2.2008   -0.7789   -1.3951 H   0  0  0  0  0  0  0  0  0  0  0  0
    1.1622    1.3413   -1.8434 H   0  0  0  0  0  0  0  0  0  0  0  0
    1.4653    1.8716   -0.1624 H   0  0  0  0  0  0  0  0  0  0  0  0
    3.0141    2.9965   -1.6678 H   0  0  0  0  0  0  0  0  0  0  0  0
    3.4531    1.4294   -2.3859 H   0  0  0  0  0  0  0  0  0  0  0  0
    5.0818    1.1136   -0.8848 H   0  0  0  0  0  0  0  0  0  0  0  0
    4.7211    2.7964   -0.2543 H   0  0  0  0  0  0  0  0  0  0  0  0
    2.9509    1.6814    1.2109 H   0  0  0  0  0  0  0  0  0  0  0  0
    4.6059    0.9307    1.5128 H   0  0  0  0  0  0  0  0  0  0  0  0
    4.1112   -0.6422   -0.3241 H   0  0  0  0  0  0  0  0  0  0  0  0
    2.4752   -0.5608    2.2855 H   0  0  0  0  0  0  0  0  0  0  0  0
    4.0732   -1.3644    1.9911 H   0  0  0  0  0  0  0  0  0  0  0  0
    2.3181   -2.9714    2.1542 H   0  0  0  0  0  0  0  0  0  0  0  0
    3.1226   -3.0182    0.5832 H   0  0  0  0  0  0  0  0  0  0  0  0
    0.3107   -2.4385    1.2950 H   0  0  0  0  0  0  0  0  0  0  0  0
    1.0452   -2.8259   -0.3691 H   0  0  0  0  0  0  0  0  0  0  0  0
  1  2  1  0
  2  3  1  0
  3  4  1  0
  4  5  1  0
  5  6  1  0
  6  7  1  0
  7  8  1  0
  8  9  1  0
  6 10  1  0
  9 10  1  0
  5 11  1  0
 11 12  1  0
 12 13  1  0
 13 14  1  0
 14 15  1  0
 15 16  1  0
 16 17  1  0
 13 18  1  0
 17 18  1  0
 18 19  1  0
 19 20  1  0
 12 21  1  0
 20 21  1  0
  1 22  1  0
  1 23  1  0
  1 24  1  0
  2 25  1  0
  3 26  1  0
  3 27  1  0
  4 28  1  0
  4 29  1  0
  5 30  1  1
  6 31  1  0
  8 32  1  0
  8 33  1  0
  9 34  1  0
  9 35  1  0
 10 36  1  0
 10 37  1  0
 12 38  1  0
 13 39  1  0
 14 40  1  0
 14 41  1  0
 15 42  1  0
 15 43  1  0
 16 44  1  0
 16 45  1  0
 17 46  1  0
 17 47  1  0
 18 48  1  0
 19 49  1  0
 19 50  1  0
 20 51  1  0
 20 52  1  0
 21 53  1  0
 21 54  1  0
M  END
>  <PDBID>  (1) 
4MM6

>  <PDB ID>  (1) 
4MM6

>  <Generic Name>  (1) 
Duloxetine

>  <Brand Name>  (1) 
Act Duloxetine#Apo-duloxetine#Auro-duloxetine#Cymbalta#Dom-duloxetine#Duloxetine#Duloxetine Delayed-release#Duloxetine Dr#Duloxetine Hydrochloride#Duloxetine Hydrochloride 20 mg#Duloxetine Hydrochloride 30 mg#Duloxetine Hydrochloride 60 mg#Ipg-duloxetine#Irenka#Jamp-duloxetine#Mar-duloxetine#Mint-duloxetine#Mylan-duloxetine#PMS-duloxetine#Ran-duloxetine#Riva-duloxetine#Sandoz Duloxetine#Taro-duloxetine#Teva-duloxetine Dr#Torrent-duloxetine#Ariclaim#Dulane#Duzela#Xeristar#Yentreve

>  <DrugBank ID>  (1) 
DB00476

>  <ATC Codes>  (1) 
N06AX21

>  <Ligand ID>  (1) 
29E

>  <Target Name>  (1) 
Sodium-dependent noradrenaline transporter

>  <UniProt ID>  (1) 
P23975

>  <PDB ID.1>  (1) 
4MM6

>  <Seq. Identity>  (1) 
30%

$$$$
