PDB_DB00787_01
     RDKit          3D

 70 72  0  0  0  0  0  0  0  0999 V2000
    4.9778    0.2522   -0.2197 C   0  0  0  0  0  0  0  0  0  0  0  0
    6.1149    0.6219    0.4865 O   0  0  0  0  0  0  0  0  0  0  0  0
    3.7155    0.5371    0.5676 C   0  0  0  0  0  0  0  0  0  0  0  0
    2.6434    0.1245   -0.2431 O   0  0  0  0  0  0  0  0  0  0  0  0
    1.4145    0.3488    0.4031 C   0  0  0  0  0  0  0  0  0  0  0  0
    0.3834   -0.0956   -0.4840 N   0  0  0  0  0  0  0  0  0  0  0  0
    0.4967   -1.5077   -0.8127 C   0  0  0  0  0  0  0  0  0  0  0  0
   -0.8231   -1.8827   -1.3196 N   0  0  0  0  0  0  0  0  0  0  0  0
   -1.6849   -0.7714   -1.0795 C   0  0  0  0  0  0  0  0  0  0  0  0
   -3.0367   -1.0834   -0.5650 C   0  0  0  0  0  0  0  0  0  0  0  0
   -3.8587   -1.6609   -1.5454 O   0  0  0  0  0  0  0  0  0  0  0  0
   -3.6761    0.1857   -0.2058 N   0  0  0  0  0  0  0  0  0  0  0  0
   -2.9059    0.9625    0.7053 C   0  0  0  0  0  0  0  0  0  0  0  0
   -3.5703    2.2097    0.9360 N   0  0  0  0  0  0  0  0  0  0  0  0
   -1.5285    1.1983    0.2409 N   0  0  0  0  0  0  0  0  0  0  0  0
   -0.9321   -0.0723    0.0658 C   0  0  0  0  0  0  0  0  0  0  0  0
    4.7842    0.3582   -0.0482 C   0  0  0  0  0  0  0  0  0  0  0  0
    5.7267    1.4028   -0.0192 O   0  0  0  0  0  0  0  0  0  0  0  0
    3.3823    0.9232    0.2192 C   0  0  0  0  0  0  0  0  0  0  0  0
    2.5108   -0.1514    0.1764 O   0  0  0  0  0  0  0  0  0  0  0  0
    1.1952    0.2038    0.4018 C   0  0  0  0  0  0  0  0  0  0  0  0
    0.3901   -0.9926    0.3321 N   0  0  0  0  0  0  0  0  0  0  0  0
    0.5047   -1.6219   -0.9743 C   0  0  0  0  0  0  0  0  0  0  0  0
   -0.6459   -1.0070   -1.6606 N   0  0  0  0  0  0  0  0  0  0  0  0
   -1.6642   -1.3062   -0.6463 C   0  0  2  0  0  0  0  0  0  0  0  0
   -2.9950   -0.7614   -0.9656 C   0  0  0  0  0  0  0  0  0  0  0  0
   -3.1802   -0.8185   -2.3608 O   0  0  0  0  0  0  0  0  0  0  0  0
   -3.2515    0.5742   -0.5447 N   0  0  0  0  0  0  0  0  0  0  0  0
   -2.8032    0.7007    0.8382 C   0  0  0  0  0  0  0  0  0  0  0  0
   -3.2536    1.9078    1.4628 N   0  0  0  0  0  0  0  0  0  0  0  0
   -1.3389    0.6176    0.7842 N   0  0  0  0  0  0  0  0  0  0  0  0
   -1.0065   -0.7611    0.5735 C   0  0  0  0  0  0  0  0  0  0  0  0
    5.0505   -0.8328   -0.4051 H   0  0  0  0  0  0  0  0  0  0  0  0
    4.9821    0.8008   -1.1957 H   0  0  0  0  0  0  0  0  0  0  0  0
    5.8541    0.8865    1.4006 H   0  0  0  0  0  0  0  0  0  0  0  0
    3.7781   -0.0180    1.5072 H   0  0  0  0  0  0  0  0  0  0  0  0
    3.6909    1.6426    0.7403 H   0  0  0  0  0  0  0  0  0  0  0  0
    1.3684   -0.1933    1.3710 H   0  0  0  0  0  0  0  0  0  0  0  0
    1.2780    1.4372    0.5583 H   0  0  0  0  0  0  0  0  0  0  0  0
    1.3006   -1.7189   -1.5299 H   0  0  0  0  0  0  0  0  0  0  0  0
    0.6138   -2.0503    0.1492 H   0  0  0  0  0  0  0  0  0  0  0  0
   -0.6930   -1.9693   -2.3576 H   0  0  0  0  0  0  0  0  0  0  0  0
   -1.7594   -0.1001   -1.9577 H   0  0  0  0  0  0  0  0  0  0  0  0
   -2.9863   -1.7635    0.3157 H   0  0  0  0  0  0  0  0  0  0  0  0
   -3.2668   -2.2173   -2.1353 H   0  0  0  0  0  0  0  0  0  0  0  0
   -3.7879    0.6990   -1.1216 H   0  0  0  0  0  0  0  0  0  0  0  0
   -2.8867    0.4104    1.6839 H   0  0  0  0  0  0  0  0  0  0  0  0
   -4.4689    2.0066    1.4423 H   0  0  0  0  0  0  0  0  0  0  0  0
   -3.7276    2.6860    0.0265 H   0  0  0  0  0  0  0  0  0  0  0  0
   -1.0578    1.6860    1.0475 H   0  0  0  0  0  0  0  0  0  0  0  0
   -1.0120   -0.7583    0.9267 H   0  0  0  0  0  0  0  0  0  0  0  0
    5.0370   -0.3996    0.7213 H   0  0  0  0  0  0  0  0  0  0  0  0
    4.8507   -0.1273   -1.0298 H   0  0  0  0  0  0  0  0  0  0  0  0
    6.6190    0.9845   -0.0126 H   0  0  0  0  0  0  0  0  0  0  0  0
    3.1600    1.7185   -0.4991 H   0  0  0  0  0  0  0  0  0  0  0  0
    3.4428    1.3982    1.2261 H   0  0  0  0  0  0  0  0  0  0  0  0
    1.1031    0.6003    1.4336 H   0  0  0  0  0  0  0  0  0  0  0  0
    0.8634    0.9817   -0.3101 H   0  0  0  0  0  0  0  0  0  0  0  0
    0.2751   -2.6930   -0.8433 H   0  0  0  0  0  0  0  0  0  0  0  0
    1.4469   -1.4144   -1.4739 H   0  0  0  0  0  0  0  0  0  0  0  0
   -0.4771    0.0289   -1.5722 H   0  0  0  0  0  0  0  0  0  0  0  0
   -1.7324   -2.4254   -0.6351 H   0  0  0  0  0  0  0  0  0  0  0  0
   -3.7933   -1.4312   -0.5462 H   0  0  0  0  0  0  0  0  0  0  0  0
   -3.3862   -1.7373   -2.6673 H   0  0  0  0  0  0  0  0  0  0  0  0
   -2.7121    1.2395   -1.1432 H   0  0  0  0  0  0  0  0  0  0  0  0
   -3.2326   -0.1662    1.3862 H   0  0  0  0  0  0  0  0  0  0  0  0
   -4.2367    1.7599    1.7783 H   0  0  0  0  0  0  0  0  0  0  0  0
   -3.2511    2.7436    0.8478 H   0  0  0  0  0  0  0  0  0  0  0  0
   -0.9997    0.9898    1.6802 H   0  0  0  0  0  0  0  0  0  0  0  0
   -1.3317   -1.3186    1.4876 H   0  0  0  0  0  0  0  0  0  0  0  0
  1  2  1  0
  1  3  1  0
  3  4  1  0
  4  5  1  0
  5  6  1  0
  6  7  1  0
  7  8  1  0
  8  9  1  0
  9 10  1  0
 10 11  1  0
 10 12  1  0
 12 13  1  0
 13 14  1  0
 13 15  1  0
  6 16  1  0
  9 16  1  0
 15 16  1  0
 17 18  1  0
 17 19  1  0
 19 20  1  0
 20 21  1  0
 21 22  1  0
 22 23  1  0
 23 24  1  0
 24 25  1  0
 25 26  1  0
 26 27  1  0
 26 28  1  0
 28 29  1  0
 29 30  1  0
 29 31  1  0
 22 32  1  0
 25 32  1  0
 31 32  1  0
  1 33  1  0
  1 34  1  0
  2 35  1  0
  3 36  1  0
  3 37  1  0
  5 38  1  0
  5 39  1  0
  7 40  1  0
  7 41  1  0
  8 42  1  0
  9 43  1  0
 10 44  1  0
 11 45  1  0
 12 46  1  0
 13 47  1  0
 14 48  1  0
 14 49  1  0
 15 50  1  0
 16 51  1  0
 17 52  1  0
 17 53  1  0
 18 54  1  0
 19 55  1  0
 19 56  1  0
 21 57  1  0
 21 58  1  0
 23 59  1  0
 23 60  1  0
 24 61  1  0
 25 62  1  1
 26 63  1  0
 27 64  1  0
 28 65  1  0
 29 66  1  0
 30 67  1  0
 30 68  1  0
 31 69  1  0
 32 70  1  0
M  END
>  <PDBID>  (1) 
2KI5

>  <PDB ID>  (1) 
2KI5

>  <Generic Name>  (1) 
Aciclovir

>  <Brand Name>  (1) 
Acyclovir#Acyclovir Sodium#Acyclovir Sodium Injection#Acyclovir Sodium for Injection#Acyclovir-200#Acyclovir-400#Acyclovir-800#Alti-acyclovir - 400mg#Alti-acyclovir - 800mg#Alti-acyclovir - Tab 200mg#Apo-acyclovir - Tab 200mg#Apo-acyclovir - Tab 400mg#Apo-acyclovir - Tab 800mg#Mylan-acyclovir#Ntp-acyclovir#Nu-acyclovir - Tab 200mg#Nu-acyclovir - Tab 400mg#Nu-acyclovir - Tab 800mg#Ratio-acyclovir#Sitavig#Teva-acyclovir#Xerese#Zovirax#Zovirax 400#Zovirax 800#Zovirax Cap 200mg#Zovirax Tab 200mg#Zovir

>  <DrugBank ID>  (1) 
DB00787

>  <ATC Codes>  (1) 
S01AD03#D06BB03#J05AB01#D06BB53

>  <Ligand ID>  (1) 
AC2

>  <Target Name>  (1) 
Thymidine kinase

>  <UniProt ID>  (1) 
P03176

>  <PDB ID.1>  (1) 
2KI5

>  <Seq. Identity>  (1) 
100%

$$$$
