PDB_DB01167_03
     RDKit          3D

113119  0  0  0  0  0  0  0  0999 V2000
    7.1086    0.2443    1.3325 C   0  0  0  0  0  0  0  0  0  0  0  0
    7.2591   -1.2156    1.1685 C   0  0  0  0  0  0  0  0  0  0  0  0
   12.0951   -0.1587    1.5068 C   0  0  0  0  0  0  0  0  0  0  0  0
   11.8678    0.7157    0.3293 C   0  0  0  0  0  0  0  0  0  0  0  0
   10.4730    0.7849   -0.2112 C   0  0  1  0  0  0  0  0  0  0  0  0
   10.5467    1.7723   -1.3862 C   0  0  0  0  0  0  0  0  0  0  0  0
    9.8364   -0.4048   -0.5691 N   0  0  0  0  0  0  0  0  0  0  0  0
    9.5325   -1.3943    0.4017 C   0  0  0  0  0  0  0  0  0  0  0  0
   10.1809   -2.6074    0.0206 O   0  0  0  0  0  0  0  0  0  0  0  0
    8.0994   -1.7377    0.1861 N   0  0  0  0  0  0  0  0  0  0  0  0
    7.9437   -1.4803   -1.1743 C   0  0  0  0  0  0  0  0  0  0  0  0
    8.7741   -0.3173   -1.4330 N   0  0  0  0  0  0  0  0  0  0  0  0
    5.6281    0.6804    1.3273 C   0  0  0  0  0  0  0  0  0  0  0  0
    4.9254    0.0394    0.1496 C   0  0  0  0  0  0  0  0  0  0  0  0
    4.8758   -1.4495    0.3012 C   0  0  0  0  0  0  0  0  0  0  0  0
    5.9423   -1.9435    1.2062 C   0  0  0  0  0  0  0  0  0  0  0  0
    3.6903    0.6915   -0.0735 N   0  0  0  0  0  0  0  0  0  0  0  0
    3.0103    0.2656   -1.2811 C   0  0  0  0  0  0  0  0  0  0  0  0
    1.7929    1.1552   -1.3991 C   0  0  0  0  0  0  0  0  0  0  0  0
    0.7931    0.7499   -0.4450 N   0  0  0  0  0  0  0  0  0  0  0  0
    1.4005    0.3395    0.7879 C   0  0  0  0  0  0  0  0  0  0  0  0
    2.7943    0.8118    1.0187 C   0  0  0  0  0  0  0  0  0  0  0  0
    0.0662   -0.3770   -1.0258 C   0  0  0  0  0  0  0  0  0  0  0  0
   -0.6448   -0.0259   -2.2898 C   0  0  0  0  0  0  0  0  0  0  0  0
   -1.5349    1.1687   -2.0316 C   0  0  0  0  0  0  0  0  0  0  0  0
   -2.6382    0.6482   -1.1088 C   0  0  0  0  0  0  0  0  0  0  0  0
   -2.0777    0.1636    0.1931 C   0  0  0  0  0  0  0  0  0  0  0  0
   -1.0010   -0.8741   -0.0475 C   0  0  0  0  0  0  0  0  0  0  0  0
   -3.5758    1.6207   -0.8855 O   0  0  0  0  0  0  0  0  0  0  0  0
   -4.8480    1.3047   -1.3623 C   0  0  0  0  0  0  0  0  0  0  0  0
   -5.4314    0.0713   -0.6983 C   0  0  1  0  0  0  0  0  0  0  0  0
   -5.6867    0.3456    0.7737 C   0  0  0  0  0  0  0  0  0  0  0  0
   -7.0258    0.6317    0.8186 O   0  0  0  0  0  0  0  0  0  0  0  0
   -7.6526    0.1855   -0.3100 C   0  0  2  0  0  0  0  0  0  0  0  0
   -6.6627   -0.2279   -1.2126 O   0  0  0  0  0  0  0  0  0  0  0  0
   -8.4979    1.2326   -1.0021 C   0  0  0  0  0  0  0  0  0  0  0  0
   -9.5435    1.7784   -0.1932 N   0  0  0  0  0  0  0  0  0  0  0  0
  -10.3458    2.7486   -0.8739 C   0  0  0  0  0  0  0  0  0  0  0  0
  -10.0789    4.0063   -0.2122 N   0  0  0  0  0  0  0  0  0  0  0  0
   -9.8693    3.5671    1.1744 C   0  0  0  0  0  0  0  0  0  0  0  0
   -9.0435    2.3919    0.9630 N   0  0  0  0  0  0  0  0  0  0  0  0
   -8.4431   -1.0647    0.0234 C   0  0  0  0  0  0  0  0  0  0  0  0
   -9.4686   -0.8759    1.0930 C   0  0  0  0  0  0  0  0  0  0  0  0
  -10.1691   -2.2039    1.2984 C   0  0  0  0  0  0  0  0  0  0  0  0
   -9.6939   -3.2803    0.3663 C   0  0  0  0  0  0  0  0  0  0  0  0
   -8.2058   -3.4873    0.4425 C   0  0  0  0  0  0  0  0  0  0  0  0
   -7.4941   -2.1437    0.5022 C   0  0  0  0  0  0  0  0  0  0  0  0
  -10.5366   -4.7888    0.8623 Cl  0  0  0  0  0  0  0  0  0  0  0  0
   -8.5654   -0.5312    2.6098 Cl  0  0  0  0  0  0  0  0  0  0  0  0
    7.5088    0.6415    2.2851 H   0  0  0  0  0  0  0  0  0  0  0  0
    7.5570    0.8587    0.5291 H   0  0  0  0  0  0  0  0  0  0  0  0
    7.7496   -1.5643    2.1633 H   0  0  0  0  0  0  0  0  0  0  0  0
   11.4597    0.1003    2.3815 H   0  0  0  0  0  0  0  0  0  0  0  0
   13.1603    0.0726    1.8540 H   0  0  0  0  0  0  0  0  0  0  0  0
   12.1020   -1.2071    1.2265 H   0  0  0  0  0  0  0  0  0  0  0  0
   12.5706    0.4553   -0.5229 H   0  0  0  0  0  0  0  0  0  0  0  0
   12.2273    1.7469    0.6263 H   0  0  0  0  0  0  0  0  0  0  0  0
    9.8735    1.3470    0.5644 H   0  0  0  0  0  0  0  0  0  0  0  0
    9.5438    2.2012   -1.5917 H   0  0  0  0  0  0  0  0  0  0  0  0
   11.1814    2.6095   -1.0287 H   0  0  0  0  0  0  0  0  0  0  0  0
   11.0347    1.3359   -2.2647 H   0  0  0  0  0  0  0  0  0  0  0  0
    9.7090   -1.1534    1.4452 H   0  0  0  0  0  0  0  0  0  0  0  0
    9.6548   -3.3626    0.3880 H   0  0  0  0  0  0  0  0  0  0  0  0
    8.4826   -2.3160   -1.7273 H   0  0  0  0  0  0  0  0  0  0  0  0
    6.9721   -1.4421   -1.6338 H   0  0  0  0  0  0  0  0  0  0  0  0
    9.0122   -0.1964   -2.4230 H   0  0  0  0  0  0  0  0  0  0  0  0
    5.2068    0.4043    2.2918 H   0  0  0  0  0  0  0  0  0  0  0  0
    5.6001    1.7762    1.1721 H   0  0  0  0  0  0  0  0  0  0  0  0
    5.5780    0.2666   -0.7362 H   0  0  0  0  0  0  0  0  0  0  0  0
    3.9025   -1.7705    0.7598 H   0  0  0  0  0  0  0  0  0  0  0  0
    4.9112   -2.0085   -0.6604 H   0  0  0  0  0  0  0  0  0  0  0  0
    6.1575   -3.0147    0.9014 H   0  0  0  0  0  0  0  0  0  0  0  0
    5.5876   -2.0517    2.2668 H   0  0  0  0  0  0  0  0  0  0  0  0
    2.6785   -0.7692   -1.1124 H   0  0  0  0  0  0  0  0  0  0  0  0
    3.6891    0.3722   -2.1455 H   0  0  0  0  0  0  0  0  0  0  0  0
    1.4260    1.2739   -2.4182 H   0  0  0  0  0  0  0  0  0  0  0  0
    2.1243    2.1851   -1.0739 H   0  0  0  0  0  0  0  0  0  0  0  0
    1.3901   -0.7618    0.9331 H   0  0  0  0  0  0  0  0  0  0  0  0
    0.7617    0.7554    1.6178 H   0  0  0  0  0  0  0  0  0  0  0  0
    3.1701    0.2839    1.9323 H   0  0  0  0  0  0  0  0  0  0  0  0
    2.7705    1.8959    1.3208 H   0  0  0  0  0  0  0  0  0  0  0  0
    0.7116   -1.2541   -1.2122 H   0  0  0  0  0  0  0  0  0  0  0  0
   -1.3543   -0.8819   -2.4947 H   0  0  0  0  0  0  0  0  0  0  0  0
   -0.0237    0.0646   -3.1748 H   0  0  0  0  0  0  0  0  0  0  0  0
   -2.0250    1.4292   -2.9909 H   0  0  0  0  0  0  0  0  0  0  0  0
   -1.0132    2.0245   -1.6049 H   0  0  0  0  0  0  0  0  0  0  0  0
   -3.0558   -0.2355   -1.6449 H   0  0  0  0  0  0  0  0  0  0  0  0
   -1.7272    0.9799    0.8376 H   0  0  0  0  0  0  0  0  0  0  0  0
   -2.8867   -0.3687    0.7339 H   0  0  0  0  0  0  0  0  0  0  0  0
   -0.5886   -1.2431    0.8860 H   0  0  0  0  0  0  0  0  0  0  0  0
   -1.5022   -1.7252   -0.5828 H   0  0  0  0  0  0  0  0  0  0  0  0
   -5.4878    2.1744   -1.0391 H   0  0  0  0  0  0  0  0  0  0  0  0
   -4.9189    1.2636   -2.4546 H   0  0  0  0  0  0  0  0  0  0  0  0
   -4.7742   -0.7944   -0.7662 H   0  0  0  0  0  0  0  0  0  0  0  0
   -5.3631   -0.4913    1.4105 H   0  0  0  0  0  0  0  0  0  0  0  0
   -5.0405    1.2303    1.0430 H   0  0  0  0  0  0  0  0  0  0  0  0
   -8.8778    0.8276   -1.9724 H   0  0  0  0  0  0  0  0  0  0  0  0
   -7.8313    2.0681   -1.2884 H   0  0  0  0  0  0  0  0  0  0  0  0
  -10.1270    2.8150   -1.9595 H   0  0  0  0  0  0  0  0  0  0  0  0
  -11.4304    2.4752   -0.8123 H   0  0  0  0  0  0  0  0  0  0  0  0
   -9.1232    4.3224   -0.5388 H   0  0  0  0  0  0  0  0  0  0  0  0
   -9.3072    4.3531    1.7144 H   0  0  0  0  0  0  0  0  0  0  0  0
  -10.8250    3.3283    1.6519 H   0  0  0  0  0  0  0  0  0  0  0  0
   -8.0786    2.7339    0.7498 H   0  0  0  0  0  0  0  0  0  0  0  0
   -8.9031   -1.4146   -0.9331 H   0  0  0  0  0  0  0  0  0  0  0  0
  -10.2468   -0.1421    0.8999 H   0  0  0  0  0  0  0  0  0  0  0  0
  -10.0495   -2.5765    2.3257 H   0  0  0  0  0  0  0  0  0  0  0  0
  -11.2753   -2.1229    1.1385 H   0  0  0  0  0  0  0  0  0  0  0  0
   -9.9772   -3.1244   -0.6914 H   0  0  0  0  0  0  0  0  0  0  0  0
   -7.8829   -4.1297    1.2760 H   0  0  0  0  0  0  0  0  0  0  0  0
   -7.8688   -3.9773   -0.4893 H   0  0  0  0  0  0  0  0  0  0  0  0
   -7.2611   -1.9282    1.5853 H   0  0  0  0  0  0  0  0  0  0  0  0
   -6.5400   -2.1704   -0.0300 H   0  0  0  0  0  0  0  0  0  0  0  0
  1  2  1  0
  3  4  1  0
  4  5  1  0
  5  6  1  0
  5  7  1  0
  7  8  1  0
  8  9  1  0
  2 10  1  0
  8 10  1  0
 10 11  1  0
  7 12  1  0
 11 12  1  0
  1 13  1  0
 13 14  1  0
 14 15  1  0
  2 16  1  0
 15 16  1  0
 14 17  1  0
 17 18  1  0
 18 19  1  0
 19 20  1  0
 20 21  1  0
 17 22  1  0
 21 22  1  0
 20 23  1  0
 23 24  1  0
 24 25  1  0
 25 26  1  0
 26 27  1  0
 23 28  1  0
 27 28  1  0
 26 29  1  0
 29 30  1  0
 30 31  1  0
 31 32  1  0
 32 33  1  0
 33 34  1  0
 31 35  1  0
 34 35  1  0
 34 36  1  6
 36 37  1  0
 37 38  1  0
 38 39  1  0
 40 39  1  0
 37 41  1  0
 40 41  1  0
 34 42  1  0
 42 43  1  0
 43 44  1  0
 44 45  1  0
 45 46  1  0
 42 47  1  0
 46 47  1  0
 45 48  1  0
 43 49  1  0
  1 50  1  0
  1 51  1  0
  2 52  1  0
  3 53  1  0
  3 54  1  0
  3 55  1  0
  4 56  1  0
  4 57  1  0
  5 58  1  1
  6 59  1  0
  6 60  1  0
  6 61  1  0
  8 62  1  0
  9 63  1  0
 11 64  1  0
 11 65  1  0
 12 66  1  0
 13 67  1  0
 13 68  1  0
 14 69  1  0
 15 70  1  0
 15 71  1  0
 16 72  1  0
 16 73  1  0
 18 74  1  0
 18 75  1  0
 19 76  1  0
 19 77  1  0
 21 78  1  0
 21 79  1  0
 22 80  1  0
 22 81  1  0
 23 82  1  0
 24 83  1  0
 24 84  1  0
 25 85  1  0
 25 86  1  0
 26 87  1  0
 27 88  1  0
 27 89  1  0
 28 90  1  0
 28 91  1  0
 30 92  1  0
 30 93  1  0
 31 94  1  1
 32 95  1  0
 32 96  1  0
 36 97  1  0
 36 98  1  0
 38 99  1  0
 38100  1  0
 39101  1  0
 40102  1  0
 40103  1  0
 41104  1  0
 42105  1  0
 43106  1  0
 44107  1  0
 44108  1  0
 45109  1  0
 46110  1  0
 46111  1  0
 47112  1  0
 47113  1  0
M  END
>  <PDBID>  (1) 
5JLC

>  <PDB ID>  (1) 
5JLC

>  <Generic Name>  (1) 
Itraconazole

>  <Brand Name>  (1) 
Itraconazole#Onmel#Sporanox#Sporanox Oral Solution 10mg/ml#Itrizole#Oriconazole#Sporal

>  <DrugBank ID>  (1) 
DB01167

>  <ATC Codes>  (1) 
J02AC02

>  <Ligand ID>  (1) 
1YN

>  <Target Name>  (1) 
Lanosterol 14-alpha demethylase

>  <UniProt ID>  (1) 
P50859

>  <PDB ID.1>  (1) 
5JLC

>  <Seq. Identity>  (1) 
97%

$$$$
