PDB_DB01199_02
     RDKit          3D

550580  0  0  0  0  0  0  0  0999 V2000
    4.9738    2.5611    0.4888 N   0  0  0  0  0  0  0  0  0  0  0  0
    5.5942    2.4842   -0.7874 C   0  0  0  0  0  0  0  0  0  0  0  0
    5.5830    1.0904   -1.3907 C   0  0  0  0  0  0  0  0  0  0  0  0
    5.4792    0.1116   -0.2686 C   0  0  0  0  0  0  0  0  0  0  0  0
    4.1214    0.2620    0.3833 C   0  0  0  0  0  0  0  0  0  0  0  0
    3.8292    1.6934    0.6608 C   0  0  2  0  0  0  0  0  0  0  0  0
    5.8223   -1.2860   -0.6355 C   0  0  0  0  0  0  0  0  0  0  0  0
    4.7222   -2.0881   -1.2446 C   0  0  0  0  0  0  0  0  0  0  0  0
    3.4772   -1.9317   -0.4140 C   0  0  1  0  0  0  0  0  0  0  0  0
    3.1118   -0.4395   -0.4876 C   0  0  0  0  0  0  0  0  0  0  0  0
    2.4313   -2.7345   -0.7950 O   0  0  0  0  0  0  0  0  0  0  0  0
    1.4574   -2.7110    0.1906 C   0  0  2  0  0  0  0  0  0  0  0  0
    1.3414   -4.0662    0.8741 C   0  0  0  0  0  0  0  0  0  0  0  0
    0.3857   -3.8540    2.0390 C   0  0  0  0  0  0  0  0  0  0  0  0
   -0.3748   -2.5703    1.9445 C   0  0  0  0  0  0  0  0  0  0  0  0
   -1.0169   -2.4574    0.5510 C   0  0  2  0  0  0  0  0  0  0  0  0
    0.1440   -2.4287   -0.4565 C   0  0  0  0  0  0  0  0  0  0  0  0
   -1.8255   -1.2056    0.5222 C   0  0  0  0  0  0  0  0  0  0  0  0
   -3.0144   -1.1732   -0.3997 C   0  0  1  0  0  0  0  0  0  0  0  0
   -4.1035   -2.0182   -0.0023 N   0  0  0  0  0  0  0  0  0  0  0  0
   -5.4076   -1.6271   -0.3875 C   0  0  0  0  0  0  0  0  0  0  0  0
   -5.6644   -0.1911   -0.6212 C   0  0  0  0  0  0  0  0  0  0  0  0
   -4.5806    0.3060   -1.5352 C   0  0  0  0  0  0  0  0  0  0  0  0
   -3.2947    0.2343   -0.7491 C   0  0  1  0  0  0  0  0  0  0  0  0
   -4.9257    1.6594   -2.0282 C   0  0  0  0  0  0  0  0  0  0  0  0
   -5.1447    2.5393   -0.8202 C   0  0  0  0  0  0  0  0  0  0  0  0
   -3.8275    2.5769   -0.0727 C   0  0  2  0  0  0  0  0  0  0  0  0
   -3.2850    1.2557    0.3415 C   0  0  2  0  0  0  0  0  0  0  0  0
   -2.1020    1.4353    0.9787 O   0  0  0  0  0  0  0  0  0  0  0  0
   -1.3551    2.5322    0.8275 C   0  0  0  0  0  0  0  0  0  0  0  0
   -0.4318    2.6332    2.0572 C   0  0  0  0  0  0  0  0  0  0  0  0
    0.9482    2.0701    1.7436 C   0  0  0  0  0  0  0  0  0  0  0  0
    1.6946    3.0154    0.8389 C   0  0  0  0  0  0  0  0  0  0  0  0
    0.6547    3.6232   -0.0914 C   0  0  0  0  0  0  0  0  0  0  0  0
   -0.4011    2.5386   -0.3646 C   0  0  0  0  0  0  0  0  0  0  0  0
    2.6796    2.2861   -0.0775 C   0  0  0  0  0  0  0  0  0  0  0  0
    5.1350   -3.4131   -1.3349 O   0  0  0  0  0  0  0  0  0  0  0  0
    5.1123   -3.9016   -2.6329 C   0  0  0  0  0  0  0  0  0  0  0  0
    2.5866   -4.5075    1.3062 O   0  0  0  0  0  0  0  0  0  0  0  0
   -5.3470    3.8269   -1.3083 O   0  0  0  0  0  0  0  0  0  0  0  0
   -6.5706    4.2798   -0.8279 C   0  0  0  0  0  0  0  0  0  0  0  0
   -4.1406    3.2721    1.1237 O   0  0  0  0  0  0  0  0  0  0  0  0
    5.8520    2.6119    1.6111 C   0  0  0  0  0  0  0  0  0  0  0  0
   -3.9242   -3.3765   -0.5601 C   0  0  0  0  0  0  0  0  0  0  0  0
   -4.1328   -2.2351    1.4522 C   0  0  0  0  0  0  0  0  0  0  0  0
    4.9936    2.5766    0.3998 N   0  0  0  0  0  0  0  0  0  0  0  0
    5.6100    2.4721   -0.8701 C   0  0  0  0  0  0  0  0  0  0  0  0
    6.0635    1.0826   -1.2484 C   0  0  0  0  0  0  0  0  0  0  0  0
    5.5524    0.1286   -0.2290 C   0  0  0  0  0  0  0  0  0  0  0  0
    4.0621    0.4383   -0.0372 C   0  0  2  0  0  0  0  0  0  0  0  0
    3.8242    1.7637    0.5865 C   0  0  2  0  0  0  0  0  0  0  0  0
    5.6908   -1.3098   -0.5415 C   0  0  0  0  0  0  0  0  0  0  0  0
    4.4806   -1.9844   -1.1232 C   0  0  0  0  0  0  0  0  0  0  0  0
    3.2271   -1.7979   -0.3385 C   0  0  0  0  0  0  0  0  0  0  0  0
    3.5008   -0.7383    0.7141 C   0  0  0  0  0  0  0  0  0  0  0  0
    2.7879   -2.9889    0.1627 O   0  0  0  0  0  0  0  0  0  0  0  0
    1.5637   -2.8840    0.8407 C   0  0  0  0  0  0  0  0  0  0  0  0
    1.1764   -4.3130    1.1610 C   0  0  0  0  0  0  0  0  0  0  0  0
   -0.2456   -4.4288    1.6372 C   0  0  0  0  0  0  0  0  0  0  0  0
   -0.7638   -3.0149    1.7969 C   0  0  0  0  0  0  0  0  0  0  0  0
   -0.8739   -2.4582    0.3678 C   0  0  0  0  0  0  0  0  0  0  0  0
    0.5871   -2.1831   -0.0279 C   0  0  0  0  0  0  0  0  0  0  0  0
   -1.7083   -1.2065    0.3587 C   0  0  0  0  0  0  0  0  0  0  0  0
   -2.9490   -1.2038   -0.4296 C   0  0  1  0  0  0  0  0  0  0  0  0
   -4.0536   -1.9448    0.0798 N   0  0  0  0  0  0  0  0  0  0  0  0
   -5.2737   -1.7333   -0.6815 C   0  0  0  0  0  0  0  0  0  0  0  0
   -5.6064   -0.3092   -0.9150 C   0  0  0  0  0  0  0  0  0  0  0  0
   -4.4641    0.2589   -1.7267 C   0  0  0  0  0  0  0  0  0  0  0  0
   -3.2440    0.2024   -0.8786 C   0  0  1  0  0  0  0  0  0  0  0  0
   -4.8486    1.6127   -2.1869 C   0  0  0  0  0  0  0  0  0  0  0  0
   -5.1259    2.4565   -0.9671 C   0  0  0  0  0  0  0  0  0  0  0  0
   -3.8402    2.5348   -0.1805 C   0  0  0  0  0  0  0  0  0  0  0  0
   -3.2646    1.2254    0.2304 C   0  0  2  0  0  0  0  0  0  0  0  0
   -2.0894    1.3841    0.8712 O   0  0  0  0  0  0  0  0  0  0  0  0
   -1.3539    2.5001    0.7658 C   0  0  0  0  0  0  0  0  0  0  0  0
   -0.4568    2.5534    2.0170 C   0  0  0  0  0  0  0  0  0  0  0  0
    0.9392    2.0684    1.6815 C   0  0  0  0  0  0  0  0  0  0  0  0
    1.6717    3.0538    0.7993 C   0  0  0  0  0  0  0  0  0  0  0  0
    0.5868    3.6807   -0.0880 C   0  0  0  0  0  0  0  0  0  0  0  0
   -0.3921    2.5472   -0.4090 C   0  0  0  0  0  0  0  0  0  0  0  0
    2.6687    2.4340   -0.1205 C   0  0  0  0  0  0  0  0  0  0  0  0
    4.7871   -3.3392   -1.2435 O   0  0  0  0  0  0  0  0  0  0  0  0
    4.8603   -3.7425   -2.5719 C   0  0  0  0  0  0  0  0  0  0  0  0
    1.9962   -4.7665    2.2149 O   0  0  0  0  0  0  0  0  0  0  0  0
   -5.3770    3.7504   -1.4399 O   0  0  0  0  0  0  0  0  0  0  0  0
   -6.6294    4.1714   -1.0012 C   0  0  0  0  0  0  0  0  0  0  0  0
   -4.1930    3.2083    1.0176 O   0  0  0  0  0  0  0  0  0  0  0  0
    5.8629    2.6586    1.5199 C   0  0  0  0  0  0  0  0  0  0  0  0
   -3.8299   -3.3922   -0.1411 C   0  0  0  0  0  0  0  0  0  0  0  0
   -4.3763   -1.7829    1.4524 C   0  0  0  0  0  0  0  0  0  0  0  0
    4.8816    2.6554    0.0140 N   0  0  0  0  0  0  0  0  0  0  0  0
    5.0206    2.2879   -1.3719 C   0  0  0  0  0  0  0  0  0  0  0  0
    4.9530    0.7920   -1.5931 C   0  0  0  0  0  0  0  0  0  0  0  0
    5.5195    0.1353   -0.3730 C   0  0  0  0  0  0  0  0  0  0  0  0
    4.5780    0.4027    0.8123 C   0  0  0  0  0  0  0  0  0  0  0  0
    3.9901    1.7712    0.7446 C   0  0  2  0  0  0  0  0  0  0  0  0
    5.7967   -1.3241   -0.5206 C   0  0  0  0  0  0  0  0  0  0  0  0
    4.5062   -2.0143   -0.9097 C   0  0  0  0  0  0  0  0  0  0  0  0
    3.3400   -1.6368   -0.0381 C   0  0  0  0  0  0  0  0  0  0  0  0
    3.6651   -0.7201    1.0909 C   0  0  0  0  0  0  0  0  0  0  0  0
    2.8313   -2.8262    0.4907 O   0  0  0  0  0  0  0  0  0  0  0  0
    1.5963   -2.7037    1.0832 C   0  0  0  0  0  0  0  0  0  0  0  0
    1.2094   -4.1178    1.5260 C   0  0  0  0  0  0  0  0  0  0  0  0
   -0.1939   -4.1994    2.0235 C   0  0  0  0  0  0  0  0  0  0  0  0
   -0.7780   -2.8210    2.0129 C   0  0  0  0  0  0  0  0  0  0  0  0
   -0.8557   -2.3863    0.5423 C   0  0  2  0  0  0  0  0  0  0  0  0
    0.6059   -2.1274    0.1387 C   0  0  0  0  0  0  0  0  0  0  0  0
   -1.6971   -1.1462    0.4423 C   0  0  0  0  0  0  0  0  0  0  0  0
   -2.9136   -1.2041   -0.3911 C   0  0  1  0  0  0  0  0  0  0  0  0
   -4.0237   -1.9249    0.1445 N   0  0  0  0  0  0  0  0  0  0  0  0
   -5.2437   -1.7576   -0.6101 C   0  0  0  0  0  0  0  0  0  0  0  0
   -5.5603   -0.3441   -0.9662 C   0  0  0  0  0  0  0  0  0  0  0  0
   -4.4073    0.1421   -1.7999 C   0  0  0  0  0  0  0  0  0  0  0  0
   -3.1960    0.1677   -0.9396 C   0  0  1  0  0  0  0  0  0  0  0  0
   -4.7231    1.4335   -2.4686 C   0  0  0  0  0  0  0  0  0  0  0  0
   -4.9850    2.4247   -1.3606 C   0  0  0  0  0  0  0  0  0  0  0  0
   -3.7149    2.5585   -0.5526 C   0  0  0  0  0  0  0  0  0  0  0  0
   -3.2126    1.2874    0.0502 C   0  0  2  0  0  0  0  0  0  0  0  0
   -2.0519    1.4825    0.7195 O   0  0  0  0  0  0  0  0  0  0  0  0
   -1.2994    2.5785    0.5443 C   0  0  0  0  0  0  0  0  0  0  0  0
   -0.5209    2.7912    1.8556 C   0  0  0  0  0  0  0  0  0  0  0  0
    0.8125    2.1020    1.8367 C   0  0  0  0  0  0  0  0  0  0  0  0
    1.7431    2.8676    0.8862 C   0  0  0  0  0  0  0  0  0  0  0  0
    0.8386    3.5141   -0.1407 C   0  0  0  0  0  0  0  0  0  0  0  0
   -0.2524    2.5141   -0.5469 C   0  0  0  0  0  0  0  0  0  0  0  0
    2.6333    1.8982    0.1328 C   0  0  0  0  0  0  0  0  0  0  0  0
    4.6852   -3.3937   -0.9790 O   0  0  0  0  0  0  0  0  0  0  0  0
    4.5815   -3.8931   -2.2604 C   0  0  0  0  0  0  0  0  0  0  0  0
    2.0574   -4.4271    2.6000 O   0  0  0  0  0  0  0  0  0  0  0  0
   -5.2880    3.6696   -1.8806 O   0  0  0  0  0  0  0  0  0  0  0  0
   -6.4977    4.0979   -1.3431 C   0  0  0  0  0  0  0  0  0  0  0  0
   -4.1189    3.3874    0.5295 O   0  0  0  0  0  0  0  0  0  0  0  0
    6.1065    2.9311    0.6824 C   0  0  0  0  0  0  0  0  0  0  0  0
   -3.7847   -3.3836    0.0056 C   0  0  0  0  0  0  0  0  0  0  0  0
   -4.3283   -1.7230    1.5223 C   0  0  0  0  0  0  0  0  0  0  0  0
    4.9960    2.6234    0.7075 N   0  0  0  0  0  0  0  0  0  0  0  0
    5.6756    2.5280   -0.5355 C   0  0  0  0  0  0  0  0  0  0  0  0
    5.6435    1.1430   -1.1514 C   0  0  0  0  0  0  0  0  0  0  0  0
    5.5358    0.1626   -0.0017 C   0  0  0  0  0  0  0  0  0  0  0  0
    4.1743    0.3145    0.6105 C   0  0  0  0  0  0  0  0  0  0  0  0
    3.8530    1.7509    0.8361 C   0  0  2  0  0  0  0  0  0  0  0  0
    5.9390   -1.2218   -0.3433 C   0  0  0  0  0  0  0  0  0  0  0  0
    4.8410   -2.0996   -0.8933 C   0  0  1  0  0  0  0  0  0  0  0  0
    3.5548   -1.9091   -0.1624 C   0  0  1  0  0  0  0  0  0  0  0  0
    3.1974   -0.4184   -0.2764 C   0  0  0  0  0  0  0  0  0  0  0  0
    2.5221   -2.5925   -0.7697 O   0  0  0  0  0  0  0  0  0  0  0  0
    1.4147   -2.7251    0.1033 C   0  0  2  0  0  0  0  0  0  0  0  0
    1.4268   -4.1760    0.5290 C   0  0  0  0  0  0  0  0  0  0  0  0
    0.0943   -4.6011    1.1043 C   0  0  0  0  0  0  0  0  0  0  0  0
   -0.6779   -3.3250    1.3807 C   0  0  0  0  0  0  0  0  0  0  0  0
   -1.0979   -2.6668    0.0773 C   0  0  0  0  0  0  0  0  0  0  0  0
    0.1991   -2.3425   -0.6605 C   0  0  0  0  0  0  0  0  0  0  0  0
   -1.8715   -1.4069    0.4539 C   0  0  0  0  0  0  0  0  0  0  0  0
   -3.1606   -1.2520   -0.2643 C   0  0  1  0  0  0  0  0  0  0  0  0
   -4.2797   -1.9114    0.3553 N   0  0  0  0  0  0  0  0  0  0  0  0
   -5.5567   -1.5533   -0.1515 C   0  0  0  0  0  0  0  0  0  0  0  0
   -5.7516   -0.1638   -0.6017 C   0  0  0  0  0  0  0  0  0  0  0  0
   -4.6306    0.2110   -1.5274 C   0  0  0  0  0  0  0  0  0  0  0  0
   -3.3541    0.1384   -0.7203 C   0  0  1  0  0  0  0  0  0  0  0  0
   -4.8603    1.5329   -2.1754 C   0  0  0  0  0  0  0  0  0  0  0  0
   -5.0266    2.5346   -1.0584 C   0  0  0  0  0  0  0  0  0  0  0  0
   -3.7390    2.5629   -0.2797 C   0  0  0  0  0  0  0  0  0  0  0  0
   -3.3100    1.2357    0.2762 C   0  0  2  0  0  0  0  0  0  0  0  0
   -2.1620    1.3578    0.9931 O   0  0  0  0  0  0  0  0  0  0  0  0
   -1.3112    2.3762    0.7870 C   0  0  0  0  0  0  0  0  0  0  0  0
   -0.4565    2.5640    2.0380 C   0  0  0  0  0  0  0  0  0  0  0  0
    0.9939    2.2198    1.8174 C   0  0  0  0  0  0  0  0  0  0  0  0
    1.6794    3.0392    0.7803 C   0  0  0  0  0  0  0  0  0  0  0  0
    0.6099    3.4055   -0.2622 C   0  0  0  0  0  0  0  0  0  0  0  0
   -0.3204    2.1821   -0.3593 C   0  0  0  0  0  0  0  0  0  0  0  0
    2.7463    2.2954   -0.0011 C   0  0  0  0  0  0  0  0  0  0  0  0
    4.6974   -1.9598   -2.2672 O   0  0  0  0  0  0  0  0  0  0  0  0
    5.0065   -3.1624   -2.9412 C   0  0  0  0  0  0  0  0  0  0  0  0
    2.3622   -4.2746    1.5726 O   0  0  0  0  0  0  0  0  0  0  0  0
   -5.1357    3.7983   -1.6681 O   0  0  0  0  0  0  0  0  0  0  0  0
   -6.3186    4.4176   -1.2835 C   0  0  0  0  0  0  0  0  0  0  0  0
   -4.0416    3.3716    0.8475 O   0  0  0  0  0  0  0  0  0  0  0  0
    5.8120    2.7104    1.8651 C   0  0  0  0  0  0  0  0  0  0  0  0
   -4.2067   -3.3674    0.0508 C   0  0  0  0  0  0  0  0  0  0  0  0
   -4.2759   -1.8814    1.7908 C   0  0  0  0  0  0  0  0  0  0  0  0
    5.1107    2.8063    0.6385 N   0  0  0  0  0  0  0  0  0  0  0  0
    5.8683    2.5587   -0.5438 C   0  0  0  0  0  0  0  0  0  0  0  0
    5.7221    1.1546   -1.0684 C   0  0  0  0  0  0  0  0  0  0  0  0
    5.5566    0.2620    0.1691 C   0  0  0  0  0  0  0  0  0  0  0  0
    4.2962    0.5595    0.9198 C   0  0  0  0  0  0  0  0  0  0  0  0
    3.8960    2.0205    0.7174 C   0  0  2  0  0  0  0  0  0  0  0  0
    5.7584   -1.1488   -0.2536 C   0  0  0  0  0  0  0  0  0  0  0  0
    4.5073   -1.6426   -0.9349 C   0  0  0  0  0  0  0  0  0  0  0  0
    3.4387   -1.6817    0.1013 C   0  0  1  0  0  0  0  0  0  0  0  0
    3.2004   -0.4097    0.8291 C   0  0  0  0  0  0  0  0  0  0  0  0
    2.2667   -2.1192   -0.5568 O   0  0  0  0  0  0  0  0  0  0  0  0
    1.3364   -2.6073    0.3576 C   0  0  0  0  0  0  0  0  0  0  0  0
    1.2373   -4.0810    0.1520 C   0  0  0  0  0  0  0  0  0  0  0  0
   -0.0105   -4.7002    0.7149 C   0  0  0  0  0  0  0  0  0  0  0  0
   -0.6626   -3.6692    1.6115 C   0  0  0  0  0  0  0  0  0  0  0  0
   -1.1577   -2.5780    0.6459 C   0  0  0  0  0  0  0  0  0  0  0  0
    0.0609   -1.8522    0.1266 C   0  0  0  0  0  0  0  0  0  0  0  0
   -2.1212   -1.7240    1.3904 C   0  0  0  0  0  0  0  0  0  0  0  0
   -3.2150   -1.1101    0.4896 C   0  0  1  0  0  0  0  0  0  0  0  0
   -4.2520   -2.0270    0.2048 N   0  0  0  0  0  0  0  0  0  0  0  0
   -5.6000   -1.5072    0.1938 C   0  0  0  0  0  0  0  0  0  0  0  0
   -5.8305   -0.6790    1.3910 C   0  0  0  0  0  0  0  0  0  0  0  0
   -4.9878    0.5928    1.1901 C   0  0  0  0  0  0  0  0  0  0  0  0
   -3.5782    0.2769    0.9142 C   0  0  0  0  0  0  0  0  0  0  0  0
   -5.7436    1.4299    0.2316 C   0  0  0  0  0  0  0  0  0  0  0  0
   -4.9356    2.2056   -0.7859 C   0  0  0  0  0  0  0  0  0  0  0  0
   -3.7136    1.4589   -1.2090 C   0  0  0  0  0  0  0  0  0  0  0  0
   -2.8891    1.3555    0.0538 C   0  0  2  0  0  0  0  0  0  0  0  0
   -1.5678    1.0887   -0.1329 O   0  0  0  0  0  0  0  0  0  0  0  0
   -0.8898    2.3085   -0.3088 C   0  0  0  0  0  0  0  0  0  0  0  0
   -0.3643    2.8926    0.9566 C   0  0  0  0  0  0  0  0  0  0  0  0
    1.1350    2.8603    1.1008 C   0  0  0  0  0  0  0  0  0  0  0  0
    1.8916    3.2369   -0.1148 C   0  0  0  0  0  0  0  0  0  0  0  0
    1.0480    3.3099   -1.3715 C   0  0  0  0  0  0  0  0  0  0  0  0
    0.1610    2.0747   -1.3652 C   0  0  0  0  0  0  0  0  0  0  0  0
    3.0570    2.3147   -0.4556 C   0  0  0  0  0  0  0  0  0  0  0  0
    4.6830   -2.9234   -1.4505 O   0  0  0  0  0  0  0  0  0  0  0  0
    4.4008   -2.9852   -2.8109 C   0  0  0  0  0  0  0  0  0  0  0  0
    2.3282   -4.6974    0.7640 O   0  0  0  0  0  0  0  0  0  0  0  0
   -5.7746    2.6020   -1.8010 O   0  0  0  0  0  0  0  0  0  0  0  0
   -5.9638    3.9744   -1.7918 C   0  0  0  0  0  0  0  0  0  0  0  0
   -3.0847    2.0889   -2.2436 O   0  0  0  0  0  0  0  0  0  0  0  0
    5.8442    2.9055    1.8530 C   0  0  0  0  0  0  0  0  0  0  0  0
   -4.0780   -2.6607   -1.1185 C   0  0  0  0  0  0  0  0  0  0  0  0
   -4.3129   -3.1768    1.1250 C   0  0  0  0  0  0  0  0  0  0  0  0
    6.6676    2.7628   -0.6735 H   0  0  0  0  0  0  0  0  0  0  0  0
    5.1846    3.2346   -1.5191 H   0  0  0  0  0  0  0  0  0  0  0  0
    4.7584    1.0609   -2.1100 H   0  0  0  0  0  0  0  0  0  0  0  0
    6.5416    0.8969   -1.9327 H   0  0  0  0  0  0  0  0  0  0  0  0
    6.2248    0.4383    0.5149 H   0  0  0  0  0  0  0  0  0  0  0  0
    4.1824   -0.3560    1.3284 H   0  0  0  0  0  0  0  0  0  0  0  0
    3.5708    1.7670    1.7605 H   0  0  0  0  0  0  0  0  0  0  0  0
    6.1778   -1.8337    0.2680 H   0  0  0  0  0  0  0  0  0  0  0  0
    6.6576   -1.2470   -1.3821 H   0  0  0  0  0  0  0  0  0  0  0  0
    4.4701   -1.7467   -2.2770 H   0  0  0  0  0  0  0  0  0  0  0  0
    3.6690   -2.1175    0.6691 H   0  0  0  0  0  0  0  0  0  0  0  0
    3.2315   -0.1814   -1.5736 H   0  0  0  0  0  0  0  0  0  0  0  0
    2.0841   -0.3512   -0.1415 H   0  0  0  0  0  0  0  0  0  0  0  0
    1.7355   -2.0011    0.9945 H   0  0  0  0  0  0  0  0  0  0  0  0
    0.9597   -4.7705    0.1287 H   0  0  0  0  0  0  0  0  0  0  0  0
    0.9480   -3.9147    2.9692 H   0  0  0  0  0  0  0  0  0  0  0  0
   -0.3320   -4.6918    2.0207 H   0  0  0  0  0  0  0  0  0  0  0  0
    0.1599   -1.6725    2.2353 H   0  0  0  0  0  0  0  0  0  0  0  0
   -1.2344   -2.6620    2.6725 H   0  0  0  0  0  0  0  0  0  0  0  0
   -1.5176   -3.3969    0.3897 H   0  0  0  0  0  0  0  0  0  0  0  0
   -0.0042   -3.1675   -1.2633 H   0  0  0  0  0  0  0  0  0  0  0  0
    0.0964   -1.4291   -0.9345 H   0  0  0  0  0  0  0  0  0  0  0  0
   -2.1083   -0.9282    1.5556 H   0  0  0  0  0  0  0  0  0  0  0  0
   -1.1119   -0.4440    0.0735 H   0  0  0  0  0  0  0  0  0  0  0  0
   -2.6208   -1.6524   -1.3565 H   0  0  0  0  0  0  0  0  0  0  0  0
   -5.7430   -2.1630   -1.3291 H   0  0  0  0  0  0  0  0  0  0  0  0
   -6.1680   -1.9798    0.3724 H   0  0  0  0  0  0  0  0  0  0  0  0
   -6.6262   -0.0938   -1.1802 H   0  0  0  0  0  0  0  0  0  0  0  0
   -5.7769    0.3162    0.3240 H   0  0  0  0  0  0  0  0  0  0  0  0
   -4.4898   -0.4291   -2.3655 H   0  0  0  0  0  0  0  0  0  0  0  0
   -2.4966    0.5778   -1.4781 H   0  0  0  0  0  0  0  0  0  0  0  0
   -4.0807    2.1242   -2.6013 H   0  0  0  0  0  0  0  0  0  0  0  0
   -5.7967    1.6018   -2.6780 H   0  0  0  0  0  0  0  0  0  0  0  0
   -5.9889    2.2565   -0.2097 H   0  0  0  0  0  0  0  0  0  0  0  0
   -3.1553    3.1758   -0.7222 H   0  0  0  0  0  0  0  0  0  0  0  0
   -4.0002    0.8768    1.1362 H   0  0  0  0  0  0  0  0  0  0  0  0
   -1.8572    3.5181    0.7951 H   0  0  0  0  0  0  0  0  0  0  0  0
   -0.2826    3.6616    2.3905 H   0  0  0  0  0  0  0  0  0  0  0  0
   -0.8587    2.0645    2.9115 H   0  0  0  0  0  0  0  0  0  0  0  0
    1.4895    2.0596    2.7133 H   0  0  0  0  0  0  0  0  0  0  0  0
    0.8895    1.0429    1.3902 H   0  0  0  0  0  0  0  0  0  0  0  0
    2.2047    3.8000    1.4087 H   0  0  0  0  0  0  0  0  0  0  0  0
    1.1043    3.8668   -1.0703 H   0  0  0  0  0  0  0  0  0  0  0  0
    0.1426    4.4846    0.3356 H   0  0  0  0  0  0  0  0  0  0  0  0
    0.0602    1.5584   -0.4749 H   0  0  0  0  0  0  0  0  0  0  0  0
   -0.8690    2.8118   -1.3072 H   0  0  0  0  0  0  0  0  0  0  0  0
    3.0324    3.0898   -0.7903 H   0  0  0  0  0  0  0  0  0  0  0  0
    2.0890    1.6049   -0.6851 H   0  0  0  0  0  0  0  0  0  0  0  0
    4.1022   -3.8687   -3.0873 H   0  0  0  0  0  0  0  0  0  0  0  0
    5.3771   -4.9824   -2.5663 H   0  0  0  0  0  0  0  0  0  0  0  0
    5.8704   -3.4345   -3.2911 H   0  0  0  0  0  0  0  0  0  0  0  0
    2.6138   -5.4719    1.4249 H   0  0  0  0  0  0  0  0  0  0  0  0
   -6.6207    4.3139    0.2703 H   0  0  0  0  0  0  0  0  0  0  0  0
   -6.7679    5.3219   -1.1921 H   0  0  0  0  0  0  0  0  0  0  0  0
   -7.3624    3.5710   -1.1881 H   0  0  0  0  0  0  0  0  0  0  0  0
   -4.5496    2.5990    1.7164 H   0  0  0  0  0  0  0  0  0  0  0  0
    5.7106    3.6226    2.0953 H   0  0  0  0  0  0  0  0  0  0  0  0
    5.6163    1.8695    2.3946 H   0  0  0  0  0  0  0  0  0  0  0  0
    6.9292    2.5865    1.3219 H   0  0  0  0  0  0  0  0  0  0  0  0
   -3.1331   -3.3537   -1.3665 H   0  0  0  0  0  0  0  0  0  0  0  0
   -3.7746   -4.1435    0.1931 H   0  0  0  0  0  0  0  0  0  0  0  0
   -4.8366   -3.7116   -1.1352 H   0  0  0  0  0  0  0  0  0  0  0  0
   -3.4279   -3.0088    1.7761 H   0  0  0  0  0  0  0  0  0  0  0  0
   -5.1520   -2.6830    1.6495 H   0  0  0  0  0  0  0  0  0  0  0  0
   -4.0744   -1.3318    2.0411 H   0  0  0  0  0  0  0  0  0  0  0  0
    4.9727    2.8701   -1.6937 H   0  0  0  0  0  0  0  0  0  0  0  0
    6.5199    3.1108   -0.8665 H   0  0  0  0  0  0  0  0  0  0  0  0
    5.6628    0.7942   -2.2496 H   0  0  0  0  0  0  0  0  0  0  0  0
    7.1718    1.0042   -1.3434 H   0  0  0  0  0  0  0  0  0  0  0  0
    6.0778    0.3349    0.7267 H   0  0  0  0  0  0  0  0  0  0  0  0
    3.6562    0.4567   -1.0924 H   0  0  0  0  0  0  0  0  0  0  0  0
    3.6453    1.6600    1.6735 H   0  0  0  0  0  0  0  0  0  0  0  0
    6.5208   -1.4443   -1.2619 H   0  0  0  0  0  0  0  0  0  0  0  0
    5.9779   -1.8891    0.3673 H   0  0  0  0  0  0  0  0  0  0  0  0
    4.3766   -1.5923   -2.1750 H   0  0  0  0  0  0  0  0  0  0  0  0
    2.4590   -1.3321   -1.0239 H   0  0  0  0  0  0  0  0  0  0  0  0
    2.6632   -0.5191    1.3650 H   0  0  0  0  0  0  0  0  0  0  0  0
    4.3043   -1.1798    1.3734 H   0  0  0  0  0  0  0  0  0  0  0  0
    1.8204   -2.3215    1.7864 H   0  0  0  0  0  0  0  0  0  0  0  0
    1.3667   -4.9607    0.2835 H   0  0  0  0  0  0  0  0  0  0  0  0
   -0.3496   -5.0213    2.5626 H   0  0  0  0  0  0  0  0  0  0  0  0
   -0.8214   -4.9191    0.8243 H   0  0  0  0  0  0  0  0  0  0  0  0
   -1.7284   -3.0673    2.3017 H   0  0  0  0  0  0  0  0  0  0  0  0
   -0.1076   -2.3867    2.4246 H   0  0  0  0  0  0  0  0  0  0  0  0
   -1.2044   -3.2405   -0.3123 H   0  0  0  0  0  0  0  0  0  0  0  0
    0.7208   -1.1017    0.0585 H   0  0  0  0  0  0  0  0  0  0  0  0
    0.7646   -2.4643   -1.0855 H   0  0  0  0  0  0  0  0  0  0  0  0
   -1.7859   -0.8634    1.4073 H   0  0  0  0  0  0  0  0  0  0  0  0
   -1.0378   -0.4272   -0.1260 H   0  0  0  0  0  0  0  0  0  0  0  0
   -2.6861   -1.7420   -1.4004 H   0  0  0  0  0  0  0  0  0  0  0  0
   -5.2349   -2.2543   -1.6680 H   0  0  0  0  0  0  0  0  0  0  0  0
   -6.1062   -2.2112   -0.1185 H   0  0  0  0  0  0  0  0  0  0  0  0
   -6.5477   -0.2383   -1.4557 H   0  0  0  0  0  0  0  0  0  0  0  0
   -5.7290    0.1749    0.0700 H   0  0  0  0  0  0  0  0  0  0  0  0
   -4.3177   -0.4178   -2.5941 H   0  0  0  0  0  0  0  0  0  0  0  0
   -2.3766    0.4987   -1.5424 H   0  0  0  0  0  0  0  0  0  0  0  0
   -4.0649    2.1196   -2.7672 H   0  0  0  0  0  0  0  0  0  0  0  0
   -5.7539    1.5318   -2.8175 H   0  0  0  0  0  0  0  0  0  0  0  0
   -5.9808    2.1354   -0.3853 H   0  0  0  0  0  0  0  0  0  0  0  0
   -3.1631    3.1689   -0.7902 H   0  0  0  0  0  0  0  0  0  0  0  0
   -3.9977    0.8069    0.9887 H   0  0  0  0  0  0  0  0  0  0  0  0
   -1.8879    3.4673    0.7656 H   0  0  0  0  0  0  0  0  0  0  0  0
   -0.3678    3.5587    2.4237 H   0  0  0  0  0  0  0  0  0  0  0  0
   -0.8430    1.8884    2.8146 H   0  0  0  0  0  0  0  0  0  0  0  0
    1.4896    1.9821    2.6233 H   0  0  0  0  0  0  0  0  0  0  0  0
    0.8736    1.0579    1.2307 H   0  0  0  0  0  0  0  0  0  0  0  0
    2.1203    3.8218    1.4626 H   0  0  0  0  0  0  0  0  0  0  0  0
    1.0356    4.0890   -1.0169 H   0  0  0  0  0  0  0  0  0  0  0  0
    0.0983    4.4538    0.5361 H   0  0  0  0  0  0  0  0  0  0  0  0
    0.1251    1.6044   -0.5853 H   0  0  0  0  0  0  0  0  0  0  0  0
   -0.8684    2.8380   -1.3598 H   0  0  0  0  0  0  0  0  0  0  0  0
    3.0366    3.2314   -0.7992 H   0  0  0  0  0  0  0  0  0  0  0  0
    2.1411    1.7098   -0.7747 H   0  0  0  0  0  0  0  0  0  0  0  0
    5.1056   -4.8230   -2.6071 H   0  0  0  0  0  0  0  0  0  0  0  0
    5.7439   -3.2153   -3.0206 H   0  0  0  0  0  0  0  0  0  0  0  0
    3.9790   -3.4735   -3.1610 H   0  0  0  0  0  0  0  0  0  0  0  0
    2.9059   -4.9567    1.9220 H   0  0  0  0  0  0  0  0  0  0  0  0
   -6.8653    5.1761   -1.3476 H   0  0  0  0  0  0  0  0  0  0  0  0
   -6.6061    4.0908    0.1224 H   0  0  0  0  0  0  0  0  0  0  0  0
   -7.3655    3.4057   -1.3274 H   0  0  0  0  0  0  0  0  0  0  0  0
   -4.1921    4.1665    0.8457 H   0  0  0  0  0  0  0  0  0  0  0  0
    5.8018    3.7157    1.9137 H   0  0  0  0  0  0  0  0  0  0  0  0
    5.5094    2.0220    2.3438 H   0  0  0  0  0  0  0  0  0  0  0  0
    6.9359    2.5160    1.2711 H   0  0  0  0  0  0  0  0  0  0  0  0
   -3.4167   -3.5723   -1.1568 H   0  0  0  0  0  0  0  0  0  0  0  0
   -3.2910   -3.8638    0.6761 H   0  0  0  0  0  0  0  0  0  0  0  0
   -4.8241   -3.9380   -0.1614 H   0  0  0  0  0  0  0  0  0  0  0  0
   -4.6106   -2.7695    1.9572 H   0  0  0  0  0  0  0  0  0  0  0  0
   -5.3379   -1.2013    1.5984 H   0  0  0  0  0  0  0  0  0  0  0  0
   -3.6458   -1.2963    2.0886 H   0  0  0  0  0  0  0  0  0  0  0  0
    6.0596    2.5987   -1.6835 H   0  0  0  0  0  0  0  0  0  0  0  0
    4.3264    2.8434   -2.0186 H   0  0  0  0  0  0  0  0  0  0  0  0
    3.9364    0.4445   -1.8499 H   0  0  0  0  0  0  0  0  0  0  0  0
    5.5967    0.5270   -2.4587 H   0  0  0  0  0  0  0  0  0  0  0  0
    6.5215    0.6312   -0.1972 H   0  0  0  0  0  0  0  0  0  0  0  0
    5.3066    0.4548    1.6867 H   0  0  0  0  0  0  0  0  0  0  0  0
    3.9130    2.2233    1.7784 H   0  0  0  0  0  0  0  0  0  0  0  0
    6.2005   -1.6915    0.4379 H   0  0  0  0  0  0  0  0  0  0  0  0
    6.5074   -1.4592   -1.3441 H   0  0  0  0  0  0  0  0  0  0  0  0
    4.3212   -1.6954   -1.9749 H   0  0  0  0  0  0  0  0  0  0  0  0
    2.5294   -1.2641   -0.7034 H   0  0  0  0  0  0  0  0  0  0  0  0
    2.7151   -0.3227    1.5047 H   0  0  0  0  0  0  0  0  0  0  0  0
    4.0544   -1.3862    1.9214 H   0  0  0  0  0  0  0  0  0  0  0  0
    1.7444   -2.1229    2.0174 H   0  0  0  0  0  0  0  0  0  0  0  0
    1.4327   -4.8288    0.6977 H   0  0  0  0  0  0  0  0  0  0  0  0
   -0.2947   -4.6569    3.0309 H   0  0  0  0  0  0  0  0  0  0  0  0
   -0.8364   -4.8242    1.3461 H   0  0  0  0  0  0  0  0  0  0  0  0
   -0.2011   -2.0878    2.6083 H   0  0  0  0  0  0  0  0  0  0  0  0
   -1.7754   -2.8714    2.4875 H   0  0  0  0  0  0  0  0  0  0  0  0
   -1.1631   -3.2217   -0.0810 H   0  0  0  0  0  0  0  0  0  0  0  0
    0.8140   -2.4920   -0.8811 H   0  0  0  0  0  0  0  0  0  0  0  0
    0.6861   -1.0232    0.1044 H   0  0  0  0  0  0  0  0  0  0  0  0
   -1.8068   -0.7178    1.4482 H   0  0  0  0  0  0  0  0  0  0  0  0
   -1.0158   -0.4102   -0.0906 H   0  0  0  0  0  0  0  0  0  0  0  0
   -2.6157   -1.8058   -1.3131 H   0  0  0  0  0  0  0  0  0  0  0  0
   -5.2489   -2.3514   -1.5544 H   0  0  0  0  0  0  0  0  0  0  0  0
   -6.0861   -2.1529   -0.0026 H   0  0  0  0  0  0  0  0  0  0  0  0
   -6.4661   -0.3314   -1.5797 H   0  0  0  0  0  0  0  0  0  0  0  0
   -5.7371    0.2022   -0.0441 H   0  0  0  0  0  0  0  0  0  0  0  0
   -4.2460   -0.6238   -2.5994 H   0  0  0  0  0  0  0  0  0  0  0  0
   -2.3269    0.3995   -1.6306 H   0  0  0  0  0  0  0  0  0  0  0  0
   -3.8247    1.7819   -3.0208 H   0  0  0  0  0  0  0  0  0  0  0  0
   -5.6064    1.3080   -3.1043 H   0  0  0  0  0  0  0  0  0  0  0  0
   -5.7722    2.1224   -0.6771 H   0  0  0  0  0  0  0  0  0  0  0  0
   -2.9983    3.0837   -1.2025 H   0  0  0  0  0  0  0  0  0  0  0  0
   -3.9868    1.0319    0.8415 H   0  0  0  0  0  0  0  0  0  0  0  0
   -1.8161    3.5422    0.3899 H   0  0  0  0  0  0  0  0  0  0  0  0
   -0.3463    3.8636    2.0664 H   0  0  0  0  0  0  0  0  0  0  0  0
   -1.1605    2.4346    2.7074 H   0  0  0  0  0  0  0  0  0  0  0  0
    1.2019    2.1270    2.8730 H   0  0  0  0  0  0  0  0  0  0  0  0
    0.7431    1.0360    1.5421 H   0  0  0  0  0  0  0  0  0  0  0  0
    2.3302    3.6084    1.4533 H   0  0  0  0  0  0  0  0  0  0  0  0
    1.4010    3.7578   -1.0676 H   0  0  0  0  0  0  0  0  0  0  0  0
    0.3379    4.4087    0.2420 H   0  0  0  0  0  0  0  0  0  0  0  0
    0.1610    1.5261   -0.7338 H   0  0  0  0  0  0  0  0  0  0  0  0
   -0.6374    2.9222   -1.5213 H   0  0  0  0  0  0  0  0  0  0  0  0
    2.7149    2.2840   -0.9033 H   0  0  0  0  0  0  0  0  0  0  0  0
    2.0616    0.9590    0.0666 H   0  0  0  0  0  0  0  0  0  0  0  0
    4.7166   -4.9659   -2.3424 H   0  0  0  0  0  0  0  0  0  0  0  0
    5.3903   -3.4116   -2.8712 H   0  0  0  0  0  0  0  0  0  0  0  0
    3.6213   -3.5653   -2.7445 H   0  0  0  0  0  0  0  0  0  0  0  0
    2.4581   -5.3251    2.5124 H   0  0  0  0  0  0  0  0  0  0  0  0
   -7.2743    3.3376   -1.6364 H   0  0  0  0  0  0  0  0  0  0  0  0
   -6.4664    4.0313   -0.2162 H   0  0  0  0  0  0  0  0  0  0  0  0
   -6.7987    5.0958   -1.6895 H   0  0  0  0  0  0  0  0  0  0  0  0
   -4.1181    4.3406    0.2634 H   0  0  0  0  0  0  0  0  0  0  0  0
    6.0315    3.9823    1.0901 H   0  0  0  0  0  0  0  0  0  0  0  0
    6.3430    2.2818    1.5347 H   0  0  0  0  0  0  0  0  0  0  0  0
    6.9447    2.9908   -0.0661 H   0  0  0  0  0  0  0  0  0  0  0  0
   -3.3418   -3.6162   -0.9787 H   0  0  0  0  0  0  0  0  0  0  0  0
   -3.2724   -3.7995    0.8737 H   0  0  0  0  0  0  0  0  0  0  0  0
   -4.7759   -3.9358   -0.0082 H   0  0  0  0  0  0  0  0  0  0  0  0
   -4.3062   -2.6686    2.1431 H   0  0  0  0  0  0  0  0  0  0  0  0
   -5.3909   -1.3616    1.6707 H   0  0  0  0  0  0  0  0  0  0  0  0
   -3.7137   -1.0095    2.0654 H   0  0  0  0  0  0  0  0  0  0  0  0
    6.7478    2.7851   -0.3813 H   0  0  0  0  0  0  0  0  0  0  0  0
    5.3043    3.2431   -1.3138 H   0  0  0  0  0  0  0  0  0  0  0  0
    4.8691    1.0222   -1.9090 H   0  0  0  0  0  0  0  0  0  0  0  0
    6.6280    0.9216   -1.6501 H   0  0  0  0  0  0  0  0  0  0  0  0
    6.2673    0.5394    0.7738 H   0  0  0  0  0  0  0  0  0  0  0  0
    4.2009   -0.2721    1.5768 H   0  0  0  0  0  0  0  0  0  0  0  0
    3.5195    1.8481    1.9129 H   0  0  0  0  0  0  0  0  0  0  0  0
    6.7593   -1.1926   -1.0847 H   0  0  0  0  0  0  0  0  0  0  0  0
    6.3411   -1.7142    0.5690 H   0  0  0  0  0  0  0  0  0  0  0  0
    5.1700   -3.1557   -0.7085 H   0  0  0  0  0  0  0  0  0  0  0  0
    3.6961   -2.1742    0.9000 H   0  0  0  0  0  0  0  0  0  0  0  0
    3.2935   -0.1710   -1.3385 H   0  0  0  0  0  0  0  0  0  0  0  0
    2.1902   -0.3357    0.1345 H   0  0  0  0  0  0  0  0  0  0  0  0
    1.6271   -2.0929    0.9927 H   0  0  0  0  0  0  0  0  0  0  0  0
    1.7420   -4.8566   -0.2751 H   0  0  0  0  0  0  0  0  0  0  0  0
    0.2195   -5.1550    2.0525 H   0  0  0  0  0  0  0  0  0  0  0  0
   -0.4774   -5.2018    0.3822 H   0  0  0  0  0  0  0  0  0  0  0  0
   -1.5387   -3.6192    2.0121 H   0  0  0  0  0  0  0  0  0  0  0  0
   -0.0831   -2.5959    1.9655 H   0  0  0  0  0  0  0  0  0  0  0  0
   -1.6540   -3.3361   -0.5756 H   0  0  0  0  0  0  0  0  0  0  0  0
    0.1962   -1.2596   -0.8228 H   0  0  0  0  0  0  0  0  0  0  0  0
    0.2493   -2.8199   -1.6569 H   0  0  0  0  0  0  0  0  0  0  0  0
   -1.9590   -1.2910    1.5647 H   0  0  0  0  0  0  0  0  0  0  0  0
   -1.2098   -0.5710    0.1377 H   0  0  0  0  0  0  0  0  0  0  0  0
   -3.0135   -1.8434   -1.2307 H   0  0  0  0  0  0  0  0  0  0  0  0
   -5.9268   -2.2249   -0.9856 H   0  0  0  0  0  0  0  0  0  0  0  0
   -6.3082   -1.7510    0.6709 H   0  0  0  0  0  0  0  0  0  0  0  0
   -6.6938   -0.1252   -1.2195 H   0  0  0  0  0  0  0  0  0  0  0  0
   -5.9165    0.4839    0.2465 H   0  0  0  0  0  0  0  0  0  0  0  0
   -4.5644   -0.5903   -2.2990 H   0  0  0  0  0  0  0  0  0  0  0  0
   -2.5293    0.3482   -1.4685 H   0  0  0  0  0  0  0  0  0  0  0  0
   -3.9750    1.8431   -2.7582 H   0  0  0  0  0  0  0  0  0  0  0  0
   -5.7543    1.4732   -2.7958 H   0  0  0  0  0  0  0  0  0  0  0  0
   -5.9121    2.3916   -0.4466 H   0  0  0  0  0  0  0  0  0  0  0  0
   -2.9978    3.0407   -0.9449 H   0  0  0  0  0  0  0  0  0  0  0  0
   -4.1188    1.0036    1.0385 H   0  0  0  0  0  0  0  0  0  0  0  0
   -1.7404    3.3820    0.6021 H   0  0  0  0  0  0  0  0  0  0  0  0
   -0.5001    3.5671    2.4604 H   0  0  0  0  0  0  0  0  0  0  0  0
   -0.8061    1.8718    2.8585 H   0  0  0  0  0  0  0  0  0  0  0  0
    1.4973    2.4368    2.7897 H   0  0  0  0  0  0  0  0  0  0  0  0
    1.1180    1.1266    1.6769 H   0  0  0  0  0  0  0  0  0  0  0  0
    2.1247    3.9288    1.2223 H   0  0  0  0  0  0  0  0  0  0  0  0
    1.0687    3.6386   -1.2322 H   0  0  0  0  0  0  0  0  0  0  0  0
    0.0626    4.2663    0.1591 H   0  0  0  0  0  0  0  0  0  0  0  0
    0.2520    1.2570   -0.2847 H   0  0  0  0  0  0  0  0  0  0  0  0
   -0.7774    2.2351   -1.3448 H   0  0  0  0  0  0  0  0  0  0  0  0
    3.1457    3.0603   -0.7336 H   0  0  0  0  0  0  0  0  0  0  0  0
    2.2354    1.5532   -0.6253 H   0  0  0  0  0  0  0  0  0  0  0  0
    4.3387   -3.9860   -2.6148 H   0  0  0  0  0  0  0  0  0  0  0  0
    6.0447   -3.4881   -2.6390 H   0  0  0  0  0  0  0  0  0  0  0  0
    4.9343   -3.0292   -4.0192 H   0  0  0  0  0  0  0  0  0  0  0  0
    2.7134   -5.1826    1.6682 H   0  0  0  0  0  0  0  0  0  0  0  0
   -6.4165    5.3964   -1.7479 H   0  0  0  0  0  0  0  0  0  0  0  0
   -6.3712    4.4563   -0.1622 H   0  0  0  0  0  0  0  0  0  0  0  0
   -7.1511    3.7256   -1.5752 H   0  0  0  0  0  0  0  0  0  0  0  0
   -3.9452    4.3293    0.6293 H   0  0  0  0  0  0  0  0  0  0  0  0
    5.6516    3.7351    2.3131 H   0  0  0  0  0  0  0  0  0  0  0  0
    5.5593    2.0009    2.6709 H   0  0  0  0  0  0  0  0  0  0  0  0
    6.9043    2.6981    1.6100 H   0  0  0  0  0  0  0  0  0  0  0  0
   -3.9992   -3.5390   -1.0070 H   0  0  0  0  0  0  0  0  0  0  0  0
   -3.5593   -3.8915    0.7638 H   0  0  0  0  0  0  0  0  0  0  0  0
   -5.2320   -3.8215    0.2229 H   0  0  0  0  0  0  0  0  0  0  0  0
   -3.7744   -2.7828    2.2534 H   0  0  0  0  0  0  0  0  0  0  0  0
   -5.3501   -1.9858    2.1255 H   0  0  0  0  0  0  0  0  0  0  0  0
   -3.8461   -1.0188    2.2734 H   0  0  0  0  0  0  0  0  0  0  0  0
    6.9476    2.7045   -0.2859 H   0  0  0  0  0  0  0  0  0  0  0  0
    5.6491    3.2652   -1.3674 H   0  0  0  0  0  0  0  0  0  0  0  0
    4.9525    1.0053   -1.8119 H   0  0  0  0  0  0  0  0  0  0  0  0
    6.6929    0.8410   -1.5264 H   0  0  0  0  0  0  0  0  0  0  0  0
    6.4814    0.5258    0.7749 H   0  0  0  0  0  0  0  0  0  0  0  0
    4.6195    0.5656    2.0151 H   0  0  0  0  0  0  0  0  0  0  0  0
    3.3639    2.3899    1.6366 H   0  0  0  0  0  0  0  0  0  0  0  0
    5.8595   -1.7698    0.6841 H   0  0  0  0  0  0  0  0  0  0  0  0
    6.6548   -1.2089   -0.8692 H   0  0  0  0  0  0  0  0  0  0  0  0
    4.1817   -1.0043   -1.7647 H   0  0  0  0  0  0  0  0  0  0  0  0
    3.6856   -2.5131    0.8136 H   0  0  0  0  0  0  0  0  0  0  0  0
    2.3107    0.0628    0.3447 H   0  0  0  0  0  0  0  0  0  0  0  0
    2.7877   -0.7077    1.8452 H   0  0  0  0  0  0  0  0  0  0  0  0
    1.7240   -2.3765    1.3713 H   0  0  0  0  0  0  0  0  0  0  0  0
    1.2825   -4.3647   -0.9272 H   0  0  0  0  0  0  0  0  0  0  0  0
    0.2096   -5.5926    1.3319 H   0  0  0  0  0  0  0  0  0  0  0  0
   -0.7470   -4.9864   -0.0594 H   0  0  0  0  0  0  0  0  0  0  0  0
   -1.5323   -4.1038    2.1309 H   0  0  0  0  0  0  0  0  0  0  0  0
    0.0703   -3.2410    2.3266 H   0  0  0  0  0  0  0  0  0  0  0  0
   -1.5845   -3.1217   -0.2213 H   0  0  0  0  0  0  0  0  0  0  0  0
    0.1348   -0.8999    0.6906 H   0  0  0  0  0  0  0  0  0  0  0  0
   -0.0865   -1.5781   -0.9371 H   0  0  0  0  0  0  0  0  0  0  0  0
   -2.5290   -2.1622    2.2968 H   0  0  0  0  0  0  0  0  0  0  0  0
   -1.5408   -0.8146    1.7355 H   0  0  0  0  0  0  0  0  0  0  0  0
   -2.6289   -0.9770   -0.4770 H   0  0  0  0  0  0  0  0  0  0  0  0
   -6.2683   -2.4107    0.1364 H   0  0  0  0  0  0  0  0  0  0  0  0
   -5.7418   -0.9568   -0.7288 H   0  0  0  0  0  0  0  0  0  0  0  0
   -5.6462   -1.1394    2.3509 H   0  0  0  0  0  0  0  0  0  0  0  0
   -6.9156   -0.3641    1.3891 H   0  0  0  0  0  0  0  0  0  0  0  0
   -5.1117    1.1016    2.2011 H   0  0  0  0  0  0  0  0  0  0  0  0
   -3.0129    0.4337    1.8919 H   0  0  0  0  0  0  0  0  0  0  0  0
   -6.5096    0.8753   -0.3791 H   0  0  0  0  0  0  0  0  0  0  0  0
   -6.3869    2.2193    0.7332 H   0  0  0  0  0  0  0  0  0  0  0  0
   -4.5989    3.1364   -0.2451 H   0  0  0  0  0  0  0  0  0  0  0  0
   -4.0041    0.4449   -1.5674 H   0  0  0  0  0  0  0  0  0  0  0  0
   -2.9761    2.3111    0.6299 H   0  0  0  0  0  0  0  0  0  0  0  0
   -1.5883    3.0808   -0.7480 H   0  0  0  0  0  0  0  0  0  0  0  0
   -0.7978    2.3185    1.8069 H   0  0  0  0  0  0  0  0  0  0  0  0
   -0.7178    3.9505    1.1360 H   0  0  0  0  0  0  0  0  0  0  0  0
    1.3695    3.6168    1.9095 H   0  0  0  0  0  0  0  0  0  0  0  0
    1.3940    1.8920    1.5563 H   0  0  0  0  0  0  0  0  0  0  0  0
    2.3358    4.2703   -0.0064 H   0  0  0  0  0  0  0  0  0  0  0  0
    1.7224    3.3316   -2.2484 H   0  0  0  0  0  0  0  0  0  0  0  0
    0.4195    4.2051   -1.3106 H   0  0  0  0  0  0  0  0  0  0  0  0
    0.7017    1.1578   -1.0895 H   0  0  0  0  0  0  0  0  0  0  0  0
   -0.3402    1.9596   -2.3508 H   0  0  0  0  0  0  0  0  0  0  0  0
    3.6403    2.9202   -1.2206 H   0  0  0  0  0  0  0  0  0  0  0  0
    2.7177    1.4467   -1.0583 H   0  0  0  0  0  0  0  0  0  0  0  0
    4.5344   -3.9816   -3.2278 H   0  0  0  0  0  0  0  0  0  0  0  0
    5.1469   -2.3022   -3.3138 H   0  0  0  0  0  0  0  0  0  0  0  0
    3.4083   -2.5263   -3.0191 H   0  0  0  0  0  0  0  0  0  0  0  0
    2.5741   -5.5519    0.3290 H   0  0  0  0  0  0  0  0  0  0  0  0
   -5.0374    4.5453   -1.9153 H   0  0  0  0  0  0  0  0  0  0  0  0
   -6.3957    4.2997   -0.8092 H   0  0  0  0  0  0  0  0  0  0  0  0
   -6.6557    4.2658   -2.6242 H   0  0  0  0  0  0  0  0  0  0  0  0
   -3.3065    3.0264   -2.4072 H   0  0  0  0  0  0  0  0  0  0  0  0
    5.8221    3.9925    2.1619 H   0  0  0  0  0  0  0  0  0  0  0  0
    5.4727    2.2934    2.6817 H   0  0  0  0  0  0  0  0  0  0  0  0
    6.9283    2.7238    1.6200 H   0  0  0  0  0  0  0  0  0  0  0  0
   -3.2384   -2.0975   -1.6229 H   0  0  0  0  0  0  0  0  0  0  0  0
   -3.7526   -3.6955   -1.0643 H   0  0  0  0  0  0  0  0  0  0  0  0
   -4.9565   -2.5874   -1.7525 H   0  0  0  0  0  0  0  0  0  0  0  0
   -3.5513   -3.9229    0.8851 H   0  0  0  0  0  0  0  0  0  0  0  0
   -5.2855   -3.6906    0.8515 H   0  0  0  0  0  0  0  0  0  0  0  0
   -4.4221   -2.8879    2.1642 H   0  0  0  0  0  0  0  0  0  0  0  0
  1  2  1  0
  2  3  1  0
  3  4  1  0
  4  5  1  0
  1  6  1  0
  5  6  1  0
  4  7  1  0
  7  8  1  0
  8  9  1  0
  5 10  1  0
  9 10  1  0
  9 11  1  0
 11 12  1  0
 12 13  1  0
 13 14  1  0
 14 15  1  0
 15 16  1  0
 12 17  1  0
 16 17  1  0
 16 18  1  0
 18 19  1  0
 19 20  1  0
 20 21  1  0
 21 22  1  0
 22 23  1  0
 19 24  1  0
 23 24  1  0
 23 25  1  0
 25 26  1  0
 26 27  1  0
 24 28  1  0
 27 28  1  0
 28 29  1  0
 29 30  1  0
 30 31  1  0
 31 32  1  0
 32 33  1  0
 33 34  1  0
 30 35  1  0
 34 35  1  0
  6 36  1  0
 33 36  1  0
  8 37  1  0
 37 38  1  0
 13 39  1  0
 26 40  1  0
 40 41  1  0
 27 42  1  0
  1 43  1  0
 20 44  1  0
 20 45  1  0
 46 47  1  0
 47 48  1  0
 48 49  1  0
 49 50  1  0
 46 51  1  0
 50 51  1  0
 49 52  1  0
 52 53  1  0
 53 54  1  0
 50 55  1  0
 54 55  1  0
 54 56  1  0
 56 57  1  0
 57 58  1  0
 58 59  1  0
 59 60  1  0
 60 61  1  0
 57 62  1  0
 61 62  1  0
 61 63  1  0
 63 64  1  0
 64 65  1  0
 65 66  1  0
 66 67  1  0
 67 68  1  0
 64 69  1  0
 68 69  1  0
 68 70  1  0
 70 71  1  0
 71 72  1  0
 69 73  1  0
 72 73  1  0
 73 74  1  0
 74 75  1  0
 75 76  1  0
 76 77  1  0
 77 78  1  0
 78 79  1  0
 75 80  1  0
 79 80  1  0
 51 81  1  0
 78 81  1  0
 53 82  1  0
 82 83  1  0
 58 84  1  0
 71 85  1  0
 85 86  1  0
 72 87  1  0
 46 88  1  0
 65 89  1  0
 65 90  1  0
 91 92  1  0
 92 93  1  0
 93 94  1  0
 94 95  1  0
 91 96  1  0
 95 96  1  0
 94 97  1  0
 97 98  1  0
 98 99  1  0
 95100  1  0
 99100  1  0
 99101  1  0
101102  1  0
102103  1  0
103104  1  0
104105  1  0
105106  1  0
102107  1  0
106107  1  0
106108  1  0
108109  1  0
109110  1  0
110111  1  0
111112  1  0
112113  1  0
109114  1  0
113114  1  0
113115  1  0
115116  1  0
116117  1  0
114118  1  0
117118  1  0
118119  1  0
119120  1  0
120121  1  0
121122  1  0
122123  1  0
123124  1  0
120125  1  0
124125  1  0
 96126  1  0
123126  1  0
 98127  1  0
127128  1  0
103129  1  0
116130  1  0
130131  1  0
117132  1  0
 91133  1  0
110134  1  0
110135  1  0
136137  1  0
137138  1  0
138139  1  0
139140  1  0
136141  1  0
140141  1  0
139142  1  0
142143  1  0
143144  1  0
140145  1  0
144145  1  0
144146  1  0
146147  1  0
147148  1  0
148149  1  0
149150  1  0
150151  1  0
147152  1  0
151152  1  0
151153  1  0
153154  1  0
154155  1  0
155156  1  0
156157  1  0
157158  1  0
154159  1  0
158159  1  0
158160  1  0
160161  1  0
161162  1  0
159163  1  0
162163  1  0
163164  1  0
164165  1  0
165166  1  0
166167  1  0
167168  1  0
168169  1  0
165170  1  0
169170  1  0
141171  1  0
168171  1  0
143172  1  0
172173  1  0
148174  1  0
161175  1  0
175176  1  0
162177  1  0
136178  1  0
155179  1  0
155180  1  0
181182  1  0
182183  1  0
183184  1  0
184185  1  0
181186  1  0
185186  1  0
184187  1  0
187188  1  0
188189  1  0
185190  1  0
189190  1  0
189191  1  0
191192  1  0
192193  1  0
193194  1  0
194195  1  0
195196  1  0
192197  1  0
196197  1  0
196198  1  0
198199  1  0
199200  1  0
200201  1  0
201202  1  0
202203  1  0
199204  1  0
203204  1  0
203205  1  0
205206  1  0
206207  1  0
204208  1  0
207208  1  0
208209  1  0
209210  1  0
210211  1  0
211212  1  0
212213  1  0
213214  1  0
210215  1  0
214215  1  0
186216  1  0
213216  1  0
188217  1  0
217218  1  0
193219  1  0
206220  1  0
220221  1  0
207222  1  0
181223  1  0
200224  1  0
200225  1  0
  2226  1  0
  2227  1  0
  3228  1  0
  3229  1  0
  4230  1  0
  5231  1  0
  6232  1  1
  7233  1  0
  7234  1  0
  8235  1  0
  9236  1  1
 10237  1  0
 10238  1  0
 12239  1  1
 13240  1  0
 14241  1  0
 14242  1  0
 15243  1  0
 15244  1  0
 16245  1  6
 17246  1  0
 17247  1  0
 18248  1  0
 18249  1  0
 19250  1  6
 21251  1  0
 21252  1  0
 22253  1  0
 22254  1  0
 23255  1  0
 24256  1  6
 25257  1  0
 25258  1  0
 26259  1  0
 27260  1  6
 28261  1  1
 30262  1  0
 31263  1  0
 31264  1  0
 32265  1  0
 32266  1  0
 33267  1  0
 34268  1  0
 34269  1  0
 35270  1  0
 35271  1  0
 36272  1  0
 36273  1  0
 38274  1  0
 38275  1  0
 38276  1  0
 39277  1  0
 41278  1  0
 41279  1  0
 41280  1  0
 42281  1  0
 43282  1  0
 43283  1  0
 43284  1  0
 44285  1  0
 44286  1  0
 44287  1  0
 45288  1  0
 45289  1  0
 45290  1  0
 47291  1  0
 47292  1  0
 48293  1  0
 48294  1  0
 49295  1  0
 50296  1  6
 51297  1  1
 52298  1  0
 52299  1  0
 53300  1  0
 54301  1  0
 55302  1  0
 55303  1  0
 57304  1  0
 58305  1  0
 59306  1  0
 59307  1  0
 60308  1  0
 60309  1  0
 61310  1  0
 62311  1  0
 62312  1  0
 63313  1  0
 63314  1  0
 64315  1  6
 66316  1  0
 66317  1  0
 67318  1  0
 67319  1  0
 68320  1  0
 69321  1  6
 70322  1  0
 70323  1  0
 71324  1  0
 72325  1  0
 73326  1  1
 75327  1  0
 76328  1  0
 76329  1  0
 77330  1  0
 77331  1  0
 78332  1  0
 79333  1  0
 79334  1  0
 80335  1  0
 80336  1  0
 81337  1  0
 81338  1  0
 83339  1  0
 83340  1  0
 83341  1  0
 84342  1  0
 86343  1  0
 86344  1  0
 86345  1  0
 87346  1  0
 88347  1  0
 88348  1  0
 88349  1  0
 89350  1  0
 89351  1  0
 89352  1  0
 90353  1  0
 90354  1  0
 90355  1  0
 92356  1  0
 92357  1  0
 93358  1  0
 93359  1  0
 94360  1  0
 95361  1  0
 96362  1  1
 97363  1  0
 97364  1  0
 98365  1  0
 99366  1  0
100367  1  0
100368  1  0
102369  1  0
103370  1  0
104371  1  0
104372  1  0
105373  1  0
105374  1  0
106375  1  6
107376  1  0
107377  1  0
108378  1  0
108379  1  0
109380  1  6
111381  1  0
111382  1  0
112383  1  0
112384  1  0
113385  1  0
114386  1  6
115387  1  0
115388  1  0
116389  1  0
117390  1  0
118391  1  1
120392  1  0
121393  1  0
121394  1  0
122395  1  0
122396  1  0
123397  1  0
124398  1  0
124399  1  0
125400  1  0
125401  1  0
126402  1  0
126403  1  0
128404  1  0
128405  1  0
128406  1  0
129407  1  0
131408  1  0
131409  1  0
131410  1  0
132411  1  0
133412  1  0
133413  1  0
133414  1  0
134415  1  0
134416  1  0
134417  1  0
135418  1  0
135419  1  0
135420  1  0
137421  1  0
137422  1  0
138423  1  0
138424  1  0
139425  1  0
140426  1  0
141427  1  1
142428  1  0
142429  1  0
143430  1  6
144431  1  1
145432  1  0
145433  1  0
147434  1  1
148435  1  0
149436  1  0
149437  1  0
150438  1  0
150439  1  0
151440  1  0
152441  1  0
152442  1  0
153443  1  0
153444  1  0
154445  1  6
156446  1  0
156447  1  0
157448  1  0
157449  1  0
158450  1  0
159451  1  6
160452  1  0
160453  1  0
161454  1  0
162455  1  0
163456  1  1
165457  1  0
166458  1  0
166459  1  0
167460  1  0
167461  1  0
168462  1  0
169463  1  0
169464  1  0
170465  1  0
170466  1  0
171467  1  0
171468  1  0
173469  1  0
173470  1  0
173471  1  0
174472  1  0
176473  1  0
176474  1  0
176475  1  0
177476  1  0
178477  1  0
178478  1  0
178479  1  0
179480  1  0
179481  1  0
179482  1  0
180483  1  0
180484  1  0
180485  1  0
182486  1  0
182487  1  0
183488  1  0
183489  1  0
184490  1  0
185491  1  0
186492  1  1
187493  1  0
187494  1  0
188495  1  0
189496  1  1
190497  1  0
190498  1  0
192499  1  0
193500  1  0
194501  1  0
194502  1  0
195503  1  0
195504  1  0
196505  1  0
197506  1  0
197507  1  0
198508  1  0
198509  1  0
199510  1  6
201511  1  0
201512  1  0
202513  1  0
202514  1  0
203515  1  0
204516  1  0
205517  1  0
205518  1  0
206519  1  0
207520  1  0
208521  1  1
210522  1  0
211523  1  0
211524  1  0
212525  1  0
212526  1  0
213527  1  0
214528  1  0
214529  1  0
215530  1  0
215531  1  0
216532  1  0
216533  1  0
218534  1  0
218535  1  0
218536  1  0
219537  1  0
221538  1  0
221539  1  0
221540  1  0
222541  1  0
223542  1  0
223543  1  0
223544  1  0
224545  1  0
224546  1  0
224547  1  0
225548  1  0
225549  1  0
225550  1  0
M  CHG  5  20   1  65   1 110   1 155   1 200   1
M  END
>  <PDBID>  (1) 
2XYT

>  <PDB ID>  (1) 
2XYT

>  <Generic Name>  (1) 
Tubocurarine

>  <Brand Name>  (1) 
Tubocurarine Chloride Inj 3mg/ml#Tubocurarine Chloride Inj 3mg/ml USP#Tubarine

>  <DrugBank ID>  (1) 
DB01199

>  <ATC Codes>  (1) 
M03AA02

>  <Ligand ID>  (1) 
TC9,TUB

>  <Target Name>  (1) 
Neuronal acetylcholine receptor subunit alpha-2

>  <UniProt ID>  (1) 
Q15822

>  <PDB ID.1>  (1) 
2XYT

>  <Seq. Identity>  (1) 
31%

$$$$
