PDB_DB00537_09
     RDKit          3D

108114  0  0  0  0  0  0  0  0999 V2000
   -4.7068   -2.5932   -0.4256 O   0  0  0  0  0  0  0  0  0  0  0  0
   -4.3356   -1.4030   -1.0069 C   0  0  0  0  0  0  0  0  0  0  0  0
   -3.6621   -1.5592   -2.2088 O   0  0  0  0  0  0  0  0  0  0  0  0
   -3.4821   -0.5392   -0.0766 C   0  0  0  0  0  0  0  0  0  0  0  0
   -3.0991    0.7295   -0.7411 C   0  0  0  0  0  0  0  0  0  0  0  0
   -1.7953    1.1964   -0.6564 N   0  0  0  0  0  0  0  0  0  0  0  0
   -0.7806    0.1989   -0.4549 C   0  0  0  0  0  0  0  0  0  0  0  0
    0.6205    0.7719   -0.4136 C   0  0  0  0  0  0  0  0  0  0  0  0
    1.5512   -0.3791   -0.1155 C   0  0  0  0  0  0  0  0  0  0  0  0
    2.9148   -0.1436   -0.2164 N   0  0  0  0  0  0  0  0  0  0  0  0
    3.5217    0.7824    0.6571 C   0  0  0  0  0  0  0  0  0  0  0  0
    4.9130    0.2316    1.0213 C   0  0  0  0  0  0  0  0  0  0  0  0
    5.2994   -0.8442    0.1462 N   0  0  0  0  0  0  0  0  0  0  0  0
    5.0108   -0.5980   -1.2419 C   0  0  0  0  0  0  0  0  0  0  0  0
    3.5393   -0.3265   -1.4782 C   0  0  0  0  0  0  0  0  0  0  0  0
    1.2212   -0.8387    1.3128 C   0  0  0  0  0  0  0  0  0  0  0  0
    2.2267   -1.6151    1.8351 F   0  0  0  0  0  0  0  0  0  0  0  0
   -0.0819   -1.5835    1.1926 C   0  0  0  0  0  0  0  0  0  0  0  0
   -1.1266   -0.5860    0.7593 C   0  0  0  0  0  0  0  0  0  0  0  0
   -2.3766   -1.3827    0.4264 C   0  0  0  0  0  0  0  0  0  0  0  0
   -2.0120   -2.3463   -0.5164 O   0  0  0  0  0  0  0  0  0  0  0  0
   -1.4883    2.4690   -0.1331 C   0  0  0  0  0  0  0  0  0  0  0  0
   -1.6830    2.9054    1.2765 C   0  0  0  0  0  0  0  0  0  0  0  0
   -2.5187    3.4964    0.1530 C   0  0  0  0  0  0  0  0  0  0  0  0
   -3.3106    0.5835   -1.8579 H   0  0  0  0  0  0  0  0  0  0  0  0
    0.8583    1.1441   -1.4300 H   0  0  0  0  0  0  0  0  0  0  0  0
    2.9191    0.8718    1.5833 H   0  0  0  0  0  0  0  0  0  0  0  0
    3.7074    1.7764    0.2170 H   0  0  0  0  0  0  0  0  0  0  0  0
    5.6752    1.0072    1.0227 H   0  0  0  0  0  0  0  0  0  0  0  0
    4.8395   -0.2085    2.0483 H   0  0  0  0  0  0  0  0  0  0  0  0
    5.0166   -1.7845    0.4726 H   0  0  0  0  0  0  0  0  0  0  0  0
    5.3343   -1.5000   -1.8041 H   0  0  0  0  0  0  0  0  0  0  0  0
    5.6361    0.2331   -1.5930 H   0  0  0  0  0  0  0  0  0  0  0  0
    3.4381    0.5007   -2.1811 H   0  0  0  0  0  0  0  0  0  0  0  0
    3.0998   -1.2360   -1.9430 H   0  0  0  0  0  0  0  0  0  0  0  0
   -0.3503   -1.9156    2.2260 H   0  0  0  0  0  0  0  0  0  0  0  0
   -0.5675    2.9191   -0.6221 H   0  0  0  0  0  0  0  0  0  0  0  0
   -2.1072    2.2636    2.0421 H   0  0  0  0  0  0  0  0  0  0  0  0
   -0.9319    3.6326    1.7264 H   0  0  0  0  0  0  0  0  0  0  0  0
   -3.5869    3.2917    0.3060 H   0  0  0  0  0  0  0  0  0  0  0  0
   -2.3435    4.5680   -0.0992 H   0  0  0  0  0  0  0  0  0  0  0  0
   -4.7068   -2.5932   -0.4256 O   0  0  0  0  0  0  0  0  0  0  0  0
   -4.3356   -1.4030   -1.0069 C   0  0  0  0  0  0  0  0  0  0  0  0
   -3.6621   -1.5592   -2.2088 O   0  0  0  0  0  0  0  0  0  0  0  0
   -3.4821   -0.5392   -0.0766 C   0  0  0  0  0  0  0  0  0  0  0  0
   -3.0991    0.7295   -0.7411 C   0  0  0  0  0  0  0  0  0  0  0  0
   -1.7953    1.1964   -0.6564 N   0  0  0  0  0  0  0  0  0  0  0  0
   -0.7806    0.1989   -0.4549 C   0  0  0  0  0  0  0  0  0  0  0  0
    0.6205    0.7719   -0.4136 C   0  0  0  0  0  0  0  0  0  0  0  0
    1.5512   -0.3791   -0.1155 C   0  0  0  0  0  0  0  0  0  0  0  0
    2.9148   -0.1436   -0.2164 N   0  0  0  0  0  0  0  0  0  0  0  0
    3.5217    0.7824    0.6571 C   0  0  0  0  0  0  0  0  0  0  0  0
    4.9130    0.2316    1.0213 C   0  0  0  0  0  0  0  0  0  0  0  0
    5.2994   -0.8442    0.1462 N   0  0  0  0  0  0  0  0  0  0  0  0
    5.0108   -0.5980   -1.2419 C   0  0  0  0  0  0  0  0  0  0  0  0
    3.5393   -0.3265   -1.4782 C   0  0  0  0  0  0  0  0  0  0  0  0
    1.2212   -0.8387    1.3128 C   0  0  0  0  0  0  0  0  0  0  0  0
    2.2267   -1.6151    1.8351 F   0  0  0  0  0  0  0  0  0  0  0  0
   -0.0819   -1.5835    1.1926 C   0  0  0  0  0  0  0  0  0  0  0  0
   -1.1266   -0.5860    0.7593 C   0  0  0  0  0  0  0  0  0  0  0  0
   -2.3766   -1.3827    0.4264 C   0  0  0  0  0  0  0  0  0  0  0  0
   -2.0120   -2.3463   -0.5164 O   0  0  0  0  0  0  0  0  0  0  0  0
   -1.4883    2.4690   -0.1331 C   0  0  0  0  0  0  0  0  0  0  0  0
   -1.6830    2.9054    1.2765 C   0  0  0  0  0  0  0  0  0  0  0  0
   -2.5187    3.4964    0.1530 C   0  0  0  0  0  0  0  0  0  0  0  0
   -3.3106    0.5835   -1.8579 H   0  0  0  0  0  0  0  0  0  0  0  0
    0.8583    1.1441   -1.4300 H   0  0  0  0  0  0  0  0  0  0  0  0
    2.9191    0.8718    1.5833 H   0  0  0  0  0  0  0  0  0  0  0  0
    3.7074    1.7764    0.2170 H   0  0  0  0  0  0  0  0  0  0  0  0
    5.6752    1.0072    1.0227 H   0  0  0  0  0  0  0  0  0  0  0  0
    4.8395   -0.2085    2.0483 H   0  0  0  0  0  0  0  0  0  0  0  0
    5.0166   -1.7845    0.4726 H   0  0  0  0  0  0  0  0  0  0  0  0
    5.3343   -1.5000   -1.8041 H   0  0  0  0  0  0  0  0  0  0  0  0
    5.6361    0.2331   -1.5930 H   0  0  0  0  0  0  0  0  0  0  0  0
    3.4381    0.5007   -2.1811 H   0  0  0  0  0  0  0  0  0  0  0  0
    3.0998   -1.2360   -1.9430 H   0  0  0  0  0  0  0  0  0  0  0  0
   -0.3503   -1.9156    2.2260 H   0  0  0  0  0  0  0  0  0  0  0  0
   -0.5675    2.9191   -0.6221 H   0  0  0  0  0  0  0  0  0  0  0  0
   -2.1072    2.2636    2.0421 H   0  0  0  0  0  0  0  0  0  0  0  0
   -0.9319    3.6326    1.7264 H   0  0  0  0  0  0  0  0  0  0  0  0
   -3.5869    3.2917    0.3060 H   0  0  0  0  0  0  0  0  0  0  0  0
   -2.3435    4.5680   -0.0992 H   0  0  0  0  0  0  0  0  0  0  0  0
   -4.6953   -2.5492    0.5598 H   0  0  0  0  0  0  0  0  0  0  0  0
   -5.2236   -0.7481   -1.2519 H   0  0  0  0  0  0  0  0  0  0  0  0
   -3.5202   -2.4990   -2.4157 H   0  0  0  0  0  0  0  0  0  0  0  0
   -4.1650   -0.3344    0.8042 H   0  0  0  0  0  0  0  0  0  0  0  0
   -3.8724    1.4849   -0.4637 H   0  0  0  0  0  0  0  0  0  0  0  0
   -0.8087   -0.4844   -1.3266 H   0  0  0  0  0  0  0  0  0  0  0  0
    0.7291    1.6126    0.2939 H   0  0  0  0  0  0  0  0  0  0  0  0
    1.2520   -1.2016   -0.7822 H   0  0  0  0  0  0  0  0  0  0  0  0
    1.0851    0.0554    1.9390 H   0  0  0  0  0  0  0  0  0  0  0  0
    0.0354   -2.4236    0.5001 H   0  0  0  0  0  0  0  0  0  0  0  0
   -1.3798    0.0181    1.6512 H   0  0  0  0  0  0  0  0  0  0  0  0
   -2.6650   -1.9282    1.3478 H   0  0  0  0  0  0  0  0  0  0  0  0
   -1.7682   -3.1928   -0.0649 H   0  0  0  0  0  0  0  0  0  0  0  0
   -4.6953   -2.5492    0.5598 H   0  0  0  0  0  0  0  0  0  0  0  0
   -5.2236   -0.7481   -1.2519 H   0  0  0  0  0  0  0  0  0  0  0  0
   -3.5202   -2.4990   -2.4157 H   0  0  0  0  0  0  0  0  0  0  0  0
   -4.1650   -0.3344    0.8042 H   0  0  0  0  0  0  0  0  0  0  0  0
   -3.8724    1.4849   -0.4637 H   0  0  0  0  0  0  0  0  0  0  0  0
   -0.8087   -0.4844   -1.3266 H   0  0  0  0  0  0  0  0  0  0  0  0
    0.7291    1.6126    0.2939 H   0  0  0  0  0  0  0  0  0  0  0  0
    1.2520   -1.2016   -0.7822 H   0  0  0  0  0  0  0  0  0  0  0  0
    1.0851    0.0554    1.9390 H   0  0  0  0  0  0  0  0  0  0  0  0
    0.0354   -2.4236    0.5001 H   0  0  0  0  0  0  0  0  0  0  0  0
   -1.3798    0.0181    1.6512 H   0  0  0  0  0  0  0  0  0  0  0  0
   -2.6650   -1.9282    1.3478 H   0  0  0  0  0  0  0  0  0  0  0  0
   -1.7682   -3.1928   -0.0649 H   0  0  0  0  0  0  0  0  0  0  0  0
  1  2  1  0
  2  3  1  0
  2  4  1  0
  4  5  1  0
  5  6  1  0
  6  7  1  0
  7  8  1  0
  8  9  1  0
  9 10  1  0
 10 11  1  0
 11 12  1  0
 12 13  1  0
 13 14  1  0
 10 15  1  0
 14 15  1  0
  9 16  1  0
 16 17  1  0
 16 18  1  0
  7 19  1  0
 18 19  1  0
  4 20  1  0
 19 20  1  0
 20 21  1  0
  6 22  1  0
 22 23  1  0
 22 24  1  0
 23 24  1  0
  5 25  1  0
  8 26  1  0
 11 27  1  0
 11 28  1  0
 12 29  1  0
 12 30  1  0
 13 31  1  0
 14 32  1  0
 14 33  1  0
 15 34  1  0
 15 35  1  0
 18 36  1  0
 22 37  1  0
 23 38  1  0
 23 39  1  0
 24 40  1  0
 24 41  1  0
 43 42  1  0
 43 44  1  0
 43 45  1  0
 45 46  1  0
 46 47  1  0
 47 48  1  0
 48 49  1  0
 49 50  1  0
 50 51  1  0
 51 52  1  0
 52 53  1  0
 53 54  1  0
 54 55  1  0
 51 56  1  0
 55 56  1  0
 50 57  1  0
 57 58  1  0
 57 59  1  0
 48 60  1  0
 59 60  1  0
 45 61  1  0
 60 61  1  0
 61 62  1  0
 47 63  1  0
 63 64  1  0
 63 65  1  0
 64 65  1  0
 46 66  1  0
 49 67  1  0
 52 68  1  0
 52 69  1  0
 53 70  1  0
 53 71  1  0
 54 72  1  0
 55 73  1  0
 55 74  1  0
 56 75  1  0
 56 76  1  0
 59 77  1  0
 63 78  1  0
 64 79  1  0
 64 80  1  0
 65 81  1  0
 65 82  1  0
  1 83  1  0
  2 84  1  0
  3 85  1  0
  4 86  1  0
  5 87  1  0
  7 88  1  0
  8 89  1  0
  9 90  1  0
 16 91  1  0
 18 92  1  0
 19 93  1  0
 20 94  1  0
 21 95  1  0
 42 96  1  0
 43 97  1  0
 44 98  1  0
 45 99  1  0
 46100  1  0
 48101  1  0
 49102  1  0
 50103  1  0
 57104  1  0
 59105  1  0
 60106  1  0
 61107  1  0
 62108  1  0
M  END
>  <PDBID>  (1) 
5BTC

>  <PDB ID>  (1) 
5BTC

>  <Generic Name>  (1) 
Ciprofloxacin

>  <Brand Name>  (1) 
Act Ciprofloxacin#Apo-ciproflox#Auro-ciprofloxacin#Bio-ciprofloxacin#Ciloxan#Cipro#Cipro 100 - Tab 100mg#Cipro 250 - Tab 250mg#Cipro 500 - Tab 500mg#Cipro 750 - Tab 750mg#Cipro HC#Cipro HC Otic Suspension#Cipro I.V. - Liq 10mg/ml#Cipro I.V. Minibags 2mg/ml#Cipro IV 10mg/ml#Cipro Oral Suspension 10%#Cipro Tab 100mg#Cipro Tab 250mg#Cipro Tab 500mg#Cipro Tab 750mg#Cipro XL#Ciprodex#Ciprofloxacin#Ciprofloxacin Extended-release#Ciprofloxacin Hydrochloride#Ciprofloxacin Injection#Ciprofloxacin Injection USP#Ciprofloxacin Injection, USP#Ciprofloxacin Intravenous Infusion#Ciprofloxacin Intravenous Infusion BP#Ciprofloxacin Intravenous Infusion, BP#Ciprofloxacin Omega#Ciprofloxacin Otic#Ciprofloxacin Tablets#Ciprofloxacin Tablets USP - 100 mg#Ciprofloxacin Tablets USP - 250 mg#Ciprofloxacin Tablets USP - 500 mg#Ciprofloxacin Tablets USP - 750 mg#Ciprofloxacin-250#Ciprofloxacin-500#Ciprofloxacin-750#Dom-ciprofloxacin#Ipg-ciprofloxacin#Jamp-ciprofloxacin#Mar-ciprofloxacin#Mint-ciproflox#Mint-ciprofloxacin#Mylan-ciprofloxacin#Mylan-ciprofloxacin XL#Nu-ciproflox#Nu-ciprofloxacin Tablets#Otiprio#Otixal#Otovel#PHL-ciprofloxacin#PMS-ciprofloxacin#PMS-ciprofloxacin 0.3%#PMS-ciprofloxacin XL#Priva-ciprofloxacin#Pro-ciprofloxacin#Proquin XR#Q-ciprofloxacin#Ran-ciproflox#Ran-ciprofloxacin#Ratio-ciprofloxacin#Riva-ciprofloxacin#Sandoz Ciprofloxacin#Septa-ciprofloxacin#Taro-ciprofloxacin#Teva-ciprofloxacin#Van-ciprofloxacin#Bacquinor#Baycip#Ciflox#Cifloxin#Ciprinol#Ciprobay#Ciprocinol#Ciprodar#Ciproxan#Ciproxin#Flociprin#Proquin

>  <DrugBank ID>  (1) 
DB00537

>  <ATC Codes>  (1) 
J01MA02#J01RA11#J01RA12#S02AA15#S03AA07#S01AE03#J01RA10

>  <Ligand ID>  (1) 
CPF

>  <Target Name>  (1) 
DNA gyrase subunit A

>  <UniProt ID>  (1) 
P43700

>  <PDB ID.1>  (1) 
5BTC

>  <Seq. Identity>  (1) 
48%

$$$$
