PDB_DB00328_01
     RDKit          3D

236244  0  0  0  0  0  0  0  0999 V2000
   -0.5568    0.3490    0.7541 C   0  0  0  0  0  0  0  0  0  0  0  0
   -1.5576   -0.1307   -0.3120 C   0  0  0  0  0  0  0  0  0  0  0  0
   -2.8799    0.3676    0.0574 C   0  0  0  0  0  0  0  0  0  0  0  0
   -2.8998    1.8034    0.5173 C   0  0  0  0  0  0  0  0  0  0  0  0
   -1.8060    2.2142    1.4459 C   0  0  0  0  0  0  0  0  0  0  0  0
   -0.4886    1.7942    0.7399 C   0  0  0  0  0  0  0  0  0  0  0  0
   -4.8550    3.0822    0.4807 C   0  0  0  0  0  0  0  0  0  0  0  0
   -1.2844   -1.5792   -0.3507 C   0  0  1  0  0  0  0  0  0  0  0  0
   -0.0532   -1.7343    0.5580 C   0  0  0  0  0  0  0  0  0  0  0  0
    1.4080   -0.1726   -0.6002 C   0  0  0  0  0  0  0  0  0  0  0  0
    2.8886   -0.2588   -0.2747 C   0  0  0  0  0  0  0  0  0  0  0  0
    3.7869   -0.0032   -1.4159 C   0  0  0  0  0  0  0  0  0  0  0  0
    4.6402    1.2041   -1.3566 C   0  0  0  0  0  0  0  0  0  0  0  0
    5.1539    1.5595   -0.0010 C   0  0  0  0  0  0  0  0  0  0  0  0
    4.6944    0.5880    1.0810 C   0  0  0  0  0  0  0  0  0  0  0  0
    3.1732    0.5562    0.9497 C   0  0  0  0  0  0  0  0  0  0  0  0
    0.7950   -2.8669    0.1731 C   0  0  0  0  0  0  0  0  0  0  0  0
   -2.2314   -2.6116    0.0126 C   0  0  0  0  0  0  0  0  0  0  0  0
   -3.4953   -2.8888   -0.6754 C   0  0  0  0  0  0  0  0  0  0  0  0
    0.5851   -0.4367    0.5051 N   0  0  0  0  0  0  0  0  0  0  0  0
   -4.1468    2.0983    1.1090 O   0  0  0  0  0  0  0  0  0  0  0  0
    1.2059    1.0782   -1.1896 O   0  0  0  0  0  0  0  0  0  0  0  0
   -4.4448   -1.9376   -0.7415 O   0  0  0  0  0  0  0  0  0  0  0  0
   -3.3010   -3.5641   -1.9086 O   0  0  0  0  0  0  0  0  0  0  0  0
    6.9539    1.6467    0.0195 Cl  0  0  0  0  0  0  0  0  0  0  0  0
   -0.5568    0.3490    0.7541 C   0  0  0  0  0  0  0  0  0  0  0  0
   -1.5576   -0.1307   -0.3120 C   0  0  0  0  0  0  0  0  0  0  0  0
   -2.8799    0.3676    0.0574 C   0  0  0  0  0  0  0  0  0  0  0  0
   -2.8998    1.8034    0.5173 C   0  0  0  0  0  0  0  0  0  0  0  0
   -1.8060    2.2142    1.4459 C   0  0  0  0  0  0  0  0  0  0  0  0
   -0.4886    1.7942    0.7399 C   0  0  0  0  0  0  0  0  0  0  0  0
   -4.8550    3.0822    0.4807 C   0  0  0  0  0  0  0  0  0  0  0  0
   -1.2844   -1.5792   -0.3507 C   0  0  1  0  0  0  0  0  0  0  0  0
   -0.0532   -1.7343    0.5580 C   0  0  0  0  0  0  0  0  0  0  0  0
    1.4080   -0.1726   -0.6002 C   0  0  0  0  0  0  0  0  0  0  0  0
    2.8886   -0.2588   -0.2747 C   0  0  0  0  0  0  0  0  0  0  0  0
    3.7869   -0.0032   -1.4159 C   0  0  0  0  0  0  0  0  0  0  0  0
    4.6402    1.2041   -1.3566 C   0  0  0  0  0  0  0  0  0  0  0  0
    5.1539    1.5595   -0.0010 C   0  0  0  0  0  0  0  0  0  0  0  0
    4.6944    0.5880    1.0810 C   0  0  0  0  0  0  0  0  0  0  0  0
    3.1732    0.5562    0.9497 C   0  0  0  0  0  0  0  0  0  0  0  0
    0.7950   -2.8669    0.1731 C   0  0  0  0  0  0  0  0  0  0  0  0
   -2.2314   -2.6116    0.0126 C   0  0  0  0  0  0  0  0  0  0  0  0
   -3.4953   -2.8888   -0.6754 C   0  0  0  0  0  0  0  0  0  0  0  0
    0.5851   -0.4367    0.5051 N   0  0  0  0  0  0  0  0  0  0  0  0
   -4.1468    2.0983    1.1090 O   0  0  0  0  0  0  0  0  0  0  0  0
    1.2059    1.0782   -1.1896 O   0  0  0  0  0  0  0  0  0  0  0  0
   -4.4448   -1.9376   -0.7415 O   0  0  0  0  0  0  0  0  0  0  0  0
   -3.3010   -3.5641   -1.9086 O   0  0  0  0  0  0  0  0  0  0  0  0
    6.9539    1.6467    0.0195 Cl  0  0  0  0  0  0  0  0  0  0  0  0
   -0.6007    0.6367   -0.0126 C   0  0  0  0  0  0  0  0  0  0  0  0
   -2.0221    0.0891   -0.2818 C   0  0  0  0  0  0  0  0  0  0  0  0
   -2.8226    0.5032    0.8937 C   0  0  0  0  0  0  0  0  0  0  0  0
   -2.8575    2.0137    0.9709 C   0  0  0  0  0  0  0  0  0  0  0  0
   -1.5687    2.7035    0.7378 C   0  0  0  0  0  0  0  0  0  0  0  0
   -0.6904    2.0622   -0.3539 C   0  0  0  0  0  0  0  0  0  0  0  0
   -4.5633    3.0045    2.1717 C   0  0  0  0  0  0  0  0  0  0  0  0
   -1.8258   -1.3356   -0.5682 C   0  0  0  0  0  0  0  0  0  0  0  0
   -0.3552   -1.5870   -0.2964 C   0  0  0  0  0  0  0  0  0  0  0  0
    1.3599   -0.1618   -1.3093 C   0  0  0  0  0  0  0  0  0  0  0  0
    2.5723    0.5128   -0.6380 C   0  0  0  0  0  0  0  0  0  0  0  0
    3.7039    0.5028   -1.6743 C   0  0  0  0  0  0  0  0  0  0  0  0
    4.8429    1.3713   -1.2208 C   0  0  0  0  0  0  0  0  0  0  0  0
    5.1877    0.9849    0.1917 C   0  0  0  0  0  0  0  0  0  0  0  0
    4.5563   -0.3018    0.6172 C   0  0  0  0  0  0  0  0  0  0  0  0
    3.0634   -0.3291    0.5201 C   0  0  0  0  0  0  0  0  0  0  0  0
   -0.0428   -1.9833    1.1171 C   0  0  0  0  0  0  0  0  0  0  0  0
   -2.7733   -2.2977    0.0370 C   0  0  0  0  0  0  0  0  0  0  0  0
   -2.5083   -3.7194   -0.3683 C   0  0  0  0  0  0  0  0  0  0  0  0
    0.2458   -0.2613   -0.5713 N   0  0  0  0  0  0  0  0  0  0  0  0
   -3.3302    2.3498    2.2377 O   0  0  0  0  0  0  0  0  0  0  0  0
    1.2866    0.4618   -2.5580 O   0  0  0  0  0  0  0  0  0  0  0  0
   -2.6142   -3.8648   -1.7766 O   0  0  0  0  0  0  0  0  0  0  0  0
   -1.2421   -4.1824   -0.0627 O   0  0  0  0  0  0  0  0  0  0  0  0
    6.9648    0.7461    0.3040 Cl  0  0  0  0  0  0  0  0  0  0  0  0
   -0.5568    0.3490    0.7541 C   0  0  0  0  0  0  0  0  0  0  0  0
   -1.5576   -0.1307   -0.3120 C   0  0  0  0  0  0  0  0  0  0  0  0
   -2.8799    0.3676    0.0574 C   0  0  0  0  0  0  0  0  0  0  0  0
   -2.8998    1.8034    0.5173 C   0  0  0  0  0  0  0  0  0  0  0  0
   -1.8060    2.2142    1.4459 C   0  0  0  0  0  0  0  0  0  0  0  0
   -0.4886    1.7942    0.7399 C   0  0  0  0  0  0  0  0  0  0  0  0
   -4.8550    3.0822    0.4807 C   0  0  0  0  0  0  0  0  0  0  0  0
   -1.2844   -1.5792   -0.3507 C   0  0  1  0  0  0  0  0  0  0  0  0
   -0.0532   -1.7343    0.5580 C   0  0  0  0  0  0  0  0  0  0  0  0
    1.4080   -0.1726   -0.6002 C   0  0  0  0  0  0  0  0  0  0  0  0
    2.8886   -0.2588   -0.2747 C   0  0  0  0  0  0  0  0  0  0  0  0
    3.7869   -0.0032   -1.4159 C   0  0  0  0  0  0  0  0  0  0  0  0
    4.6402    1.2041   -1.3566 C   0  0  0  0  0  0  0  0  0  0  0  0
    5.1539    1.5595   -0.0010 C   0  0  0  0  0  0  0  0  0  0  0  0
    4.6944    0.5880    1.0810 C   0  0  0  0  0  0  0  0  0  0  0  0
    3.1732    0.5562    0.9497 C   0  0  0  0  0  0  0  0  0  0  0  0
    0.7950   -2.8669    0.1731 C   0  0  0  0  0  0  0  0  0  0  0  0
   -2.2314   -2.6116    0.0126 C   0  0  0  0  0  0  0  0  0  0  0  0
   -3.4953   -2.8888   -0.6754 C   0  0  0  0  0  0  0  0  0  0  0  0
    0.5851   -0.4367    0.5051 N   0  0  0  0  0  0  0  0  0  0  0  0
   -4.1468    2.0983    1.1090 O   0  0  0  0  0  0  0  0  0  0  0  0
    1.2059    1.0782   -1.1896 O   0  0  0  0  0  0  0  0  0  0  0  0
   -4.4448   -1.9376   -0.7415 O   0  0  0  0  0  0  0  0  0  0  0  0
   -3.3010   -3.5641   -1.9086 O   0  0  0  0  0  0  0  0  0  0  0  0
    6.9539    1.6467    0.0195 Cl  0  0  0  0  0  0  0  0  0  0  0  0
   -0.9788   -0.0132    1.7314 H   0  0  0  0  0  0  0  0  0  0  0  0
   -1.2236    0.3921   -1.2754 H   0  0  0  0  0  0  0  0  0  0  0  0
   -3.5916    0.3633   -0.8300 H   0  0  0  0  0  0  0  0  0  0  0  0
   -3.3071   -0.2016    0.9285 H   0  0  0  0  0  0  0  0  0  0  0  0
   -2.8108    2.4509   -0.3798 H   0  0  0  0  0  0  0  0  0  0  0  0
   -1.8002    1.6633    2.3977 H   0  0  0  0  0  0  0  0  0  0  0  0
   -1.8604    3.3009    1.5548 H   0  0  0  0  0  0  0  0  0  0  0  0
   -0.6142    2.2659   -0.2670 H   0  0  0  0  0  0  0  0  0  0  0  0
    0.2968    2.2792    1.3421 H   0  0  0  0  0  0  0  0  0  0  0  0
   -4.3599    4.0806    0.4433 H   0  0  0  0  0  0  0  0  0  0  0  0
   -5.1985    2.7657   -0.5293 H   0  0  0  0  0  0  0  0  0  0  0  0
   -5.7720    3.2514    1.1161 H   0  0  0  0  0  0  0  0  0  0  0  0
   -0.8218   -1.7632   -1.3851 H   0  0  0  0  0  0  0  0  0  0  0  0
   -0.4728   -1.8866    1.5794 H   0  0  0  0  0  0  0  0  0  0  0  0
    1.1438   -0.8862   -1.4299 H   0  0  0  0  0  0  0  0  0  0  0  0
    3.0446   -1.3306    0.0600 H   0  0  0  0  0  0  0  0  0  0  0  0
    3.2281    0.0221   -2.3917 H   0  0  0  0  0  0  0  0  0  0  0  0
    4.4893   -0.8797   -1.5770 H   0  0  0  0  0  0  0  0  0  0  0  0
    5.5508    1.0361   -2.0099 H   0  0  0  0  0  0  0  0  0  0  0  0
    4.1813    2.1162   -1.7968 H   0  0  0  0  0  0  0  0  0  0  0  0
    4.8056    2.5628    0.3319 H   0  0  0  0  0  0  0  0  0  0  0  0
    5.0769   -0.4114    0.8390 H   0  0  0  0  0  0  0  0  0  0  0  0
    5.0243    0.9793    2.0615 H   0  0  0  0  0  0  0  0  0  0  0  0
    2.8361    1.6012    0.9058 H   0  0  0  0  0  0  0  0  0  0  0  0
    2.7805    0.0377    1.8499 H   0  0  0  0  0  0  0  0  0  0  0  0
    1.5465   -3.1098    0.9652 H   0  0  0  0  0  0  0  0  0  0  0  0
    0.1921   -3.7883    0.0952 H   0  0  0  0  0  0  0  0  0  0  0  0
    1.2697   -2.7511   -0.8151 H   0  0  0  0  0  0  0  0  0  0  0  0
   -2.5199   -2.4562    1.1128 H   0  0  0  0  0  0  0  0  0  0  0  0
   -1.7140   -3.6393    0.1003 H   0  0  0  0  0  0  0  0  0  0  0  0
   -3.9796   -3.7362   -0.0543 H   0  0  0  0  0  0  0  0  0  0  0  0
    1.8954    1.6747   -0.8666 H   0  0  0  0  0  0  0  0  0  0  0  0
   -4.9042   -1.8062   -1.5817 H   0  0  0  0  0  0  0  0  0  0  0  0
   -2.7168   -4.3410   -1.8027 H   0  0  0  0  0  0  0  0  0  0  0  0
   -0.9788   -0.0132    1.7314 H   0  0  0  0  0  0  0  0  0  0  0  0
   -1.2236    0.3921   -1.2754 H   0  0  0  0  0  0  0  0  0  0  0  0
   -3.5916    0.3633   -0.8300 H   0  0  0  0  0  0  0  0  0  0  0  0
   -3.3071   -0.2016    0.9285 H   0  0  0  0  0  0  0  0  0  0  0  0
   -2.8108    2.4509   -0.3798 H   0  0  0  0  0  0  0  0  0  0  0  0
   -1.8002    1.6633    2.3977 H   0  0  0  0  0  0  0  0  0  0  0  0
   -1.8604    3.3009    1.5548 H   0  0  0  0  0  0  0  0  0  0  0  0
   -0.6142    2.2659   -0.2670 H   0  0  0  0  0  0  0  0  0  0  0  0
    0.2968    2.2792    1.3421 H   0  0  0  0  0  0  0  0  0  0  0  0
   -4.3599    4.0806    0.4433 H   0  0  0  0  0  0  0  0  0  0  0  0
   -5.1985    2.7657   -0.5293 H   0  0  0  0  0  0  0  0  0  0  0  0
   -5.7720    3.2514    1.1161 H   0  0  0  0  0  0  0  0  0  0  0  0
   -0.8218   -1.7632   -1.3851 H   0  0  0  0  0  0  0  0  0  0  0  0
   -0.4728   -1.8866    1.5794 H   0  0  0  0  0  0  0  0  0  0  0  0
    1.1438   -0.8862   -1.4299 H   0  0  0  0  0  0  0  0  0  0  0  0
    3.0446   -1.3306    0.0600 H   0  0  0  0  0  0  0  0  0  0  0  0
    3.2281    0.0221   -2.3917 H   0  0  0  0  0  0  0  0  0  0  0  0
    4.4893   -0.8797   -1.5770 H   0  0  0  0  0  0  0  0  0  0  0  0
    5.5508    1.0361   -2.0099 H   0  0  0  0  0  0  0  0  0  0  0  0
    4.1813    2.1162   -1.7968 H   0  0  0  0  0  0  0  0  0  0  0  0
    4.8056    2.5628    0.3319 H   0  0  0  0  0  0  0  0  0  0  0  0
    5.0769   -0.4114    0.8390 H   0  0  0  0  0  0  0  0  0  0  0  0
    5.0243    0.9793    2.0615 H   0  0  0  0  0  0  0  0  0  0  0  0
    2.8361    1.6012    0.9058 H   0  0  0  0  0  0  0  0  0  0  0  0
    2.7805    0.0377    1.8499 H   0  0  0  0  0  0  0  0  0  0  0  0
    1.5465   -3.1098    0.9652 H   0  0  0  0  0  0  0  0  0  0  0  0
    0.1921   -3.7883    0.0952 H   0  0  0  0  0  0  0  0  0  0  0  0
    1.2697   -2.7511   -0.8151 H   0  0  0  0  0  0  0  0  0  0  0  0
   -2.5199   -2.4562    1.1128 H   0  0  0  0  0  0  0  0  0  0  0  0
   -1.7140   -3.6393    0.1003 H   0  0  0  0  0  0  0  0  0  0  0  0
   -3.9796   -3.7362   -0.0543 H   0  0  0  0  0  0  0  0  0  0  0  0
    1.8954    1.6747   -0.8666 H   0  0  0  0  0  0  0  0  0  0  0  0
   -4.9042   -1.8062   -1.5817 H   0  0  0  0  0  0  0  0  0  0  0  0
   -2.7168   -4.3410   -1.8027 H   0  0  0  0  0  0  0  0  0  0  0  0
   -0.4654    0.5960    1.1251 H   0  0  0  0  0  0  0  0  0  0  0  0
   -2.4039    0.6392   -1.2025 H   0  0  0  0  0  0  0  0  0  0  0  0
   -3.8673    0.1540    0.8163 H   0  0  0  0  0  0  0  0  0  0  0  0
   -2.3166    0.1519    1.8118 H   0  0  0  0  0  0  0  0  0  0  0  0
   -3.6279    2.3714    0.2333 H   0  0  0  0  0  0  0  0  0  0  0  0
   -0.9646    2.8864    1.6645 H   0  0  0  0  0  0  0  0  0  0  0  0
   -1.7914    3.7313    0.3362 H   0  0  0  0  0  0  0  0  0  0  0  0
   -1.3135    2.2067   -1.2855 H   0  0  0  0  0  0  0  0  0  0  0  0
    0.2231    2.6493   -0.3674 H   0  0  0  0  0  0  0  0  0  0  0  0
   -5.2775    2.3079    1.6816 H   0  0  0  0  0  0  0  0  0  0  0  0
   -4.4768    3.9732    1.6327 H   0  0  0  0  0  0  0  0  0  0  0  0
   -4.9093    3.1813    3.1966 H   0  0  0  0  0  0  0  0  0  0  0  0
   -1.9296   -1.4862   -1.6893 H   0  0  0  0  0  0  0  0  0  0  0  0
    0.1097   -2.2865   -0.9858 H   0  0  0  0  0  0  0  0  0  0  0  0
    1.7632   -1.1956   -1.5572 H   0  0  0  0  0  0  0  0  0  0  0  0
    2.3373    1.5295   -0.2892 H   0  0  0  0  0  0  0  0  0  0  0  0
    4.0449   -0.5647   -1.7009 H   0  0  0  0  0  0  0  0  0  0  0  0
    3.3420    0.7315   -2.6818 H   0  0  0  0  0  0  0  0  0  0  0  0
    5.6885    1.1899   -1.9179 H   0  0  0  0  0  0  0  0  0  0  0  0
    4.4951    2.4384   -1.2593 H   0  0  0  0  0  0  0  0  0  0  0  0
    4.9310    1.8237    0.8681 H   0  0  0  0  0  0  0  0  0  0  0  0
    4.8966   -0.5229    1.6565 H   0  0  0  0  0  0  0  0  0  0  0  0
    5.0326   -1.1129   -0.0059 H   0  0  0  0  0  0  0  0  0  0  0  0
    2.6481   -0.0004    1.4942 H   0  0  0  0  0  0  0  0  0  0  0  0
    2.7775   -1.3806    0.2789 H   0  0  0  0  0  0  0  0  0  0  0  0
    0.5029   -1.1211    1.6330 H   0  0  0  0  0  0  0  0  0  0  0  0
   -0.8880   -2.2352    1.7511 H   0  0  0  0  0  0  0  0  0  0  0  0
    0.6981   -2.8053    1.1884 H   0  0  0  0  0  0  0  0  0  0  0  0
   -3.7909   -2.0486   -0.3918 H   0  0  0  0  0  0  0  0  0  0  0  0
   -2.9066   -2.1856    1.1317 H   0  0  0  0  0  0  0  0  0  0  0  0
   -3.3063   -4.4139    0.0291 H   0  0  0  0  0  0  0  0  0  0  0  0
    1.0606    1.4229   -2.4757 H   0  0  0  0  0  0  0  0  0  0  0  0
   -3.5506   -4.0045   -2.0061 H   0  0  0  0  0  0  0  0  0  0  0  0
   -0.7310   -4.5388   -0.8192 H   0  0  0  0  0  0  0  0  0  0  0  0
   -0.9788   -0.0132    1.7314 H   0  0  0  0  0  0  0  0  0  0  0  0
   -1.2236    0.3921   -1.2754 H   0  0  0  0  0  0  0  0  0  0  0  0
   -3.5916    0.3633   -0.8300 H   0  0  0  0  0  0  0  0  0  0  0  0
   -3.3071   -0.2016    0.9285 H   0  0  0  0  0  0  0  0  0  0  0  0
   -2.8108    2.4509   -0.3798 H   0  0  0  0  0  0  0  0  0  0  0  0
   -1.8002    1.6633    2.3977 H   0  0  0  0  0  0  0  0  0  0  0  0
   -1.8604    3.3009    1.5548 H   0  0  0  0  0  0  0  0  0  0  0  0
   -0.6142    2.2659   -0.2670 H   0  0  0  0  0  0  0  0  0  0  0  0
    0.2968    2.2792    1.3421 H   0  0  0  0  0  0  0  0  0  0  0  0
   -4.3599    4.0806    0.4433 H   0  0  0  0  0  0  0  0  0  0  0  0
   -5.1985    2.7657   -0.5293 H   0  0  0  0  0  0  0  0  0  0  0  0
   -5.7720    3.2514    1.1161 H   0  0  0  0  0  0  0  0  0  0  0  0
   -0.8218   -1.7632   -1.3851 H   0  0  0  0  0  0  0  0  0  0  0  0
   -0.4728   -1.8866    1.5794 H   0  0  0  0  0  0  0  0  0  0  0  0
    1.1438   -0.8862   -1.4299 H   0  0  0  0  0  0  0  0  0  0  0  0
    3.0446   -1.3306    0.0600 H   0  0  0  0  0  0  0  0  0  0  0  0
    3.2281    0.0221   -2.3917 H   0  0  0  0  0  0  0  0  0  0  0  0
    4.4893   -0.8797   -1.5770 H   0  0  0  0  0  0  0  0  0  0  0  0
    5.5508    1.0361   -2.0099 H   0  0  0  0  0  0  0  0  0  0  0  0
    4.1813    2.1162   -1.7968 H   0  0  0  0  0  0  0  0  0  0  0  0
    4.8056    2.5628    0.3319 H   0  0  0  0  0  0  0  0  0  0  0  0
    5.0769   -0.4114    0.8390 H   0  0  0  0  0  0  0  0  0  0  0  0
    5.0243    0.9793    2.0615 H   0  0  0  0  0  0  0  0  0  0  0  0
    2.8361    1.6012    0.9058 H   0  0  0  0  0  0  0  0  0  0  0  0
    2.7805    0.0377    1.8499 H   0  0  0  0  0  0  0  0  0  0  0  0
    1.5465   -3.1098    0.9652 H   0  0  0  0  0  0  0  0  0  0  0  0
    0.1921   -3.7883    0.0952 H   0  0  0  0  0  0  0  0  0  0  0  0
    1.2697   -2.7511   -0.8151 H   0  0  0  0  0  0  0  0  0  0  0  0
   -2.5199   -2.4562    1.1128 H   0  0  0  0  0  0  0  0  0  0  0  0
   -1.7140   -3.6393    0.1003 H   0  0  0  0  0  0  0  0  0  0  0  0
   -3.9796   -3.7362   -0.0543 H   0  0  0  0  0  0  0  0  0  0  0  0
    1.8954    1.6747   -0.8666 H   0  0  0  0  0  0  0  0  0  0  0  0
   -4.9042   -1.8062   -1.5817 H   0  0  0  0  0  0  0  0  0  0  0  0
   -2.7168   -4.3410   -1.8027 H   0  0  0  0  0  0  0  0  0  0  0  0
  1  2  1  0
  2  3  1  0
  3  4  1  0
  4  5  1  0
  1  6  1  0
  5  6  1  0
  2  8  1  0
  8  9  1  0
 10 11  1  0
 11 12  1  0
 12 13  1  0
 13 14  1  0
 14 15  1  0
 11 16  1  0
 15 16  1  0
  9 17  1  0
  8 18  1  0
 18 19  1  0
  1 20  1  0
  9 20  1  0
 10 20  1  0
  4 21  1  0
  7 21  1  0
 10 22  1  0
 19 23  1  0
 19 24  1  0
 14 25  1  0
 26 27  1  0
 27 28  1  0
 28 29  1  0
 29 30  1  0
 26 31  1  0
 30 31  1  0
 27 33  1  0
 33 34  1  0
 35 36  1  0
 36 37  1  0
 37 38  1  0
 38 39  1  0
 39 40  1  0
 36 41  1  0
 40 41  1  0
 34 42  1  0
 33 43  1  0
 43 44  1  0
 26 45  1  0
 34 45  1  0
 35 45  1  0
 29 46  1  0
 32 46  1  0
 35 47  1  0
 44 48  1  0
 44 49  1  0
 39 50  1  0
 51 52  1  0
 52 53  1  0
 53 54  1  0
 54 55  1  0
 51 56  1  0
 55 56  1  0
 52 58  1  0
 58 59  1  0
 60 61  1  0
 61 62  1  0
 62 63  1  0
 63 64  1  0
 64 65  1  0
 61 66  1  0
 65 66  1  0
 59 67  1  0
 58 68  1  0
 68 69  1  0
 51 70  1  0
 59 70  1  0
 60 70  1  0
 54 71  1  0
 57 71  1  0
 60 72  1  0
 69 73  1  0
 69 74  1  0
 64 75  1  0
 76 77  1  0
 77 78  1  0
 78 79  1  0
 79 80  1  0
 76 81  1  0
 80 81  1  0
 77 83  1  0
 83 84  1  0
 85 86  1  0
 86 87  1  0
 87 88  1  0
 88 89  1  0
 89 90  1  0
 86 91  1  0
 90 91  1  0
 84 92  1  0
 83 93  1  0
 93 94  1  0
 76 95  1  0
 84 95  1  0
 85 95  1  0
 79 96  1  0
 82 96  1  0
 85 97  1  0
 94 98  1  0
 94 99  1  0
 89100  1  0
  1101  1  0
  2102  1  0
  3103  1  0
  3104  1  0
  4105  1  0
  5106  1  0
  5107  1  0
  6108  1  0
  6109  1  0
  7110  1  0
  7111  1  0
  7112  1  0
  8113  1  6
  9114  1  0
 10115  1  0
 11116  1  0
 12117  1  0
 12118  1  0
 13119  1  0
 13120  1  0
 14121  1  0
 15122  1  0
 15123  1  0
 16124  1  0
 16125  1  0
 17126  1  0
 17127  1  0
 17128  1  0
 18129  1  0
 18130  1  0
 19131  1  0
 22132  1  0
 23133  1  0
 24134  1  0
 26135  1  0
 27136  1  0
 28137  1  0
 28138  1  0
 29139  1  0
 30140  1  0
 30141  1  0
 31142  1  0
 31143  1  0
 32144  1  0
 32145  1  0
 32146  1  0
 33147  1  6
 34148  1  0
 35149  1  0
 36150  1  0
 37151  1  0
 37152  1  0
 38153  1  0
 38154  1  0
 39155  1  0
 40156  1  0
 40157  1  0
 41158  1  0
 41159  1  0
 42160  1  0
 42161  1  0
 42162  1  0
 43163  1  0
 43164  1  0
 44165  1  0
 47166  1  0
 48167  1  0
 49168  1  0
 51169  1  0
 52170  1  0
 53171  1  0
 53172  1  0
 54173  1  0
 55174  1  0
 55175  1  0
 56176  1  0
 56177  1  0
 57178  1  0
 57179  1  0
 57180  1  0
 58181  1  0
 59182  1  0
 60183  1  0
 61184  1  0
 62185  1  0
 62186  1  0
 63187  1  0
 63188  1  0
 64189  1  0
 65190  1  0
 65191  1  0
 66192  1  0
 66193  1  0
 67194  1  0
 67195  1  0
 67196  1  0
 68197  1  0
 68198  1  0
 69199  1  0
 72200  1  0
 73201  1  0
 74202  1  0
 76203  1  0
 77204  1  0
 78205  1  0
 78206  1  0
 79207  1  0
 80208  1  0
 80209  1  0
 81210  1  0
 81211  1  0
 82212  1  0
 82213  1  0
 82214  1  0
 83215  1  6
 84216  1  0
 85217  1  0
 86218  1  0
 87219  1  0
 87220  1  0
 88221  1  0
 88222  1  0
 89223  1  0
 90224  1  0
 90225  1  0
 91226  1  0
 91227  1  0
 92228  1  0
 92229  1  0
 92230  1  0
 93231  1  0
 93232  1  0
 94233  1  0
 97234  1  0
 98235  1  0
 99236  1  0
M  END
>  <PDBID>  (1) 
4COX

>  <PDB ID>  (1) 
4COX

>  <Generic Name>  (1) 
Indomethacin

>  <Brand Name>  (1) 
Apo Indomethacin Cap 25mg#Apo Indomethacin Cap 50mg#Ftp-indomethacin#Indocid Cap 25mg#Indocid Cap 50mg#Indocid SR 75mg#Indocid Sterile Oph Susp 1%#Indocid Sup 100mg#Indocid Sup 50mg#Indocin#Indocollyre#Indomethacin#Indomethacin ER#Indomethacin Extended-release#Mint-indomethacin#Novo-methacin - 100mg Sup#Novo-methacin - Sup 50mg#Ntp-indomethacin#Nu-indo Cap 25mg#Nu-indo Cap 50mg#Pro-indo 25 Cap 25mg#Pro-indo 50 Cap 50mg#Ratio-indomethacin#Rhodacine - Cap 25mg#Rhodacine - Cap 50mg#Rhodacine - Sup 100mg#Rhodacine - Sup 50mg#Sandoz Indomethacin#Teva-indomethacin#Tivorbex#Arthrexin#Elmetacin#Indaflex#Indocid#Indolar SR#Indomed#Indoxen#Metindol#Mikametan#Nu-Indo#Reumacide

>  <DrugBank ID>  (1) 
DB00328

>  <ATC Codes>  (1) 
S01CC02#M02AA23#M01AB01#M01AB51#S01BC01#C01EB03

>  <Ligand ID>  (1) 
IMN

>  <Target Name>  (1) 
Prostaglandin G/H synthase 2

>  <UniProt ID>  (1) 
P35354

>  <PDB ID.1>  (1) 
4COX

>  <Seq. Identity>  (1) 
84%

$$$$
