PDB_DB01026_03
     RDKit          3D

164172  0  0  0  0  0  0  0  0999 V2000
   -4.8730    0.5465    2.1538 C   0  0  0  0  0  0  0  0  0  0  0  0
   -5.4547    0.6396    0.8445 N   0  0  0  0  0  0  0  0  0  0  0  0
   -2.8154    0.1527   -1.5923 O   0  0  0  0  0  0  0  0  0  0  0  0
   -8.6890   -2.9851   -1.5102 Cl  0  0  0  0  0  0  0  0  0  0  0  0
   -7.0400    1.3712    2.3246 C   0  0  0  0  0  0  0  0  0  0  0  0
   -6.0810    0.5170    2.9993 N   0  0  0  0  0  0  0  0  0  0  0  0
   -2.8847   -0.6252    0.5218 O   0  0  0  0  0  0  0  0  0  0  0  0
   -4.5588    0.0239   -3.2424 Cl  0  0  0  0  0  0  0  0  0  0  0  0
   -6.4161    1.7139    0.9903 C   0  0  0  0  0  0  0  0  0  0  0  0
    4.9134    0.0563    0.1032 N   0  0  0  0  0  0  0  0  0  0  0  0
    0.4381    0.9431   -0.4135 O   0  0  0  0  0  0  0  0  0  0  0  0
   -4.5386    0.8494   -0.2247 C   0  0  0  0  0  0  0  0  0  0  0  0
    7.4642   -1.0235   -0.1753 N   0  0  0  0  0  0  0  0  0  0  0  0
    9.5308   -0.9237   -1.2148 O   0  0  0  0  0  0  0  0  0  0  0  0
   -3.6694   -0.2957   -0.5613 C   0  0  1  0  0  0  0  0  0  0  0  0
   -1.5187   -0.0307   -1.2209 C   0  0  2  0  0  0  0  0  0  0  0  0
   -1.6145   -0.9009    0.0162 C   0  0  0  0  0  0  0  0  0  0  0  0
   -4.3358   -1.5449   -1.0643 C   0  0  0  0  0  0  0  0  0  0  0  0
   -5.1617   -1.3597   -2.3059 C   0  0  0  0  0  0  0  0  0  0  0  0
   -6.6364   -1.2587   -2.0487 C   0  0  0  0  0  0  0  0  0  0  0  0
   -7.1720   -2.2043   -1.0391 C   0  0  0  0  0  0  0  0  0  0  0  0
   -6.1230   -3.2205   -0.6306 C   0  0  0  0  0  0  0  0  0  0  0  0
   -5.0038   -2.3427   -0.0097 C   0  0  0  0  0  0  0  0  0  0  0  0
   -0.8893    1.2821   -0.7225 C   0  0  0  0  0  0  0  0  0  0  0  0
    1.1578    2.0254    0.0658 C   0  0  0  0  0  0  0  0  0  0  0  0
    1.8211    1.7651    1.3727 C   0  0  0  0  0  0  0  0  0  0  0  0
    2.8676    0.6715    1.3352 C   0  0  0  0  0  0  0  0  0  0  0  0
    3.8890    1.0367    0.2767 C   0  0  0  0  0  0  0  0  0  0  0  0
    3.1063    1.0931   -1.0341 C   0  0  0  0  0  0  0  0  0  0  0  0
    2.2347    2.3425   -0.9738 C   0  0  0  0  0  0  0  0  0  0  0  0
    5.7141   -0.1463    1.3025 C   0  0  0  0  0  0  0  0  0  0  0  0
    6.6917   -1.2666    1.0056 C   0  0  0  0  0  0  0  0  0  0  0  0
    7.2117    0.3149   -0.6356 C   0  0  0  0  0  0  0  0  0  0  0  0
    5.7607    0.4734   -1.0033 C   0  0  0  0  0  0  0  0  0  0  0  0
    8.8748   -1.1906   -0.0002 C   0  0  0  0  0  0  0  0  0  0  0  0
    9.4792   -0.2178    1.0078 C   0  0  0  0  0  0  0  0  0  0  0  0
   -5.4039    1.3555    1.6612 C   0  0  0  0  0  0  0  0  0  0  0  0
   -5.7918    0.9581    0.3246 N   0  0  0  0  0  0  0  0  0  0  0  0
   -2.7901   -0.0920   -1.3575 O   0  0  0  0  0  0  0  0  0  0  0  0
   -7.8939   -4.4268   -0.8748 Cl  0  0  0  0  0  0  0  0  0  0  0  0
   -7.5919    2.0553    1.2298 C   0  0  0  0  0  0  0  0  0  0  0  0
   -6.6863    1.6696    2.2883 N   0  0  0  0  0  0  0  0  0  0  0  0
   -3.1854   -0.0191    0.8614 O   0  0  0  0  0  0  0  0  0  0  0  0
   -4.4914   -1.0419   -3.0571 Cl  0  0  0  0  0  0  0  0  0  0  0  0
   -6.7441    2.0283   -0.0220 C   0  0  0  0  0  0  0  0  0  0  0  0
    5.2076    0.2450    0.0090 N   0  0  0  0  0  0  0  0  0  0  0  0
    0.6884    0.6732   -0.9721 O   0  0  0  0  0  0  0  0  0  0  0  0
   -4.7275    0.8935   -0.6111 C   0  0  0  0  0  0  0  0  0  0  0  0
    8.0605    0.0166    0.5603 N   0  0  0  0  0  0  0  0  0  0  0  0
    8.4139    0.2603   -1.7292 O   0  0  0  0  0  0  0  0  0  0  0  0
   -3.7843   -0.2148   -0.3667 C   0  0  1  0  0  0  0  0  0  0  0  0
   -1.5493   -0.1249   -0.6945 C   0  0  2  0  0  0  0  0  0  0  0  0
   -1.9073    0.5083    0.5924 C   0  0  0  0  0  0  0  0  0  0  0  0
   -4.2850   -1.6126   -0.4330 C   0  0  0  0  0  0  0  0  0  0  0  0
   -4.9245   -2.0661   -1.6972 C   0  0  0  0  0  0  0  0  0  0  0  0
   -6.4174   -2.2434   -1.6043 C   0  0  0  0  0  0  0  0  0  0  0  0
   -6.9123   -3.0078   -0.4381 C   0  0  0  0  0  0  0  0  0  0  0  0
   -5.7676   -3.3651    0.4839 C   0  0  0  0  0  0  0  0  0  0  0  0
   -5.0765   -2.0075    0.7846 C   0  0  0  0  0  0  0  0  0  0  0  0
   -0.5422    0.6817   -1.4675 C   0  0  0  0  0  0  0  0  0  0  0  0
    1.0475    1.2061    0.1981 C   0  0  0  0  0  0  0  0  0  0  0  0
    1.6523    0.1771    1.1246 C   0  0  0  0  0  0  0  0  0  0  0  0
    2.9244   -0.4479    0.5711 C   0  0  0  0  0  0  0  0  0  0  0  0
    3.9360    0.7045    0.4771 C   0  0  0  0  0  0  0  0  0  0  0  0
    3.3387    1.6231   -0.5860 C   0  0  0  0  0  0  0  0  0  0  0  0
    2.1437    2.2919    0.0042 C   0  0  0  0  0  0  0  0  0  0  0  0
    5.7964   -0.7349    0.9116 C   0  0  0  0  0  0  0  0  0  0  0  0
    7.1863   -1.0986    0.4078 C   0  0  0  0  0  0  0  0  0  0  0  0
    7.3219    1.2145    0.7877 C   0  0  0  0  0  0  0  0  0  0  0  0
    6.1236    1.3577   -0.1102 C   0  0  0  0  0  0  0  0  0  0  0  0
    9.0482    0.1775   -0.4751 C   0  0  2  0  0  0  0  0  0  0  0  0
    9.9774   -1.0331   -0.4540 C   0  0  0  0  0  0  0  0  0  0  0  0
   -4.3311    1.4837    2.4567 H   0  0  0  0  0  0  0  0  0  0  0  0
   -4.2981   -0.3632    2.3377 H   0  0  0  0  0  0  0  0  0  0  0  0
   -7.2459    2.2675    2.9509 H   0  0  0  0  0  0  0  0  0  0  0  0
   -8.0085    0.8218    2.1708 H   0  0  0  0  0  0  0  0  0  0  0  0
   -6.4241   -0.4841    2.8969 H   0  0  0  0  0  0  0  0  0  0  0  0
   -7.1317    1.6407    0.1480 H   0  0  0  0  0  0  0  0  0  0  0  0
   -5.9332    2.7111    1.0421 H   0  0  0  0  0  0  0  0  0  0  0  0
   -3.8324    1.6561    0.1502 H   0  0  0  0  0  0  0  0  0  0  0  0
   -5.0020    1.3446   -1.1103 H   0  0  0  0  0  0  0  0  0  0  0  0
   10.1811   -1.6295   -1.4217 H   0  0  0  0  0  0  0  0  0  0  0  0
   -0.8573   -0.4509   -1.9828 H   0  0  0  0  0  0  0  0  0  0  0  0
   -0.8879   -0.5978    0.7976 H   0  0  0  0  0  0  0  0  0  0  0  0
   -1.5559   -1.9797   -0.2159 H   0  0  0  0  0  0  0  0  0  0  0  0
   -3.4489   -2.1838   -1.3921 H   0  0  0  0  0  0  0  0  0  0  0  0
   -5.0251   -2.2570   -2.9640 H   0  0  0  0  0  0  0  0  0  0  0  0
   -6.9697   -0.2269   -1.7902 H   0  0  0  0  0  0  0  0  0  0  0  0
   -7.1628   -1.4774   -3.0249 H   0  0  0  0  0  0  0  0  0  0  0  0
   -7.3973   -1.6337   -0.0909 H   0  0  0  0  0  0  0  0  0  0  0  0
   -5.7174   -3.7934   -1.4658 H   0  0  0  0  0  0  0  0  0  0  0  0
   -6.5168   -3.8197    0.2016 H   0  0  0  0  0  0  0  0  0  0  0  0
   -5.4896   -1.8139    0.8015 H   0  0  0  0  0  0  0  0  0  0  0  0
   -4.3235   -3.1129    0.4643 H   0  0  0  0  0  0  0  0  0  0  0  0
   -0.9745    2.0141   -1.5269 H   0  0  0  0  0  0  0  0  0  0  0  0
   -1.4452    1.5459    0.2069 H   0  0  0  0  0  0  0  0  0  0  0  0
    0.5347    2.9378    0.1472 H   0  0  0  0  0  0  0  0  0  0  0  0
    1.0450    1.5491    2.1406 H   0  0  0  0  0  0  0  0  0  0  0  0
    2.3389    2.6987    1.6875 H   0  0  0  0  0  0  0  0  0  0  0  0
    3.3896    0.7247    2.3138 H   0  0  0  0  0  0  0  0  0  0  0  0
    2.4477   -0.3221    1.1847 H   0  0  0  0  0  0  0  0  0  0  0  0
    4.3004    2.0281    0.5499 H   0  0  0  0  0  0  0  0  0  0  0  0
    2.3877    0.2256   -0.9922 H   0  0  0  0  0  0  0  0  0  0  0  0
    3.7442    1.0480   -1.9179 H   0  0  0  0  0  0  0  0  0  0  0  0
    2.8375    3.1992   -0.5851 H   0  0  0  0  0  0  0  0  0  0  0  0
    1.7549    2.5254   -1.9387 H   0  0  0  0  0  0  0  0  0  0  0  0
    5.0295   -0.5180    2.0974 H   0  0  0  0  0  0  0  0  0  0  0  0
    6.2229    0.7530    1.6556 H   0  0  0  0  0  0  0  0  0  0  0  0
    6.1465   -2.2286    0.8723 H   0  0  0  0  0  0  0  0  0  0  0  0
    7.3318   -1.4014    1.8982 H   0  0  0  0  0  0  0  0  0  0  0  0
    7.7972    0.4868   -1.5808 H   0  0  0  0  0  0  0  0  0  0  0  0
    7.5367    1.0582    0.1255 H   0  0  0  0  0  0  0  0  0  0  0  0
    5.5805    1.5555   -1.2785 H   0  0  0  0  0  0  0  0  0  0  0  0
    5.5498   -0.1497   -1.8807 H   0  0  0  0  0  0  0  0  0  0  0  0
    9.1410   -2.2088    0.3134 H   0  0  0  0  0  0  0  0  0  0  0  0
   10.4696   -0.6350    1.2919 H   0  0  0  0  0  0  0  0  0  0  0  0
    8.8407   -0.0430    1.8807 H   0  0  0  0  0  0  0  0  0  0  0  0
    9.6917    0.7729    0.5216 H   0  0  0  0  0  0  0  0  0  0  0  0
   -4.8112    2.2898    1.6042 H   0  0  0  0  0  0  0  0  0  0  0  0
   -4.8940    0.5479    2.2330 H   0  0  0  0  0  0  0  0  0  0  0  0
   -8.0406    3.0559    1.4131 H   0  0  0  0  0  0  0  0  0  0  0  0
   -8.4199    1.3183    1.0971 H   0  0  0  0  0  0  0  0  0  0  0  0
   -7.0165    0.7421    2.6923 H   0  0  0  0  0  0  0  0  0  0  0  0
   -7.3000    1.8078   -0.9368 H   0  0  0  0  0  0  0  0  0  0  0  0
   -6.1386    2.9588   -0.0735 H   0  0  0  0  0  0  0  0  0  0  0  0
   -4.1165    1.8384   -0.4375 H   0  0  0  0  0  0  0  0  0  0  0  0
   -5.0435    1.0174   -1.6675 H   0  0  0  0  0  0  0  0  0  0  0  0
    8.5955   -0.5841   -2.2093 H   0  0  0  0  0  0  0  0  0  0  0  0
   -1.2050   -1.1693   -0.5684 H   0  0  0  0  0  0  0  0  0  0  0  0
   -2.0562    1.5969    0.5703 H   0  0  0  0  0  0  0  0  0  0  0  0
   -1.2858    0.1903    1.4638 H   0  0  0  0  0  0  0  0  0  0  0  0
   -3.3250   -2.2310   -0.3302 H   0  0  0  0  0  0  0  0  0  0  0  0
   -4.5364   -3.0883   -1.9351 H   0  0  0  0  0  0  0  0  0  0  0  0
   -6.9692   -1.2845   -1.6754 H   0  0  0  0  0  0  0  0  0  0  0  0
   -6.7440   -2.8120   -2.5278 H   0  0  0  0  0  0  0  0  0  0  0  0
   -7.5821   -2.3414    0.1866 H   0  0  0  0  0  0  0  0  0  0  0  0
   -5.0521   -4.0520   -0.0085 H   0  0  0  0  0  0  0  0  0  0  0  0
   -6.1363   -3.7219    1.4644 H   0  0  0  0  0  0  0  0  0  0  0  0
   -5.9163   -1.3155    0.9149 H   0  0  0  0  0  0  0  0  0  0  0  0
   -4.4905   -2.1285    1.6964 H   0  0  0  0  0  0  0  0  0  0  0  0
   -0.5359    0.1895   -2.5030 H   0  0  0  0  0  0  0  0  0  0  0  0
   -0.9724    1.7190   -1.6252 H   0  0  0  0  0  0  0  0  0  0  0  0
    0.2521    1.7116    0.7992 H   0  0  0  0  0  0  0  0  0  0  0  0
    0.9345   -0.5770    1.4529 H   0  0  0  0  0  0  0  0  0  0  0  0
    2.0066    0.7703    2.0203 H   0  0  0  0  0  0  0  0  0  0  0  0
    3.2845   -1.1515    1.3289 H   0  0  0  0  0  0  0  0  0  0  0  0
    2.8150   -0.8674   -0.4279 H   0  0  0  0  0  0  0  0  0  0  0  0
    4.0674    1.2057    1.4464 H   0  0  0  0  0  0  0  0  0  0  0  0
    2.9869    0.9415   -1.3926 H   0  0  0  0  0  0  0  0  0  0  0  0
    4.0386    2.3401   -1.0011 H   0  0  0  0  0  0  0  0  0  0  0  0
    2.3777    2.5943    1.0601 H   0  0  0  0  0  0  0  0  0  0  0  0
    1.7233    3.1090   -0.5924 H   0  0  0  0  0  0  0  0  0  0  0  0
    5.2082   -1.6766    0.9262 H   0  0  0  0  0  0  0  0  0  0  0  0
    5.8498   -0.3805    1.9438 H   0  0  0  0  0  0  0  0  0  0  0  0
    7.0803   -1.3935   -0.6689 H   0  0  0  0  0  0  0  0  0  0  0  0
    7.5759   -1.9964    0.9332 H   0  0  0  0  0  0  0  0  0  0  0  0
    8.0172    2.0660    0.5931 H   0  0  0  0  0  0  0  0  0  0  0  0
    7.0041    1.2950    1.8522 H   0  0  0  0  0  0  0  0  0  0  0  0
    5.6224    2.3094    0.1946 H   0  0  0  0  0  0  0  0  0  0  0  0
    6.4926    1.4392   -1.1669 H   0  0  0  0  0  0  0  0  0  0  0  0
    9.5908    1.1294   -0.3088 H   0  0  0  0  0  0  0  0  0  0  0  0
   10.1256   -1.3983   -1.4868 H   0  0  0  0  0  0  0  0  0  0  0  0
    9.5612   -1.8015    0.2238 H   0  0  0  0  0  0  0  0  0  0  0  0
   10.9839   -0.7740   -0.0512 H   0  0  0  0  0  0  0  0  0  0  0  0
  1  2  1  0
  1  6  1  0
  5  6  1  0
  2  9  1  0
  5  9  1  0
  2 12  1  0
  3 15  1  0
  7 15  1  0
 15 12  1  1
  3 16  1  0
  7 17  1  0
 16 17  1  0
 15 18  1  0
  8 19  1  0
 18 19  1  0
 19 20  1  0
  4 21  1  0
 20 21  1  0
 21 22  1  0
 18 23  1  0
 22 23  1  0
 11 24  1  0
 16 24  1  0
 11 25  1  0
 25 26  1  0
 26 27  1  0
 10 28  1  0
 27 28  1  0
 28 29  1  0
 25 30  1  0
 29 30  1  0
 10 31  1  0
 13 32  1  0
 31 32  1  0
 13 33  1  0
 10 34  1  0
 33 34  1  0
 13 35  1  0
 14 35  1  0
 35 36  1  0
 37 38  1  0
 37 42  1  0
 41 42  1  0
 38 45  1  0
 41 45  1  0
 38 48  1  0
 39 51  1  0
 43 51  1  0
 51 48  1  6
 39 52  1  0
 43 53  1  0
 52 53  1  0
 51 54  1  0
 44 55  1  0
 54 55  1  0
 55 56  1  0
 40 57  1  0
 56 57  1  0
 57 58  1  0
 54 59  1  0
 58 59  1  0
 47 60  1  0
 52 60  1  0
 47 61  1  0
 61 62  1  0
 62 63  1  0
 46 64  1  0
 63 64  1  0
 64 65  1  0
 61 66  1  0
 65 66  1  0
 46 67  1  0
 49 68  1  0
 67 68  1  0
 49 69  1  0
 46 70  1  0
 69 70  1  0
 49 71  1  0
 50 71  1  0
 71 72  1  0
  1 73  1  0
  1 74  1  0
  5 75  1  0
  5 76  1  0
  6 77  1  0
  9 78  1  0
  9 79  1  0
 12 80  1  0
 12 81  1  0
 14 82  1  0
 16 83  1  6
 17 84  1  0
 17 85  1  0
 18 86  1  0
 19 87  1  0
 20 88  1  0
 20 89  1  0
 21 90  1  0
 22 91  1  0
 22 92  1  0
 23 93  1  0
 23 94  1  0
 24 95  1  0
 24 96  1  0
 25 97  1  0
 26 98  1  0
 26 99  1  0
 27100  1  0
 27101  1  0
 28102  1  0
 29103  1  0
 29104  1  0
 30105  1  0
 30106  1  0
 31107  1  0
 31108  1  0
 32109  1  0
 32110  1  0
 33111  1  0
 33112  1  0
 34113  1  0
 34114  1  0
 35115  1  0
 36116  1  0
 36117  1  0
 36118  1  0
 37119  1  0
 37120  1  0
 41121  1  0
 41122  1  0
 42123  1  0
 45124  1  0
 45125  1  0
 48126  1  0
 48127  1  0
 50128  1  0
 52129  1  1
 53130  1  0
 53131  1  0
 54132  1  0
 55133  1  0
 56134  1  0
 56135  1  0
 57136  1  0
 58137  1  0
 58138  1  0
 59139  1  0
 59140  1  0
 60141  1  0
 60142  1  0
 61143  1  0
 62144  1  0
 62145  1  0
 63146  1  0
 63147  1  0
 64148  1  0
 65149  1  0
 65150  1  0
 66151  1  0
 66152  1  0
 67153  1  0
 67154  1  0
 68155  1  0
 68156  1  0
 69157  1  0
 69158  1  0
 70159  1  0
 70160  1  0
 71161  1  1
 72162  1  0
 72163  1  0
 72164  1  0
M  END
>  <PDBID>  (1) 
3LD6

>  <PDB ID>  (1) 
3LD6

>  <Generic Name>  (1) 
Ketoconazole

>  <Brand Name>  (1) 
Apo-ketoconazole#Extina#Ketoconazole#Ketodan#Ketoderm Cream 2%#Nizoral#Nizoral  - 2%#Nizoral A-D#Nizoral Cream 2%#Nizoral Oral Suspension 20mg/ml#Nizoral Shp 2%#Nizoral Tablets 200mg#Nu-ketocon Tablets - 200mg#Teva-ketoconazole#Xolegel#Fungarest#Fungoral#Ketoderm#Ketoisdin#Ketozole#Nizoral Cream#Nizoral Shampoo#Orifungal#Orifungal M#Panfungol

>  <DrugBank ID>  (1) 
DB01026

>  <ATC Codes>  (1) 
G01AF11#D01AC08#J02AB02

>  <Ligand ID>  (1) 
KKK,KLN,KTN

>  <Target Name>  (1) 
Lanosterol 14-alpha demethylase

>  <UniProt ID>  (1) 
P10613

>  <PDB ID.1>  (1) 
3LD6

>  <Seq. Identity>  (1) 
40%

$$$$
