PDB_DB04786_04
     RDKit          3D

192199  0  0  0  0  0  0  0  0999 V2000
   14.0215    3.1197   -2.8529 O   0  0  0  0  0  0  0  0  0  0  0  0
   13.9027    2.8483   -1.0254 S   0  0  0  0  0  0  0  0  0  0  0  0
   12.4074    2.4378   -0.8338 O   0  0  0  0  0  0  0  0  0  0  0  0
   14.5129    3.9094   -0.3961 O   0  0  0  0  0  0  0  0  0  0  0  0
   14.8099    1.2484   -1.0278 C   0  0  0  0  0  0  0  0  0  0  0  0
   13.9691    0.3691   -1.9387 C   0  0  0  0  0  0  0  0  0  0  0  0
   14.2315   -1.0865   -1.7003 C   0  0  2  0  0  0  0  0  0  0  0  0
   13.5721   -2.1567   -2.8306 S   0  0  0  0  0  0  0  0  0  0  0  0
   14.4909   -1.7114   -4.3667 O   0  0  0  0  0  0  0  0  0  0  0  0
   13.9866   -3.5872   -2.5949 O   0  0  0  0  0  0  0  0  0  0  0  0
   12.1076   -1.7813   -3.3327 O   0  0  0  0  0  0  0  0  0  0  0  0
   14.8255    0.7762    0.3862 C   0  0  0  0  0  0  0  0  0  0  0  0
   14.9494   -0.6945    0.5706 C   0  0  0  0  0  0  0  0  0  0  0  0
   14.8671   -0.9917    2.0375 C   0  0  1  0  0  0  0  0  0  0  0  0
   15.9506   -0.0612    2.9264 S   0  0  0  0  0  0  0  0  0  0  0  0
   17.3761   -0.1341    2.5189 O   0  0  0  0  0  0  0  0  0  0  0  0
   15.9122   -0.9681    4.5365 O   0  0  0  0  0  0  0  0  0  0  0  0
   15.3212    1.3519    3.4130 O   0  0  0  0  0  0  0  0  0  0  0  0
   13.4388   -0.8475    2.5256 C   0  0  0  0  0  0  0  0  0  0  0  0
   12.5904   -1.7631    1.6868 C   0  0  0  0  0  0  0  0  0  0  0  0
   13.9569   -1.4968   -0.2663 C   0  0  0  0  0  0  0  0  0  0  0  0
   12.5857   -1.2205    0.2455 C   0  0  1  0  0  0  0  0  0  0  0  0
   11.4871   -1.6568   -0.4548 N   0  0  0  0  0  0  0  0  0  0  0  0
   10.1991   -1.2967   -0.5421 C   0  0  0  0  0  0  0  0  0  0  0  0
    9.5766   -2.1894   -1.5182 O   0  0  0  0  0  0  0  0  0  0  0  0
    9.1521   -1.1519    0.5070 C   0  0  2  0  0  0  0  0  0  0  0  0
    7.8391   -0.8409   -0.2883 C   0  0  0  0  0  0  0  0  0  0  0  0
    9.4895    0.0349    1.3684 C   0  0  0  0  0  0  0  0  0  0  0  0
    8.4074    0.5101    2.2889 C   0  0  0  0  0  0  0  0  0  0  0  0
    7.0053    0.4104    1.6767 C   0  0  0  0  0  0  0  0  0  0  0  0
    6.4008   -0.8396    2.1953 C   0  0  0  0  0  0  0  0  0  0  0  0
    7.2534    0.4426    0.1721 C   0  0  0  0  0  0  0  0  0  0  0  0
    6.3161    1.1005   -0.6066 N   0  0  0  0  0  0  0  0  0  0  0  0
    5.0250    0.8372   -0.9641 C   0  0  0  0  0  0  0  0  0  0  0  0
    4.7839   -0.3496   -1.6623 O   0  0  0  0  0  0  0  0  0  0  0  0
    3.9386    0.8992    0.0974 C   0  0  0  0  0  0  0  0  0  0  0  0
    2.5520    0.6234   -0.5137 C   0  0  0  0  0  0  0  0  0  0  0  0
    3.8852    2.2904    0.7014 C   0  0  0  0  0  0  0  0  0  0  0  0
    2.4638    2.5486    1.1252 C   0  0  0  0  0  0  0  0  0  0  0  0
    1.5468    2.7628   -0.0248 C   0  0  0  0  0  0  0  0  0  0  0  0
    2.0354    1.8501   -1.2007 C   0  0  0  0  0  0  0  0  0  0  0  0
    0.9869    1.6625   -2.0875 N   0  0  0  0  0  0  0  0  0  0  0  0
   -0.3499    1.4732   -1.7286 C   0  0  0  0  0  0  0  0  0  0  0  0
   -1.1042    1.3774   -2.9347 O   0  0  0  0  0  0  0  0  0  0  0  0
   -0.6966    0.4177   -0.8996 N   0  0  0  0  0  0  0  0  0  0  0  0
   -1.9821    0.3524   -0.3031 C   0  0  0  0  0  0  0  0  0  0  0  0
   -2.6128   -0.9816   -0.4063 C   0  0  0  0  0  0  0  0  0  0  0  0
   -2.9435    1.4443   -0.5732 C   0  0  0  0  0  0  0  0  0  0  0  0
   -3.9072    1.2790   -1.6858 C   0  0  0  0  0  0  0  0  0  0  0  0
   -3.9272   -0.0540   -2.3537 C   0  0  0  0  0  0  0  0  0  0  0  0
   -3.7249   -1.1760   -1.3520 C   0  0  2  0  0  0  0  0  0  0  0  0
   -5.0012   -1.5999   -0.7160 C   0  0  0  0  0  0  0  0  0  0  0  0
   -5.9627   -1.7725   -1.7350 O   0  0  0  0  0  0  0  0  0  0  0  0
   -5.4918   -0.6019    0.2305 N   0  0  0  0  0  0  0  0  0  0  0  0
   -6.9705   -0.6032    0.1048 C   0  0  0  0  0  0  0  0  0  0  0  0
   -7.5002   -1.9758    0.4439 C   0  0  0  0  0  0  0  0  0  0  0  0
   -7.5715    0.4599    0.9122 C   0  0  0  0  0  0  0  0  0  0  0  0
   -6.8369    1.7518    0.8426 C   0  0  0  0  0  0  0  0  0  0  0  0
   -7.8429    0.0959    2.3499 C   0  0  0  0  0  0  0  0  0  0  0  0
   -8.7620   -1.1050    2.4572 C   0  0  0  0  0  0  0  0  0  0  0  0
   -8.7807   -1.9862    1.2550 C   0  0  0  0  0  0  0  0  0  0  0  0
  -10.0133   -2.1907    0.5042 C   0  0  0  0  0  0  0  0  0  0  0  0
   -9.9193   -3.4750   -0.1932 O   0  0  0  0  0  0  0  0  0  0  0  0
  -10.7591   -1.3910   -0.2915 N   0  0  0  0  0  0  0  0  0  0  0  0
  -11.5228   -0.2683    0.0984 C   0  0  0  0  0  0  0  0  0  0  0  0
  -11.2955    1.0097   -0.6441 C   0  0  0  0  0  0  0  0  0  0  0  0
  -11.9953    2.1339    0.1110 C   0  0  0  0  0  0  0  0  0  0  0  0
  -13.4818    1.8126   -0.0495 C   0  0  2  0  0  0  0  0  0  0  0  0
  -14.3788    3.1324    0.6604 S   0  0  0  0  0  0  0  0  0  0  0  0
  -15.8780    2.9108    0.4634 O   0  0  0  0  0  0  0  0  0  0  0  0
  -14.0346    4.3285   -0.8013 O   0  0  0  0  0  0  0  0  0  0  0  0
  -13.7289    3.8780    1.7512 O   0  0  0  0  0  0  0  0  0  0  0  0
  -12.9939   -0.6374    0.1597 C   0  0  0  0  0  0  0  0  0  0  0  0
  -13.7782    0.5492    0.6859 C   0  0  0  0  0  0  0  0  0  0  0  0
  -15.2657    0.2585    0.5269 C   0  0  0  0  0  0  0  0  0  0  0  0
  -13.6350   -1.1114   -1.0665 C   0  0  1  0  0  0  0  0  0  0  0  0
  -12.7754   -1.9449   -2.2360 S   0  0  0  0  0  0  0  0  0  0  0  0
  -14.5089   -2.3241   -3.2599 O   0  0  0  0  0  0  0  0  0  0  0  0
  -12.4808   -0.7387   -3.5681 O   0  0  0  0  0  0  0  0  0  0  0  0
  -12.1462   -3.0394   -2.3911 O   0  0  0  0  0  0  0  0  0  0  0  0
  -14.8654   -1.9173   -0.5501 C   0  0  0  0  0  0  0  0  0  0  0  0
  -15.4814   -1.2110    0.6219 C   0  0  2  0  0  0  0  0  0  0  0  0
  -17.1851   -1.5915    0.6402 S   0  0  0  0  0  0  0  0  0  0  0  0
  -16.9769   -3.4477    0.8531 O   0  0  0  0  0  0  0  0  0  0  0  0
  -17.9302   -1.4830   -0.5705 O   0  0  0  0  0  0  0  0  0  0  0  0
  -17.7441   -1.2443    2.0877 O   0  0  0  0  0  0  0  0  0  0  0  0
   13.2465    3.7047   -2.9933 H   0  0  0  0  0  0  0  0  0  0  0  0
   11.8079    3.1056   -0.4642 H   0  0  0  0  0  0  0  0  0  0  0  0
   15.4112    4.2914   -0.4656 H   0  0  0  0  0  0  0  0  0  0  0  0
   15.8108    1.4771   -1.4418 H   0  0  0  0  0  0  0  0  0  0  0  0
   12.8904    0.6266   -1.9035 H   0  0  0  0  0  0  0  0  0  0  0  0
   14.2935    0.6277   -2.9643 H   0  0  0  0  0  0  0  0  0  0  0  0
   15.3732   -1.2109   -1.7502 H   0  0  0  0  0  0  0  0  0  0  0  0
   14.3317   -0.7480   -4.3739 H   0  0  0  0  0  0  0  0  0  0  0  0
   13.4616   -4.3949   -2.5090 H   0  0  0  0  0  0  0  0  0  0  0  0
   11.8950   -2.1096   -4.2448 H   0  0  0  0  0  0  0  0  0  0  0  0
   13.9992    1.2499    0.9857 H   0  0  0  0  0  0  0  0  0  0  0  0
   15.7563    1.2244    0.8512 H   0  0  0  0  0  0  0  0  0  0  0  0
   15.9610   -0.9903    0.2057 H   0  0  0  0  0  0  0  0  0  0  0  0
   15.1302   -2.0830    2.1375 H   0  0  0  0  0  0  0  0  0  0  0  0
   17.8868    0.6874    2.2896 H   0  0  0  0  0  0  0  0  0  0  0  0
   16.5675   -1.6916    4.3282 H   0  0  0  0  0  0  0  0  0  0  0  0
   15.9901    1.9511    3.8618 H   0  0  0  0  0  0  0  0  0  0  0  0
   13.4341   -1.1874    3.5888 H   0  0  0  0  0  0  0  0  0  0  0  0
   13.0746    0.1893    2.5135 H   0  0  0  0  0  0  0  0  0  0  0  0
   13.1997   -2.7423    1.6570 H   0  0  0  0  0  0  0  0  0  0  0  0
   11.6261   -1.9285    2.0878 H   0  0  0  0  0  0  0  0  0  0  0  0
   14.2326   -2.5656   -0.1886 H   0  0  0  0  0  0  0  0  0  0  0  0
   12.4965   -0.0849    0.3788 H   0  0  0  0  0  0  0  0  0  0  0  0
   11.6162   -2.6778   -0.8196 H   0  0  0  0  0  0  0  0  0  0  0  0
   10.1697   -0.3109   -1.1882 H   0  0  0  0  0  0  0  0  0  0  0  0
    9.5270   -1.7791   -2.3886 H   0  0  0  0  0  0  0  0  0  0  0  0
    9.0682   -2.0414    1.1065 H   0  0  0  0  0  0  0  0  0  0  0  0
    8.0927   -0.7089   -1.3767 H   0  0  0  0  0  0  0  0  0  0  0  0
    7.2526   -1.7389   -0.2300 H   0  0  0  0  0  0  0  0  0  0  0  0
    9.9720    0.8781    0.7772 H   0  0  0  0  0  0  0  0  0  0  0  0
   10.3090   -0.2559    2.0531 H   0  0  0  0  0  0  0  0  0  0  0  0
    8.6112    1.5756    2.4982 H   0  0  0  0  0  0  0  0  0  0  0  0
    8.4462   -0.0127    3.2595 H   0  0  0  0  0  0  0  0  0  0  0  0
    6.4344    1.2925    1.9524 H   0  0  0  0  0  0  0  0  0  0  0  0
    5.3846   -0.6832    2.6796 H   0  0  0  0  0  0  0  0  0  0  0  0
    7.0125   -1.1845    3.0852 H   0  0  0  0  0  0  0  0  0  0  0  0
    6.3923   -1.7094    1.5335 H   0  0  0  0  0  0  0  0  0  0  0  0
    8.1675    1.1513    0.1081 H   0  0  0  0  0  0  0  0  0  0  0  0
    6.6892    2.0351   -1.0157 H   0  0  0  0  0  0  0  0  0  0  0  0
    4.6997    1.6319   -1.7127 H   0  0  0  0  0  0  0  0  0  0  0  0
    4.9312   -1.0929   -1.0368 H   0  0  0  0  0  0  0  0  0  0  0  0
    4.0719    0.1719    0.8935 H   0  0  0  0  0  0  0  0  0  0  0  0
    1.8438    0.2423    0.2034 H   0  0  0  0  0  0  0  0  0  0  0  0
    2.7501   -0.1234   -1.3326 H   0  0  0  0  0  0  0  0  0  0  0  0
    4.4971    2.4147    1.6052 H   0  0  0  0  0  0  0  0  0  0  0  0
    4.2522    3.0544   -0.0208 H   0  0  0  0  0  0  0  0  0  0  0  0
    2.1747    1.6844    1.7957 H   0  0  0  0  0  0  0  0  0  0  0  0
    2.4994    3.4149    1.8298 H   0  0  0  0  0  0  0  0  0  0  0  0
    1.5667    3.8116   -0.3330 H   0  0  0  0  0  0  0  0  0  0  0  0
    0.5330    2.3893    0.2935 H   0  0  0  0  0  0  0  0  0  0  0  0
    2.8242    2.4622   -1.6786 H   0  0  0  0  0  0  0  0  0  0  0  0
    1.1218    2.1265   -3.0291 H   0  0  0  0  0  0  0  0  0  0  0  0
   -0.7780    2.4298   -1.2560 H   0  0  0  0  0  0  0  0  0  0  0  0
   -1.3867    2.2808   -3.2321 H   0  0  0  0  0  0  0  0  0  0  0  0
   -0.1589   -0.4165   -0.8145 H   0  0  0  0  0  0  0  0  0  0  0  0
   -1.7366    0.4815    0.8420 H   0  0  0  0  0  0  0  0  0  0  0  0
   -1.7915   -1.7488   -0.5327 H   0  0  0  0  0  0  0  0  0  0  0  0
   -3.0069   -1.2681    0.6393 H   0  0  0  0  0  0  0  0  0  0  0  0
   -3.5857    1.5082    0.3865 H   0  0  0  0  0  0  0  0  0  0  0  0
   -2.4921    2.4747   -0.5699 H   0  0  0  0  0  0  0  0  0  0  0  0
   -3.6910    2.0566   -2.4712 H   0  0  0  0  0  0  0  0  0  0  0  0
   -4.9498    1.5770   -1.3426 H   0  0  0  0  0  0  0  0  0  0  0  0
   -3.3046   -0.1328   -3.2521 H   0  0  0  0  0  0  0  0  0  0  0  0
   -4.9850   -0.1990   -2.7361 H   0  0  0  0  0  0  0  0  0  0  0  0
   -3.4136   -2.0613   -2.0178 H   0  0  0  0  0  0  0  0  0  0  0  0
   -4.8700   -2.5356   -0.1840 H   0  0  0  0  0  0  0  0  0  0  0  0
   -5.4985   -2.1878   -2.4946 H   0  0  0  0  0  0  0  0  0  0  0  0
   -5.2683   -0.8805    1.2168 H   0  0  0  0  0  0  0  0  0  0  0  0
   -7.1696   -0.4329   -0.9709 H   0  0  0  0  0  0  0  0  0  0  0  0
   -6.6819   -2.4745    1.0232 H   0  0  0  0  0  0  0  0  0  0  0  0
   -7.6650   -2.6280   -0.4350 H   0  0  0  0  0  0  0  0  0  0  0  0
   -8.6097    0.7129    0.4917 H   0  0  0  0  0  0  0  0  0  0  0  0
   -7.0156    2.1512   -0.2051 H   0  0  0  0  0  0  0  0  0  0  0  0
   -5.7694    1.6983    1.0008 H   0  0  0  0  0  0  0  0  0  0  0  0
   -7.3274    2.5392    1.4873 H   0  0  0  0  0  0  0  0  0  0  0  0
   -6.9189   -0.1392    2.8999 H   0  0  0  0  0  0  0  0  0  0  0  0
   -8.3172    0.9641    2.8527 H   0  0  0  0  0  0  0  0  0  0  0  0
   -9.7791   -0.7445    2.6965 H   0  0  0  0  0  0  0  0  0  0  0  0
   -8.4864   -1.6937    3.4020 H   0  0  0  0  0  0  0  0  0  0  0  0
   -8.6612   -3.0532    1.7801 H   0  0  0  0  0  0  0  0  0  0  0  0
  -10.7700   -2.5661    1.3441 H   0  0  0  0  0  0  0  0  0  0  0  0
   -9.4144   -4.0868    0.3978 H   0  0  0  0  0  0  0  0  0  0  0  0
  -10.4260   -1.2965   -1.3069 H   0  0  0  0  0  0  0  0  0  0  0  0
  -11.2769   -0.0270    1.1683 H   0  0  0  0  0  0  0  0  0  0  0  0
  -11.6781    0.9699   -1.6934 H   0  0  0  0  0  0  0  0  0  0  0  0
  -10.2482    1.2515   -0.7218 H   0  0  0  0  0  0  0  0  0  0  0  0
  -11.7438    3.0780   -0.3654 H   0  0  0  0  0  0  0  0  0  0  0  0
  -11.7332    2.0571    1.1610 H   0  0  0  0  0  0  0  0  0  0  0  0
  -13.7413    1.7741   -1.1296 H   0  0  0  0  0  0  0  0  0  0  0  0
  -16.3376    3.4676   -0.2261 H   0  0  0  0  0  0  0  0  0  0  0  0
  -14.4883    3.7930   -1.4870 H   0  0  0  0  0  0  0  0  0  0  0  0
  -13.5035    4.8525    1.6742 H   0  0  0  0  0  0  0  0  0  0  0  0
  -13.0623   -1.4159    0.9574 H   0  0  0  0  0  0  0  0  0  0  0  0
  -13.5150    0.6795    1.7501 H   0  0  0  0  0  0  0  0  0  0  0  0
  -15.6389    0.6061   -0.4701 H   0  0  0  0  0  0  0  0  0  0  0  0
  -15.7975    0.7571    1.3571 H   0  0  0  0  0  0  0  0  0  0  0  0
  -14.1512   -0.2229   -1.5532 H   0  0  0  0  0  0  0  0  0  0  0  0
  -14.5907   -3.1732   -2.7995 H   0  0  0  0  0  0  0  0  0  0  0  0
  -13.2616   -0.1383   -3.4697 H   0  0  0  0  0  0  0  0  0  0  0  0
  -11.3046   -3.5366   -2.5650 H   0  0  0  0  0  0  0  0  0  0  0  0
  -14.4283   -2.8675   -0.1816 H   0  0  0  0  0  0  0  0  0  0  0  0
  -15.5622   -2.1442   -1.3523 H   0  0  0  0  0  0  0  0  0  0  0  0
  -15.0818   -1.5769    1.6100 H   0  0  0  0  0  0  0  0  0  0  0  0
  -16.4385   -3.4172    1.6861 H   0  0  0  0  0  0  0  0  0  0  0  0
  -17.6019   -1.5002   -1.4829 H   0  0  0  0  0  0  0  0  0  0  0  0
  -17.0597   -1.0126    2.7595 H   0  0  0  0  0  0  0  0  0  0  0  0
  2  1  1  0
  2  3  1  0
  2  4  1  0
  2  5  1  0
  5  6  1  0
  6  7  1  0
  7  8  1  0
  8  9  1  0
  8 10  1  0
  8 11  1  0
  5 12  1  0
 12 13  1  0
 13 14  1  0
 14 15  1  0
 15 16  1  0
 15 17  1  0
 15 18  1  0
 14 19  1  0
 19 20  1  0
  7 21  1  0
 13 21  1  0
 20 22  1  0
 21 22  1  0
 22 23  1  0
 23 24  1  0
 24 25  1  0
 24 26  1  0
 26 27  1  0
 26 28  1  0
 28 29  1  0
 29 30  1  0
 30 31  1  0
 27 32  1  0
 30 32  1  0
 32 33  1  0
 33 34  1  0
 34 35  1  0
 34 36  1  0
 36 37  1  0
 36 38  1  0
 38 39  1  0
 39 40  1  0
 37 41  1  0
 40 41  1  0
 41 42  1  0
 42 43  1  0
 43 44  1  0
 43 45  1  0
 45 46  1  0
 46 47  1  0
 46 48  1  0
 48 49  1  0
 49 50  1  0
 47 51  1  0
 50 51  1  0
 51 52  1  0
 52 53  1  0
 52 54  1  0
 54 55  1  0
 55 56  1  0
 55 57  1  0
 57 58  1  0
 57 59  1  0
 59 60  1  0
 56 61  1  0
 60 61  1  0
 61 62  1  0
 62 63  1  0
 62 64  1  0
 64 65  1  0
 65 66  1  0
 66 67  1  0
 67 68  1  0
 68 69  1  0
 69 70  1  0
 69 71  1  0
 69 72  1  0
 65 73  1  0
 68 74  1  0
 73 74  1  0
 74 75  1  0
 73 76  1  0
 76 77  1  0
 77 78  1  0
 77 79  1  0
 77 80  1  0
 76 81  1  0
 75 82  1  0
 81 82  1  0
 82 83  1  0
 83 84  1  0
 83 85  1  0
 83 86  1  0
  1 87  1  0
  3 88  1  0
  4 89  1  0
  5 90  1  0
  6 91  1  0
  6 92  1  0
  7 93  1  1
  9 94  1  0
 10 95  1  0
 11 96  1  0
 12 97  1  0
 12 98  1  0
 13 99  1  0
 14100  1  6
 16101  1  0
 17102  1  0
 18103  1  0
 19104  1  0
 19105  1  0
 20106  1  0
 20107  1  0
 21108  1  0
 22109  1  1
 23110  1  0
 24111  1  0
 25112  1  0
 26113  1  1
 27114  1  0
 27115  1  0
 28116  1  0
 28117  1  0
 29118  1  0
 29119  1  0
 30120  1  0
 31121  1  0
 31122  1  0
 31123  1  0
 32124  1  0
 33125  1  0
 34126  1  0
 35127  1  0
 36128  1  0
 37129  1  0
 37130  1  0
 38131  1  0
 38132  1  0
 39133  1  0
 39134  1  0
 40135  1  0
 40136  1  0
 41137  1  0
 42138  1  0
 43139  1  0
 44140  1  0
 45141  1  0
 46142  1  0
 47143  1  0
 47144  1  0
 48145  1  0
 48146  1  0
 49147  1  0
 49148  1  0
 50149  1  0
 50150  1  0
 51151  1  6
 52152  1  0
 53153  1  0
 54154  1  0
 55155  1  0
 56156  1  0
 56157  1  0
 57158  1  0
 58159  1  0
 58160  1  0
 58161  1  0
 59162  1  0
 59163  1  0
 60164  1  0
 60165  1  0
 61166  1  0
 62167  1  0
 63168  1  0
 64169  1  0
 65170  1  0
 66171  1  0
 66172  1  0
 67173  1  0
 67174  1  0
 68175  1  6
 70176  1  0
 71177  1  0
 72178  1  0
 73179  1  0
 74180  1  0
 75181  1  0
 75182  1  0
 76183  1  6
 78184  1  0
 79185  1  0
 80186  1  0
 81187  1  0
 81188  1  0
 82189  1  1
 84190  1  0
 85191  1  0
 86192  1  0
M  END
>  <PDBID>  (1) 
2NYR

>  <PDB ID>  (1) 
2NYR

>  <Generic Name>  (1) 
Suramin

>  <Brand Name>  (1) 
309 Fourneau#Antrypol#Bayer 205#Belganyl#Germanin#Moranyl#Naganin#Naganine#Naganol#Naphuride

>  <DrugBank ID>  (1) 
DB04786

>  <ATC Codes>  (1) 
P01CX02

>  <Ligand ID>  (1) 
SVR

>  <Target Name>  (1) 
NAD-dependent protein deacylase sirtuin-5, mitochondrial

>  <UniProt ID>  (1) 
Q9NXA8

>  <PDB ID.1>  (1) 
2NYR

>  <Seq. Identity>  (1) 
100%

$$$$
