PDB_DB08895_08
     RDKit          3D

114118  0  0  0  0  0  0  0  0999 V2000
    0.3077   -1.0013   -0.7569 C   0  0  1  0  0  0  0  0  0  0  0  0
    1.3188   -0.0173   -0.3081 C   0  0  0  0  0  0  0  0  0  0  0  0
    2.7566   -1.8409   -1.0084 C   0  0  0  0  0  0  0  0  0  0  0  0
    1.8747   -2.8404   -0.3406 C   0  0  0  0  0  0  0  0  0  0  0  0
    0.4186   -2.4056   -0.3262 C   0  0  1  0  0  0  0  0  0  0  0  0
    2.6601   -0.5227   -0.4259 N   0  0  0  0  0  0  0  0  0  0  0  0
    2.8906   -1.0235    1.8610 O   0  0  0  0  0  0  0  0  0  0  0  0
    3.4492   -0.3681    0.7637 C   0  0  0  0  0  0  0  0  0  0  0  0
    3.6484    1.0991    1.0538 C   0  0  0  0  0  0  0  0  0  0  0  0
    4.3808    1.6852   -0.1511 C   0  0  0  0  0  0  0  0  0  0  0  0
    4.6408    3.0953    0.0313 N   0  0  0  0  0  0  0  0  0  0  0  0
   -0.2856   -2.8597    0.9043 C   0  0  0  0  0  0  0  0  0  0  0  0
   -1.0069   -0.5047   -0.9939 N   0  0  0  0  0  0  0  0  0  0  0  0
   -0.9197    0.3507   -2.2233 C   0  0  0  0  0  0  0  0  0  0  0  0
   -1.6454    0.3039   -0.0413 C   0  0  0  0  0  0  0  0  0  0  0  0
   -3.0897    0.1587    0.1847 C   0  0  0  0  0  0  0  0  0  0  0  0
   -4.0415   -0.1717   -0.8523 C   0  0  0  0  0  0  0  0  0  0  0  0
   -5.3294    0.4953   -0.3424 C   0  0  0  0  0  0  0  0  0  0  0  0
   -4.9186    1.3136    0.8143 N   0  0  0  0  0  0  0  0  0  0  0  0
   -3.5731    1.5978    0.5012 C   0  0  0  0  0  0  0  0  0  0  0  0
   -2.7110    2.1491    1.4432 N   0  0  0  0  0  0  0  0  0  0  0  0
   -1.7282    1.3869    2.0863 C   0  0  0  0  0  0  0  0  0  0  0  0
   -1.1149    0.3103    1.3213 N   0  0  0  0  0  0  0  0  0  0  0  0
    0.3077   -1.0013   -0.7569 C   0  0  1  0  0  0  0  0  0  0  0  0
    1.3188   -0.0173   -0.3081 C   0  0  0  0  0  0  0  0  0  0  0  0
    2.7566   -1.8409   -1.0084 C   0  0  0  0  0  0  0  0  0  0  0  0
    1.8747   -2.8404   -0.3406 C   0  0  0  0  0  0  0  0  0  0  0  0
    0.4186   -2.4056   -0.3262 C   0  0  1  0  0  0  0  0  0  0  0  0
    2.6601   -0.5227   -0.4259 N   0  0  0  0  0  0  0  0  0  0  0  0
    2.8906   -1.0235    1.8610 O   0  0  0  0  0  0  0  0  0  0  0  0
    3.4492   -0.3681    0.7637 C   0  0  0  0  0  0  0  0  0  0  0  0
    3.6484    1.0991    1.0538 C   0  0  0  0  0  0  0  0  0  0  0  0
    4.3808    1.6852   -0.1511 C   0  0  0  0  0  0  0  0  0  0  0  0
    4.6408    3.0953    0.0313 N   0  0  0  0  0  0  0  0  0  0  0  0
   -0.2856   -2.8597    0.9043 C   0  0  0  0  0  0  0  0  0  0  0  0
   -1.0069   -0.5047   -0.9939 N   0  0  0  0  0  0  0  0  0  0  0  0
   -0.9197    0.3507   -2.2233 C   0  0  0  0  0  0  0  0  0  0  0  0
   -1.6454    0.3039   -0.0413 C   0  0  0  0  0  0  0  0  0  0  0  0
   -3.0897    0.1587    0.1847 C   0  0  0  0  0  0  0  0  0  0  0  0
   -4.0415   -0.1717   -0.8523 C   0  0  0  0  0  0  0  0  0  0  0  0
   -5.3294    0.4953   -0.3424 C   0  0  0  0  0  0  0  0  0  0  0  0
   -4.9186    1.3136    0.8143 N   0  0  0  0  0  0  0  0  0  0  0  0
   -3.5731    1.5978    0.5012 C   0  0  0  0  0  0  0  0  0  0  0  0
   -2.7110    2.1491    1.4432 N   0  0  0  0  0  0  0  0  0  0  0  0
   -1.7282    1.3869    2.0863 C   0  0  0  0  0  0  0  0  0  0  0  0
   -1.1149    0.3103    1.3213 N   0  0  0  0  0  0  0  0  0  0  0  0
    0.7082   -1.1338   -1.8964 H   0  0  0  0  0  0  0  0  0  0  0  0
    1.2016    0.3242    0.7328 H   0  0  0  0  0  0  0  0  0  0  0  0
    1.3024    0.8469   -1.0294 H   0  0  0  0  0  0  0  0  0  0  0  0
    3.8222   -2.1774   -0.8578 H   0  0  0  0  0  0  0  0  0  0  0  0
    2.5978   -1.8408   -2.0929 H   0  0  0  0  0  0  0  0  0  0  0  0
    2.2027   -3.0613    0.6994 H   0  0  0  0  0  0  0  0  0  0  0  0
    1.9318   -3.7899   -0.9055 H   0  0  0  0  0  0  0  0  0  0  0  0
   -0.1185   -3.0090   -1.1673 H   0  0  0  0  0  0  0  0  0  0  0  0
    3.5522   -1.0790    2.6128 H   0  0  0  0  0  0  0  0  0  0  0  0
    4.4691   -0.8195    0.5843 H   0  0  0  0  0  0  0  0  0  0  0  0
    2.6989    1.6146    1.2405 H   0  0  0  0  0  0  0  0  0  0  0  0
    4.3039    1.1628    1.9467 H   0  0  0  0  0  0  0  0  0  0  0  0
    3.7322    1.5812   -1.0542 H   0  0  0  0  0  0  0  0  0  0  0  0
    5.3444    1.1532   -0.3058 H   0  0  0  0  0  0  0  0  0  0  0  0
    5.6922    3.2608   -0.0216 H   0  0  0  0  0  0  0  0  0  0  0  0
    4.2439    3.4915    0.9104 H   0  0  0  0  0  0  0  0  0  0  0  0
    0.1472   -2.3968    1.7952 H   0  0  0  0  0  0  0  0  0  0  0  0
   -1.3701   -2.6423    0.8571 H   0  0  0  0  0  0  0  0  0  0  0  0
   -0.2573   -3.9957    0.9809 H   0  0  0  0  0  0  0  0  0  0  0  0
   -1.0758    1.4060   -1.9938 H   0  0  0  0  0  0  0  0  0  0  0  0
    0.0887    0.2528   -2.6605 H   0  0  0  0  0  0  0  0  0  0  0  0
   -1.6227   -0.0464   -2.9911 H   0  0  0  0  0  0  0  0  0  0  0  0
   -1.4344    1.3899   -0.3641 H   0  0  0  0  0  0  0  0  0  0  0  0
   -3.3670   -0.4071    1.1111 H   0  0  0  0  0  0  0  0  0  0  0  0
   -4.2590   -1.2819   -0.8333 H   0  0  0  0  0  0  0  0  0  0  0  0
   -3.8816    0.2016   -1.8602 H   0  0  0  0  0  0  0  0  0  0  0  0
   -6.0986   -0.2380   -0.0589 H   0  0  0  0  0  0  0  0  0  0  0  0
   -5.7370    1.2035   -1.0816 H   0  0  0  0  0  0  0  0  0  0  0  0
   -5.4767    2.1773    0.8665 H   0  0  0  0  0  0  0  0  0  0  0  0
   -3.5304    2.1378   -0.4881 H   0  0  0  0  0  0  0  0  0  0  0  0
   -3.1539    2.8089    2.0816 H   0  0  0  0  0  0  0  0  0  0  0  0
   -2.1760    1.0192    3.0586 H   0  0  0  0  0  0  0  0  0  0  0  0
   -0.8960    2.0435    2.4173 H   0  0  0  0  0  0  0  0  0  0  0  0
   -1.5668   -0.5467    1.7781 H   0  0  0  0  0  0  0  0  0  0  0  0
    0.7082   -1.1338   -1.8964 H   0  0  0  0  0  0  0  0  0  0  0  0
    1.2016    0.3242    0.7328 H   0  0  0  0  0  0  0  0  0  0  0  0
    1.3024    0.8469   -1.0294 H   0  0  0  0  0  0  0  0  0  0  0  0
    3.8222   -2.1774   -0.8578 H   0  0  0  0  0  0  0  0  0  0  0  0
    2.5978   -1.8408   -2.0929 H   0  0  0  0  0  0  0  0  0  0  0  0
    2.2027   -3.0613    0.6994 H   0  0  0  0  0  0  0  0  0  0  0  0
    1.9318   -3.7899   -0.9055 H   0  0  0  0  0  0  0  0  0  0  0  0
   -0.1185   -3.0090   -1.1673 H   0  0  0  0  0  0  0  0  0  0  0  0
    3.5522   -1.0790    2.6128 H   0  0  0  0  0  0  0  0  0  0  0  0
    4.4691   -0.8195    0.5843 H   0  0  0  0  0  0  0  0  0  0  0  0
    2.6989    1.6146    1.2405 H   0  0  0  0  0  0  0  0  0  0  0  0
    4.3039    1.1628    1.9467 H   0  0  0  0  0  0  0  0  0  0  0  0
    3.7322    1.5812   -1.0542 H   0  0  0  0  0  0  0  0  0  0  0  0
    5.3444    1.1532   -0.3058 H   0  0  0  0  0  0  0  0  0  0  0  0
    5.6922    3.2608   -0.0216 H   0  0  0  0  0  0  0  0  0  0  0  0
    4.2439    3.4915    0.9104 H   0  0  0  0  0  0  0  0  0  0  0  0
    0.1472   -2.3968    1.7952 H   0  0  0  0  0  0  0  0  0  0  0  0
   -1.3701   -2.6423    0.8571 H   0  0  0  0  0  0  0  0  0  0  0  0
   -0.2573   -3.9957    0.9809 H   0  0  0  0  0  0  0  0  0  0  0  0
   -1.0758    1.4060   -1.9938 H   0  0  0  0  0  0  0  0  0  0  0  0
    0.0887    0.2528   -2.6605 H   0  0  0  0  0  0  0  0  0  0  0  0
   -1.6227   -0.0464   -2.9911 H   0  0  0  0  0  0  0  0  0  0  0  0
   -1.4344    1.3899   -0.3641 H   0  0  0  0  0  0  0  0  0  0  0  0
   -3.3670   -0.4071    1.1111 H   0  0  0  0  0  0  0  0  0  0  0  0
   -4.2590   -1.2819   -0.8333 H   0  0  0  0  0  0  0  0  0  0  0  0
   -3.8816    0.2016   -1.8602 H   0  0  0  0  0  0  0  0  0  0  0  0
   -6.0986   -0.2380   -0.0589 H   0  0  0  0  0  0  0  0  0  0  0  0
   -5.7370    1.2035   -1.0816 H   0  0  0  0  0  0  0  0  0  0  0  0
   -5.4767    2.1773    0.8665 H   0  0  0  0  0  0  0  0  0  0  0  0
   -3.5304    2.1378   -0.4881 H   0  0  0  0  0  0  0  0  0  0  0  0
   -3.1539    2.8089    2.0816 H   0  0  0  0  0  0  0  0  0  0  0  0
   -2.1760    1.0192    3.0586 H   0  0  0  0  0  0  0  0  0  0  0  0
   -0.8960    2.0435    2.4173 H   0  0  0  0  0  0  0  0  0  0  0  0
   -1.5668   -0.5467    1.7781 H   0  0  0  0  0  0  0  0  0  0  0  0
  1  2  1  0
  3  4  1  0
  1  5  1  0
  4  5  1  0
  2  6  1  0
  3  6  1  0
  6  8  1  0
  7  8  1  0
  8  9  1  0
  9 10  1  0
 10 11  1  0
  5 12  1  0
  1 13  1  0
 13 14  1  0
 13 15  1  0
 15 16  1  0
 16 17  1  0
 17 18  1  0
 18 19  1  0
 16 20  1  0
 19 20  1  0
 20 21  1  0
 21 22  1  0
 15 23  1  0
 22 23  1  0
 24 25  1  0
 26 27  1  0
 24 28  1  0
 27 28  1  0
 25 29  1  0
 26 29  1  0
 29 31  1  0
 30 31  1  0
 31 32  1  0
 32 33  1  0
 33 34  1  0
 28 35  1  0
 24 36  1  0
 36 37  1  0
 36 38  1  0
 38 39  1  0
 39 40  1  0
 40 41  1  0
 41 42  1  0
 39 43  1  0
 42 43  1  0
 43 44  1  0
 44 45  1  0
 38 46  1  0
 45 46  1  0
  1 47  1  6
  2 48  1  0
  2 49  1  0
  3 50  1  0
  3 51  1  0
  4 52  1  0
  4 53  1  0
  5 54  1  6
  7 55  1  0
  8 56  1  0
  9 57  1  0
  9 58  1  0
 10 59  1  0
 10 60  1  0
 11 61  1  0
 11 62  1  0
 12 63  1  0
 12 64  1  0
 12 65  1  0
 14 66  1  0
 14 67  1  0
 14 68  1  0
 15 69  1  0
 16 70  1  0
 17 71  1  0
 17 72  1  0
 18 73  1  0
 18 74  1  0
 19 75  1  0
 20 76  1  0
 21 77  1  0
 22 78  1  0
 22 79  1  0
 23 80  1  0
 24 81  1  6
 25 82  1  0
 25 83  1  0
 26 84  1  0
 26 85  1  0
 27 86  1  0
 27 87  1  0
 28 88  1  6
 30 89  1  0
 31 90  1  0
 32 91  1  0
 32 92  1  0
 33 93  1  0
 33 94  1  0
 34 95  1  0
 34 96  1  0
 35 97  1  0
 35 98  1  0
 35 99  1  0
 37100  1  0
 37101  1  0
 37102  1  0
 38103  1  0
 39104  1  0
 40105  1  0
 40106  1  0
 41107  1  0
 41108  1  0
 42109  1  0
 43110  1  0
 44111  1  0
 45112  1  0
 45113  1  0
 46114  1  0
M  END
>  <PDBID>  (1) 
3FUP

>  <PDB ID>  (1) 
3FUP

>  <Generic Name>  (1) 
Tofacitinib

>  <Brand Name>  (1) 
Xeljanz#Xeljanz XR

>  <DrugBank ID>  (1) 
DB08895

>  <ATC Codes>  (1) 
L04AA29

>  <Ligand ID>  (1) 
MI1

>  <Target Name>  (1) 
Tyrosine-protein kinase JAK2

>  <UniProt ID>  (1) 
O60674

>  <PDB ID.1>  (1) 
3FUP

>  <Seq. Identity>  (1) 
100%

$$$$
