PDB_DB00787_09
     RDKit          3D

 70 72  0  0  0  0  0  0  0  0999 V2000
    3.9975    0.3876   -0.3153 C   0  0  0  0  0  0  0  0  0  0  0  0
    3.0241    1.3540   -0.4959 O   0  0  0  0  0  0  0  0  0  0  0  0
    3.4390   -0.9793   -0.0783 C   0  0  0  0  0  0  0  0  0  0  0  0
    2.6445   -1.1439    1.0093 O   0  0  0  0  0  0  0  0  0  0  0  0
    1.4927   -0.3907    1.0791 C   0  0  0  0  0  0  0  0  0  0  0  0
    0.6781   -0.6724   -0.0697 N   0  0  0  0  0  0  0  0  0  0  0  0
    0.2796   -2.0305   -0.1940 C   0  0  0  0  0  0  0  0  0  0  0  0
   -1.1231   -2.0147   -0.6215 N   0  0  0  0  0  0  0  0  0  0  0  0
   -1.3550   -0.6627   -1.1098 C   0  0  0  0  0  0  0  0  0  0  0  0
   -2.7780   -0.2385   -0.7943 C   0  0  0  0  0  0  0  0  0  0  0  0
   -3.6082   -0.5120   -1.8671 O   0  0  0  0  0  0  0  0  0  0  0  0
   -2.8592    1.1647   -0.4918 N   0  0  0  0  0  0  0  0  0  0  0  0
   -2.0974    1.5528    0.6646 C   0  0  0  0  0  0  0  0  0  0  0  0
   -2.9059    1.9231    1.7945 N   0  0  0  0  0  0  0  0  0  0  0  0
   -1.1724    0.4579    0.9841 N   0  0  0  0  0  0  0  0  0  0  0  0
   -0.4477    0.1706   -0.2280 C   0  0  0  0  0  0  0  0  0  0  0  0
    3.9254    0.6898   -0.3016 C   0  0  0  0  0  0  0  0  0  0  0  0
    2.9187    1.6409   -0.3020 O   0  0  0  0  0  0  0  0  0  0  0  0
    3.4529   -0.7245   -0.3179 C   0  0  0  0  0  0  0  0  0  0  0  0
    2.6838   -1.1454    0.7141 O   0  0  0  0  0  0  0  0  0  0  0  0
    1.4831   -0.5086    0.9311 C   0  0  0  0  0  0  0  0  0  0  0  0
    0.6738   -0.6174   -0.2439 N   0  0  0  0  0  0  0  0  0  0  0  0
    0.3648   -1.9478   -0.6409 C   0  0  0  0  0  0  0  0  0  0  0  0
   -1.0103   -1.8892   -1.1037 N   0  0  0  0  0  0  0  0  0  0  0  0
   -1.6024   -0.8823   -0.2949 C   0  0  2  0  0  0  0  0  0  0  0  0
   -2.7648   -0.1694   -0.9375 C   0  0  0  0  0  0  0  0  0  0  0  0
   -3.9612   -0.8427   -0.7994 O   0  0  0  0  0  0  0  0  0  0  0  0
   -2.7983    1.1627   -0.3642 N   0  0  0  0  0  0  0  0  0  0  0  0
   -2.1861    1.2154    0.9457 C   0  0  0  0  0  0  0  0  0  0  0  0
   -2.4240    2.5710    1.4535 N   0  0  0  0  0  0  0  0  0  0  0  0
   -0.7428    0.9866    0.8821 N   0  0  0  0  0  0  0  0  0  0  0  0
   -0.4939    0.1817   -0.2641 C   0  0  0  0  0  0  0  0  0  0  0  0
    4.6029    0.3957   -1.2698 H   0  0  0  0  0  0  0  0  0  0  0  0
    4.7306    0.6572    0.4713 H   0  0  0  0  0  0  0  0  0  0  0  0
    3.1981    2.1620    0.0697 H   0  0  0  0  0  0  0  0  0  0  0  0
    2.9226   -1.3556   -0.9918 H   0  0  0  0  0  0  0  0  0  0  0  0
    4.3284   -1.6646    0.0351 H   0  0  0  0  0  0  0  0  0  0  0  0
    1.7225    0.6647    1.2290 H   0  0  0  0  0  0  0  0  0  0  0  0
    0.9852   -0.7191    2.0320 H   0  0  0  0  0  0  0  0  0  0  0  0
    0.8344   -2.5370   -0.9914 H   0  0  0  0  0  0  0  0  0  0  0  0
    0.4038   -2.6373    0.7262 H   0  0  0  0  0  0  0  0  0  0  0  0
   -1.7445   -2.2753    0.1505 H   0  0  0  0  0  0  0  0  0  0  0  0
   -1.1132   -0.5635   -2.1849 H   0  0  0  0  0  0  0  0  0  0  0  0
   -3.1661   -0.8022    0.0819 H   0  0  0  0  0  0  0  0  0  0  0  0
   -3.2092   -0.1031   -2.6721 H   0  0  0  0  0  0  0  0  0  0  0  0
   -2.5561    1.6988   -1.3388 H   0  0  0  0  0  0  0  0  0  0  0  0
   -1.4718    2.4523    0.3908 H   0  0  0  0  0  0  0  0  0  0  0  0
   -3.0899    2.9538    1.7491 H   0  0  0  0  0  0  0  0  0  0  0  0
   -3.8329    1.4606    1.8002 H   0  0  0  0  0  0  0  0  0  0  0  0
   -0.5626    0.7040    1.7839 H   0  0  0  0  0  0  0  0  0  0  0  0
   -0.1909    1.1425   -0.6899 H   0  0  0  0  0  0  0  0  0  0  0  0
    4.5709    0.8877   -1.1945 H   0  0  0  0  0  0  0  0  0  0  0  0
    4.6115    0.8876    0.5673 H   0  0  0  0  0  0  0  0  0  0  0  0
    3.2151    2.4548    0.1896 H   0  0  0  0  0  0  0  0  0  0  0  0
    2.9986   -0.9586   -1.3299 H   0  0  0  0  0  0  0  0  0  0  0  0
    4.3892   -1.3683   -0.3209 H   0  0  0  0  0  0  0  0  0  0  0  0
    1.6473    0.5335    1.1882 H   0  0  0  0  0  0  0  0  0  0  0  0
    1.0179   -1.0374    1.8090 H   0  0  0  0  0  0  0  0  0  0  0  0
    0.9810   -2.2405   -1.5213 H   0  0  0  0  0  0  0  0  0  0  0  0
    0.5016   -2.7027    0.1584 H   0  0  0  0  0  0  0  0  0  0  0  0
   -1.4580   -2.8151   -0.8415 H   0  0  0  0  0  0  0  0  0  0  0  0
   -1.8879   -1.1904    0.7167 H   0  0  0  0  0  0  0  0  0  0  0  0
   -2.5051   -0.0471   -2.0220 H   0  0  0  0  0  0  0  0  0  0  0  0
   -3.8477   -1.8248   -0.7327 H   0  0  0  0  0  0  0  0  0  0  0  0
   -2.4518    1.8921   -1.0103 H   0  0  0  0  0  0  0  0  0  0  0  0
   -2.7009    0.5256    1.6132 H   0  0  0  0  0  0  0  0  0  0  0  0
   -2.1677    3.2805    0.7348 H   0  0  0  0  0  0  0  0  0  0  0  0
   -3.4317    2.6904    1.6708 H   0  0  0  0  0  0  0  0  0  0  0  0
   -0.4879    0.5036    1.7830 H   0  0  0  0  0  0  0  0  0  0  0  0
   -0.5131    0.8085   -1.1675 H   0  0  0  0  0  0  0  0  0  0  0  0
  1  2  1  0
  1  3  1  0
  3  4  1  0
  4  5  1  0
  5  6  1  0
  6  7  1  0
  7  8  1  0
  8  9  1  0
  9 10  1  0
 10 11  1  0
 10 12  1  0
 12 13  1  0
 13 14  1  0
 13 15  1  0
  6 16  1  0
  9 16  1  0
 15 16  1  0
 17 18  1  0
 17 19  1  0
 19 20  1  0
 20 21  1  0
 21 22  1  0
 22 23  1  0
 23 24  1  0
 24 25  1  0
 25 26  1  0
 26 27  1  0
 26 28  1  0
 28 29  1  0
 29 30  1  0
 29 31  1  0
 22 32  1  0
 25 32  1  0
 31 32  1  0
  1 33  1  0
  1 34  1  0
  2 35  1  0
  3 36  1  0
  3 37  1  0
  5 38  1  0
  5 39  1  0
  7 40  1  0
  7 41  1  0
  8 42  1  0
  9 43  1  0
 10 44  1  0
 11 45  1  0
 12 46  1  0
 13 47  1  0
 14 48  1  0
 14 49  1  0
 15 50  1  0
 16 51  1  0
 17 52  1  0
 17 53  1  0
 18 54  1  0
 19 55  1  0
 19 56  1  0
 21 57  1  0
 21 58  1  0
 23 59  1  0
 23 60  1  0
 24 61  1  0
 25 62  1  1
 26 63  1  0
 27 64  1  0
 28 65  1  0
 29 66  1  0
 30 67  1  0
 30 68  1  0
 31 69  1  0
 32 70  1  0
M  END
>  <PDBID>  (1) 
2KI5

>  <PDB ID>  (1) 
2KI5

>  <Generic Name>  (1) 
Aciclovir

>  <Brand Name>  (1) 
Acyclovir#Acyclovir Sodium#Acyclovir Sodium Injection#Acyclovir Sodium for Injection#Acyclovir-200#Acyclovir-400#Acyclovir-800#Alti-acyclovir - 400mg#Alti-acyclovir - 800mg#Alti-acyclovir - Tab 200mg#Apo-acyclovir - Tab 200mg#Apo-acyclovir - Tab 400mg#Apo-acyclovir - Tab 800mg#Mylan-acyclovir#Ntp-acyclovir#Nu-acyclovir - Tab 200mg#Nu-acyclovir - Tab 400mg#Nu-acyclovir - Tab 800mg#Ratio-acyclovir#Sitavig#Teva-acyclovir#Xerese#Zovirax#Zovirax 400#Zovirax 800#Zovirax Cap 200mg#Zovirax Tab 200mg#Zovir

>  <DrugBank ID>  (1) 
DB00787

>  <ATC Codes>  (1) 
S01AD03#D06BB03#J05AB01#D06BB53

>  <Ligand ID>  (1) 
AC2

>  <Target Name>  (1) 
Thymidine kinase

>  <UniProt ID>  (1) 
P03176

>  <PDB ID.1>  (1) 
2KI5

>  <Seq. Identity>  (1) 
100%

$$$$
