PDB_DB00328_00
     RDKit          3D

236244  0  0  0  0  0  0  0  0999 V2000
   -0.4885   -0.5113    0.1844 C   0  0  0  0  0  0  0  0  0  0  0  0
   -1.9271   -0.0908   -0.2069 C   0  0  0  0  0  0  0  0  0  0  0  0
   -2.9352   -0.6003    0.7540 C   0  0  0  0  0  0  0  0  0  0  0  0
   -2.6633   -2.1044    0.9134 C   0  0  0  0  0  0  0  0  0  0  0  0
   -1.4294   -2.2026    1.7760 C   0  0  0  0  0  0  0  0  0  0  0  0
   -0.5796   -0.9602    1.6277 C   0  0  0  0  0  0  0  0  0  0  0  0
   -4.1156   -3.7446    0.4308 C   0  0  0  0  0  0  0  0  0  0  0  0
   -1.8583    1.4179   -0.3231 C   0  0  1  0  0  0  0  0  0  0  0  0
   -0.4671    1.5449   -0.8943 C   0  0  0  0  0  0  0  0  0  0  0  0
    1.4652    0.9732    0.4303 C   0  0  0  0  0  0  0  0  0  0  0  0
    2.6813    0.2469   -0.0525 C   0  0  0  0  0  0  0  0  0  0  0  0
    3.8972    0.9087    0.6249 C   0  0  0  0  0  0  0  0  0  0  0  0
    5.1471    0.3327    0.0179 C   0  0  0  0  0  0  0  0  0  0  0  0
    5.2426   -1.1417    0.3493 C   0  0  0  0  0  0  0  0  0  0  0  0
    4.0138   -1.8124   -0.1714 C   0  0  0  0  0  0  0  0  0  0  0  0
    2.7244   -1.1884    0.3377 C   0  0  0  0  0  0  0  0  0  0  0  0
   -0.3135    0.9924   -2.2706 C   0  0  0  0  0  0  0  0  0  0  0  0
   -2.9528    1.8747   -1.2238 C   0  0  0  0  0  0  0  0  0  0  0  0
   -3.0200    3.3532   -1.4449 C   0  0  0  0  0  0  0  0  0  0  0  0
    0.2190    0.6481    0.0079 N   0  0  0  0  0  0  0  0  0  0  0  0
   -3.7479   -2.7902    1.3956 O   0  0  0  0  0  0  0  0  0  0  0  0
    1.5816    0.9864    1.8488 O   0  0  0  0  0  0  0  0  0  0  0  0
   -3.2153    4.0399   -0.2544 O   0  0  0  0  0  0  0  0  0  0  0  0
   -1.9442    3.8647   -2.1465 O   0  0  0  0  0  0  0  0  0  0  0  0
    6.6474   -1.8322   -0.5149 Cl  0  0  0  0  0  0  0  0  0  0  0  0
   -0.4885   -0.5113    0.1844 C   0  0  0  0  0  0  0  0  0  0  0  0
   -1.9271   -0.0908   -0.2069 C   0  0  0  0  0  0  0  0  0  0  0  0
   -2.9352   -0.6003    0.7540 C   0  0  0  0  0  0  0  0  0  0  0  0
   -2.6633   -2.1044    0.9134 C   0  0  0  0  0  0  0  0  0  0  0  0
   -1.4294   -2.2026    1.7760 C   0  0  0  0  0  0  0  0  0  0  0  0
   -0.5796   -0.9602    1.6277 C   0  0  0  0  0  0  0  0  0  0  0  0
   -4.1156   -3.7446    0.4308 C   0  0  0  0  0  0  0  0  0  0  0  0
   -1.8583    1.4179   -0.3231 C   0  0  1  0  0  0  0  0  0  0  0  0
   -0.4671    1.5449   -0.8943 C   0  0  0  0  0  0  0  0  0  0  0  0
    1.4652    0.9732    0.4303 C   0  0  0  0  0  0  0  0  0  0  0  0
    2.6813    0.2469   -0.0525 C   0  0  0  0  0  0  0  0  0  0  0  0
    3.8972    0.9087    0.6249 C   0  0  0  0  0  0  0  0  0  0  0  0
    5.1471    0.3327    0.0179 C   0  0  0  0  0  0  0  0  0  0  0  0
    5.2426   -1.1417    0.3493 C   0  0  0  0  0  0  0  0  0  0  0  0
    4.0138   -1.8124   -0.1714 C   0  0  0  0  0  0  0  0  0  0  0  0
    2.7244   -1.1884    0.3377 C   0  0  0  0  0  0  0  0  0  0  0  0
   -0.3135    0.9924   -2.2706 C   0  0  0  0  0  0  0  0  0  0  0  0
   -2.9528    1.8747   -1.2238 C   0  0  0  0  0  0  0  0  0  0  0  0
   -3.0200    3.3532   -1.4449 C   0  0  0  0  0  0  0  0  0  0  0  0
    0.2190    0.6481    0.0079 N   0  0  0  0  0  0  0  0  0  0  0  0
   -3.7479   -2.7902    1.3956 O   0  0  0  0  0  0  0  0  0  0  0  0
    1.5816    0.9864    1.8488 O   0  0  0  0  0  0  0  0  0  0  0  0
   -3.2153    4.0399   -0.2544 O   0  0  0  0  0  0  0  0  0  0  0  0
   -1.9442    3.8647   -2.1465 O   0  0  0  0  0  0  0  0  0  0  0  0
    6.6474   -1.8322   -0.5149 Cl  0  0  0  0  0  0  0  0  0  0  0  0
   -0.2605   -0.3675    0.3826 C   0  0  0  0  0  0  0  0  0  0  0  0
   -1.7495   -0.1113   -0.0107 C   0  0  0  0  0  0  0  0  0  0  0  0
   -2.5506   -0.6406    1.1033 C   0  0  0  0  0  0  0  0  0  0  0  0
   -2.6033   -2.1599    0.8288 C   0  0  0  0  0  0  0  0  0  0  0  0
   -1.4207   -2.5890   -0.0019 C   0  0  0  0  0  0  0  0  0  0  0  0
   -0.1549   -1.8758    0.2849 C   0  0  0  0  0  0  0  0  0  0  0  0
   -4.6744   -3.1609    0.6085 C   0  0  0  0  0  0  0  0  0  0  0  0
   -1.6625    1.3760   -0.1817 C   0  0  0  0  0  0  0  0  0  0  0  0
   -0.5315    1.3178   -1.2295 C   0  0  0  0  0  0  0  0  0  0  0  0
    1.6644    0.9907   -0.3946 C   0  0  0  0  0  0  0  0  0  0  0  0
    2.8326    0.1389   -0.1477 C   0  0  0  0  0  0  0  0  0  0  0  0
    4.1288    1.0205   -0.1397 C   0  0  0  0  0  0  0  0  0  0  0  0
    5.2562    0.0243   -0.1858 C   0  0  0  0  0  0  0  0  0  0  0  0
    5.2481   -0.9666    0.9319 C   0  0  0  0  0  0  0  0  0  0  0  0
    3.8979   -1.6368    1.1350 C   0  0  0  0  0  0  0  0  0  0  0  0
    2.8880   -0.4826    1.2536 C   0  0  0  0  0  0  0  0  0  0  0  0
   -0.9300    0.6358   -2.4864 C   0  0  0  0  0  0  0  0  0  0  0  0
   -2.9045    2.0112   -0.6486 C   0  0  0  0  0  0  0  0  0  0  0  0
   -2.8324    3.5017   -0.8264 C   0  0  0  0  0  0  0  0  0  0  0  0
    0.4277    0.3782   -0.5405 N   0  0  0  0  0  0  0  0  0  0  0  0
   -3.7310   -2.3287    0.0199 O   0  0  0  0  0  0  0  0  0  0  0  0
    1.6240    1.9498    0.6745 O   0  0  0  0  0  0  0  0  0  0  0  0
   -4.0502    4.0203   -1.2708 O   0  0  0  0  0  0  0  0  0  0  0  0
   -2.5141    4.1748    0.3386 O   0  0  0  0  0  0  0  0  0  0  0  0
    6.4009   -2.2693    0.5169 Cl  0  0  0  0  0  0  0  0  0  0  0  0
   -0.4885   -0.5113    0.1844 C   0  0  0  0  0  0  0  0  0  0  0  0
   -1.9271   -0.0908   -0.2069 C   0  0  0  0  0  0  0  0  0  0  0  0
   -2.9352   -0.6003    0.7540 C   0  0  0  0  0  0  0  0  0  0  0  0
   -2.6633   -2.1044    0.9134 C   0  0  0  0  0  0  0  0  0  0  0  0
   -1.4294   -2.2026    1.7760 C   0  0  0  0  0  0  0  0  0  0  0  0
   -0.5796   -0.9602    1.6277 C   0  0  0  0  0  0  0  0  0  0  0  0
   -4.1156   -3.7446    0.4308 C   0  0  0  0  0  0  0  0  0  0  0  0
   -1.8583    1.4179   -0.3231 C   0  0  1  0  0  0  0  0  0  0  0  0
   -0.4671    1.5449   -0.8943 C   0  0  0  0  0  0  0  0  0  0  0  0
    1.4652    0.9732    0.4303 C   0  0  0  0  0  0  0  0  0  0  0  0
    2.6813    0.2469   -0.0525 C   0  0  0  0  0  0  0  0  0  0  0  0
    3.8972    0.9087    0.6249 C   0  0  0  0  0  0  0  0  0  0  0  0
    5.1471    0.3327    0.0179 C   0  0  0  0  0  0  0  0  0  0  0  0
    5.2426   -1.1417    0.3493 C   0  0  0  0  0  0  0  0  0  0  0  0
    4.0138   -1.8124   -0.1714 C   0  0  0  0  0  0  0  0  0  0  0  0
    2.7244   -1.1884    0.3377 C   0  0  0  0  0  0  0  0  0  0  0  0
   -0.3135    0.9924   -2.2706 C   0  0  0  0  0  0  0  0  0  0  0  0
   -2.9528    1.8747   -1.2238 C   0  0  0  0  0  0  0  0  0  0  0  0
   -3.0200    3.3532   -1.4449 C   0  0  0  0  0  0  0  0  0  0  0  0
    0.2190    0.6481    0.0079 N   0  0  0  0  0  0  0  0  0  0  0  0
   -3.7479   -2.7902    1.3956 O   0  0  0  0  0  0  0  0  0  0  0  0
    1.5816    0.9864    1.8488 O   0  0  0  0  0  0  0  0  0  0  0  0
   -3.2153    4.0399   -0.2544 O   0  0  0  0  0  0  0  0  0  0  0  0
   -1.9442    3.8647   -2.1465 O   0  0  0  0  0  0  0  0  0  0  0  0
    6.6474   -1.8322   -0.5149 Cl  0  0  0  0  0  0  0  0  0  0  0  0
   -0.2960   -1.3727   -0.4904 H   0  0  0  0  0  0  0  0  0  0  0  0
   -2.1829   -0.4487   -1.2289 H   0  0  0  0  0  0  0  0  0  0  0  0
   -3.9378   -0.4949    0.2714 H   0  0  0  0  0  0  0  0  0  0  0  0
   -2.9335   -0.0813    1.7233 H   0  0  0  0  0  0  0  0  0  0  0  0
   -2.3503   -2.4711   -0.1076 H   0  0  0  0  0  0  0  0  0  0  0  0
   -0.8231   -3.0903    1.5702 H   0  0  0  0  0  0  0  0  0  0  0  0
   -1.7711   -2.2232    2.8354 H   0  0  0  0  0  0  0  0  0  0  0  0
    0.4113   -1.2075    2.0398 H   0  0  0  0  0  0  0  0  0  0  0  0
   -0.9626   -0.1054    2.2237 H   0  0  0  0  0  0  0  0  0  0  0  0
   -4.9786   -4.3225    0.7626 H   0  0  0  0  0  0  0  0  0  0  0  0
   -4.3133   -3.2234   -0.5478 H   0  0  0  0  0  0  0  0  0  0  0  0
   -3.2709   -4.4391    0.2128 H   0  0  0  0  0  0  0  0  0  0  0  0
   -1.8677    1.9275    0.6467 H   0  0  0  0  0  0  0  0  0  0  0  0
   -0.0283    2.5477   -0.7552 H   0  0  0  0  0  0  0  0  0  0  0  0
    1.6496    2.0666    0.1712 H   0  0  0  0  0  0  0  0  0  0  0  0
    2.8172    0.4189   -1.1302 H   0  0  0  0  0  0  0  0  0  0  0  0
    3.8938    0.7805    1.7076 H   0  0  0  0  0  0  0  0  0  0  0  0
    3.8871    1.9969    0.4073 H   0  0  0  0  0  0  0  0  0  0  0  0
    6.0457    0.8321    0.4068 H   0  0  0  0  0  0  0  0  0  0  0  0
    5.1148    0.4262   -1.0920 H   0  0  0  0  0  0  0  0  0  0  0  0
    5.3071   -1.3308    1.4260 H   0  0  0  0  0  0  0  0  0  0  0  0
    3.9722   -2.8930    0.1539 H   0  0  0  0  0  0  0  0  0  0  0  0
    3.9422   -1.8463   -1.2745 H   0  0  0  0  0  0  0  0  0  0  0  0
    1.9239   -1.8277   -0.0259 H   0  0  0  0  0  0  0  0  0  0  0  0
    2.7254   -1.2493    1.4478 H   0  0  0  0  0  0  0  0  0  0  0  0
    0.6176    1.3871   -2.7316 H   0  0  0  0  0  0  0  0  0  0  0  0
   -0.1913   -0.1221   -2.2761 H   0  0  0  0  0  0  0  0  0  0  0  0
   -1.1299    1.2105   -2.9675 H   0  0  0  0  0  0  0  0  0  0  0  0
   -2.9906    1.2888   -2.1573 H   0  0  0  0  0  0  0  0  0  0  0  0
   -3.9120    1.6037   -0.6869 H   0  0  0  0  0  0  0  0  0  0  0  0
   -3.9337    3.5385   -2.0739 H   0  0  0  0  0  0  0  0  0  0  0  0
    2.1464    1.7248    2.1616 H   0  0  0  0  0  0  0  0  0  0  0  0
   -2.4867    3.9576    0.3795 H   0  0  0  0  0  0  0  0  0  0  0  0
   -2.0554    4.8372   -2.1976 H   0  0  0  0  0  0  0  0  0  0  0  0
   -0.2960   -1.3727   -0.4904 H   0  0  0  0  0  0  0  0  0  0  0  0
   -2.1829   -0.4487   -1.2289 H   0  0  0  0  0  0  0  0  0  0  0  0
   -3.9378   -0.4949    0.2714 H   0  0  0  0  0  0  0  0  0  0  0  0
   -2.9335   -0.0813    1.7233 H   0  0  0  0  0  0  0  0  0  0  0  0
   -2.3503   -2.4711   -0.1076 H   0  0  0  0  0  0  0  0  0  0  0  0
   -0.8231   -3.0903    1.5702 H   0  0  0  0  0  0  0  0  0  0  0  0
   -1.7711   -2.2232    2.8354 H   0  0  0  0  0  0  0  0  0  0  0  0
    0.4113   -1.2075    2.0398 H   0  0  0  0  0  0  0  0  0  0  0  0
   -0.9626   -0.1054    2.2237 H   0  0  0  0  0  0  0  0  0  0  0  0
   -4.9786   -4.3225    0.7626 H   0  0  0  0  0  0  0  0  0  0  0  0
   -4.3133   -3.2234   -0.5478 H   0  0  0  0  0  0  0  0  0  0  0  0
   -3.2709   -4.4391    0.2128 H   0  0  0  0  0  0  0  0  0  0  0  0
   -1.8677    1.9275    0.6467 H   0  0  0  0  0  0  0  0  0  0  0  0
   -0.0283    2.5477   -0.7552 H   0  0  0  0  0  0  0  0  0  0  0  0
    1.6496    2.0666    0.1712 H   0  0  0  0  0  0  0  0  0  0  0  0
    2.8172    0.4189   -1.1302 H   0  0  0  0  0  0  0  0  0  0  0  0
    3.8938    0.7805    1.7076 H   0  0  0  0  0  0  0  0  0  0  0  0
    3.8871    1.9969    0.4073 H   0  0  0  0  0  0  0  0  0  0  0  0
    6.0457    0.8321    0.4068 H   0  0  0  0  0  0  0  0  0  0  0  0
    5.1148    0.4262   -1.0920 H   0  0  0  0  0  0  0  0  0  0  0  0
    5.3071   -1.3308    1.4260 H   0  0  0  0  0  0  0  0  0  0  0  0
    3.9722   -2.8930    0.1539 H   0  0  0  0  0  0  0  0  0  0  0  0
    3.9422   -1.8463   -1.2745 H   0  0  0  0  0  0  0  0  0  0  0  0
    1.9239   -1.8277   -0.0259 H   0  0  0  0  0  0  0  0  0  0  0  0
    2.7254   -1.2493    1.4478 H   0  0  0  0  0  0  0  0  0  0  0  0
    0.6176    1.3871   -2.7316 H   0  0  0  0  0  0  0  0  0  0  0  0
   -0.1913   -0.1221   -2.2761 H   0  0  0  0  0  0  0  0  0  0  0  0
   -1.1299    1.2105   -2.9675 H   0  0  0  0  0  0  0  0  0  0  0  0
   -2.9906    1.2888   -2.1573 H   0  0  0  0  0  0  0  0  0  0  0  0
   -3.9120    1.6037   -0.6869 H   0  0  0  0  0  0  0  0  0  0  0  0
   -3.9337    3.5385   -2.0739 H   0  0  0  0  0  0  0  0  0  0  0  0
    2.1464    1.7248    2.1616 H   0  0  0  0  0  0  0  0  0  0  0  0
   -2.4867    3.9576    0.3795 H   0  0  0  0  0  0  0  0  0  0  0  0
   -2.0554    4.8372   -2.1976 H   0  0  0  0  0  0  0  0  0  0  0  0
   -0.2168   -0.0529    1.4607 H   0  0  0  0  0  0  0  0  0  0  0  0
   -1.9327   -0.6330   -0.9828 H   0  0  0  0  0  0  0  0  0  0  0  0
   -3.5754   -0.2169    1.0730 H   0  0  0  0  0  0  0  0  0  0  0  0
   -2.0370   -0.4451    2.0669 H   0  0  0  0  0  0  0  0  0  0  0  0
   -2.6967   -2.7200    1.7618 H   0  0  0  0  0  0  0  0  0  0  0  0
   -1.6057   -2.6071   -1.0901 H   0  0  0  0  0  0  0  0  0  0  0  0
   -1.2386   -3.6744    0.2739 H   0  0  0  0  0  0  0  0  0  0  0  0
    0.6032   -2.1368   -0.4593 H   0  0  0  0  0  0  0  0  0  0  0  0
    0.2344   -2.2513    1.2791 H   0  0  0  0  0  0  0  0  0  0  0  0
   -4.9847   -2.7158    1.5532 H   0  0  0  0  0  0  0  0  0  0  0  0
   -5.4784   -3.3128   -0.1280 H   0  0  0  0  0  0  0  0  0  0  0  0
   -4.2443   -4.1652    0.8531 H   0  0  0  0  0  0  0  0  0  0  0  0
   -1.2275    1.7929    0.7294 H   0  0  0  0  0  0  0  0  0  0  0  0
    0.0163    2.2476   -1.3119 H   0  0  0  0  0  0  0  0  0  0  0  0
    1.9227    1.6227   -1.3271 H   0  0  0  0  0  0  0  0  0  0  0  0
    3.0427   -0.6622   -0.8634 H   0  0  0  0  0  0  0  0  0  0  0  0
    4.1274    1.5791    0.7922 H   0  0  0  0  0  0  0  0  0  0  0  0
    4.1390    1.6117   -1.0529 H   0  0  0  0  0  0  0  0  0  0  0  0
    6.2010    0.6046   -0.1071 H   0  0  0  0  0  0  0  0  0  0  0  0
    5.2697   -0.5326   -1.1415 H   0  0  0  0  0  0  0  0  0  0  0  0
    5.5312   -0.4469    1.8576 H   0  0  0  0  0  0  0  0  0  0  0  0
    3.9147   -2.1715    2.0875 H   0  0  0  0  0  0  0  0  0  0  0  0
    3.6677   -2.2525    0.2609 H   0  0  0  0  0  0  0  0  0  0  0  0
    3.3630    0.2879    1.9264 H   0  0  0  0  0  0  0  0  0  0  0  0
    1.9474   -0.7530    1.6584 H   0  0  0  0  0  0  0  0  0  0  0  0
   -0.5320    1.1313   -3.4072 H   0  0  0  0  0  0  0  0  0  0  0  0
   -0.5314   -0.4202   -2.5712 H   0  0  0  0  0  0  0  0  0  0  0  0
   -2.0176    0.5209   -2.6567 H   0  0  0  0  0  0  0  0  0  0  0  0
   -3.3587    1.5113   -1.5227 H   0  0  0  0  0  0  0  0  0  0  0  0
   -3.6648    1.8484    0.1757 H   0  0  0  0  0  0  0  0  0  0  0  0
   -2.0724    3.8003   -1.5895 H   0  0  0  0  0  0  0  0  0  0  0  0
    1.0706    1.5393    1.3986 H   0  0  0  0  0  0  0  0  0  0  0  0
   -3.8919    4.9795   -1.4728 H   0  0  0  0  0  0  0  0  0  0  0  0
   -1.5425    4.1420    0.4615 H   0  0  0  0  0  0  0  0  0  0  0  0
   -0.2960   -1.3727   -0.4904 H   0  0  0  0  0  0  0  0  0  0  0  0
   -2.1829   -0.4487   -1.2289 H   0  0  0  0  0  0  0  0  0  0  0  0
   -3.9378   -0.4949    0.2714 H   0  0  0  0  0  0  0  0  0  0  0  0
   -2.9335   -0.0813    1.7233 H   0  0  0  0  0  0  0  0  0  0  0  0
   -2.3503   -2.4711   -0.1076 H   0  0  0  0  0  0  0  0  0  0  0  0
   -0.8231   -3.0903    1.5702 H   0  0  0  0  0  0  0  0  0  0  0  0
   -1.7711   -2.2232    2.8354 H   0  0  0  0  0  0  0  0  0  0  0  0
    0.4113   -1.2075    2.0398 H   0  0  0  0  0  0  0  0  0  0  0  0
   -0.9626   -0.1054    2.2237 H   0  0  0  0  0  0  0  0  0  0  0  0
   -4.9786   -4.3225    0.7626 H   0  0  0  0  0  0  0  0  0  0  0  0
   -4.3133   -3.2234   -0.5478 H   0  0  0  0  0  0  0  0  0  0  0  0
   -3.2709   -4.4391    0.2128 H   0  0  0  0  0  0  0  0  0  0  0  0
   -1.8677    1.9275    0.6467 H   0  0  0  0  0  0  0  0  0  0  0  0
   -0.0283    2.5477   -0.7552 H   0  0  0  0  0  0  0  0  0  0  0  0
    1.6496    2.0666    0.1712 H   0  0  0  0  0  0  0  0  0  0  0  0
    2.8172    0.4189   -1.1302 H   0  0  0  0  0  0  0  0  0  0  0  0
    3.8938    0.7805    1.7076 H   0  0  0  0  0  0  0  0  0  0  0  0
    3.8871    1.9969    0.4073 H   0  0  0  0  0  0  0  0  0  0  0  0
    6.0457    0.8321    0.4068 H   0  0  0  0  0  0  0  0  0  0  0  0
    5.1148    0.4262   -1.0920 H   0  0  0  0  0  0  0  0  0  0  0  0
    5.3071   -1.3308    1.4260 H   0  0  0  0  0  0  0  0  0  0  0  0
    3.9722   -2.8930    0.1539 H   0  0  0  0  0  0  0  0  0  0  0  0
    3.9422   -1.8463   -1.2745 H   0  0  0  0  0  0  0  0  0  0  0  0
    1.9239   -1.8277   -0.0259 H   0  0  0  0  0  0  0  0  0  0  0  0
    2.7254   -1.2493    1.4478 H   0  0  0  0  0  0  0  0  0  0  0  0
    0.6176    1.3871   -2.7316 H   0  0  0  0  0  0  0  0  0  0  0  0
   -0.1913   -0.1221   -2.2761 H   0  0  0  0  0  0  0  0  0  0  0  0
   -1.1299    1.2105   -2.9675 H   0  0  0  0  0  0  0  0  0  0  0  0
   -2.9906    1.2888   -2.1573 H   0  0  0  0  0  0  0  0  0  0  0  0
   -3.9120    1.6037   -0.6869 H   0  0  0  0  0  0  0  0  0  0  0  0
   -3.9337    3.5385   -2.0739 H   0  0  0  0  0  0  0  0  0  0  0  0
    2.1464    1.7248    2.1616 H   0  0  0  0  0  0  0  0  0  0  0  0
   -2.4867    3.9576    0.3795 H   0  0  0  0  0  0  0  0  0  0  0  0
   -2.0554    4.8372   -2.1976 H   0  0  0  0  0  0  0  0  0  0  0  0
  1  2  1  0
  2  3  1  0
  3  4  1  0
  4  5  1  0
  1  6  1  0
  5  6  1  0
  2  8  1  0
  8  9  1  0
 10 11  1  0
 11 12  1  0
 12 13  1  0
 13 14  1  0
 14 15  1  0
 11 16  1  0
 15 16  1  0
  9 17  1  0
  8 18  1  0
 18 19  1  0
  1 20  1  0
  9 20  1  0
 10 20  1  0
  4 21  1  0
  7 21  1  0
 10 22  1  0
 19 23  1  0
 19 24  1  0
 14 25  1  0
 26 27  1  0
 27 28  1  0
 28 29  1  0
 29 30  1  0
 26 31  1  0
 30 31  1  0
 27 33  1  0
 33 34  1  0
 35 36  1  0
 36 37  1  0
 37 38  1  0
 38 39  1  0
 39 40  1  0
 36 41  1  0
 40 41  1  0
 34 42  1  0
 33 43  1  0
 43 44  1  0
 26 45  1  0
 34 45  1  0
 35 45  1  0
 29 46  1  0
 32 46  1  0
 35 47  1  0
 44 48  1  0
 44 49  1  0
 39 50  1  0
 51 52  1  0
 52 53  1  0
 53 54  1  0
 54 55  1  0
 51 56  1  0
 55 56  1  0
 52 58  1  0
 58 59  1  0
 60 61  1  0
 61 62  1  0
 62 63  1  0
 63 64  1  0
 64 65  1  0
 61 66  1  0
 65 66  1  0
 59 67  1  0
 58 68  1  0
 68 69  1  0
 51 70  1  0
 59 70  1  0
 60 70  1  0
 54 71  1  0
 57 71  1  0
 60 72  1  0
 69 73  1  0
 69 74  1  0
 64 75  1  0
 76 77  1  0
 77 78  1  0
 78 79  1  0
 79 80  1  0
 76 81  1  0
 80 81  1  0
 77 83  1  0
 83 84  1  0
 85 86  1  0
 86 87  1  0
 87 88  1  0
 88 89  1  0
 89 90  1  0
 86 91  1  0
 90 91  1  0
 84 92  1  0
 83 93  1  0
 93 94  1  0
 76 95  1  0
 84 95  1  0
 85 95  1  0
 79 96  1  0
 82 96  1  0
 85 97  1  0
 94 98  1  0
 94 99  1  0
 89100  1  0
  1101  1  0
  2102  1  0
  3103  1  0
  3104  1  0
  4105  1  0
  5106  1  0
  5107  1  0
  6108  1  0
  6109  1  0
  7110  1  0
  7111  1  0
  7112  1  0
  8113  1  1
  9114  1  0
 10115  1  0
 11116  1  0
 12117  1  0
 12118  1  0
 13119  1  0
 13120  1  0
 14121  1  0
 15122  1  0
 15123  1  0
 16124  1  0
 16125  1  0
 17126  1  0
 17127  1  0
 17128  1  0
 18129  1  0
 18130  1  0
 19131  1  0
 22132  1  0
 23133  1  0
 24134  1  0
 26135  1  0
 27136  1  0
 28137  1  0
 28138  1  0
 29139  1  0
 30140  1  0
 30141  1  0
 31142  1  0
 31143  1  0
 32144  1  0
 32145  1  0
 32146  1  0
 33147  1  1
 34148  1  0
 35149  1  0
 36150  1  0
 37151  1  0
 37152  1  0
 38153  1  0
 38154  1  0
 39155  1  0
 40156  1  0
 40157  1  0
 41158  1  0
 41159  1  0
 42160  1  0
 42161  1  0
 42162  1  0
 43163  1  0
 43164  1  0
 44165  1  0
 47166  1  0
 48167  1  0
 49168  1  0
 51169  1  0
 52170  1  0
 53171  1  0
 53172  1  0
 54173  1  0
 55174  1  0
 55175  1  0
 56176  1  0
 56177  1  0
 57178  1  0
 57179  1  0
 57180  1  0
 58181  1  0
 59182  1  0
 60183  1  0
 61184  1  0
 62185  1  0
 62186  1  0
 63187  1  0
 63188  1  0
 64189  1  0
 65190  1  0
 65191  1  0
 66192  1  0
 66193  1  0
 67194  1  0
 67195  1  0
 67196  1  0
 68197  1  0
 68198  1  0
 69199  1  0
 72200  1  0
 73201  1  0
 74202  1  0
 76203  1  0
 77204  1  0
 78205  1  0
 78206  1  0
 79207  1  0
 80208  1  0
 80209  1  0
 81210  1  0
 81211  1  0
 82212  1  0
 82213  1  0
 82214  1  0
 83215  1  1
 84216  1  0
 85217  1  0
 86218  1  0
 87219  1  0
 87220  1  0
 88221  1  0
 88222  1  0
 89223  1  0
 90224  1  0
 90225  1  0
 91226  1  0
 91227  1  0
 92228  1  0
 92229  1  0
 92230  1  0
 93231  1  0
 93232  1  0
 94233  1  0
 97234  1  0
 98235  1  0
 99236  1  0
M  END
>  <PDBID>  (1) 
4COX

>  <PDB ID>  (1) 
4COX

>  <Generic Name>  (1) 
Indomethacin

>  <Brand Name>  (1) 
Apo Indomethacin Cap 25mg#Apo Indomethacin Cap 50mg#Ftp-indomethacin#Indocid Cap 25mg#Indocid Cap 50mg#Indocid SR 75mg#Indocid Sterile Oph Susp 1%#Indocid Sup 100mg#Indocid Sup 50mg#Indocin#Indocollyre#Indomethacin#Indomethacin ER#Indomethacin Extended-release#Mint-indomethacin#Novo-methacin - 100mg Sup#Novo-methacin - Sup 50mg#Ntp-indomethacin#Nu-indo Cap 25mg#Nu-indo Cap 50mg#Pro-indo 25 Cap 25mg#Pro-indo 50 Cap 50mg#Ratio-indomethacin#Rhodacine - Cap 25mg#Rhodacine - Cap 50mg#Rhodacine - Sup 100mg#Rhodacine - Sup 50mg#Sandoz Indomethacin#Teva-indomethacin#Tivorbex#Arthrexin#Elmetacin#Indaflex#Indocid#Indolar SR#Indomed#Indoxen#Metindol#Mikametan#Nu-Indo#Reumacide

>  <DrugBank ID>  (1) 
DB00328

>  <ATC Codes>  (1) 
S01CC02#M02AA23#M01AB01#M01AB51#S01BC01#C01EB03

>  <Ligand ID>  (1) 
IMN

>  <Target Name>  (1) 
Prostaglandin G/H synthase 2

>  <UniProt ID>  (1) 
P35354

>  <PDB ID.1>  (1) 
4COX

>  <Seq. Identity>  (1) 
84%

$$$$
