PDB_DB00196_01
     RDKit          3D

 48 50  0  0  0  0  0  0  0  0999 V2000
   -0.3564    0.1956    1.1918 O   0  0  0  0  0  0  0  0  0  0  0  0
    0.0141    0.1380   -0.1097 C   0  0  0  0  0  0  0  0  0  0  0  0
   -1.1401   -0.2920   -1.0345 C   0  0  0  0  0  0  0  0  0  0  0  0
    1.0820   -0.8661   -0.3844 C   0  0  0  0  0  0  0  0  0  0  0  0
    0.4295    1.5584   -0.4939 C   0  0  0  0  0  0  0  0  0  0  0  0
   -1.5770   -1.6096   -0.6016 N   0  0  0  0  0  0  0  0  0  0  0  0
   -2.4231   -2.2134   -1.6409 C   0  0  0  0  0  0  0  0  0  0  0  0
   -2.4643   -1.4923    0.4866 N   0  0  0  0  0  0  0  0  0  0  0  0
   -3.6338   -1.4440   -1.5052 N   0  0  0  0  0  0  0  0  0  0  0  0
   -3.8203   -1.5186   -0.0572 C   0  0  0  0  0  0  0  0  0  0  0  0
    0.6366   -2.2079   -0.0330 N   0  0  0  0  0  0  0  0  0  0  0  0
    1.6698   -3.1446   -0.5621 C   0  0  0  0  0  0  0  0  0  0  0  0
    0.9545   -2.3971    1.3485 N   0  0  0  0  0  0  0  0  0  0  0  0
    2.8542   -2.5242    0.0243 N   0  0  0  0  0  0  0  0  0  0  0  0
    2.3955   -2.2987    1.3823 C   0  0  0  0  0  0  0  0  0  0  0  0
   -0.7484    2.5086   -0.3448 C   0  0  0  0  0  0  0  0  0  0  0  0
    1.4830    2.1203    0.4204 C   0  0  0  0  0  0  0  0  0  0  0  0
   -0.2682    3.9311   -0.4585 C   0  0  0  0  0  0  0  0  0  0  0  0
    1.1160    4.0940   -0.9896 C   0  0  0  0  0  0  0  0  0  0  0  0
    1.4625    5.4349   -0.7553 F   0  0  0  0  0  0  0  0  0  0  0  0
    2.1592    3.2682   -0.3187 C   0  0  0  0  0  0  0  0  0  0  0  0
    2.3836    1.2333    0.9173 F   0  0  0  0  0  0  0  0  0  0  0  0
   -0.1467   -0.5361    1.7734 H   0  0  0  0  0  0  0  0  0  0  0  0
   -0.7743   -0.3677   -2.0770 H   0  0  0  0  0  0  0  0  0  0  0  0
   -1.9903    0.3833   -1.0131 H   0  0  0  0  0  0  0  0  0  0  0  0
    2.0820   -0.6532   -0.0189 H   0  0  0  0  0  0  0  0  0  0  0  0
    1.2030   -0.9157   -1.5214 H   0  0  0  0  0  0  0  0  0  0  0  0
    0.7408    1.5464   -1.5318 H   0  0  0  0  0  0  0  0  0  0  0  0
   -1.9469   -2.0439   -2.6093 H   0  0  0  0  0  0  0  0  0  0  0  0
   -2.5588   -3.2920   -1.3856 H   0  0  0  0  0  0  0  0  0  0  0  0
   -2.4007   -0.6102    1.0109 H   0  0  0  0  0  0  0  0  0  0  0  0
   -4.4645   -1.8521   -1.9502 H   0  0  0  0  0  0  0  0  0  0  0  0
   -4.4059   -0.6056    0.2326 H   0  0  0  0  0  0  0  0  0  0  0  0
   -4.3147   -2.4568    0.2266 H   0  0  0  0  0  0  0  0  0  0  0  0
    1.4713   -4.1424   -0.1707 H   0  0  0  0  0  0  0  0  0  0  0  0
    1.6661   -3.1651   -1.6478 H   0  0  0  0  0  0  0  0  0  0  0  0
    0.5759   -3.3024    1.6961 H   0  0  0  0  0  0  0  0  0  0  0  0
    3.6832   -3.1386    0.0256 H   0  0  0  0  0  0  0  0  0  0  0  0
    2.7662   -3.0775    2.0787 H   0  0  0  0  0  0  0  0  0  0  0  0
    2.6832   -1.3235    1.7887 H   0  0  0  0  0  0  0  0  0  0  0  0
   -1.1469    2.4059    0.7014 H   0  0  0  0  0  0  0  0  0  0  0  0
   -1.4855    2.3106   -1.1269 H   0  0  0  0  0  0  0  0  0  0  0  0
    0.9543    2.6641    1.2767 H   0  0  0  0  0  0  0  0  0  0  0  0
   -0.3239    4.4844    0.5220 H   0  0  0  0  0  0  0  0  0  0  0  0
   -0.9422    4.4927   -1.1514 H   0  0  0  0  0  0  0  0  0  0  0  0
    1.1926    3.9860   -2.1104 H   0  0  0  0  0  0  0  0  0  0  0  0
    2.9406    2.8806   -1.0100 H   0  0  0  0  0  0  0  0  0  0  0  0
    2.7331    3.8550    0.4586 H   0  0  0  0  0  0  0  0  0  0  0  0
  2  1  1  0
  2  3  1  0
  2  4  1  0
  2  5  1  0
  3  6  1  0
  6  7  1  0
  6  8  1  0
  7  9  1  0
  8 10  1  0
  9 10  1  0
  4 11  1  0
 11 12  1  0
 11 13  1  0
 12 14  1  0
 13 15  1  0
 15 14  1  0
  5 16  1  0
  5 17  1  0
 16 18  1  0
 18 19  1  0
 19 20  1  0
 17 21  1  0
 19 21  1  0
 17 22  1  0
  1 23  1  0
  3 24  1  0
  3 25  1  0
  4 26  1  0
  4 27  1  0
  5 28  1  0
  7 29  1  0
  7 30  1  0
  8 31  1  0
  9 32  1  0
 10 33  1  0
 10 34  1  0
 12 35  1  0
 12 36  1  0
 13 37  1  0
 14 38  1  0
 15 39  1  0
 15 40  1  0
 16 41  1  0
 16 42  1  0
 17 43  1  0
 18 44  1  0
 18 45  1  0
 19 46  1  0
 21 47  1  0
 21 48  1  0
M  END
>  <PDBID>  (1) 
5ESM

>  <PDB ID>  (1) 
5ESM

>  <Generic Name>  (1) 
Fluconazole

>  <Brand Name>  (1) 
Act Fluconazole#Apo-fluconazole#Apo-fluconazole-150#Canesoral#Canesoral Combi-pak#Clotrimaderm-fluconazole Combi-pack#Clotrimazole-fluconazole Combi-pack#Co Fluconazole-150#Diflucan#Diflucan Inj 2mg/ml#Diflucan One#Diflucan Pws 50mg/5ml#Diflucan Tab 100mg#Diflucan Tab 50mg#Dom-fluconazole#Fluconazole#Fluconazole 150#Fluconazole In Sodium Chloride Injection USP#Fluconazole Injection#Fluconazole Injection Sdz#Fluconazole Omega#Fluconazole-150#Jamp-fluconazole#Mar-fluconazole-150#Monicure#Monicure Combo#Mylan-fluconazole#Novo-fluconazole#Novo-fluconazole-150#Nu-fluconazole-150#PHL-fluconazole#PMS-fluconazole#PMS-fluconazole-150#Priva-fluconazole#Pro-fluconazole#Riva-fluconazole#Taro-fluconazole#Teva-fluconazole#Elazor#Flucazol#Flucostat#Flunizol#Pritenzol#Trican#Triflucan

>  <DrugBank ID>  (1) 
DB00196

>  <ATC Codes>  (1) 
D01AC15#J02AC01#J01RA07

>  <Ligand ID>  (1) 
TPF

>  <Target Name>  (1) 
Lanosterol 14-alpha demethylase

>  <UniProt ID>  (1) 
P10613

>  <PDB ID.1>  (1) 
5ESM

>  <Seq. Identity>  (1) 
65%

$$$$
