PDB_DB12332_07
     RDKit          3D

116122  0  0  0  0  0  0  0  0999 V2000
   -5.4010   -0.7386    1.8382 O   0  0  0  0  0  0  0  0  0  0  0  0
   -4.1461   -0.8727    1.2815 C   0  0  1  0  0  0  0  0  0  0  0  0
   -4.1033   -1.5661    0.0448 N   0  0  0  0  0  0  0  0  0  0  0  0
   -2.9985   -2.4094   -0.1282 C   0  0  0  0  0  0  0  0  0  0  0  0
   -1.6584   -1.8203   -0.1619 C   0  0  0  0  0  0  0  0  0  0  0  0
   -1.3515   -0.5995    0.6208 C   0  0  0  0  0  0  0  0  0  0  0  0
   -2.2607    0.5503    0.4644 C   0  0  0  0  0  0  0  0  0  0  0  0
   -3.6200    0.5451    0.9897 C   0  0  0  0  0  0  0  0  0  0  0  0
   -4.6306    1.3306    0.2273 C   0  0  0  0  0  0  0  0  0  0  0  0
   -4.2096    2.0573   -0.9757 C   0  0  0  0  0  0  0  0  0  0  0  0
   -4.7131    3.3538   -1.0260 F   0  0  0  0  0  0  0  0  0  0  0  0
   -2.7248    2.1751   -1.1978 C   0  0  0  0  0  0  0  0  0  0  0  0
   -2.1696    0.7723   -1.0508 C   0  0  0  0  0  0  0  0  0  0  0  0
   -0.7567    0.6888   -1.2574 N   0  0  0  0  0  0  0  0  0  0  0  0
   -0.1715    0.0738   -0.1112 C   0  0  2  0  0  0  0  0  0  0  0  0
    1.0287   -0.7414   -0.2915 C   0  0  0  0  0  0  0  0  0  0  0  0
    1.6890   -0.9863    1.0139 C   0  0  0  0  0  0  0  0  0  0  0  0
    2.9211   -0.1459    1.2737 C   0  0  0  0  0  0  0  0  0  0  0  0
    1.8665   -0.2019   -1.3862 C   0  0  0  0  0  0  0  0  0  0  0  0
    3.2736    0.0818   -1.1148 C   0  0  0  0  0  0  0  0  0  0  0  0
    3.8726   -0.4729    0.1564 C   0  0  0  0  0  0  0  0  0  0  0  0
    5.2114    0.2486    0.3104 C   0  0  0  0  0  0  0  0  0  0  0  0
    5.9858   -0.1506   -0.8576 N   0  0  0  0  0  0  0  0  0  0  0  0
    7.1034    0.7627   -0.9430 C   0  0  0  0  0  0  0  0  0  0  0  0
   -5.4010   -0.7386    1.8382 O   0  0  0  0  0  0  0  0  0  0  0  0
   -4.1461   -0.8727    1.2815 C   0  0  1  0  0  0  0  0  0  0  0  0
   -4.1033   -1.5661    0.0448 N   0  0  0  0  0  0  0  0  0  0  0  0
   -2.9985   -2.4094   -0.1282 C   0  0  0  0  0  0  0  0  0  0  0  0
   -1.6584   -1.8203   -0.1619 C   0  0  0  0  0  0  0  0  0  0  0  0
   -1.3515   -0.5995    0.6208 C   0  0  0  0  0  0  0  0  0  0  0  0
   -2.2607    0.5503    0.4644 C   0  0  0  0  0  0  0  0  0  0  0  0
   -3.6200    0.5451    0.9897 C   0  0  0  0  0  0  0  0  0  0  0  0
   -4.6306    1.3306    0.2273 C   0  0  0  0  0  0  0  0  0  0  0  0
   -4.2096    2.0573   -0.9757 C   0  0  0  0  0  0  0  0  0  0  0  0
   -4.7131    3.3538   -1.0260 F   0  0  0  0  0  0  0  0  0  0  0  0
   -2.7248    2.1751   -1.1978 C   0  0  0  0  0  0  0  0  0  0  0  0
   -2.1696    0.7723   -1.0508 C   0  0  0  0  0  0  0  0  0  0  0  0
   -0.7567    0.6888   -1.2574 N   0  0  0  0  0  0  0  0  0  0  0  0
   -0.1715    0.0738   -0.1112 C   0  0  2  0  0  0  0  0  0  0  0  0
    1.0287   -0.7414   -0.2915 C   0  0  0  0  0  0  0  0  0  0  0  0
    1.6890   -0.9863    1.0139 C   0  0  0  0  0  0  0  0  0  0  0  0
    2.9211   -0.1459    1.2737 C   0  0  0  0  0  0  0  0  0  0  0  0
    1.8665   -0.2019   -1.3862 C   0  0  0  0  0  0  0  0  0  0  0  0
    3.2736    0.0818   -1.1148 C   0  0  0  0  0  0  0  0  0  0  0  0
    3.8726   -0.4729    0.1564 C   0  0  0  0  0  0  0  0  0  0  0  0
    5.2114    0.2486    0.3104 C   0  0  0  0  0  0  0  0  0  0  0  0
    5.9858   -0.1506   -0.8576 N   0  0  0  0  0  0  0  0  0  0  0  0
    7.1034    0.7627   -0.9430 C   0  0  0  0  0  0  0  0  0  0  0  0
   -5.4193    0.1129    2.3777 H   0  0  0  0  0  0  0  0  0  0  0  0
   -3.4255   -1.3773    1.9760 H   0  0  0  0  0  0  0  0  0  0  0  0
   -4.5978   -1.1787   -0.7443 H   0  0  0  0  0  0  0  0  0  0  0  0
   -3.1601   -2.9640   -1.1060 H   0  0  0  0  0  0  0  0  0  0  0  0
   -3.0821   -3.2455    0.6337 H   0  0  0  0  0  0  0  0  0  0  0  0
   -1.3535   -1.6552   -1.2400 H   0  0  0  0  0  0  0  0  0  0  0  0
   -0.9429   -2.6201    0.1990 H   0  0  0  0  0  0  0  0  0  0  0  0
   -1.0268   -0.7401    1.6539 H   0  0  0  0  0  0  0  0  0  0  0  0
   -1.7210    1.4522    0.8764 H   0  0  0  0  0  0  0  0  0  0  0  0
   -3.5903    0.9919    2.0319 H   0  0  0  0  0  0  0  0  0  0  0  0
   -5.1964    2.0632    0.8837 H   0  0  0  0  0  0  0  0  0  0  0  0
   -5.4560    0.6161   -0.0783 H   0  0  0  0  0  0  0  0  0  0  0  0
   -4.6058    1.5751   -1.9219 H   0  0  0  0  0  0  0  0  0  0  0  0
   -2.5583    2.6165   -2.1812 H   0  0  0  0  0  0  0  0  0  0  0  0
   -2.3126    2.8110   -0.3862 H   0  0  0  0  0  0  0  0  0  0  0  0
   -2.7577    0.0417   -1.6177 H   0  0  0  0  0  0  0  0  0  0  0  0
   -0.5838    0.0973   -2.1121 H   0  0  0  0  0  0  0  0  0  0  0  0
    0.0952    0.9243    0.5879 H   0  0  0  0  0  0  0  0  0  0  0  0
    0.7020   -1.7784   -0.6413 H   0  0  0  0  0  0  0  0  0  0  0  0
    1.0062   -0.7613    1.8843 H   0  0  0  0  0  0  0  0  0  0  0  0
    1.9905   -2.0426    1.1905 H   0  0  0  0  0  0  0  0  0  0  0  0
    2.6682    0.9455    1.1356 H   0  0  0  0  0  0  0  0  0  0  0  0
    3.2769   -0.3619    2.2758 H   0  0  0  0  0  0  0  0  0  0  0  0
    1.4006    0.7670   -1.7569 H   0  0  0  0  0  0  0  0  0  0  0  0
    1.8300   -0.8496   -2.3106 H   0  0  0  0  0  0  0  0  0  0  0  0
    3.9688   -0.2498   -1.9275 H   0  0  0  0  0  0  0  0  0  0  0  0
    3.4722    1.1903   -1.0414 H   0  0  0  0  0  0  0  0  0  0  0  0
    4.0681   -1.5423    0.1528 H   0  0  0  0  0  0  0  0  0  0  0  0
    5.1066    1.3291    0.3840 H   0  0  0  0  0  0  0  0  0  0  0  0
    5.7238   -0.1308    1.2063 H   0  0  0  0  0  0  0  0  0  0  0  0
    6.4082   -1.1036   -0.7188 H   0  0  0  0  0  0  0  0  0  0  0  0
    6.6521    1.7205   -1.3536 H   0  0  0  0  0  0  0  0  0  0  0  0
    7.4693    1.0071    0.0806 H   0  0  0  0  0  0  0  0  0  0  0  0
    7.9148    0.4048   -1.5814 H   0  0  0  0  0  0  0  0  0  0  0  0
   -5.4193    0.1129    2.3777 H   0  0  0  0  0  0  0  0  0  0  0  0
   -3.4255   -1.3773    1.9760 H   0  0  0  0  0  0  0  0  0  0  0  0
   -4.5978   -1.1787   -0.7443 H   0  0  0  0  0  0  0  0  0  0  0  0
   -3.1601   -2.9640   -1.1060 H   0  0  0  0  0  0  0  0  0  0  0  0
   -3.0821   -3.2455    0.6337 H   0  0  0  0  0  0  0  0  0  0  0  0
   -1.3535   -1.6552   -1.2400 H   0  0  0  0  0  0  0  0  0  0  0  0
   -0.9429   -2.6201    0.1990 H   0  0  0  0  0  0  0  0  0  0  0  0
   -1.0268   -0.7401    1.6539 H   0  0  0  0  0  0  0  0  0  0  0  0
   -1.7210    1.4522    0.8764 H   0  0  0  0  0  0  0  0  0  0  0  0
   -3.5903    0.9919    2.0319 H   0  0  0  0  0  0  0  0  0  0  0  0
   -5.1964    2.0632    0.8837 H   0  0  0  0  0  0  0  0  0  0  0  0
   -5.4560    0.6161   -0.0783 H   0  0  0  0  0  0  0  0  0  0  0  0
   -4.6058    1.5751   -1.9219 H   0  0  0  0  0  0  0  0  0  0  0  0
   -2.5583    2.6165   -2.1812 H   0  0  0  0  0  0  0  0  0  0  0  0
   -2.3126    2.8110   -0.3862 H   0  0  0  0  0  0  0  0  0  0  0  0
   -2.7577    0.0417   -1.6177 H   0  0  0  0  0  0  0  0  0  0  0  0
   -0.5838    0.0973   -2.1121 H   0  0  0  0  0  0  0  0  0  0  0  0
    0.0952    0.9243    0.5879 H   0  0  0  0  0  0  0  0  0  0  0  0
    0.7020   -1.7784   -0.6413 H   0  0  0  0  0  0  0  0  0  0  0  0
    1.0062   -0.7613    1.8843 H   0  0  0  0  0  0  0  0  0  0  0  0
    1.9905   -2.0426    1.1905 H   0  0  0  0  0  0  0  0  0  0  0  0
    2.6682    0.9455    1.1356 H   0  0  0  0  0  0  0  0  0  0  0  0
    3.2769   -0.3619    2.2758 H   0  0  0  0  0  0  0  0  0  0  0  0
    1.4006    0.7670   -1.7569 H   0  0  0  0  0  0  0  0  0  0  0  0
    1.8300   -0.8496   -2.3106 H   0  0  0  0  0  0  0  0  0  0  0  0
    3.9688   -0.2498   -1.9275 H   0  0  0  0  0  0  0  0  0  0  0  0
    3.4722    1.1903   -1.0414 H   0  0  0  0  0  0  0  0  0  0  0  0
    4.0681   -1.5423    0.1528 H   0  0  0  0  0  0  0  0  0  0  0  0
    5.1066    1.3291    0.3840 H   0  0  0  0  0  0  0  0  0  0  0  0
    5.7238   -0.1308    1.2063 H   0  0  0  0  0  0  0  0  0  0  0  0
    6.4082   -1.1036   -0.7188 H   0  0  0  0  0  0  0  0  0  0  0  0
    6.6521    1.7205   -1.3536 H   0  0  0  0  0  0  0  0  0  0  0  0
    7.4693    1.0071    0.0806 H   0  0  0  0  0  0  0  0  0  0  0  0
    7.9148    0.4048   -1.5814 H   0  0  0  0  0  0  0  0  0  0  0  0
  1  2  1  0
  2  3  1  0
  3  4  1  0
  4  5  1  0
  5  6  1  0
  6  7  1  0
  2  8  1  0
  7  8  1  0
  8  9  1  0
  9 10  1  0
 10 11  1  0
 10 12  1  0
  7 13  1  0
 12 13  1  0
 13 14  1  0
  6 15  1  0
 14 15  1  0
 15 16  1  0
 16 17  1  0
 17 18  1  0
 16 19  1  0
 19 20  1  0
 18 21  1  0
 20 21  1  0
 21 22  1  0
 22 23  1  0
 23 24  1  0
 25 26  1  0
 26 27  1  0
 27 28  1  0
 28 29  1  0
 29 30  1  0
 30 31  1  0
 26 32  1  0
 31 32  1  0
 32 33  1  0
 33 34  1  0
 34 35  1  0
 34 36  1  0
 31 37  1  0
 36 37  1  0
 37 38  1  0
 30 39  1  0
 38 39  1  0
 39 40  1  0
 40 41  1  0
 41 42  1  0
 40 43  1  0
 43 44  1  0
 42 45  1  0
 44 45  1  0
 45 46  1  0
 46 47  1  0
 47 48  1  0
  1 49  1  0
  2 50  1  1
  3 51  1  0
  4 52  1  0
  4 53  1  0
  5 54  1  0
  5 55  1  0
  6 56  1  0
  7 57  1  0
  8 58  1  0
  9 59  1  0
  9 60  1  0
 10 61  1  0
 12 62  1  0
 12 63  1  0
 13 64  1  0
 14 65  1  0
 15 66  1  1
 16 67  1  0
 17 68  1  0
 17 69  1  0
 18 70  1  0
 18 71  1  0
 19 72  1  0
 19 73  1  0
 20 74  1  0
 20 75  1  0
 21 76  1  0
 22 77  1  0
 22 78  1  0
 23 79  1  0
 24 80  1  0
 24 81  1  0
 24 82  1  0
 25 83  1  0
 26 84  1  1
 27 85  1  0
 28 86  1  0
 28 87  1  0
 29 88  1  0
 29 89  1  0
 30 90  1  0
 31 91  1  0
 32 92  1  0
 33 93  1  0
 33 94  1  0
 34 95  1  0
 36 96  1  0
 36 97  1  0
 37 98  1  0
 38 99  1  0
 39100  1  1
 40101  1  0
 41102  1  0
 41103  1  0
 42104  1  0
 42105  1  0
 43106  1  0
 43107  1  0
 44108  1  0
 44109  1  0
 45110  1  0
 46111  1  0
 46112  1  0
 47113  1  0
 48114  1  0
 48115  1  0
 48116  1  0
M  END
>  <PDBID>  (1) 
4RV6

>  <PDB ID>  (1) 
4RV6

>  <Generic Name>  (1) 
Rucaparib

>  <Brand Name>  (1) 
Rubraca

>  <DrugBank ID>  (1) 
DB12332

>  <ATC Codes>  (1) 
nan

>  <Ligand ID>  (1) 
RPB

>  <Target Name>  (1) 
Poly [ADP-ribose] polymerase 1

>  <UniProt ID>  (1) 
P09874

>  <PDB ID.1>  (1) 
4RV6

>  <Seq. Identity>  (1) 
100%

$$$$
