PDB_DB09053_00
     RDKit          3D

 81 85  0  0  0  0  0  0  0  0999 V2000
    2.3068   -2.8434   -2.1996 N   0  0  0  0  0  0  0  0  0  0  0  0
    2.5060   -3.7676   -1.0998 C   0  0  0  0  0  0  0  0  0  0  0  0
    2.7533   -2.9479    0.0689 N   0  0  0  0  0  0  0  0  0  0  0  0
    1.7817   -1.9534    0.2905 C   0  0  0  0  0  0  0  0  0  0  0  0
    0.5601   -2.0774   -0.6393 C   0  0  0  0  0  0  0  0  0  0  0  0
    1.0676   -2.1016   -2.0378 C   0  0  1  0  0  0  0  0  0  0  0  0
    7.4750    2.9627   -0.1403 C   0  0  0  0  0  0  0  0  0  0  0  0
    1.3001   -0.7895   -2.6013 N   0  0  0  0  0  0  0  0  0  0  0  0
    5.7595    1.0981   -1.4799 O   0  0  0  0  0  0  0  0  0  0  0  0
    7.4246    1.4940    0.1314 C   0  0  0  0  0  0  0  0  0  0  0  0
   -8.5218    1.4490   -0.0636 C   0  0  0  0  0  0  0  0  0  0  0  0
   -7.2448    2.0914   -0.6173 C   0  0  0  0  0  0  0  0  0  0  0  0
   -8.2031    0.0559    0.3993 C   0  0  0  0  0  0  0  0  0  0  0  0
   -6.2064    1.9643    0.4701 C   0  0  0  0  0  0  0  0  0  0  0  0
   -6.8015   -0.3682    0.0206 C   0  0  0  0  0  0  0  0  0  0  0  0
   -2.4522    0.7947    0.7993 C   0  0  0  0  0  0  0  0  0  0  0  0
   -3.0021   -1.5178    0.2554 C   0  0  0  0  0  0  0  0  0  0  0  0
   -1.7672    0.9516   -0.5343 C   0  0  0  0  0  0  0  0  0  0  0  0
   -2.3495   -1.3454   -1.0935 C   0  0  0  0  0  0  0  0  0  0  0  0
    3.8026    1.0866    2.7718 C   0  0  0  0  0  0  0  0  0  0  0  0
    2.8232    0.1671    2.1192 C   0  0  0  0  0  0  0  0  0  0  0  0
    5.1232    1.1976    2.0652 C   0  0  0  0  0  0  0  0  0  0  0  0
    3.7128    1.2223    0.1179 C   0  0  0  0  0  0  0  0  0  0  0  0
    1.0130    0.1175   -0.1762 N   0  0  0  0  0  0  0  0  0  0  0  0
   -4.5588    0.2892   -0.0924 O   0  0  0  0  0  0  0  0  0  0  0  0
    6.0871    0.8951   -0.1296 C   0  0  0  0  0  0  0  0  0  0  0  0
   -5.7539    0.5511    0.5669 C   0  0  0  0  0  0  0  0  0  0  0  0
   -3.5796   -0.2121    0.7292 C   0  0  0  0  0  0  0  0  0  0  0  0
   -1.2270   -0.3548   -1.0819 C   0  0  0  0  0  0  0  0  0  0  0  0
   -0.0927   -0.7779   -0.2305 C   0  0  0  0  0  0  0  0  0  0  0  0
    3.1995   -0.0739    0.7095 C   0  0  2  0  0  0  0  0  0  0  0  0
    2.2004   -0.6111   -0.1514 N   0  0  0  0  0  0  0  0  0  0  0  0
    5.0282    1.3978    0.6608 N   0  0  0  0  0  0  0  0  0  0  0  0
    2.3408   -3.3282   -3.0997 H   0  0  0  0  0  0  0  0  0  0  0  0
    1.5416   -4.2812   -0.9372 H   0  0  0  0  0  0  0  0  0  0  0  0
    3.3426   -4.4361   -1.3034 H   0  0  0  0  0  0  0  0  0  0  0  0
    3.1019   -3.4598    0.8820 H   0  0  0  0  0  0  0  0  0  0  0  0
    1.3898   -1.9503    1.3086 H   0  0  0  0  0  0  0  0  0  0  0  0
   -0.0470   -2.9582   -0.3739 H   0  0  0  0  0  0  0  0  0  0  0  0
    0.3336   -2.6005   -2.7383 H   0  0  0  0  0  0  0  0  0  0  0  0
    6.4580    3.3024   -0.4710 H   0  0  0  0  0  0  0  0  0  0  0  0
    8.1712    3.2362   -0.9617 H   0  0  0  0  0  0  0  0  0  0  0  0
    7.8171    3.5421    0.7466 H   0  0  0  0  0  0  0  0  0  0  0  0
    1.0492   -0.7404   -3.6268 H   0  0  0  0  0  0  0  0  0  0  0  0
    2.2900   -0.4818   -2.5382 H   0  0  0  0  0  0  0  0  0  0  0  0
    6.3993    0.6419   -2.0836 H   0  0  0  0  0  0  0  0  0  0  0  0
    8.1493    1.0022   -0.5815 H   0  0  0  0  0  0  0  0  0  0  0  0
    7.8059    1.2213    1.1406 H   0  0  0  0  0  0  0  0  0  0  0  0
   -8.7865    2.0461    0.8323 H   0  0  0  0  0  0  0  0  0  0  0  0
   -9.3580    1.5077   -0.7720 H   0  0  0  0  0  0  0  0  0  0  0  0
   -6.9705    1.5046   -1.5171 H   0  0  0  0  0  0  0  0  0  0  0  0
   -7.4316    3.1537   -0.8764 H   0  0  0  0  0  0  0  0  0  0  0  0
   -8.9005   -0.6368   -0.1150 H   0  0  0  0  0  0  0  0  0  0  0  0
   -8.3782   -0.0862    1.4987 H   0  0  0  0  0  0  0  0  0  0  0  0
   -5.3859    2.6982    0.3601 H   0  0  0  0  0  0  0  0  0  0  0  0
   -6.7138    2.2341    1.4373 H   0  0  0  0  0  0  0  0  0  0  0  0
   -6.7593   -0.4757   -1.0743 H   0  0  0  0  0  0  0  0  0  0  0  0
   -6.6503   -1.3876    0.4438 H   0  0  0  0  0  0  0  0  0  0  0  0
   -2.8317    1.7882    1.0830 H   0  0  0  0  0  0  0  0  0  0  0  0
   -1.6835    0.5167    1.5414 H   0  0  0  0  0  0  0  0  0  0  0  0
   -2.2409   -1.8382    1.0016 H   0  0  0  0  0  0  0  0  0  0  0  0
   -3.7606   -2.3294    0.2231 H   0  0  0  0  0  0  0  0  0  0  0  0
   -2.5367    1.3316   -1.2511 H   0  0  0  0  0  0  0  0  0  0  0  0
   -0.9773    1.7175   -0.4959 H   0  0  0  0  0  0  0  0  0  0  0  0
   -3.1376   -1.0116   -1.8017 H   0  0  0  0  0  0  0  0  0  0  0  0
   -2.0407   -2.3537   -1.4321 H   0  0  0  0  0  0  0  0  0  0  0  0
    4.0118    0.6711    3.7944 H   0  0  0  0  0  0  0  0  0  0  0  0
    3.3748    2.1108    2.9784 H   0  0  0  0  0  0  0  0  0  0  0  0
    2.6569   -0.7770    2.7030 H   0  0  0  0  0  0  0  0  0  0  0  0
    1.8227    0.6915    2.1554 H   0  0  0  0  0  0  0  0  0  0  0  0
    5.7026    1.9949    2.5745 H   0  0  0  0  0  0  0  0  0  0  0  0
    5.6730    0.2470    2.2416 H   0  0  0  0  0  0  0  0  0  0  0  0
    3.0186    2.0690    0.3535 H   0  0  0  0  0  0  0  0  0  0  0  0
    3.7658    1.0780   -0.9826 H   0  0  0  0  0  0  0  0  0  0  0  0
    0.9394    0.8293   -0.9053 H   0  0  0  0  0  0  0  0  0  0  0  0
    6.1480   -0.2056    0.0093 H   0  0  0  0  0  0  0  0  0  0  0  0
   -5.6180    0.2793    1.6528 H   0  0  0  0  0  0  0  0  0  0  0  0
   -3.9395   -0.3180    1.7951 H   0  0  0  0  0  0  0  0  0  0  0  0
   -0.9290   -0.1040   -2.1327 H   0  0  0  0  0  0  0  0  0  0  0  0
   -0.4493   -0.9252    0.8094 H   0  0  0  0  0  0  0  0  0  0  0  0
    4.0585   -0.7890    0.6977 H   0  0  0  0  0  0  0  0  0  0  0  0
  1  2  1  0
  2  3  1  0
  3  4  1  0
  4  5  1  0
  1  6  1  0
  5  6  1  0
  6  8  1  0
  7 10  1  0
 11 12  1  0
 11 13  1  0
 12 14  1  0
 13 15  1  0
 16 18  1  0
 17 19  1  0
 20 21  1  0
 20 22  1  0
  9 26  1  0
 10 26  1  0
 14 27  1  0
 15 27  1  0
 25 27  1  0
 16 28  1  0
 17 28  1  0
 25 28  1  0
 18 29  1  0
 19 29  1  0
  5 30  1  0
 24 30  1  0
 29 30  1  0
 21 31  1  0
 23 31  1  0
  4 32  1  0
 24 32  1  0
 31 32  1  0
 22 33  1  0
 23 33  1  0
 26 33  1  0
  1 34  1  0
  2 35  1  0
  2 36  1  0
  3 37  1  0
  4 38  1  0
  5 39  1  0
  6 40  1  6
  7 41  1  0
  7 42  1  0
  7 43  1  0
  8 44  1  0
  8 45  1  0
  9 46  1  0
 10 47  1  0
 10 48  1  0
 11 49  1  0
 11 50  1  0
 12 51  1  0
 12 52  1  0
 13 53  1  0
 13 54  1  0
 14 55  1  0
 14 56  1  0
 15 57  1  0
 15 58  1  0
 16 59  1  0
 16 60  1  0
 17 61  1  0
 17 62  1  0
 18 63  1  0
 18 64  1  0
 19 65  1  0
 19 66  1  0
 20 67  1  0
 20 68  1  0
 21 69  1  0
 21 70  1  0
 22 71  1  0
 22 72  1  0
 23 73  1  0
 23 74  1  0
 24 75  1  0
 26 76  1  0
 27 77  1  0
 28 78  1  0
 29 79  1  0
 30 80  1  0
 31 81  1  1
M  END
>  <PDBID>  (1) 
5P9I

>  <PDB ID>  (1) 
5P9I

>  <Generic Name>  (1) 
Ibrutinib

>  <Brand Name>  (1) 
Imbruvica

>  <DrugBank ID>  (1) 
DB09053

>  <ATC Codes>  (1) 
L01XE27

>  <Ligand ID>  (1) 
100000000

>  <Target Name>  (1) 
Tyrosine-protein kinase BTK

>  <UniProt ID>  (1) 
Q06187

>  <PDB ID.1>  (1) 
5P9I

>  <Seq. Identity>  (1) 
100%

$$$$
