PDB_DB01113_09
     RDKit          3D

 62 64  0  0  0  0  0  0  0  0999 V2000
    5.1222    1.5809   -1.8782 C   0  0  0  0  0  0  0  0  0  0  0  0
    4.5776    1.3223   -0.6183 O   0  0  0  0  0  0  0  0  0  0  0  0
    4.0219    0.0533   -0.5483 C   0  0  0  0  0  0  0  0  0  0  0  0
    4.6669   -0.7734    0.5417 C   0  0  0  0  0  0  0  0  0  0  0  0
    6.0345   -0.7679    0.3212 O   0  0  0  0  0  0  0  0  0  0  0  0
    6.7079   -0.1726    1.4016 C   0  0  0  0  0  0  0  0  0  0  0  0
    4.1138   -2.1789    0.4747 C   0  0  0  0  0  0  0  0  0  0  0  0
    2.6890   -2.1940   -0.0400 C   0  0  0  0  0  0  0  0  0  0  0  0
    2.5319    0.2531   -0.2584 C   0  0  0  0  0  0  0  0  0  0  0  0
    1.9527   -0.9561    0.4363 C   0  0  0  0  0  0  0  0  0  0  0  0
    0.5155   -1.0924    0.0598 C   0  0  0  0  0  0  0  0  0  0  0  0
   -0.3351    0.0755    0.4789 C   0  0  0  0  0  0  0  0  0  0  0  0
    0.0207    1.3300   -0.0533 N   0  0  0  0  0  0  0  0  0  0  0  0
   -0.5563    1.7548   -1.2640 C   0  0  0  0  0  0  0  0  0  0  0  0
   -1.8710    1.2187   -1.6523 C   0  0  0  0  0  0  0  0  0  0  0  0
   -2.1888   -0.1483   -1.1100 C   0  0  0  0  0  0  0  0  0  0  0  0
   -1.7785   -0.3297    0.3136 C   0  0  0  0  0  0  0  0  0  0  0  0
   -2.6281    0.4305    1.2875 C   0  0  0  0  0  0  0  0  0  0  0  0
   -4.1015    0.3268    1.0024 C   0  0  0  0  0  0  0  0  0  0  0  0
   -4.5620    1.5537    0.5978 O   0  0  0  0  0  0  0  0  0  0  0  0
   -5.5222    2.1037    1.4134 C   0  0  0  0  0  0  0  0  0  0  0  0
   -4.3276   -0.7715   -0.0102 C   0  0  0  0  0  0  0  0  0  0  0  0
   -3.6686   -0.3858   -1.3153 C   0  0  0  0  0  0  0  0  0  0  0  0
   -5.6658   -1.0295   -0.2181 O   0  0  0  0  0  0  0  0  0  0  0  0
   -5.9791   -2.3475    0.1237 C   0  0  0  0  0  0  0  0  0  0  0  0
    5.5542    2.5929   -1.9020 H   0  0  0  0  0  0  0  0  0  0  0  0
    5.8573    0.7771   -2.1014 H   0  0  0  0  0  0  0  0  0  0  0  0
    4.3020    1.4786   -2.6312 H   0  0  0  0  0  0  0  0  0  0  0  0
    4.1257   -0.4836   -1.4974 H   0  0  0  0  0  0  0  0  0  0  0  0
    4.3901   -0.3170    1.5042 H   0  0  0  0  0  0  0  0  0  0  0  0
    6.3944    0.8623    1.5578 H   0  0  0  0  0  0  0  0  0  0  0  0
    6.4155   -0.7303    2.3352 H   0  0  0  0  0  0  0  0  0  0  0  0
    7.7948   -0.2500    1.2793 H   0  0  0  0  0  0  0  0  0  0  0  0
    4.7226   -2.7365   -0.2616 H   0  0  0  0  0  0  0  0  0  0  0  0
    4.2186   -2.6370    1.4679 H   0  0  0  0  0  0  0  0  0  0  0  0
    2.1770   -3.0685    0.4005 H   0  0  0  0  0  0  0  0  0  0  0  0
    2.6632   -2.2743   -1.1400 H   0  0  0  0  0  0  0  0  0  0  0  0
    2.3765    1.1274    0.3862 H   0  0  0  0  0  0  0  0  0  0  0  0
    2.0580    0.3767   -1.2507 H   0  0  0  0  0  0  0  0  0  0  0  0
    2.0634   -0.9180    1.5383 H   0  0  0  0  0  0  0  0  0  0  0  0
    0.1200   -2.0015    0.5652 H   0  0  0  0  0  0  0  0  0  0  0  0
    0.4086   -1.1933   -1.0396 H   0  0  0  0  0  0  0  0  0  0  0  0
   -0.1877    0.1492    1.6006 H   0  0  0  0  0  0  0  0  0  0  0  0
    0.1971    2.0815    0.6492 H   0  0  0  0  0  0  0  0  0  0  0  0
    0.1857    1.5979   -2.1008 H   0  0  0  0  0  0  0  0  0  0  0  0
   -0.6485    2.8816   -1.2204 H   0  0  0  0  0  0  0  0  0  0  0  0
   -2.6924    1.9419   -1.3810 H   0  0  0  0  0  0  0  0  0  0  0  0
   -1.9218    1.1441   -2.7628 H   0  0  0  0  0  0  0  0  0  0  0  0
   -1.6291   -0.8863   -1.7234 H   0  0  0  0  0  0  0  0  0  0  0  0
   -1.8328   -1.4236    0.5394 H   0  0  0  0  0  0  0  0  0  0  0  0
   -2.4281   -0.0012    2.2994 H   0  0  0  0  0  0  0  0  0  0  0  0
   -2.2815    1.4961    1.3519 H   0  0  0  0  0  0  0  0  0  0  0  0
   -4.6540    0.0667    1.9479 H   0  0  0  0  0  0  0  0  0  0  0  0
   -5.8053    3.0896    0.9732 H   0  0  0  0  0  0  0  0  0  0  0  0
   -5.0951    2.3338    2.4169 H   0  0  0  0  0  0  0  0  0  0  0  0
   -6.4575    1.5166    1.4661 H   0  0  0  0  0  0  0  0  0  0  0  0
   -3.8501   -1.6789    0.3742 H   0  0  0  0  0  0  0  0  0  0  0  0
   -3.8437   -1.2532   -2.0133 H   0  0  0  0  0  0  0  0  0  0  0  0
   -4.1761    0.4738   -1.7898 H   0  0  0  0  0  0  0  0  0  0  0  0
   -5.7427   -2.5090    1.1964 H   0  0  0  0  0  0  0  0  0  0  0  0
   -7.0710   -2.5070    0.0067 H   0  0  0  0  0  0  0  0  0  0  0  0
   -5.4768   -3.0884   -0.5274 H   0  0  0  0  0  0  0  0  0  0  0  0
  1  2  1  0
  2  3  1  0
  3  4  1  0
  4  5  1  0
  5  6  1  0
  4  7  1  0
  7  8  1  0
  3  9  1  0
  8 10  1  0
  9 10  1  0
 10 11  1  0
 11 12  1  0
 12 13  1  0
 13 14  1  0
 14 15  1  0
 15 16  1  0
 12 17  1  0
 16 17  1  0
 17 18  1  0
 18 19  1  0
 19 20  1  0
 20 21  1  0
 19 22  1  0
 16 23  1  0
 22 23  1  0
 22 24  1  0
 24 25  1  0
  1 26  1  0
  1 27  1  0
  1 28  1  0
  3 29  1  0
  4 30  1  0
  6 31  1  0
  6 32  1  0
  6 33  1  0
  7 34  1  0
  7 35  1  0
  8 36  1  0
  8 37  1  0
  9 38  1  0
  9 39  1  0
 10 40  1  0
 11 41  1  0
 11 42  1  0
 12 43  1  0
 13 44  1  0
 14 45  1  0
 14 46  1  0
 15 47  1  0
 15 48  1  0
 16 49  1  0
 17 50  1  0
 18 51  1  0
 18 52  1  0
 19 53  1  0
 21 54  1  0
 21 55  1  0
 21 56  1  0
 22 57  1  0
 23 58  1  0
 23 59  1  0
 25 60  1  0
 25 61  1  0
 25 62  1  0
M  END
>  <PDBID>  (1) 
3IAK

>  <PDB ID>  (1) 
3IAK

>  <Generic Name>  (1) 
Papaverine

>  <Brand Name>  (1) 
Papaverine Hydrochloride#Papaverine Hydrochloride Injection USP#Alapav#Albatran#Artegodan#Cardioverina#Cerebid#Cerespan#Delapav#Dilaves#Dispamil#Drapavel#Durapav#Dynovas#Mesotina#Myobid#Optenyl#Pameion#Pamelon#Panergon#Papacon#Papalease#Papaversan#Papital T.R.#Paptial T.R.#Pavabid#Pavacap#Pavacen#Pavadel#Pavagen#Pavakey#Pavased#Pavatest#Paverolan#Paveron#Pavnell#Qua Bid#Ro-Papav#Therapav#Vasal#Vaso-Pav

>  <DrugBank ID>  (1) 
DB01113

>  <ATC Codes>  (1) 
G04BE52#G04BE02#A03AD01

>  <Ligand ID>  (1) 
EV1

>  <Target Name>  (1) 
cAMP-specific 3',5'-cyclic phosphodiesterase 4B

>  <UniProt ID>  (1) 
Q07343

>  <PDB ID.1>  (1) 
3IAK

>  <Seq. Identity>  (1) 
85%

$$$$
