PDB_DB00932_08
     RDKit          3D

 99102  0  0  0  0  0  0  0  0999 V2000
   -3.5660    1.6014    0.8454 O   0  0  0  0  0  0  0  0  0  0  0  0
   -2.4245    2.3892    0.7768 C   0  0  0  0  0  0  0  0  0  0  0  0
   -1.1862    1.4720    0.6806 C   0  0  0  0  0  0  0  0  0  0  0  0
   -1.4812    0.2797   -0.1557 C   0  0  0  0  0  0  0  0  0  0  0  0
   -2.6868    0.4382   -1.0557 C   0  0  0  0  0  0  0  0  0  0  0  0
   -3.8925    1.0187   -0.3828 C   0  0  2  0  0  0  0  0  0  0  0  0
   -2.3654    3.1042    1.9892 O   0  0  0  0  0  0  0  0  0  0  0  0
   -1.7339   -0.8641    0.6393 O   0  0  0  0  0  0  0  0  0  0  0  0
   -4.5204    1.9952   -1.3437 C   0  0  0  0  0  0  0  0  0  0  0  0
   -5.7901    2.6153   -0.8854 C   0  0  0  0  0  0  0  0  0  0  0  0
   -5.6065    3.3984    0.3899 C   0  0  0  0  0  0  0  0  0  0  0  0
   -4.8430   -0.1038   -0.0253 C   0  0  0  0  0  0  0  0  0  0  0  0
   -5.3555   -0.8618   -1.1896 C   0  0  0  0  0  0  0  0  0  0  0  0
   -6.3174   -1.9709   -0.7337 C   0  0  0  0  0  0  0  0  0  0  0  0
   -7.4833   -1.4669   -0.0094 C   0  0  0  0  0  0  0  0  0  0  0  0
   -7.7164   -1.9430    1.3765 C   0  0  0  0  0  0  0  0  0  0  0  0
   -6.9506   -3.1381    1.8099 C   0  0  0  0  0  0  0  0  0  0  0  0
   -6.4969   -3.9765    0.6107 C   0  0  0  0  0  0  0  0  0  0  0  0
   -5.5086   -3.0345   -0.0967 C   0  0  0  0  0  0  0  0  0  0  0  0
    0.0043    2.2786    0.3414 C   0  0  2  0  0  0  0  0  0  0  0  0
   -0.1076    2.9804   -0.9945 C   0  0  0  0  0  0  0  0  0  0  0  0
    1.1822    3.7824   -1.2374 C   0  0  0  0  0  0  0  0  0  0  0  0
    1.3531    1.7423    0.6365 C   0  0  0  0  0  0  0  0  0  0  0  0
    1.6534    1.4310    2.0494 C   0  0  0  0  0  0  0  0  0  0  0  0
    2.8611    0.5397    2.1552 C   0  0  0  0  0  0  0  0  0  0  0  0
    3.8807    0.7343    1.0521 C   0  0  0  0  0  0  0  0  0  0  0  0
    3.3103    0.5153   -0.3002 C   0  0  0  0  0  0  0  0  0  0  0  0
    3.7763   -0.6840   -0.9313 N   0  0  0  0  0  0  0  0  0  0  0  0
    1.7700    0.5869   -0.2375 C   0  0  0  0  0  0  0  0  0  0  0  0
    5.1293   -1.0129   -1.4421 S   0  0  0  0  0  0  0  0  0  0  0  0
    5.0334   -2.6852   -2.0457 O   0  0  0  0  0  0  0  0  0  0  0  0
    5.6074   -0.2874   -2.8817 O   0  0  0  0  0  0  0  0  0  0  0  0
    6.4552   -1.0997   -0.4414 C   0  0  1  0  0  0  0  0  0  0  0  0
    6.2949   -2.1607    0.5664 N   0  0  0  0  0  0  0  0  0  0  0  0
    7.2952   -2.0318    1.6119 C   0  0  0  0  0  0  0  0  0  0  0  0
    8.5687   -1.4179    1.0833 C   0  0  2  0  0  0  0  0  0  0  0  0
    8.7985   -2.0165   -0.2929 C   0  0  0  0  0  0  0  0  0  0  0  0
    7.7450   -1.4557   -1.2073 C   0  0  0  0  0  0  0  0  0  0  0  0
    9.7098   -1.7655    2.0161 C   0  0  0  0  0  0  0  0  0  0  0  0
   10.9031   -1.2280    1.5825 F   0  0  0  0  0  0  0  0  0  0  0  0
    9.4355   -1.2107    3.2478 F   0  0  0  0  0  0  0  0  0  0  0  0
    9.8602   -3.1455    2.1365 F   0  0  0  0  0  0  0  0  0  0  0  0
   -2.4992    3.1129   -0.0174 H   0  0  0  0  0  0  0  0  0  0  0  0
   -1.0855    1.1160    1.7444 H   0  0  0  0  0  0  0  0  0  0  0  0
   -0.6530   -0.0059   -0.8229 H   0  0  0  0  0  0  0  0  0  0  0  0
   -2.3376    1.0776   -1.9205 H   0  0  0  0  0  0  0  0  0  0  0  0
   -2.8491   -0.5556   -1.5026 H   0  0  0  0  0  0  0  0  0  0  0  0
   -1.8693    3.9329    1.9073 H   0  0  0  0  0  0  0  0  0  0  0  0
   -2.0249   -0.5004    1.5134 H   0  0  0  0  0  0  0  0  0  0  0  0
   -4.6333    1.4657   -2.3345 H   0  0  0  0  0  0  0  0  0  0  0  0
   -3.7696    2.7882   -1.5635 H   0  0  0  0  0  0  0  0  0  0  0  0
   -6.6285    1.8939   -0.8040 H   0  0  0  0  0  0  0  0  0  0  0  0
   -6.0734    3.3799   -1.6664 H   0  0  0  0  0  0  0  0  0  0  0  0
   -5.5506    2.7189    1.2624 H   0  0  0  0  0  0  0  0  0  0  0  0
   -6.4837    4.0844    0.4598 H   0  0  0  0  0  0  0  0  0  0  0  0
   -4.7153    4.0532    0.2707 H   0  0  0  0  0  0  0  0  0  0  0  0
   -4.2039   -0.8037    0.5935 H   0  0  0  0  0  0  0  0  0  0  0  0
   -5.6195    0.2421    0.6755 H   0  0  0  0  0  0  0  0  0  0  0  0
   -4.5975   -1.3773   -1.7711 H   0  0  0  0  0  0  0  0  0  0  0  0
   -5.9577   -0.2521   -1.8962 H   0  0  0  0  0  0  0  0  0  0  0  0
   -6.6568   -2.4066   -1.7270 H   0  0  0  0  0  0  0  0  0  0  0  0
   -8.4331   -1.6640   -0.5951 H   0  0  0  0  0  0  0  0  0  0  0  0
   -7.4409   -0.3421    0.0106 H   0  0  0  0  0  0  0  0  0  0  0  0
   -7.4992   -1.1241    2.1276 H   0  0  0  0  0  0  0  0  0  0  0  0
   -8.8078   -2.1729    1.5577 H   0  0  0  0  0  0  0  0  0  0  0  0
   -7.5337   -3.7981    2.4779 H   0  0  0  0  0  0  0  0  0  0  0  0
   -6.0118   -2.8043    2.3112 H   0  0  0  0  0  0  0  0  0  0  0  0
   -5.9734   -4.8563    1.0292 H   0  0  0  0  0  0  0  0  0  0  0  0
   -7.3257   -4.2456   -0.0532 H   0  0  0  0  0  0  0  0  0  0  0  0
   -4.7939   -2.7401    0.6669 H   0  0  0  0  0  0  0  0  0  0  0  0
   -5.0140   -3.6860   -0.8713 H   0  0  0  0  0  0  0  0  0  0  0  0
   -0.0977    3.1787    1.0708 H   0  0  0  0  0  0  0  0  0  0  0  0
   -0.2667    2.2752   -1.8338 H   0  0  0  0  0  0  0  0  0  0  0  0
   -0.9081    3.7245   -1.0586 H   0  0  0  0  0  0  0  0  0  0  0  0
    2.0001    3.1537   -1.5829 H   0  0  0  0  0  0  0  0  0  0  0  0
    1.0062    4.5480   -2.0418 H   0  0  0  0  0  0  0  0  0  0  0  0
    1.4033    4.3763   -0.3314 H   0  0  0  0  0  0  0  0  0  0  0  0
    2.1190    2.5475    0.3599 H   0  0  0  0  0  0  0  0  0  0  0  0
    1.8804    2.3135    2.6843 H   0  0  0  0  0  0  0  0  0  0  0  0
    0.8112    0.8479    2.5301 H   0  0  0  0  0  0  0  0  0  0  0  0
    2.5613   -0.5381    2.2203 H   0  0  0  0  0  0  0  0  0  0  0  0
    3.4241    0.7288    3.1168 H   0  0  0  0  0  0  0  0  0  0  0  0
    4.6571   -0.0395    1.2448 H   0  0  0  0  0  0  0  0  0  0  0  0
    4.3919    1.7010    1.1226 H   0  0  0  0  0  0  0  0  0  0  0  0
    3.6783    1.3585   -0.9643 H   0  0  0  0  0  0  0  0  0  0  0  0
    2.9999   -1.4104   -0.9873 H   0  0  0  0  0  0  0  0  0  0  0  0
    1.4832    0.8310   -1.2770 H   0  0  0  0  0  0  0  0  0  0  0  0
    1.4760   -0.3898    0.1341 H   0  0  0  0  0  0  0  0  0  0  0  0
    4.7923   -3.2331   -1.2642 H   0  0  0  0  0  0  0  0  0  0  0  0
    4.8301   -0.0258   -3.4379 H   0  0  0  0  0  0  0  0  0  0  0  0
    6.7021   -0.1742    0.0971 H   0  0  0  0  0  0  0  0  0  0  0  0
    6.2723   -3.0989    0.1326 H   0  0  0  0  0  0  0  0  0  0  0  0
    6.9198   -1.4939    2.5006 H   0  0  0  0  0  0  0  0  0  0  0  0
    7.5433   -3.0812    1.9372 H   0  0  0  0  0  0  0  0  0  0  0  0
    8.5330   -0.3353    0.9678 H   0  0  0  0  0  0  0  0  0  0  0  0
    9.8365   -1.7336   -0.6191 H   0  0  0  0  0  0  0  0  0  0  0  0
    8.7205   -3.1300   -0.1735 H   0  0  0  0  0  0  0  0  0  0  0  0
    8.1599   -0.5341   -1.6762 H   0  0  0  0  0  0  0  0  0  0  0  0
    7.5177   -2.2393   -1.9743 H   0  0  0  0  0  0  0  0  0  0  0  0
  1  2  1  0
  2  3  1  0
  3  4  1  0
  4  5  1  0
  1  6  1  0
  5  6  1  0
  2  7  1  0
  4  8  1  0
  6  9  1  6
  9 10  1  0
 10 11  1  0
  6 12  1  0
 12 13  1  0
 13 14  1  0
 14 15  1  0
 15 16  1  0
 16 17  1  0
 17 18  1  0
 14 19  1  0
 18 19  1  0
  3 20  1  0
 20 21  1  0
 21 22  1  0
 20 23  1  0
 23 24  1  0
 24 25  1  0
 25 26  1  0
 26 27  1  0
 27 28  1  0
 23 29  1  0
 27 29  1  0
 28 30  1  0
 30 31  1  0
 30 32  1  0
 30 33  1  0
 33 34  1  0
 34 35  1  0
 35 36  1  0
 36 37  1  0
 33 38  1  0
 37 38  1  0
 36 39  1  0
 39 40  1  0
 39 41  1  0
 39 42  1  0
  2 43  1  0
  3 44  1  0
  4 45  1  0
  5 46  1  0
  5 47  1  0
  7 48  1  0
  8 49  1  0
  9 50  1  0
  9 51  1  0
 10 52  1  0
 10 53  1  0
 11 54  1  0
 11 55  1  0
 11 56  1  0
 12 57  1  0
 12 58  1  0
 13 59  1  0
 13 60  1  0
 14 61  1  0
 15 62  1  0
 15 63  1  0
 16 64  1  0
 16 65  1  0
 17 66  1  0
 17 67  1  0
 18 68  1  0
 18 69  1  0
 19 70  1  0
 19 71  1  0
 20 72  1  1
 21 73  1  0
 21 74  1  0
 22 75  1  0
 22 76  1  0
 22 77  1  0
 23 78  1  0
 24 79  1  0
 24 80  1  0
 25 81  1  0
 25 82  1  0
 26 83  1  0
 26 84  1  0
 27 85  1  0
 28 86  1  0
 29 87  1  0
 29 88  1  0
 31 89  1  0
 32 90  1  0
 33 91  1  1
 34 92  1  0
 35 93  1  0
 35 94  1  0
 36 95  1  6
 37 96  1  0
 37 97  1  0
 38 98  1  0
 38 99  1  0
M  END
>  <PDBID>  (1) 
2O4P

>  <PDB ID>  (1) 
2O4P

>  <Generic Name>  (1) 
Tipranavir

>  <Brand Name>  (1) 
Aptivus

>  <DrugBank ID>  (1) 
DB00932

>  <ATC Codes>  (1) 
J05AE09

>  <Ligand ID>  (1) 
TPV

>  <Target Name>  (1) 
Pol polyprotein

>  <UniProt ID>  (1) 
Q72874

>  <PDB ID.1>  (1) 
2O4P

>  <Seq. Identity>  (1) 
98%

$$$$
