PDB_DB00710_01
     RDKit          3D

 46 45  0  0  0  0  0  0  0  0999 V2000
   -3.5658   -0.9607    0.3893 P   0  0  0  0  0  0  0  0  0  0  0  0
   -3.2695   -1.9880   -0.9171 O   0  0  0  0  0  0  0  0  0  0  0  0
   -4.8815   -1.2508    1.3514 O   0  0  0  0  0  0  0  0  0  0  0  0
   -2.7118   -1.8598    1.2565 O   0  0  0  0  0  0  0  0  0  0  0  0
   -2.7148    0.5393    0.5763 C   0  0  0  0  0  0  0  0  0  0  0  0
   -3.4944    2.0748    0.1813 P   0  0  0  0  0  0  0  0  0  0  0  0
   -2.3007    2.9940    0.4539 O   0  0  0  0  0  0  0  0  0  0  0  0
   -3.5506    2.6336   -1.3813 O   0  0  0  0  0  0  0  0  0  0  0  0
   -4.3517    2.8939    1.3442 O   0  0  0  0  0  0  0  0  0  0  0  0
   -2.4013    0.6553    1.9598 O   0  0  0  0  0  0  0  0  0  0  0  0
   -1.3762    0.5258   -0.1165 C   0  0  0  0  0  0  0  0  0  0  0  0
   -0.4092   -0.4998    0.3440 C   0  0  0  0  0  0  0  0  0  0  0  0
    0.8746   -0.4215   -0.3401 N   0  0  0  0  0  0  0  0  0  0  0  0
    1.7523   -1.4699    0.1198 C   0  0  0  0  0  0  0  0  0  0  0  0
    3.1485   -1.4047   -0.3817 C   0  0  0  0  0  0  0  0  0  0  0  0
    3.8112   -0.1108    0.0561 C   0  0  0  0  0  0  0  0  0  0  0  0
    5.2201   -0.1095   -0.4888 C   0  0  0  0  0  0  0  0  0  0  0  0
    5.9415    1.1611   -0.0895 C   0  0  0  0  0  0  0  0  0  0  0  0
    0.7290   -0.5610   -1.7690 C   0  0  0  0  0  0  0  0  0  0  0  0
   -4.4190   -0.4480   -0.4491 H   0  0  0  0  0  0  0  0  0  0  0  0
   -2.5099   -1.6103   -1.3641 H   0  0  0  0  0  0  0  0  0  0  0  0
   -5.2476   -2.1251    1.0951 H   0  0  0  0  0  0  0  0  0  0  0  0
   -2.9320   -2.7751    1.4092 H   0  0  0  0  0  0  0  0  0  0  0  0
   -4.6058    1.5066   -0.0973 H   0  0  0  0  0  0  0  0  0  0  0  0
   -1.8171    2.8675    1.2751 H   0  0  0  0  0  0  0  0  0  0  0  0
   -3.0937    1.9964   -1.9347 H   0  0  0  0  0  0  0  0  0  0  0  0
   -4.0984    2.5386    2.2002 H   0  0  0  0  0  0  0  0  0  0  0  0
   -3.2166    0.7332    2.5099 H   0  0  0  0  0  0  0  0  0  0  0  0
   -1.4911    0.3891   -1.2290 H   0  0  0  0  0  0  0  0  0  0  0  0
   -0.8613    1.5151   -0.0341 H   0  0  0  0  0  0  0  0  0  0  0  0
   -0.7192   -1.5563    0.2203 H   0  0  0  0  0  0  0  0  0  0  0  0
   -0.1846   -0.3681    1.4298 H   0  0  0  0  0  0  0  0  0  0  0  0
    1.7672   -1.5103    1.2319 H   0  0  0  0  0  0  0  0  0  0  0  0
    1.3259   -2.4711   -0.1868 H   0  0  0  0  0  0  0  0  0  0  0  0
    3.2795   -1.5632   -1.4422 H   0  0  0  0  0  0  0  0  0  0  0  0
    3.7031   -2.2394    0.1422 H   0  0  0  0  0  0  0  0  0  0  0  0
    3.2231    0.7213   -0.3435 H   0  0  0  0  0  0  0  0  0  0  0  0
    3.7922   -0.0304    1.1720 H   0  0  0  0  0  0  0  0  0  0  0  0
    5.1584   -0.1447   -1.5904 H   0  0  0  0  0  0  0  0  0  0  0  0
    5.8269   -0.9587   -0.1383 H   0  0  0  0  0  0  0  0  0  0  0  0
    6.7747    1.3294   -0.7875 H   0  0  0  0  0  0  0  0  0  0  0  0
    6.3814    1.0326    0.9346 H   0  0  0  0  0  0  0  0  0  0  0  0
    5.3056    2.0523   -0.0590 H   0  0  0  0  0  0  0  0  0  0  0  0
    0.2044   -1.4893   -2.0741 H   0  0  0  0  0  0  0  0  0  0  0  0
    1.7374   -0.6001   -2.2131 H   0  0  0  0  0  0  0  0  0  0  0  0
    0.2668    0.3666   -2.2257 H   0  0  0  0  0  0  0  0  0  0  0  0
  1  2  1  0
  1  3  1  0
  1  4  1  0
  1  5  1  0
  5  6  1  0
  6  7  1  0
  6  8  1  0
  6  9  1  0
  5 10  1  0
  5 11  1  0
 11 12  1  0
 12 13  1  0
 13 14  1  0
 14 15  1  0
 15 16  1  0
 16 17  1  0
 17 18  1  0
 13 19  1  0
  1 20  1  0
  2 21  1  0
  3 22  1  0
  4 23  1  0
  6 24  1  0
  7 25  1  0
  8 26  1  0
  9 27  1  0
 10 28  1  0
 11 29  1  0
 11 30  1  0
 12 31  1  0
 12 32  1  0
 14 33  1  0
 14 34  1  0
 15 35  1  0
 15 36  1  0
 16 37  1  0
 16 38  1  0
 17 39  1  0
 17 40  1  0
 18 41  1  0
 18 42  1  0
 18 43  1  0
 19 44  1  0
 19 45  1  0
 19 46  1  0
M  END
>  <PDBID>  (1) 
2F94

>  <PDB ID>  (1) 
2F94

>  <Generic Name>  (1) 
Ibandronate

>  <Brand Name>  (1) 
Bondronat#Boniva#Ibandronate Sodium#ADRONiL#Bonviva

>  <DrugBank ID>  (1) 
DB00710

>  <ATC Codes>  (1) 
M05BA06

>  <Ligand ID>  (1) 
BFQ

>  <Target Name>  (1) 
Farnesyl pyrophosphate synthase

>  <UniProt ID>  (1) 
P14324

>  <PDB ID.1>  (1) 
2F94

>  <Seq. Identity>  (1) 
100%

$$$$
