PDB_DB00705_08
     RDKit          3D

 78 81  0  0  0  0  0  0  0  0999 V2000
   -4.2496   -0.4747   -0.2733 C   0  0  0  0  0  0  0  0  0  0  0  0
   -5.1325    0.5633    0.3730 C   0  0  0  0  0  0  0  0  0  0  0  0
   -5.1423    1.8059   -0.3932 C   0  0  0  0  0  0  0  0  0  0  0  0
   -4.5030    1.8916   -1.7093 C   0  0  0  0  0  0  0  0  0  0  0  0
   -4.2778    0.6106   -2.4388 C   0  0  0  0  0  0  0  0  0  0  0  0
   -2.1030    0.6222    0.1428 C   0  0  0  0  0  0  0  0  0  0  0  0
   -0.8175    0.3771    0.9548 C   0  0  0  0  0  0  0  0  0  0  0  0
   -1.1169   -1.9487    0.7021 C   0  0  0  0  0  0  0  0  0  0  0  0
   -2.5385   -1.5375    1.0768 C   0  0  0  0  0  0  0  0  0  0  0  0
    0.9285   -0.9762   -0.0850 C   0  0  0  0  0  0  0  0  0  0  0  0
    2.1979   -0.3536    0.4245 C   0  0  0  0  0  0  0  0  0  0  0  0
    3.2813   -0.6818   -0.6147 C   0  0  0  0  0  0  0  0  0  0  0  0
    5.0928    0.7611   -1.6173 C   0  0  0  0  0  0  0  0  0  0  0  0
    6.1591    0.7420   -0.5598 C   0  0  0  0  0  0  0  0  0  0  0  0
    5.8942    1.5985    0.6284 C   0  0  0  0  0  0  0  0  0  0  0  0
    4.5329    1.2671    1.1922 C   0  0  0  0  0  0  0  0  0  0  0  0
    3.5023    1.5562    0.1352 C   0  0  0  0  0  0  0  0  0  0  0  0
    3.7088    0.6892   -1.0901 C   0  0  0  0  0  0  0  0  0  0  0  0
   -7.2824   -0.5482   -0.0475 C   0  0  0  0  0  0  0  0  0  0  0  0
   -7.8499    0.3790   -1.1153 C   0  0  0  0  0  0  0  0  0  0  0  0
   -8.4679   -1.0310    0.7769 C   0  0  0  0  0  0  0  0  0  0  0  0
    8.8374   -1.9465    0.1503 C   0  0  0  0  0  0  0  0  0  0  0  0
   -6.3715    0.0356    0.8398 N   0  0  0  0  0  0  0  0  0  0  0  0
   -4.3945   -0.5640   -1.6839 N   0  0  0  0  0  0  0  0  0  0  0  0
   -2.9598   -0.4651    0.2494 N   0  0  0  0  0  0  0  0  0  0  0  0
   -0.2201   -0.8535    0.7067 N   0  0  0  0  0  0  0  0  0  0  0  0
    2.2030    1.0521    0.5938 N   0  0  0  0  0  0  0  0  0  0  0  0
    6.5262   -0.5905   -0.1601 N   0  0  0  0  0  0  0  0  0  0  0  0
    0.6110   -0.4773   -1.3648 O   0  0  0  0  0  0  0  0  0  0  0  0
    7.5008   -0.9299    2.3041 O   0  0  0  0  0  0  0  0  0  0  0  0
    8.7690    0.6871    0.6583 O   0  0  0  0  0  0  0  0  0  0  0  0
    7.7231   -0.6932    0.9041 S   0  0  0  0  0  0  0  0  0  0  0  0
   -4.7159   -1.4662    0.1031 H   0  0  0  0  0  0  0  0  0  0  0  0
   -4.5831    0.7773    1.3606 H   0  0  0  0  0  0  0  0  0  0  0  0
   -4.6587    2.6179    0.2508 H   0  0  0  0  0  0  0  0  0  0  0  0
   -6.1940    2.2582   -0.4808 H   0  0  0  0  0  0  0  0  0  0  0  0
   -3.5029    2.3964   -1.6348 H   0  0  0  0  0  0  0  0  0  0  0  0
   -5.0745    2.6314   -2.3495 H   0  0  0  0  0  0  0  0  0  0  0  0
   -5.0759    0.5706   -3.2444 H   0  0  0  0  0  0  0  0  0  0  0  0
   -3.3271    0.5976   -3.0199 H   0  0  0  0  0  0  0  0  0  0  0  0
   -1.7668    0.8889   -0.8823 H   0  0  0  0  0  0  0  0  0  0  0  0
   -2.5614    1.5254    0.6495 H   0  0  0  0  0  0  0  0  0  0  0  0
   -1.0333    0.6098    2.0242 H   0  0  0  0  0  0  0  0  0  0  0  0
   -0.1524    1.2257    0.6223 H   0  0  0  0  0  0  0  0  0  0  0  0
   -1.1808   -2.3640   -0.3332 H   0  0  0  0  0  0  0  0  0  0  0  0
   -0.7742   -2.7840    1.3478 H   0  0  0  0  0  0  0  0  0  0  0  0
   -3.1758   -2.4201    0.8824 H   0  0  0  0  0  0  0  0  0  0  0  0
   -2.6059   -1.3109    2.1617 H   0  0  0  0  0  0  0  0  0  0  0  0
    1.1474   -2.0590   -0.2343 H   0  0  0  0  0  0  0  0  0  0  0  0
    2.5332   -0.8254    1.3701 H   0  0  0  0  0  0  0  0  0  0  0  0
    4.1265   -1.2119   -0.1766 H   0  0  0  0  0  0  0  0  0  0  0  0
    2.8697   -1.2610   -1.4493 H   0  0  0  0  0  0  0  0  0  0  0  0
    5.2719   -0.1439   -2.2574 H   0  0  0  0  0  0  0  0  0  0  0  0
    5.2628    1.6220   -2.2824 H   0  0  0  0  0  0  0  0  0  0  0  0
    7.0865    1.1671   -1.0523 H   0  0  0  0  0  0  0  0  0  0  0  0
    6.6562    1.3451    1.4008 H   0  0  0  0  0  0  0  0  0  0  0  0
    5.9268    2.6839    0.3724 H   0  0  0  0  0  0  0  0  0  0  0  0
    4.5103    0.1711    1.3843 H   0  0  0  0  0  0  0  0  0  0  0  0
    4.2726    1.8661    2.0759 H   0  0  0  0  0  0  0  0  0  0  0  0
    3.4450    2.6106   -0.1103 H   0  0  0  0  0  0  0  0  0  0  0  0
    2.9948    1.0223   -1.8614 H   0  0  0  0  0  0  0  0  0  0  0  0
   -6.9038   -1.4938   -0.5402 H   0  0  0  0  0  0  0  0  0  0  0  0
   -8.6713   -0.1560   -1.6844 H   0  0  0  0  0  0  0  0  0  0  0  0
   -7.1170    0.6117   -1.9137 H   0  0  0  0  0  0  0  0  0  0  0  0
   -8.3535    1.2489   -0.6805 H   0  0  0  0  0  0  0  0  0  0  0  0
   -9.4006   -0.8518    0.2104 H   0  0  0  0  0  0  0  0  0  0  0  0
   -8.5654   -0.4622    1.7296 H   0  0  0  0  0  0  0  0  0  0  0  0
   -8.4361   -2.1280    0.9579 H   0  0  0  0  0  0  0  0  0  0  0  0
    8.2666   -2.8825    0.1797 H   0  0  0  0  0  0  0  0  0  0  0  0
    8.9593   -1.5610   -0.8917 H   0  0  0  0  0  0  0  0  0  0  0  0
    9.7671   -1.9529    0.7232 H   0  0  0  0  0  0  0  0  0  0  0  0
   -6.2080   -0.6100    1.6381 H   0  0  0  0  0  0  0  0  0  0  0  0
   -3.8931   -1.3738   -2.0518 H   0  0  0  0  0  0  0  0  0  0  0  0
    2.0028    1.3786    1.5652 H   0  0  0  0  0  0  0  0  0  0  0  0
    6.5981   -1.2217   -0.9910 H   0  0  0  0  0  0  0  0  0  0  0  0
    0.3063   -1.2025   -1.9628 H   0  0  0  0  0  0  0  0  0  0  0  0
    6.7334   -1.2215    2.8360 H   0  0  0  0  0  0  0  0  0  0  0  0
    9.1531    0.5710   -0.2468 H   0  0  0  0  0  0  0  0  0  0  0  0
  1  2  1  0
  2  3  1  0
  3  4  1  0
  4  5  1  0
  6  7  1  0
  8  9  1  0
 10 11  1  0
 11 12  1  0
 13 14  1  0
 14 15  1  0
 15 16  1  0
 16 17  1  0
 12 18  1  0
 13 18  1  0
 17 18  1  0
 19 20  1  0
 19 21  1  0
  2 23  1  0
 19 23  1  0
  1 24  1  0
  5 24  1  0
  1 25  1  0
  6 25  1  0
  9 25  1  0
  7 26  1  0
  8 26  1  0
 10 26  1  0
 11 27  1  0
 17 27  1  0
 14 28  1  0
 10 29  1  0
 22 32  1  0
 28 32  1  0
 32 30  1  0
 31 32  1  0
  1 33  1  0
  2 34  1  0
  3 35  1  0
  3 36  1  0
  4 37  1  0
  4 38  1  0
  5 39  1  0
  5 40  1  0
  6 41  1  0
  6 42  1  0
  7 43  1  0
  7 44  1  0
  8 45  1  0
  8 46  1  0
  9 47  1  0
  9 48  1  0
 10 49  1  0
 11 50  1  0
 12 51  1  0
 12 52  1  0
 13 53  1  0
 13 54  1  0
 14 55  1  0
 15 56  1  0
 15 57  1  0
 16 58  1  0
 16 59  1  0
 17 60  1  0
 18 61  1  0
 19 62  1  0
 20 63  1  0
 20 64  1  0
 20 65  1  0
 21 66  1  0
 21 67  1  0
 21 68  1  0
 22 69  1  0
 22 70  1  0
 22 71  1  0
 23 72  1  0
 24 73  1  0
 27 74  1  0
 28 75  1  0
 29 76  1  0
 30 77  1  0
 31 78  1  0
M  END
>  <PDBID>  (1) 
1KLM

>  <PDB ID>  (1) 
1KLM

>  <Generic Name>  (1) 
Delavirdine

>  <Brand Name>  (1) 
Rescriptor

>  <DrugBank ID>  (1) 
DB00705

>  <ATC Codes>  (1) 
J05AG02

>  <Ligand ID>  (1) 
SPP

>  <Target Name>  (1) 
Reverse transcriptase/RNaseH

>  <UniProt ID>  (1) 
Q72547

>  <PDB ID.1>  (1) 
1KLM

>  <Seq. Identity>  (1) 
95%

$$$$
