PDB_DB01259_03
     RDKit          3D

 94 98  0  0  0  0  0  0  0  0999 V2000
   -9.9580    2.9323   -0.0989 C   0  0  0  0  0  0  0  0  0  0  0  0
   -9.9377    1.2006   -0.1468 S   0  0  0  0  0  0  0  0  0  0  0  0
  -11.4214    0.8112    0.6476 O   0  0  0  0  0  0  0  0  0  0  0  0
   -9.9668    0.5911   -1.5156 O   0  0  0  0  0  0  0  0  0  0  0  0
   -8.7131    0.6834    0.8738 C   0  0  0  0  0  0  0  0  0  0  0  0
   -7.3643    1.1794    0.4687 C   0  0  0  0  0  0  0  0  0  0  0  0
   -6.9566    0.7569   -0.8449 N   0  0  0  0  0  0  0  0  0  0  0  0
   -6.6901   -0.6422   -0.9793 C   0  0  0  0  0  0  0  0  0  0  0  0
   -5.4499   -1.0846   -0.2316 C   0  0  0  0  0  0  0  0  0  0  0  0
   -5.2751   -2.5615   -0.2339 C   0  0  0  0  0  0  0  0  0  0  0  0
   -4.0170   -2.7513   -1.0541 C   0  0  0  0  0  0  0  0  0  0  0  0
   -3.3985   -1.3973   -1.1225 C   0  0  0  0  0  0  0  0  0  0  0  0
   -4.3124   -0.4644   -0.6505 O   0  0  0  0  0  0  0  0  0  0  0  0
   -2.1530   -1.3860   -0.2583 C   0  0  0  0  0  0  0  0  0  0  0  0
   -1.1409   -2.3930   -0.6893 C   0  0  0  0  0  0  0  0  0  0  0  0
   -0.2348   -2.6256    0.5414 C   0  0  0  0  0  0  0  0  0  0  0  0
    0.0381   -1.3334    1.2345 C   0  0  0  0  0  0  0  0  0  0  0  0
   -0.6786   -1.0446    2.4092 N   0  0  0  0  0  0  0  0  0  0  0  0
   -1.2825    0.2201    2.5840 C   0  0  0  0  0  0  0  0  0  0  0  0
   -0.7988    1.3236    1.8627 N   0  0  0  0  0  0  0  0  0  0  0  0
    0.3677    1.0355    1.0489 C   0  0  0  0  0  0  0  0  0  0  0  0
    1.0187    2.1054    0.4914 N   0  0  0  0  0  0  0  0  0  0  0  0
    2.3463    2.1114    0.0919 C   0  0  0  0  0  0  0  0  0  0  0  0
    3.2419    1.9519    1.3150 C   0  0  0  0  0  0  0  0  0  0  0  0
    4.7027    1.9400    0.9275 C   0  0  0  0  0  0  0  0  0  0  0  0
    4.9232    0.8308   -0.1139 C   0  0  0  0  0  0  0  0  0  0  0  0
    6.2341    0.5047   -0.2618 O   0  0  0  0  0  0  0  0  0  0  0  0
    6.4534   -0.8177    0.1140 C   0  0  0  0  0  0  0  0  0  0  0  0
    7.8905   -1.2250   -0.0224 C   0  0  0  0  0  0  0  0  0  0  0  0
    8.3543   -1.0877   -1.4325 C   0  0  0  0  0  0  0  0  0  0  0  0
    9.0699    0.2040   -1.6337 C   0  0  0  0  0  0  0  0  0  0  0  0
   10.3451    0.2059   -0.8182 C   0  0  0  0  0  0  0  0  0  0  0  0
   10.1734   -0.3380    0.5666 C   0  0  0  0  0  0  0  0  0  0  0  0
   10.9355   -1.4815    0.7527 F   0  0  0  0  0  0  0  0  0  0  0  0
    8.7532   -0.5303    0.9939 C   0  0  0  0  0  0  0  0  0  0  0  0
    4.2283    1.3638   -1.3610 C   0  0  0  0  0  0  0  0  0  0  0  0
    4.6751    3.0428   -1.5763 Cl  0  0  0  0  0  0  0  0  0  0  0  0
    2.7254    1.2066   -1.0090 C   0  0  0  0  0  0  0  0  0  0  0  0
   -0.0191   -0.1628    0.2225 C   0  0  0  0  0  0  0  0  0  0  0  0
   -1.4500   -0.0320   -0.2997 C   0  0  0  0  0  0  0  0  0  0  0  0
   -8.9564    3.4023   -0.1028 H   0  0  0  0  0  0  0  0  0  0  0  0
  -10.5519    3.3019   -0.9741 H   0  0  0  0  0  0  0  0  0  0  0  0
  -10.5212    3.2569    0.8152 H   0  0  0  0  0  0  0  0  0  0  0  0
  -11.8819    0.1310    0.0747 H   0  0  0  0  0  0  0  0  0  0  0  0
   -9.3936    0.8932   -2.2360 H   0  0  0  0  0  0  0  0  0  0  0  0
   -8.8885    1.0139    1.9328 H   0  0  0  0  0  0  0  0  0  0  0  0
   -8.6528   -0.4363    0.9419 H   0  0  0  0  0  0  0  0  0  0  0  0
   -7.3742    2.2931    0.4728 H   0  0  0  0  0  0  0  0  0  0  0  0
   -6.6551    0.8929    1.2723 H   0  0  0  0  0  0  0  0  0  0  0  0
   -6.1095    1.3055   -1.1072 H   0  0  0  0  0  0  0  0  0  0  0  0
   -7.5808   -1.2143   -0.6229 H   0  0  0  0  0  0  0  0  0  0  0  0
   -6.5412   -0.8536   -2.0593 H   0  0  0  0  0  0  0  0  0  0  0  0
   -5.5958   -0.7820    0.8498 H   0  0  0  0  0  0  0  0  0  0  0  0
   -6.1502   -3.0876   -0.6679 H   0  0  0  0  0  0  0  0  0  0  0  0
   -5.1575   -2.9770    0.8113 H   0  0  0  0  0  0  0  0  0  0  0  0
   -4.2397   -3.1753   -2.0549 H   0  0  0  0  0  0  0  0  0  0  0  0
   -3.4286   -3.5171   -0.5113 H   0  0  0  0  0  0  0  0  0  0  0  0
   -3.1652   -1.0759   -2.1801 H   0  0  0  0  0  0  0  0  0  0  0  0
   -2.5259   -1.6271    0.7761 H   0  0  0  0  0  0  0  0  0  0  0  0
   -0.4979   -1.9516   -1.4970 H   0  0  0  0  0  0  0  0  0  0  0  0
   -1.5002   -3.3633   -1.0058 H   0  0  0  0  0  0  0  0  0  0  0  0
   -0.6402   -3.4171    1.1995 H   0  0  0  0  0  0  0  0  0  0  0  0
    0.7002   -3.0707    0.0849 H   0  0  0  0  0  0  0  0  0  0  0  0
    1.1389   -1.3568    1.5019 H   0  0  0  0  0  0  0  0  0  0  0  0
   -1.2799   -1.7892    2.8080 H   0  0  0  0  0  0  0  0  0  0  0  0
   -2.3936    0.1116    2.4402 H   0  0  0  0  0  0  0  0  0  0  0  0
   -1.1892    0.4672    3.6827 H   0  0  0  0  0  0  0  0  0  0  0  0
   -1.4171    2.0505    1.5458 H   0  0  0  0  0  0  0  0  0  0  0  0
    1.0874    0.5860    1.8783 H   0  0  0  0  0  0  0  0  0  0  0  0
    0.4088    2.7843    0.0308 H   0  0  0  0  0  0  0  0  0  0  0  0
    2.5645    3.1801   -0.2911 H   0  0  0  0  0  0  0  0  0  0  0  0
    3.0494    1.0501    1.9033 H   0  0  0  0  0  0  0  0  0  0  0  0
    3.0711    2.8320    1.9546 H   0  0  0  0  0  0  0  0  0  0  0  0
    5.2976    1.6438    1.8125 H   0  0  0  0  0  0  0  0  0  0  0  0
    5.0801    2.8732    0.5162 H   0  0  0  0  0  0  0  0  0  0  0  0
    4.3641   -0.0815    0.2689 H   0  0  0  0  0  0  0  0  0  0  0  0
    6.1608   -0.9231    1.1817 H   0  0  0  0  0  0  0  0  0  0  0  0
    5.7761   -1.4922   -0.4515 H   0  0  0  0  0  0  0  0  0  0  0  0
    7.8999   -2.3372    0.2055 H   0  0  0  0  0  0  0  0  0  0  0  0
    9.1122   -1.8987   -1.6303 H   0  0  0  0  0  0  0  0  0  0  0  0
    7.4945   -1.2294   -2.1147 H   0  0  0  0  0  0  0  0  0  0  0  0
    9.3953    0.3415   -2.7057 H   0  0  0  0  0  0  0  0  0  0  0  0
    8.4831    1.0960   -1.4017 H   0  0  0  0  0  0  0  0  0  0  0  0
   11.0832   -0.4383   -1.3621 H   0  0  0  0  0  0  0  0  0  0  0  0
   10.7337    1.2539   -0.8269 H   0  0  0  0  0  0  0  0  0  0  0  0
   10.6080    0.4259    1.2781 H   0  0  0  0  0  0  0  0  0  0  0  0
    8.7882   -1.1725    1.9200 H   0  0  0  0  0  0  0  0  0  0  0  0
    8.3197    0.4579    1.2973 H   0  0  0  0  0  0  0  0  0  0  0  0
    4.4415    0.6929   -2.1811 H   0  0  0  0  0  0  0  0  0  0  0  0
    2.1801    1.4240   -1.9285 H   0  0  0  0  0  0  0  0  0  0  0  0
    2.6624    0.1237   -0.8012 H   0  0  0  0  0  0  0  0  0  0  0  0
    0.5825   -0.4301   -0.6141 H   0  0  0  0  0  0  0  0  0  0  0  0
   -2.0435    0.7327    0.1811 H   0  0  0  0  0  0  0  0  0  0  0  0
   -1.4095    0.2375   -1.3837 H   0  0  0  0  0  0  0  0  0  0  0  0
  1  2  1  0
  2  3  1  0
  2  4  1  0
  2  5  1  0
  5  6  1  0
  6  7  1  0
  7  8  1  0
  8  9  1  0
  9 10  1  0
 10 11  1  0
 11 12  1  0
  9 13  1  0
 12 13  1  0
 12 14  1  0
 14 15  1  0
 15 16  1  0
 16 17  1  0
 17 18  1  0
 18 19  1  0
 19 20  1  0
 20 21  1  0
 21 22  1  0
 22 23  1  0
 23 24  1  0
 24 25  1  0
 25 26  1  0
 26 27  1  0
 27 28  1  0
 28 29  1  0
 29 30  1  0
 30 31  1  0
 31 32  1  0
 32 33  1  0
 33 34  1  0
 29 35  1  0
 33 35  1  0
 26 36  1  0
 36 37  1  0
 23 38  1  0
 36 38  1  0
 17 39  1  0
 21 39  1  0
 14 40  1  0
 39 40  1  0
  1 41  1  0
  1 42  1  0
  1 43  1  0
  3 44  1  0
  4 45  1  0
  5 46  1  0
  5 47  1  0
  6 48  1  0
  6 49  1  0
  7 50  1  0
  8 51  1  0
  8 52  1  0
  9 53  1  0
 10 54  1  0
 10 55  1  0
 11 56  1  0
 11 57  1  0
 12 58  1  0
 14 59  1  0
 15 60  1  0
 15 61  1  0
 16 62  1  0
 16 63  1  0
 17 64  1  0
 18 65  1  0
 19 66  1  0
 19 67  1  0
 20 68  1  0
 21 69  1  0
 22 70  1  0
 23 71  1  0
 24 72  1  0
 24 73  1  0
 25 74  1  0
 25 75  1  0
 26 76  1  0
 28 77  1  0
 28 78  1  0
 29 79  1  0
 30 80  1  0
 30 81  1  0
 31 82  1  0
 31 83  1  0
 32 84  1  0
 32 85  1  0
 33 86  1  0
 35 87  1  0
 35 88  1  0
 36 89  1  0
 38 90  1  0
 38 91  1  0
 39 92  1  0
 40 93  1  0
 40 94  1  0
M  END
>  <PDBID>  (1) 
1XKK

>  <PDB ID>  (1) 
1XKK

>  <Generic Name>  (1) 
Lapatinib

>  <Brand Name>  (1) 
Tykerb#Tycerb

>  <DrugBank ID>  (1) 
DB01259

>  <ATC Codes>  (1) 
L01XE07

>  <Ligand ID>  (1) 
FMM

>  <Target Name>  (1) 
Receptor tyrosine-protein kinase erbB-2

>  <UniProt ID>  (1) 
P04626

>  <PDB ID.1>  (1) 
1XKK

>  <Seq. Identity>  (1) 
78%

$$$$
