PDB_DB06243_08
     RDKit          3D

 76 72  0  0  0  0  0  0  0  0999 V2000
   -1.7075   -0.6736    0.3455 C   0  0  2  0  0  0  0  0  0  0  0  0
   -2.2202   -0.0423   -0.9320 C   0  0  0  0  0  0  0  0  0  0  0  0
   -2.7110   -0.3690    1.3779 N   0  0  0  0  0  0  0  0  0  0  0  0
   -0.4229   -0.0349    0.8072 C   0  0  0  0  0  0  0  0  0  0  0  0
    0.6870   -0.1522   -0.2000 C   0  0  0  0  0  0  0  0  0  0  0  0
    1.9069    0.5370    0.4123 C   0  0  0  0  0  0  0  0  0  0  0  0
    3.0476    0.4981   -0.4513 N   0  0  0  0  0  0  0  0  0  0  0  0
   -1.2883   -0.1412    0.7821 C   0  0  0  0  0  0  0  0  0  0  0  0
   -2.7018    0.4443    0.8391 C   0  0  0  0  0  0  0  0  0  0  0  0
   -1.4263   -1.5717    0.6633 N   0  0  0  0  0  0  0  0  0  0  0  0
   -0.6106    0.4726   -0.3974 C   0  0  0  0  0  0  0  0  0  0  0  0
    0.7993    0.0091   -0.6100 C   0  0  0  0  0  0  0  0  0  0  0  0
    1.6317    0.3549    0.6118 C   0  0  0  0  0  0  0  0  0  0  0  0
    3.0137   -0.0833    0.4368 N   0  0  0  0  0  0  0  0  0  0  0  0
   -1.7075   -0.6736    0.3455 C   0  0  2  0  0  0  0  0  0  0  0  0
   -2.2202   -0.0423   -0.9320 C   0  0  0  0  0  0  0  0  0  0  0  0
   -2.7110   -0.3690    1.3779 N   0  0  0  0  0  0  0  0  0  0  0  0
   -0.4229   -0.0349    0.8072 C   0  0  0  0  0  0  0  0  0  0  0  0
    0.6870   -0.1522   -0.2000 C   0  0  0  0  0  0  0  0  0  0  0  0
    1.9069    0.5370    0.4123 C   0  0  0  0  0  0  0  0  0  0  0  0
    3.0476    0.4981   -0.4513 N   0  0  0  0  0  0  0  0  0  0  0  0
   -1.7075   -0.6736    0.3455 C   0  0  2  0  0  0  0  0  0  0  0  0
   -2.2202   -0.0423   -0.9320 C   0  0  0  0  0  0  0  0  0  0  0  0
   -2.7110   -0.3690    1.3779 N   0  0  0  0  0  0  0  0  0  0  0  0
   -0.4229   -0.0349    0.8072 C   0  0  0  0  0  0  0  0  0  0  0  0
    0.6870   -0.1522   -0.2000 C   0  0  0  0  0  0  0  0  0  0  0  0
    1.9069    0.5370    0.4123 C   0  0  0  0  0  0  0  0  0  0  0  0
    3.0476    0.4981   -0.4513 N   0  0  0  0  0  0  0  0  0  0  0  0
   -1.6177   -1.7596    0.1844 H   0  0  0  0  0  0  0  0  0  0  0  0
   -2.5048    0.9977   -0.6896 H   0  0  0  0  0  0  0  0  0  0  0  0
   -3.1902   -0.5672   -1.1617 H   0  0  0  0  0  0  0  0  0  0  0  0
   -2.2139   -0.3288    2.2954 H   0  0  0  0  0  0  0  0  0  0  0  0
   -0.6093    1.0255    1.0024 H   0  0  0  0  0  0  0  0  0  0  0  0
   -0.0932   -0.5524    1.7294 H   0  0  0  0  0  0  0  0  0  0  0  0
    0.9348   -1.1725   -0.4861 H   0  0  0  0  0  0  0  0  0  0  0  0
    0.4536    0.4052   -1.1410 H   0  0  0  0  0  0  0  0  0  0  0  0
    2.1948    0.0338    1.3660 H   0  0  0  0  0  0  0  0  0  0  0  0
    1.6411    1.5971    0.6516 H   0  0  0  0  0  0  0  0  0  0  0  0
    3.4863   -0.4279   -0.4961 H   0  0  0  0  0  0  0  0  0  0  0  0
    2.9384    0.9861   -1.3454 H   0  0  0  0  0  0  0  0  0  0  0  0
   -0.7444    0.0668    1.7294 H   0  0  0  0  0  0  0  0  0  0  0  0
   -3.4125   -0.2892    1.2921 H   0  0  0  0  0  0  0  0  0  0  0  0
   -3.0196    0.5925   -0.2016 H   0  0  0  0  0  0  0  0  0  0  0  0
   -1.7823   -1.8715   -0.2650 H   0  0  0  0  0  0  0  0  0  0  0  0
   -0.5873    1.5824   -0.2214 H   0  0  0  0  0  0  0  0  0  0  0  0
   -1.2440    0.3066   -1.2840 H   0  0  0  0  0  0  0  0  0  0  0  0
    0.8801   -1.0555   -0.8484 H   0  0  0  0  0  0  0  0  0  0  0  0
    1.2185    0.6422   -1.4416 H   0  0  0  0  0  0  0  0  0  0  0  0
    1.2708   -0.1598    1.5276 H   0  0  0  0  0  0  0  0  0  0  0  0
    1.6220    1.4446    0.7354 H   0  0  0  0  0  0  0  0  0  0  0  0
    3.0375   -1.1293    0.3641 H   0  0  0  0  0  0  0  0  0  0  0  0
    3.3438    0.3856   -0.4435 H   0  0  0  0  0  0  0  0  0  0  0  0
   -1.6177   -1.7596    0.1844 H   0  0  0  0  0  0  0  0  0  0  0  0
   -2.5048    0.9977   -0.6896 H   0  0  0  0  0  0  0  0  0  0  0  0
   -3.1902   -0.5672   -1.1617 H   0  0  0  0  0  0  0  0  0  0  0  0
   -2.2139   -0.3288    2.2954 H   0  0  0  0  0  0  0  0  0  0  0  0
   -0.6093    1.0255    1.0024 H   0  0  0  0  0  0  0  0  0  0  0  0
   -0.0932   -0.5524    1.7294 H   0  0  0  0  0  0  0  0  0  0  0  0
    0.9348   -1.1725   -0.4861 H   0  0  0  0  0  0  0  0  0  0  0  0
    0.4536    0.4052   -1.1410 H   0  0  0  0  0  0  0  0  0  0  0  0
    2.1948    0.0338    1.3660 H   0  0  0  0  0  0  0  0  0  0  0  0
    1.6411    1.5971    0.6516 H   0  0  0  0  0  0  0  0  0  0  0  0
    3.4863   -0.4279   -0.4961 H   0  0  0  0  0  0  0  0  0  0  0  0
    2.9384    0.9861   -1.3454 H   0  0  0  0  0  0  0  0  0  0  0  0
   -1.6177   -1.7596    0.1844 H   0  0  0  0  0  0  0  0  0  0  0  0
   -2.5048    0.9977   -0.6896 H   0  0  0  0  0  0  0  0  0  0  0  0
   -3.1902   -0.5672   -1.1617 H   0  0  0  0  0  0  0  0  0  0  0  0
   -2.2139   -0.3288    2.2954 H   0  0  0  0  0  0  0  0  0  0  0  0
   -0.6093    1.0255    1.0024 H   0  0  0  0  0  0  0  0  0  0  0  0
   -0.0932   -0.5524    1.7294 H   0  0  0  0  0  0  0  0  0  0  0  0
    0.9348   -1.1725   -0.4861 H   0  0  0  0  0  0  0  0  0  0  0  0
    0.4536    0.4052   -1.1410 H   0  0  0  0  0  0  0  0  0  0  0  0
    2.1948    0.0338    1.3660 H   0  0  0  0  0  0  0  0  0  0  0  0
    1.6411    1.5971    0.6516 H   0  0  0  0  0  0  0  0  0  0  0  0
    3.4863   -0.4279   -0.4961 H   0  0  0  0  0  0  0  0  0  0  0  0
    2.9384    0.9861   -1.3454 H   0  0  0  0  0  0  0  0  0  0  0  0
  1  2  1  0
  1  3  1  0
  1  4  1  0
  4  5  1  0
  5  6  1  0
  6  7  1  0
  8  9  1  0
  8 10  1  0
  8 11  1  0
 11 12  1  0
 12 13  1  0
 13 14  1  0
 15 16  1  0
 15 17  1  0
 15 18  1  0
 18 19  1  0
 19 20  1  0
 20 21  1  0
 22 23  1  0
 22 24  1  0
 22 25  1  0
 25 26  1  0
 26 27  1  0
 27 28  1  0
  1 29  1  6
  2 30  1  0
  2 31  1  0
  3 32  1  0
  4 33  1  0
  4 34  1  0
  5 35  1  0
  5 36  1  0
  6 37  1  0
  6 38  1  0
  7 39  1  0
  7 40  1  0
  8 41  1  0
  9 42  1  0
  9 43  1  0
 10 44  1  0
 11 45  1  0
 11 46  1  0
 12 47  1  0
 12 48  1  0
 13 49  1  0
 13 50  1  0
 14 51  1  0
 14 52  1  0
 15 53  1  6
 16 54  1  0
 16 55  1  0
 17 56  1  0
 18 57  1  0
 18 58  1  0
 19 59  1  0
 19 60  1  0
 20 61  1  0
 20 62  1  0
 21 63  1  0
 21 64  1  0
 22 65  1  6
 23 66  1  0
 23 67  1  0
 24 68  1  0
 25 69  1  0
 25 70  1  0
 26 71  1  0
 26 72  1  0
 27 73  1  0
 27 74  1  0
 28 75  1  0
 28 76  1  0
M  END
>  <PDBID>  (1) 
2TOD

>  <PDB ID>  (1) 
2TOD

>  <Generic Name>  (1) 
Eflornithine

>  <Brand Name>  (1) 
Vaniqa

>  <DrugBank ID>  (1) 
DB06243

>  <ATC Codes>  (1) 
D11AX16#P01CX03

>  <Ligand ID>  (1) 
DMO

>  <Target Name>  (1) 
Ornithine decarboxylase

>  <UniProt ID>  (1) 
P11926

>  <PDB ID.1>  (1) 
2TOD

>  <Seq. Identity>  (1) 
65%

$$$$
