PDB_DB00293_03
     RDKit          3D

296304  0  0  0  0  0  0  0  0999 V2000
   -7.1055    0.0901   -1.2306 N   0  0  0  0  0  0  0  0  0  0  0  0
   -7.6134   -0.0912    0.1219 C   0  0  0  0  0  0  0  0  0  0  0  0
   -9.0061    0.4934    0.2307 C   0  0  0  0  0  0  0  0  0  0  0  0
   -7.6655   -1.5100    0.4187 N   0  0  0  0  0  0  0  0  0  0  0  0
   -6.4605   -2.2051    0.0068 C   0  0  0  0  0  0  0  0  0  0  0  0
   -6.2081   -3.2320    0.9116 O   0  0  0  0  0  0  0  0  0  0  0  0
   -5.3623   -1.2014   -0.0746 C   0  0  0  0  0  0  0  0  0  0  0  0
   -4.0099   -1.7889   -0.4130 C   0  0  0  0  0  0  0  0  0  0  0  0
   -3.0354   -0.6412   -0.4394 C   0  0  0  0  0  0  0  0  0  0  0  0
   -3.6679    0.7078   -0.2790 C   0  0  0  0  0  0  0  0  0  0  0  0
   -4.8249    0.9530   -1.2067 C   0  0  0  0  0  0  0  0  0  0  0  0
   -5.7065   -0.2511   -1.2250 C   0  0  0  0  0  0  0  0  0  0  0  0
   -1.9621   -0.7846    0.6246 C   0  0  0  0  0  0  0  0  0  0  0  0
   -1.0549    0.2836    0.6087 N   0  0  0  0  0  0  0  0  0  0  0  0
    2.2508    0.8176    0.7348 C   0  0  0  0  0  0  0  0  0  0  0  0
    0.9329    1.8733    0.0114 S   0  0  0  0  0  0  0  0  0  0  0  0
   -0.1719    0.4710   -0.4481 C   0  0  0  0  0  0  0  0  0  0  0  0
    0.8481   -0.5756   -0.7272 C   0  0  0  0  0  0  0  0  0  0  0  0
    1.9692   -0.5427    0.2251 C   0  0  0  0  0  0  0  0  0  0  0  0
    3.6201    1.3583    0.2737 C   0  0  0  0  0  0  0  0  0  0  0  0
    3.7315    2.6785    0.7307 O   0  0  0  0  0  0  0  0  0  0  0  0
    4.5915    0.5457    0.9087 N   0  0  0  0  0  0  0  0  0  0  0  0
    5.9245    0.5682    0.4050 C   0  0  1  0  0  0  0  0  0  0  0  0
    5.9518    0.0546   -0.9959 C   0  0  0  0  0  0  0  0  0  0  0  0
    7.2921    0.0066   -1.6500 C   0  0  0  0  0  0  0  0  0  0  0  0
    8.2954   -0.8684   -0.9351 C   0  0  0  0  0  0  0  0  0  0  0  0
    7.8556   -2.1955   -0.8605 O   0  0  0  0  0  0  0  0  0  0  0  0
    9.4608   -0.8776   -1.7041 O   0  0  0  0  0  0  0  0  0  0  0  0
    6.4461    1.9812    0.5317 C   0  0  0  0  0  0  0  0  0  0  0  0
    7.7728    2.1064    0.0892 O   0  0  0  0  0  0  0  0  0  0  0  0
    6.3958    2.4450    1.8249 O   0  0  0  0  0  0  0  0  0  0  0  0
   -0.8926    1.0433    1.7804 C   0  0  0  0  0  0  0  0  0  0  0  0
   -7.1055    0.0901   -1.2306 N   0  0  0  0  0  0  0  0  0  0  0  0
   -7.6134   -0.0912    0.1219 C   0  0  0  0  0  0  0  0  0  0  0  0
   -9.0061    0.4934    0.2307 C   0  0  0  0  0  0  0  0  0  0  0  0
   -7.6655   -1.5100    0.4187 N   0  0  0  0  0  0  0  0  0  0  0  0
   -6.4605   -2.2051    0.0068 C   0  0  0  0  0  0  0  0  0  0  0  0
   -6.2081   -3.2320    0.9116 O   0  0  0  0  0  0  0  0  0  0  0  0
   -5.3623   -1.2014   -0.0746 C   0  0  0  0  0  0  0  0  0  0  0  0
   -4.0099   -1.7889   -0.4130 C   0  0  0  0  0  0  0  0  0  0  0  0
   -3.0354   -0.6412   -0.4394 C   0  0  0  0  0  0  0  0  0  0  0  0
   -3.6679    0.7078   -0.2790 C   0  0  0  0  0  0  0  0  0  0  0  0
   -4.8249    0.9530   -1.2067 C   0  0  0  0  0  0  0  0  0  0  0  0
   -5.7065   -0.2511   -1.2250 C   0  0  0  0  0  0  0  0  0  0  0  0
   -1.9621   -0.7846    0.6246 C   0  0  0  0  0  0  0  0  0  0  0  0
   -1.0549    0.2836    0.6087 N   0  0  0  0  0  0  0  0  0  0  0  0
    2.2508    0.8176    0.7348 C   0  0  0  0  0  0  0  0  0  0  0  0
    0.9329    1.8733    0.0114 S   0  0  0  0  0  0  0  0  0  0  0  0
   -0.1719    0.4710   -0.4481 C   0  0  0  0  0  0  0  0  0  0  0  0
    0.8481   -0.5756   -0.7272 C   0  0  0  0  0  0  0  0  0  0  0  0
    1.9692   -0.5427    0.2251 C   0  0  0  0  0  0  0  0  0  0  0  0
    3.6201    1.3583    0.2737 C   0  0  0  0  0  0  0  0  0  0  0  0
    3.7315    2.6785    0.7307 O   0  0  0  0  0  0  0  0  0  0  0  0
    4.5915    0.5457    0.9087 N   0  0  0  0  0  0  0  0  0  0  0  0
    5.9245    0.5682    0.4050 C   0  0  1  0  0  0  0  0  0  0  0  0
    5.9518    0.0546   -0.9959 C   0  0  0  0  0  0  0  0  0  0  0  0
    7.2921    0.0066   -1.6500 C   0  0  0  0  0  0  0  0  0  0  0  0
    8.2954   -0.8684   -0.9351 C   0  0  0  0  0  0  0  0  0  0  0  0
    7.8556   -2.1955   -0.8605 O   0  0  0  0  0  0  0  0  0  0  0  0
    9.4608   -0.8776   -1.7041 O   0  0  0  0  0  0  0  0  0  0  0  0
    6.4461    1.9812    0.5317 C   0  0  0  0  0  0  0  0  0  0  0  0
    7.7728    2.1064    0.0892 O   0  0  0  0  0  0  0  0  0  0  0  0
    6.3958    2.4450    1.8249 O   0  0  0  0  0  0  0  0  0  0  0  0
   -0.8926    1.0433    1.7804 C   0  0  0  0  0  0  0  0  0  0  0  0
   -7.1055    0.0901   -1.2306 N   0  0  0  0  0  0  0  0  0  0  0  0
   -7.6134   -0.0912    0.1219 C   0  0  0  0  0  0  0  0  0  0  0  0
   -9.0061    0.4934    0.2307 C   0  0  0  0  0  0  0  0  0  0  0  0
   -7.6655   -1.5100    0.4187 N   0  0  0  0  0  0  0  0  0  0  0  0
   -6.4605   -2.2051    0.0068 C   0  0  0  0  0  0  0  0  0  0  0  0
   -6.2081   -3.2320    0.9116 O   0  0  0  0  0  0  0  0  0  0  0  0
   -5.3623   -1.2014   -0.0746 C   0  0  0  0  0  0  0  0  0  0  0  0
   -4.0099   -1.7889   -0.4130 C   0  0  0  0  0  0  0  0  0  0  0  0
   -3.0354   -0.6412   -0.4394 C   0  0  0  0  0  0  0  0  0  0  0  0
   -3.6679    0.7078   -0.2790 C   0  0  0  0  0  0  0  0  0  0  0  0
   -4.8249    0.9530   -1.2067 C   0  0  0  0  0  0  0  0  0  0  0  0
   -5.7065   -0.2511   -1.2250 C   0  0  0  0  0  0  0  0  0  0  0  0
   -1.9621   -0.7846    0.6246 C   0  0  0  0  0  0  0  0  0  0  0  0
   -1.0549    0.2836    0.6087 N   0  0  0  0  0  0  0  0  0  0  0  0
    2.2508    0.8176    0.7348 C   0  0  0  0  0  0  0  0  0  0  0  0
    0.9329    1.8733    0.0114 S   0  0  0  0  0  0  0  0  0  0  0  0
   -0.1719    0.4710   -0.4481 C   0  0  0  0  0  0  0  0  0  0  0  0
    0.8481   -0.5756   -0.7272 C   0  0  0  0  0  0  0  0  0  0  0  0
    1.9692   -0.5427    0.2251 C   0  0  0  0  0  0  0  0  0  0  0  0
    3.6201    1.3583    0.2737 C   0  0  0  0  0  0  0  0  0  0  0  0
    3.7315    2.6785    0.7307 O   0  0  0  0  0  0  0  0  0  0  0  0
    4.5915    0.5457    0.9087 N   0  0  0  0  0  0  0  0  0  0  0  0
    5.9245    0.5682    0.4050 C   0  0  1  0  0  0  0  0  0  0  0  0
    5.9518    0.0546   -0.9959 C   0  0  0  0  0  0  0  0  0  0  0  0
    7.2921    0.0066   -1.6500 C   0  0  0  0  0  0  0  0  0  0  0  0
    8.2954   -0.8684   -0.9351 C   0  0  0  0  0  0  0  0  0  0  0  0
    7.8556   -2.1955   -0.8605 O   0  0  0  0  0  0  0  0  0  0  0  0
    9.4608   -0.8776   -1.7041 O   0  0  0  0  0  0  0  0  0  0  0  0
    6.4461    1.9812    0.5317 C   0  0  0  0  0  0  0  0  0  0  0  0
    7.7728    2.1064    0.0892 O   0  0  0  0  0  0  0  0  0  0  0  0
    6.3958    2.4450    1.8249 O   0  0  0  0  0  0  0  0  0  0  0  0
   -0.8926    1.0433    1.7804 C   0  0  0  0  0  0  0  0  0  0  0  0
   -7.1055    0.0901   -1.2306 N   0  0  0  0  0  0  0  0  0  0  0  0
   -7.6134   -0.0912    0.1219 C   0  0  0  0  0  0  0  0  0  0  0  0
   -9.0061    0.4934    0.2307 C   0  0  0  0  0  0  0  0  0  0  0  0
   -7.6655   -1.5100    0.4187 N   0  0  0  0  0  0  0  0  0  0  0  0
   -6.4605   -2.2051    0.0068 C   0  0  0  0  0  0  0  0  0  0  0  0
   -6.2081   -3.2320    0.9116 O   0  0  0  0  0  0  0  0  0  0  0  0
   -5.3623   -1.2014   -0.0746 C   0  0  0  0  0  0  0  0  0  0  0  0
   -4.0099   -1.7889   -0.4130 C   0  0  0  0  0  0  0  0  0  0  0  0
   -3.0354   -0.6412   -0.4394 C   0  0  0  0  0  0  0  0  0  0  0  0
   -3.6679    0.7078   -0.2790 C   0  0  0  0  0  0  0  0  0  0  0  0
   -4.8249    0.9530   -1.2067 C   0  0  0  0  0  0  0  0  0  0  0  0
   -5.7065   -0.2511   -1.2250 C   0  0  0  0  0  0  0  0  0  0  0  0
   -1.9621   -0.7846    0.6246 C   0  0  0  0  0  0  0  0  0  0  0  0
   -1.0549    0.2836    0.6087 N   0  0  0  0  0  0  0  0  0  0  0  0
    2.2508    0.8176    0.7348 C   0  0  0  0  0  0  0  0  0  0  0  0
    0.9329    1.8733    0.0114 S   0  0  0  0  0  0  0  0  0  0  0  0
   -0.1719    0.4710   -0.4481 C   0  0  0  0  0  0  0  0  0  0  0  0
    0.8481   -0.5756   -0.7272 C   0  0  0  0  0  0  0  0  0  0  0  0
    1.9692   -0.5427    0.2251 C   0  0  0  0  0  0  0  0  0  0  0  0
    3.6201    1.3583    0.2737 C   0  0  0  0  0  0  0  0  0  0  0  0
    3.7315    2.6785    0.7307 O   0  0  0  0  0  0  0  0  0  0  0  0
    4.5915    0.5457    0.9087 N   0  0  0  0  0  0  0  0  0  0  0  0
    5.9245    0.5682    0.4050 C   0  0  1  0  0  0  0  0  0  0  0  0
    5.9518    0.0546   -0.9959 C   0  0  0  0  0  0  0  0  0  0  0  0
    7.2921    0.0066   -1.6500 C   0  0  0  0  0  0  0  0  0  0  0  0
    8.2954   -0.8684   -0.9351 C   0  0  0  0  0  0  0  0  0  0  0  0
    7.8556   -2.1955   -0.8605 O   0  0  0  0  0  0  0  0  0  0  0  0
    9.4608   -0.8776   -1.7041 O   0  0  0  0  0  0  0  0  0  0  0  0
    6.4461    1.9812    0.5317 C   0  0  0  0  0  0  0  0  0  0  0  0
    7.7728    2.1064    0.0892 O   0  0  0  0  0  0  0  0  0  0  0  0
    6.3958    2.4450    1.8249 O   0  0  0  0  0  0  0  0  0  0  0  0
   -0.8926    1.0433    1.7804 C   0  0  0  0  0  0  0  0  0  0  0  0
   -7.6412   -0.5402   -1.8704 H   0  0  0  0  0  0  0  0  0  0  0  0
   -6.9730    0.4754    0.8248 H   0  0  0  0  0  0  0  0  0  0  0  0
   -9.1334    1.0834    1.1712 H   0  0  0  0  0  0  0  0  0  0  0  0
   -9.1185    1.2261   -0.6014 H   0  0  0  0  0  0  0  0  0  0  0  0
   -9.7926   -0.2781    0.2398 H   0  0  0  0  0  0  0  0  0  0  0  0
   -7.7962   -1.6547    1.4427 H   0  0  0  0  0  0  0  0  0  0  0  0
   -6.6382   -2.6091   -1.0282 H   0  0  0  0  0  0  0  0  0  0  0  0
   -5.9443   -4.0413    0.4230 H   0  0  0  0  0  0  0  0  0  0  0  0
   -5.2781   -0.6870    0.8848 H   0  0  0  0  0  0  0  0  0  0  0  0
   -3.7299   -2.5656    0.3390 H   0  0  0  0  0  0  0  0  0  0  0  0
   -4.0755   -2.3066   -1.3783 H   0  0  0  0  0  0  0  0  0  0  0  0
   -2.5502   -0.6531   -1.4417 H   0  0  0  0  0  0  0  0  0  0  0  0
   -3.9458    0.8469    0.7854 H   0  0  0  0  0  0  0  0  0  0  0  0
   -2.8753    1.4529   -0.5857 H   0  0  0  0  0  0  0  0  0  0  0  0
   -4.4341    1.1138   -2.2382 H   0  0  0  0  0  0  0  0  0  0  0  0
   -5.3707    1.8629   -0.8374 H   0  0  0  0  0  0  0  0  0  0  0  0
   -5.5134   -0.8616   -2.1551 H   0  0  0  0  0  0  0  0  0  0  0  0
   -1.4717   -1.7673    0.4296 H   0  0  0  0  0  0  0  0  0  0  0  0
   -2.4631   -0.8846    1.5992 H   0  0  0  0  0  0  0  0  0  0  0  0
    2.2370    0.9102    1.8233 H   0  0  0  0  0  0  0  0  0  0  0  0
   -0.7107    0.7087   -1.3831 H   0  0  0  0  0  0  0  0  0  0  0  0
    0.4426   -1.6019   -0.7829 H   0  0  0  0  0  0  0  0  0  0  0  0
    1.2490   -0.3620   -1.7622 H   0  0  0  0  0  0  0  0  0  0  0  0
    1.8911   -1.3163    1.0441 H   0  0  0  0  0  0  0  0  0  0  0  0
    2.9009   -0.8793   -0.3277 H   0  0  0  0  0  0  0  0  0  0  0  0
    3.5725    1.3024   -0.8274 H   0  0  0  0  0  0  0  0  0  0  0  0
    3.4320    3.3358    0.0805 H   0  0  0  0  0  0  0  0  0  0  0  0
    4.2562   -0.3836    1.2403 H   0  0  0  0  0  0  0  0  0  0  0  0
    6.5527   -0.0564    1.0959 H   0  0  0  0  0  0  0  0  0  0  0  0
    5.4857   -0.9362   -1.1093 H   0  0  0  0  0  0  0  0  0  0  0  0
    5.3244    0.7515   -1.6166 H   0  0  0  0  0  0  0  0  0  0  0  0
    7.7462    0.9646   -1.8890 H   0  0  0  0  0  0  0  0  0  0  0  0
    7.1128   -0.5029   -2.6537 H   0  0  0  0  0  0  0  0  0  0  0  0
    8.5624   -0.5064    0.0602 H   0  0  0  0  0  0  0  0  0  0  0  0
    7.9087   -2.4971    0.0975 H   0  0  0  0  0  0  0  0  0  0  0  0
   10.2313   -1.1241   -1.1356 H   0  0  0  0  0  0  0  0  0  0  0  0
    5.8513    2.6875   -0.1133 H   0  0  0  0  0  0  0  0  0  0  0  0
    7.9440    3.0037   -0.3186 H   0  0  0  0  0  0  0  0  0  0  0  0
    6.7291    1.7791    2.4704 H   0  0  0  0  0  0  0  0  0  0  0  0
   -0.1269    0.6483    2.4922 H   0  0  0  0  0  0  0  0  0  0  0  0
   -1.8474    1.0446    2.3652 H   0  0  0  0  0  0  0  0  0  0  0  0
   -0.5914    2.1050    1.5918 H   0  0  0  0  0  0  0  0  0  0  0  0
   -7.6412   -0.5402   -1.8704 H   0  0  0  0  0  0  0  0  0  0  0  0
   -6.9730    0.4754    0.8248 H   0  0  0  0  0  0  0  0  0  0  0  0
   -9.1334    1.0834    1.1712 H   0  0  0  0  0  0  0  0  0  0  0  0
   -9.1185    1.2261   -0.6014 H   0  0  0  0  0  0  0  0  0  0  0  0
   -9.7926   -0.2781    0.2398 H   0  0  0  0  0  0  0  0  0  0  0  0
   -7.7962   -1.6547    1.4427 H   0  0  0  0  0  0  0  0  0  0  0  0
   -6.6382   -2.6091   -1.0282 H   0  0  0  0  0  0  0  0  0  0  0  0
   -5.9443   -4.0413    0.4230 H   0  0  0  0  0  0  0  0  0  0  0  0
   -5.2781   -0.6870    0.8848 H   0  0  0  0  0  0  0  0  0  0  0  0
   -3.7299   -2.5656    0.3390 H   0  0  0  0  0  0  0  0  0  0  0  0
   -4.0755   -2.3066   -1.3783 H   0  0  0  0  0  0  0  0  0  0  0  0
   -2.5502   -0.6531   -1.4417 H   0  0  0  0  0  0  0  0  0  0  0  0
   -3.9458    0.8469    0.7854 H   0  0  0  0  0  0  0  0  0  0  0  0
   -2.8753    1.4529   -0.5857 H   0  0  0  0  0  0  0  0  0  0  0  0
   -4.4341    1.1138   -2.2382 H   0  0  0  0  0  0  0  0  0  0  0  0
   -5.3707    1.8629   -0.8374 H   0  0  0  0  0  0  0  0  0  0  0  0
   -5.5134   -0.8616   -2.1551 H   0  0  0  0  0  0  0  0  0  0  0  0
   -1.4717   -1.7673    0.4296 H   0  0  0  0  0  0  0  0  0  0  0  0
   -2.4631   -0.8846    1.5992 H   0  0  0  0  0  0  0  0  0  0  0  0
    2.2370    0.9102    1.8233 H   0  0  0  0  0  0  0  0  0  0  0  0
   -0.7107    0.7087   -1.3831 H   0  0  0  0  0  0  0  0  0  0  0  0
    0.4426   -1.6019   -0.7829 H   0  0  0  0  0  0  0  0  0  0  0  0
    1.2490   -0.3620   -1.7622 H   0  0  0  0  0  0  0  0  0  0  0  0
    1.8911   -1.3163    1.0441 H   0  0  0  0  0  0  0  0  0  0  0  0
    2.9009   -0.8793   -0.3277 H   0  0  0  0  0  0  0  0  0  0  0  0
    3.5725    1.3024   -0.8274 H   0  0  0  0  0  0  0  0  0  0  0  0
    3.4320    3.3358    0.0805 H   0  0  0  0  0  0  0  0  0  0  0  0
    4.2562   -0.3836    1.2403 H   0  0  0  0  0  0  0  0  0  0  0  0
    6.5527   -0.0564    1.0959 H   0  0  0  0  0  0  0  0  0  0  0  0
    5.4857   -0.9362   -1.1093 H   0  0  0  0  0  0  0  0  0  0  0  0
    5.3244    0.7515   -1.6166 H   0  0  0  0  0  0  0  0  0  0  0  0
    7.7462    0.9646   -1.8890 H   0  0  0  0  0  0  0  0  0  0  0  0
    7.1128   -0.5029   -2.6537 H   0  0  0  0  0  0  0  0  0  0  0  0
    8.5624   -0.5064    0.0602 H   0  0  0  0  0  0  0  0  0  0  0  0
    7.9087   -2.4971    0.0975 H   0  0  0  0  0  0  0  0  0  0  0  0
   10.2313   -1.1241   -1.1356 H   0  0  0  0  0  0  0  0  0  0  0  0
    5.8513    2.6875   -0.1133 H   0  0  0  0  0  0  0  0  0  0  0  0
    7.9440    3.0037   -0.3186 H   0  0  0  0  0  0  0  0  0  0  0  0
    6.7291    1.7791    2.4704 H   0  0  0  0  0  0  0  0  0  0  0  0
   -0.1269    0.6483    2.4922 H   0  0  0  0  0  0  0  0  0  0  0  0
   -1.8474    1.0446    2.3652 H   0  0  0  0  0  0  0  0  0  0  0  0
   -0.5914    2.1050    1.5918 H   0  0  0  0  0  0  0  0  0  0  0  0
   -7.6412   -0.5402   -1.8704 H   0  0  0  0  0  0  0  0  0  0  0  0
   -6.9730    0.4754    0.8248 H   0  0  0  0  0  0  0  0  0  0  0  0
   -9.1334    1.0834    1.1712 H   0  0  0  0  0  0  0  0  0  0  0  0
   -9.1185    1.2261   -0.6014 H   0  0  0  0  0  0  0  0  0  0  0  0
   -9.7926   -0.2781    0.2398 H   0  0  0  0  0  0  0  0  0  0  0  0
   -7.7962   -1.6547    1.4427 H   0  0  0  0  0  0  0  0  0  0  0  0
   -6.6382   -2.6091   -1.0282 H   0  0  0  0  0  0  0  0  0  0  0  0
   -5.9443   -4.0413    0.4230 H   0  0  0  0  0  0  0  0  0  0  0  0
   -5.2781   -0.6870    0.8848 H   0  0  0  0  0  0  0  0  0  0  0  0
   -3.7299   -2.5656    0.3390 H   0  0  0  0  0  0  0  0  0  0  0  0
   -4.0755   -2.3066   -1.3783 H   0  0  0  0  0  0  0  0  0  0  0  0
   -2.5502   -0.6531   -1.4417 H   0  0  0  0  0  0  0  0  0  0  0  0
   -3.9458    0.8469    0.7854 H   0  0  0  0  0  0  0  0  0  0  0  0
   -2.8753    1.4529   -0.5857 H   0  0  0  0  0  0  0  0  0  0  0  0
   -4.4341    1.1138   -2.2382 H   0  0  0  0  0  0  0  0  0  0  0  0
   -5.3707    1.8629   -0.8374 H   0  0  0  0  0  0  0  0  0  0  0  0
   -5.5134   -0.8616   -2.1551 H   0  0  0  0  0  0  0  0  0  0  0  0
   -1.4717   -1.7673    0.4296 H   0  0  0  0  0  0  0  0  0  0  0  0
   -2.4631   -0.8846    1.5992 H   0  0  0  0  0  0  0  0  0  0  0  0
    2.2370    0.9102    1.8233 H   0  0  0  0  0  0  0  0  0  0  0  0
   -0.7107    0.7087   -1.3831 H   0  0  0  0  0  0  0  0  0  0  0  0
    0.4426   -1.6019   -0.7829 H   0  0  0  0  0  0  0  0  0  0  0  0
    1.2490   -0.3620   -1.7622 H   0  0  0  0  0  0  0  0  0  0  0  0
    1.8911   -1.3163    1.0441 H   0  0  0  0  0  0  0  0  0  0  0  0
    2.9009   -0.8793   -0.3277 H   0  0  0  0  0  0  0  0  0  0  0  0
    3.5725    1.3024   -0.8274 H   0  0  0  0  0  0  0  0  0  0  0  0
    3.4320    3.3358    0.0805 H   0  0  0  0  0  0  0  0  0  0  0  0
    4.2562   -0.3836    1.2403 H   0  0  0  0  0  0  0  0  0  0  0  0
    6.5527   -0.0564    1.0959 H   0  0  0  0  0  0  0  0  0  0  0  0
    5.4857   -0.9362   -1.1093 H   0  0  0  0  0  0  0  0  0  0  0  0
    5.3244    0.7515   -1.6166 H   0  0  0  0  0  0  0  0  0  0  0  0
    7.7462    0.9646   -1.8890 H   0  0  0  0  0  0  0  0  0  0  0  0
    7.1128   -0.5029   -2.6537 H   0  0  0  0  0  0  0  0  0  0  0  0
    8.5624   -0.5064    0.0602 H   0  0  0  0  0  0  0  0  0  0  0  0
    7.9087   -2.4971    0.0975 H   0  0  0  0  0  0  0  0  0  0  0  0
   10.2313   -1.1241   -1.1356 H   0  0  0  0  0  0  0  0  0  0  0  0
    5.8513    2.6875   -0.1133 H   0  0  0  0  0  0  0  0  0  0  0  0
    7.9440    3.0037   -0.3186 H   0  0  0  0  0  0  0  0  0  0  0  0
    6.7291    1.7791    2.4704 H   0  0  0  0  0  0  0  0  0  0  0  0
   -0.1269    0.6483    2.4922 H   0  0  0  0  0  0  0  0  0  0  0  0
   -1.8474    1.0446    2.3652 H   0  0  0  0  0  0  0  0  0  0  0  0
   -0.5914    2.1050    1.5918 H   0  0  0  0  0  0  0  0  0  0  0  0
   -7.6412   -0.5402   -1.8704 H   0  0  0  0  0  0  0  0  0  0  0  0
   -6.9730    0.4754    0.8248 H   0  0  0  0  0  0  0  0  0  0  0  0
   -9.1334    1.0834    1.1712 H   0  0  0  0  0  0  0  0  0  0  0  0
   -9.1185    1.2261   -0.6014 H   0  0  0  0  0  0  0  0  0  0  0  0
   -9.7926   -0.2781    0.2398 H   0  0  0  0  0  0  0  0  0  0  0  0
   -7.7962   -1.6547    1.4427 H   0  0  0  0  0  0  0  0  0  0  0  0
   -6.6382   -2.6091   -1.0282 H   0  0  0  0  0  0  0  0  0  0  0  0
   -5.9443   -4.0413    0.4230 H   0  0  0  0  0  0  0  0  0  0  0  0
   -5.2781   -0.6870    0.8848 H   0  0  0  0  0  0  0  0  0  0  0  0
   -3.7299   -2.5656    0.3390 H   0  0  0  0  0  0  0  0  0  0  0  0
   -4.0755   -2.3066   -1.3783 H   0  0  0  0  0  0  0  0  0  0  0  0
   -2.5502   -0.6531   -1.4417 H   0  0  0  0  0  0  0  0  0  0  0  0
   -3.9458    0.8469    0.7854 H   0  0  0  0  0  0  0  0  0  0  0  0
   -2.8753    1.4529   -0.5857 H   0  0  0  0  0  0  0  0  0  0  0  0
   -4.4341    1.1138   -2.2382 H   0  0  0  0  0  0  0  0  0  0  0  0
   -5.3707    1.8629   -0.8374 H   0  0  0  0  0  0  0  0  0  0  0  0
   -5.5134   -0.8616   -2.1551 H   0  0  0  0  0  0  0  0  0  0  0  0
   -1.4717   -1.7673    0.4296 H   0  0  0  0  0  0  0  0  0  0  0  0
   -2.4631   -0.8846    1.5992 H   0  0  0  0  0  0  0  0  0  0  0  0
    2.2370    0.9102    1.8233 H   0  0  0  0  0  0  0  0  0  0  0  0
   -0.7107    0.7087   -1.3831 H   0  0  0  0  0  0  0  0  0  0  0  0
    0.4426   -1.6019   -0.7829 H   0  0  0  0  0  0  0  0  0  0  0  0
    1.2490   -0.3620   -1.7622 H   0  0  0  0  0  0  0  0  0  0  0  0
    1.8911   -1.3163    1.0441 H   0  0  0  0  0  0  0  0  0  0  0  0
    2.9009   -0.8793   -0.3277 H   0  0  0  0  0  0  0  0  0  0  0  0
    3.5725    1.3024   -0.8274 H   0  0  0  0  0  0  0  0  0  0  0  0
    3.4320    3.3358    0.0805 H   0  0  0  0  0  0  0  0  0  0  0  0
    4.2562   -0.3836    1.2403 H   0  0  0  0  0  0  0  0  0  0  0  0
    6.5527   -0.0564    1.0959 H   0  0  0  0  0  0  0  0  0  0  0  0
    5.4857   -0.9362   -1.1093 H   0  0  0  0  0  0  0  0  0  0  0  0
    5.3244    0.7515   -1.6166 H   0  0  0  0  0  0  0  0  0  0  0  0
    7.7462    0.9646   -1.8890 H   0  0  0  0  0  0  0  0  0  0  0  0
    7.1128   -0.5029   -2.6537 H   0  0  0  0  0  0  0  0  0  0  0  0
    8.5624   -0.5064    0.0602 H   0  0  0  0  0  0  0  0  0  0  0  0
    7.9087   -2.4971    0.0975 H   0  0  0  0  0  0  0  0  0  0  0  0
   10.2313   -1.1241   -1.1356 H   0  0  0  0  0  0  0  0  0  0  0  0
    5.8513    2.6875   -0.1133 H   0  0  0  0  0  0  0  0  0  0  0  0
    7.9440    3.0037   -0.3186 H   0  0  0  0  0  0  0  0  0  0  0  0
    6.7291    1.7791    2.4704 H   0  0  0  0  0  0  0  0  0  0  0  0
   -0.1269    0.6483    2.4922 H   0  0  0  0  0  0  0  0  0  0  0  0
   -1.8474    1.0446    2.3652 H   0  0  0  0  0  0  0  0  0  0  0  0
   -0.5914    2.1050    1.5918 H   0  0  0  0  0  0  0  0  0  0  0  0
  1  2  1  0
  2  3  1  0
  2  4  1  0
  4  5  1  0
  5  6  1  0
  5  7  1  0
  7  8  1  0
  8  9  1  0
  9 10  1  0
 10 11  1  0
  1 12  1  0
  7 12  1  0
 11 12  1  0
  9 13  1  0
 13 14  1  0
 15 16  1  0
 14 17  1  0
 16 17  1  0
 17 18  1  0
 15 19  1  0
 18 19  1  0
 15 20  1  0
 20 21  1  0
 20 22  1  0
 22 23  1  0
 23 24  1  0
 24 25  1  0
 25 26  1  0
 26 27  1  0
 26 28  1  0
 23 29  1  0
 29 30  1  0
 29 31  1  0
 14 32  1  0
 33 34  1  0
 34 35  1  0
 34 36  1  0
 36 37  1  0
 37 38  1  0
 37 39  1  0
 39 40  1  0
 40 41  1  0
 41 42  1  0
 42 43  1  0
 33 44  1  0
 39 44  1  0
 43 44  1  0
 41 45  1  0
 45 46  1  0
 47 48  1  0
 46 49  1  0
 48 49  1  0
 49 50  1  0
 47 51  1  0
 50 51  1  0
 47 52  1  0
 52 53  1  0
 52 54  1  0
 54 55  1  0
 55 56  1  0
 56 57  1  0
 57 58  1  0
 58 59  1  0
 58 60  1  0
 55 61  1  0
 61 62  1  0
 61 63  1  0
 46 64  1  0
 65 66  1  0
 66 67  1  0
 66 68  1  0
 68 69  1  0
 69 70  1  0
 69 71  1  0
 71 72  1  0
 72 73  1  0
 73 74  1  0
 74 75  1  0
 65 76  1  0
 71 76  1  0
 75 76  1  0
 73 77  1  0
 77 78  1  0
 79 80  1  0
 78 81  1  0
 80 81  1  0
 81 82  1  0
 79 83  1  0
 82 83  1  0
 79 84  1  0
 84 85  1  0
 84 86  1  0
 86 87  1  0
 87 88  1  0
 88 89  1  0
 89 90  1  0
 90 91  1  0
 90 92  1  0
 87 93  1  0
 93 94  1  0
 93 95  1  0
 78 96  1  0
 97 98  1  0
 98 99  1  0
 98100  1  0
100101  1  0
101102  1  0
101103  1  0
103104  1  0
104105  1  0
105106  1  0
106107  1  0
 97108  1  0
103108  1  0
107108  1  0
105109  1  0
109110  1  0
111112  1  0
110113  1  0
112113  1  0
113114  1  0
111115  1  0
114115  1  0
111116  1  0
116117  1  0
116118  1  0
118119  1  0
119120  1  0
120121  1  0
121122  1  0
122123  1  0
122124  1  0
119125  1  0
125126  1  0
125127  1  0
110128  1  0
  1129  1  0
  2130  1  0
  3131  1  0
  3132  1  0
  3133  1  0
  4134  1  0
  5135  1  0
  6136  1  0
  7137  1  0
  8138  1  0
  8139  1  0
  9140  1  0
 10141  1  0
 10142  1  0
 11143  1  0
 11144  1  0
 12145  1  0
 13146  1  0
 13147  1  0
 15148  1  0
 17149  1  0
 18150  1  0
 18151  1  0
 19152  1  0
 19153  1  0
 20154  1  0
 21155  1  0
 22156  1  0
 23157  1  1
 24158  1  0
 24159  1  0
 25160  1  0
 25161  1  0
 26162  1  0
 27163  1  0
 28164  1  0
 29165  1  0
 30166  1  0
 31167  1  0
 32168  1  0
 32169  1  0
 32170  1  0
 33171  1  0
 34172  1  0
 35173  1  0
 35174  1  0
 35175  1  0
 36176  1  0
 37177  1  0
 38178  1  0
 39179  1  0
 40180  1  0
 40181  1  0
 41182  1  0
 42183  1  0
 42184  1  0
 43185  1  0
 43186  1  0
 44187  1  0
 45188  1  0
 45189  1  0
 47190  1  0
 49191  1  0
 50192  1  0
 50193  1  0
 51194  1  0
 51195  1  0
 52196  1  0
 53197  1  0
 54198  1  0
 55199  1  1
 56200  1  0
 56201  1  0
 57202  1  0
 57203  1  0
 58204  1  0
 59205  1  0
 60206  1  0
 61207  1  0
 62208  1  0
 63209  1  0
 64210  1  0
 64211  1  0
 64212  1  0
 65213  1  0
 66214  1  0
 67215  1  0
 67216  1  0
 67217  1  0
 68218  1  0
 69219  1  0
 70220  1  0
 71221  1  0
 72222  1  0
 72223  1  0
 73224  1  0
 74225  1  0
 74226  1  0
 75227  1  0
 75228  1  0
 76229  1  0
 77230  1  0
 77231  1  0
 79232  1  0
 81233  1  0
 82234  1  0
 82235  1  0
 83236  1  0
 83237  1  0
 84238  1  0
 85239  1  0
 86240  1  0
 87241  1  1
 88242  1  0
 88243  1  0
 89244  1  0
 89245  1  0
 90246  1  0
 91247  1  0
 92248  1  0
 93249  1  0
 94250  1  0
 95251  1  0
 96252  1  0
 96253  1  0
 96254  1  0
 97255  1  0
 98256  1  0
 99257  1  0
 99258  1  0
 99259  1  0
100260  1  0
101261  1  0
102262  1  0
103263  1  0
104264  1  0
104265  1  0
105266  1  0
106267  1  0
106268  1  0
107269  1  0
107270  1  0
108271  1  0
109272  1  0
109273  1  0
111274  1  0
113275  1  0
114276  1  0
114277  1  0
115278  1  0
115279  1  0
116280  1  0
117281  1  0
118282  1  0
119283  1  1
120284  1  0
120285  1  0
121286  1  0
121287  1  0
122288  1  0
123289  1  0
124290  1  0
125291  1  0
126292  1  0
127293  1  0
128294  1  0
128295  1  0
128296  1  0
M  END
>  <PDBID>  (1) 
1HVY

>  <PDB ID>  (1) 
1HVY

>  <Generic Name>  (1) 
Raltitrexed

>  <Brand Name>  (1) 
Tomudex

>  <DrugBank ID>  (1) 
DB00293

>  <ATC Codes>  (1) 
L01BA03

>  <Ligand ID>  (1) 
D16

>  <Target Name>  (1) 
Thymidylate synthase

>  <UniProt ID>  (1) 
P04818

>  <PDB ID.1>  (1) 
1HVY

>  <Seq. Identity>  (1) 
100%

$$$$
