PDB_DB05239_04
     RDKit          3D

 65 68  0  0  0  0  0  0  0  0999 V2000
   -1.3290   -0.1675    1.9226 O   0  0  0  0  0  0  0  0  0  0  0  0
   -0.3435   -0.8474    1.1358 C   0  0  0  0  0  0  0  0  0  0  0  0
   -0.9442   -1.0266   -0.1945 C   0  0  0  0  0  0  0  0  0  0  0  0
   -0.0726   -1.7396   -1.2008 C   0  0  0  0  0  0  0  0  0  0  0  0
    0.3307   -3.1199   -0.7731 C   0  0  0  0  0  0  0  0  0  0  0  0
   -0.8684   -3.8599   -0.2207 C   0  0  2  0  0  0  0  0  0  0  0  0
   -0.8785   -5.1176   -0.8395 F   0  0  0  0  0  0  0  0  0  0  0  0
   -2.1613   -3.2030   -0.5920 C   0  0  1  0  0  0  0  0  0  0  0  0
   -3.1799   -3.9720   -0.0310 F   0  0  0  0  0  0  0  0  0  0  0  0
   -2.2731   -1.7567   -0.1466 C   0  0  2  0  0  0  0  0  0  0  0  0
   -3.2584   -1.1415   -0.8968 N   0  0  0  0  0  0  0  0  0  0  0  0
   -3.8360    0.0891   -0.6854 C   0  0  0  0  0  0  0  0  0  0  0  0
   -4.5575    0.2350    0.6553 C   0  0  0  0  0  0  0  0  0  0  0  0
   -5.7089    1.1941    0.4227 C   0  0  0  0  0  0  0  0  0  0  0  0
   -5.2550    2.5038   -0.1529 C   0  0  1  0  0  0  0  0  0  0  0  0
   -4.5810    3.8196    1.3847 I   0  0  0  0  0  0  0  0  0  0  0  0
   -3.1507    1.3700   -0.9497 C   0  0  0  0  0  0  0  0  0  0  0  0
   -2.5715    1.9479    0.1940 F   0  0  0  0  0  0  0  0  0  0  0  0
   -4.2778    2.4005   -1.2732 C   0  0  0  0  0  0  0  0  0  0  0  0
    0.8555   -0.2575    1.3875 N   0  0  0  0  0  0  0  0  0  0  0  0
    2.1524   -0.7327    1.0300 C   0  0  0  0  0  0  0  0  0  0  0  0
    2.6008    0.6900    1.2982 C   0  0  0  0  0  0  0  0  0  0  0  0
    1.2337    0.9645    0.6875 C   0  0  0  0  0  0  0  0  0  0  0  0
    2.5798    0.9275    2.6800 O   0  0  0  0  0  0  0  0  0  0  0  0
    3.7780    1.2114    0.5858 C   0  0  2  0  0  0  0  0  0  0  0  0
    3.8688    0.9614   -0.8766 C   0  0  0  0  0  0  0  0  0  0  0  0
    5.3002    1.0485   -1.3873 C   0  0  0  0  0  0  0  0  0  0  0  0
    6.1892    1.8458   -0.4805 C   0  0  0  0  0  0  0  0  0  0  0  0
    6.1692    1.2903    0.9215 C   0  0  0  0  0  0  0  0  0  0  0  0
    4.9562    0.5617    1.1902 N   0  0  0  0  0  0  0  0  0  0  0  0
   -0.9559   -0.1066    2.8555 H   0  0  0  0  0  0  0  0  0  0  0  0
   -0.3239   -1.8902    1.6173 H   0  0  0  0  0  0  0  0  0  0  0  0
   -1.1536   -0.0376   -0.6690 H   0  0  0  0  0  0  0  0  0  0  0  0
    0.7067   -1.1332   -1.6445 H   0  0  0  0  0  0  0  0  0  0  0  0
   -0.8145   -1.9435   -2.0700 H   0  0  0  0  0  0  0  0  0  0  0  0
    1.2070   -3.1719   -0.1063 H   0  0  0  0  0  0  0  0  0  0  0  0
    0.6822   -3.6264   -1.7225 H   0  0  0  0  0  0  0  0  0  0  0  0
   -0.7946   -4.0941    0.8600 H   0  0  0  0  0  0  0  0  0  0  0  0
   -2.2857   -3.2836   -1.6903 H   0  0  0  0  0  0  0  0  0  0  0  0
   -2.5046   -1.8298    0.9601 H   0  0  0  0  0  0  0  0  0  0  0  0
   -3.8711   -1.7939   -1.4219 H   0  0  0  0  0  0  0  0  0  0  0  0
   -4.7463    0.1128   -1.4258 H   0  0  0  0  0  0  0  0  0  0  0  0
   -4.9798   -0.7171    1.0091 H   0  0  0  0  0  0  0  0  0  0  0  0
   -3.8906    0.7311    1.3920 H   0  0  0  0  0  0  0  0  0  0  0  0
   -6.4984    0.7152   -0.2170 H   0  0  0  0  0  0  0  0  0  0  0  0
   -6.2068    1.4042    1.3934 H   0  0  0  0  0  0  0  0  0  0  0  0
   -6.1807    2.9878   -0.5795 H   0  0  0  0  0  0  0  0  0  0  0  0
   -2.5082    1.4305   -1.8298 H   0  0  0  0  0  0  0  0  0  0  0  0
   -3.7938    3.3759   -1.4155 H   0  0  0  0  0  0  0  0  0  0  0  0
   -4.7898    2.1263   -2.2135 H   0  0  0  0  0  0  0  0  0  0  0  0
    2.2382   -1.0018   -0.0095 H   0  0  0  0  0  0  0  0  0  0  0  0
    2.5963   -1.4742    1.7514 H   0  0  0  0  0  0  0  0  0  0  0  0
    0.8026    1.8932    1.0775 H   0  0  0  0  0  0  0  0  0  0  0  0
    1.3298    0.8701   -0.4126 H   0  0  0  0  0  0  0  0  0  0  0  0
    2.6831    1.9113    2.7842 H   0  0  0  0  0  0  0  0  0  0  0  0
    3.9274    2.3164    0.7405 H   0  0  0  0  0  0  0  0  0  0  0  0
    3.5024   -0.0322   -1.1590 H   0  0  0  0  0  0  0  0  0  0  0  0
    3.2903    1.7034   -1.4856 H   0  0  0  0  0  0  0  0  0  0  0  0
    5.7334    0.0087   -1.4189 H   0  0  0  0  0  0  0  0  0  0  0  0
    5.3355    1.5031   -2.3985 H   0  0  0  0  0  0  0  0  0  0  0  0
    5.8971    2.9146   -0.4227 H   0  0  0  0  0  0  0  0  0  0  0  0
    7.2047    1.8220   -0.9079 H   0  0  0  0  0  0  0  0  0  0  0  0
    6.3690    2.0642    1.6928 H   0  0  0  0  0  0  0  0  0  0  0  0
    6.9986    0.5542    0.9881 H   0  0  0  0  0  0  0  0  0  0  0  0
    5.0266   -0.4285    0.8805 H   0  0  0  0  0  0  0  0  0  0  0  0
  1  2  1  0
  2  3  1  0
  3  4  1  0
  4  5  1  0
  5  6  1  0
  6  7  1  0
  6  8  1  0
  8  9  1  0
  3 10  1  0
  8 10  1  0
 10 11  1  0
 11 12  1  0
 12 13  1  0
 13 14  1  0
 14 15  1  0
 15 16  1  0
 12 17  1  0
 17 18  1  0
 15 19  1  0
 17 19  1  0
  2 20  1  0
 20 21  1  0
 21 22  1  0
 20 23  1  0
 22 23  1  0
 22 24  1  0
 22 25  1  0
 25 26  1  0
 26 27  1  0
 27 28  1  0
 28 29  1  0
 25 30  1  0
 29 30  1  0
  1 31  1  0
  2 32  1  0
  3 33  1  0
  4 34  1  0
  4 35  1  0
  5 36  1  0
  5 37  1  0
  6 38  1  1
  8 39  1  6
 10 40  1  1
 11 41  1  0
 12 42  1  0
 13 43  1  0
 13 44  1  0
 14 45  1  0
 14 46  1  0
 15 47  1  6
 17 48  1  0
 19 49  1  0
 19 50  1  0
 21 51  1  0
 21 52  1  0
 23 53  1  0
 23 54  1  0
 24 55  1  0
 25 56  1  6
 26 57  1  0
 26 58  1  0
 27 59  1  0
 27 60  1  0
 28 61  1  0
 28 62  1  0
 29 63  1  0
 29 64  1  0
 30 65  1  0
M  END
>  <PDBID>  (1) 
4LMN

>  <PDB ID>  (1) 
4LMN

>  <Generic Name>  (1) 
Cobimetinib

>  <Brand Name>  (1) 
Cotellic

>  <DrugBank ID>  (1) 
DB05239

>  <ATC Codes>  (1) 
nan

>  <Ligand ID>  (1) 
EUI

>  <Target Name>  (1) 
Dual specificity mitogen-activated protein kinase kinase 1

>  <UniProt ID>  (1) 
Q02750

>  <PDB ID.1>  (1) 
4LMN

>  <Seq. Identity>  (1) 
97%

$$$$
