PDB_DB00563_00
     RDKit          3D

 77 79  0  0  0  0  0  0  0  0999 V2000
    7.4412   -0.4095    1.1227 N   0  0  0  0  0  0  0  0  0  0  0  0
    8.4286   -0.5574    0.0995 C   0  0  0  0  0  0  0  0  0  0  0  0
    9.6964   -0.8622    0.7310 N   0  0  0  0  0  0  0  0  0  0  0  0
    8.0569   -1.6676   -0.7535 N   0  0  0  0  0  0  0  0  0  0  0  0
    6.7531   -1.5052   -1.3309 C   0  0  2  0  0  0  0  0  0  0  0  0
    6.7550   -0.4577   -2.3207 N   0  0  0  0  0  0  0  0  0  0  0  0
    5.7080   -1.2972   -0.2557 C   0  0  0  0  0  0  0  0  0  0  0  0
    4.3966   -1.1182   -0.8709 N   0  0  0  0  0  0  0  0  0  0  0  0
    3.7303   -0.1107   -0.0746 C   0  0  0  0  0  0  0  0  0  0  0  0
    3.9630   -0.4768    1.3753 C   0  0  0  0  0  0  0  0  0  0  0  0
    5.2504    0.0946    1.7228 N   0  0  0  0  0  0  0  0  0  0  0  0
    6.1172   -0.1119    0.5651 C   0  0  0  0  0  0  0  0  0  0  0  0
    2.2473   -0.0121   -0.3125 C   0  0  0  0  0  0  0  0  0  0  0  0
    1.7630    1.0347    0.5691 N   0  0  0  0  0  0  0  0  0  0  0  0
    2.2625    2.3399    0.1666 C   0  0  0  0  0  0  0  0  0  0  0  0
   -2.3599    0.4454   -0.1261 C   0  0  0  0  0  0  0  0  0  0  0  0
   -1.7357    1.7833   -0.5487 C   0  0  0  0  0  0  0  0  0  0  0  0
   -0.2500    1.4560   -0.7485 C   0  0  0  0  0  0  0  0  0  0  0  0
    0.3296    1.1037    0.6178 C   0  0  0  0  0  0  0  0  0  0  0  0
   -0.3518   -0.1114    1.1514 C   0  0  0  0  0  0  0  0  0  0  0  0
   -1.8299    0.1729    1.2570 C   0  0  0  0  0  0  0  0  0  0  0  0
   -3.8557    0.7048   -0.1235 C   0  0  2  0  0  0  0  0  0  0  0  0
   -4.1980    1.7073    0.7736 O   0  0  0  0  0  0  0  0  0  0  0  0
   -4.5780   -0.4993    0.0793 N   0  0  0  0  0  0  0  0  0  0  0  0
   -5.9475   -0.0823    0.6022 C   0  0  2  0  0  0  0  0  0  0  0  0
   -6.2857   -1.2737    1.4487 C   0  0  0  0  0  0  0  0  0  0  0  0
   -5.1551   -1.3557    2.3594 O   0  0  0  0  0  0  0  0  0  0  0  0
   -6.3761   -2.4565    0.7439 O   0  0  0  0  0  0  0  0  0  0  0  0
   -6.6995    0.1857   -0.6159 C   0  0  0  0  0  0  0  0  0  0  0  0
   -8.0709    0.6706   -0.7065 C   0  0  0  0  0  0  0  0  0  0  0  0
   -9.1835   -0.1311   -0.1812 C   0  0  0  0  0  0  0  0  0  0  0  0
   -9.1655   -0.3708    1.1564 O   0  0  0  0  0  0  0  0  0  0  0  0
   -9.2625   -1.3573   -0.9153 O   0  0  0  0  0  0  0  0  0  0  0  0
    7.6892    0.4652    1.6745 H   0  0  0  0  0  0  0  0  0  0  0  0
    8.5682    0.3674   -0.4994 H   0  0  0  0  0  0  0  0  0  0  0  0
    9.4991   -1.2963    1.6586 H   0  0  0  0  0  0  0  0  0  0  0  0
   10.1789    0.0442    0.9206 H   0  0  0  0  0  0  0  0  0  0  0  0
    8.0714   -2.5316   -0.1751 H   0  0  0  0  0  0  0  0  0  0  0  0
    6.5364   -2.4555   -1.8898 H   0  0  0  0  0  0  0  0  0  0  0  0
    6.8727   -0.8358   -3.3083 H   0  0  0  0  0  0  0  0  0  0  0  0
    5.8957    0.1102   -2.3385 H   0  0  0  0  0  0  0  0  0  0  0  0
    5.7414   -2.1859    0.3920 H   0  0  0  0  0  0  0  0  0  0  0  0
    3.9062   -2.0246   -0.8854 H   0  0  0  0  0  0  0  0  0  0  0  0
    4.2513    0.8565   -0.3328 H   0  0  0  0  0  0  0  0  0  0  0  0
    4.0849   -1.5853    1.4837 H   0  0  0  0  0  0  0  0  0  0  0  0
    3.1471   -0.1753    2.0322 H   0  0  0  0  0  0  0  0  0  0  0  0
    5.0718    1.1398    1.8184 H   0  0  0  0  0  0  0  0  0  0  0  0
    6.2619    0.8147   -0.0251 H   0  0  0  0  0  0  0  0  0  0  0  0
    1.7874   -0.9579    0.0032 H   0  0  0  0  0  0  0  0  0  0  0  0
    1.9956    0.1653   -1.3730 H   0  0  0  0  0  0  0  0  0  0  0  0
    3.2096    2.6054    0.6371 H   0  0  0  0  0  0  0  0  0  0  0  0
    1.5159    3.0990    0.4764 H   0  0  0  0  0  0  0  0  0  0  0  0
    2.4404    2.3636   -0.9423 H   0  0  0  0  0  0  0  0  0  0  0  0
   -2.0714   -0.3236   -0.8473 H   0  0  0  0  0  0  0  0  0  0  0  0
   -1.8851    2.5487    0.2206 H   0  0  0  0  0  0  0  0  0  0  0  0
   -2.1128    2.1361   -1.5079 H   0  0  0  0  0  0  0  0  0  0  0  0
   -0.2156    0.5958   -1.4299 H   0  0  0  0  0  0  0  0  0  0  0  0
    0.2003    2.3794   -1.1430 H   0  0  0  0  0  0  0  0  0  0  0  0
    0.0655    1.9580    1.2766 H   0  0  0  0  0  0  0  0  0  0  0  0
    0.0044   -0.2814    2.2032 H   0  0  0  0  0  0  0  0  0  0  0  0
   -0.2180   -1.0144    0.5356 H   0  0  0  0  0  0  0  0  0  0  0  0
   -2.3973   -0.5975    1.7968 H   0  0  0  0  0  0  0  0  0  0  0  0
   -2.0014    1.1311    1.8314 H   0  0  0  0  0  0  0  0  0  0  0  0
   -4.0515    1.1626   -1.1433 H   0  0  0  0  0  0  0  0  0  0  0  0
   -4.3222    2.5886    0.3811 H   0  0  0  0  0  0  0  0  0  0  0  0
   -4.7094   -0.9902   -0.8194 H   0  0  0  0  0  0  0  0  0  0  0  0
   -5.7733    0.7666    1.2529 H   0  0  0  0  0  0  0  0  0  0  0  0
   -7.1265   -1.1421    2.1411 H   0  0  0  0  0  0  0  0  0  0  0  0
   -4.7543   -2.2393    2.2479 H   0  0  0  0  0  0  0  0  0  0  0  0
   -6.0669   -2.4141   -0.1800 H   0  0  0  0  0  0  0  0  0  0  0  0
   -6.0398    0.9404   -1.2118 H   0  0  0  0  0  0  0  0  0  0  0  0
   -6.5537   -0.7537   -1.2778 H   0  0  0  0  0  0  0  0  0  0  0  0
   -8.3117    0.9814   -1.8028 H   0  0  0  0  0  0  0  0  0  0  0  0
   -8.1181    1.7172   -0.2202 H   0  0  0  0  0  0  0  0  0  0  0  0
  -10.1456    0.4069   -0.4488 H   0  0  0  0  0  0  0  0  0  0  0  0
   -9.3594   -1.3375    1.3033 H   0  0  0  0  0  0  0  0  0  0  0  0
   -8.3556   -1.6767   -1.0597 H   0  0  0  0  0  0  0  0  0  0  0  0
  1  2  1  0
  2  3  1  0
  2  4  1  0
  4  5  1  0
  5  6  1  0
  5  7  1  0
  7  8  1  0
  8  9  1  0
  9 10  1  0
 10 11  1  0
  1 12  1  0
  7 12  1  0
 11 12  1  0
  9 13  1  0
 13 14  1  0
 14 15  1  0
 16 17  1  0
 17 18  1  0
 14 19  1  0
 18 19  1  0
 19 20  1  0
 16 21  1  0
 20 21  1  0
 16 22  1  0
 22 23  1  0
 22 24  1  0
 24 25  1  0
 25 26  1  0
 26 27  1  0
 26 28  1  0
 25 29  1  0
 29 30  1  0
 30 31  1  0
 31 32  1  0
 31 33  1  0
  1 34  1  0
  2 35  1  0
  3 36  1  0
  3 37  1  0
  4 38  1  0
  5 39  1  6
  6 40  1  0
  6 41  1  0
  7 42  1  0
  8 43  1  0
  9 44  1  0
 10 45  1  0
 10 46  1  0
 11 47  1  0
 12 48  1  0
 13 49  1  0
 13 50  1  0
 15 51  1  0
 15 52  1  0
 15 53  1  0
 16 54  1  0
 17 55  1  0
 17 56  1  0
 18 57  1  0
 18 58  1  0
 19 59  1  0
 20 60  1  0
 20 61  1  0
 21 62  1  0
 21 63  1  0
 22 64  1  6
 23 65  1  0
 24 66  1  0
 25 67  1  1
 26 68  1  0
 27 69  1  0
 28 70  1  0
 29 71  1  0
 29 72  1  0
 30 73  1  0
 30 74  1  0
 31 75  1  0
 32 76  1  0
 33 77  1  0
M  END
>  <PDBID>  (1) 
1U72

>  <PDB ID>  (1) 
1U72

>  <Generic Name>  (1) 
Methotrexate

>  <Brand Name>  (1) 
Apo-methotrexate#Jamp-methotrexate#Methotrexate#Methotrexate Dbl Inj 10mg/ml#Methotrexate Dbl Inj 2.5mg/ml#Methotrexate Dbl Inj 25mg/ml#Methotrexate Injection BP#Methotrexate Injection USP#Methotrexate Injection, BP#Methotrexate Injection, USP#Methotrexate PF/sa Injection#Methotrexate Sod Inj 25mg/ml USP#Methotrexate Sodium#Methotrexate Sodium Inj 20mg#Methotrexate Sodium Inj 25.0mg/ml#Methotrexate Sodium Inj 25mg/ml#Methotrexate Sodium Inj 25mg/ml USP#Methotrexate Sodium Injection#Methotrexate Sodium Injection USP#Methotrexate Tab 2.5mg#Methotrexate Tab 2.5mg USP#Methotrexate Tablets, USP#Methotrexate-liq Im IV Iar Int Ivr 25mg/ml#Methotrexate-pws Im IV Iar Int Ivr 20mg/vial#Metoject#Metoject Subcutaneous#Otrexup#Rasuvo#Ratio-methotrexate Sodium#Rheumatrex Dose Pack#Rheumatrex Tab 2.5mg#Rheumatrex-tab 2.5mg#Trexall#Abitrexate#Alltrex#Artrait#Atrexel#Bendatrexat#Carditrex#Dermotrex#Ebetrex#Emtexate#Ledertrexate#Maxtrex#Meisusheng#Mexate#Rheumatrex#Trexan#Zexate

>  <DrugBank ID>  (1) 
DB00563

>  <ATC Codes>  (1) 
L01BA01#L04AX03

>  <Ligand ID>  (1) 
MTX

>  <Target Name>  (1) 
Dihydrofolate reductase

>  <UniProt ID>  (1) 
P00374

>  <PDB ID.1>  (1) 
1U72

>  <Seq. Identity>  (1) 
100%

$$$$
