PDB_DB01137_03
     RDKit          3D

116122  0  0  0  0  0  0  0  0999 V2000
    4.9577   -0.5862    0.6742 C   0  0  0  0  0  0  0  0  0  0  0  0
   -2.0659   -2.6259    0.8737 F   0  0  0  0  0  0  0  0  0  0  0  0
   -5.2299    0.3164    0.1269 N   0  0  0  0  0  0  0  0  0  0  0  0
    5.9079   -0.3887   -0.3406 O   0  0  0  0  0  0  0  0  0  0  0  0
   -3.1067    0.6439   -1.0823 C   0  0  0  0  0  0  0  0  0  0  0  0
   -2.6244   -0.4516   -0.2714 N   0  0  0  0  0  0  0  0  0  0  0  0
   -0.6052    1.5068   -0.6676 O   0  0  0  0  0  0  0  0  0  0  0  0
   -3.0702   -0.1804    1.0792 C   0  0  0  0  0  0  0  0  0  0  0  0
    2.0031    0.6932   -0.3927 N   0  0  0  0  0  0  0  0  0  0  0  0
    2.6532   -0.8400    2.2598 O   0  0  0  0  0  0  0  0  0  0  0  0
    1.6497    1.8424   -1.1101 C   0  0  2  0  0  0  0  0  0  0  0  0
    5.4482   -1.6098    1.4821 O   0  0  0  0  0  0  0  0  0  0  0  0
   -1.2238   -0.7244   -0.3651 C   0  0  0  0  0  0  0  0  0  0  0  0
    1.0268    0.0850    0.4213 C   0  0  0  0  0  0  0  0  0  0  0  0
   -0.3917    0.4058    0.1542 C   0  0  0  0  0  0  0  0  0  0  0  0
   -4.6230    0.3776   -1.1667 C   0  0  0  0  0  0  0  0  0  0  0  0
   -4.5507   -0.4850    1.1008 C   0  0  0  0  0  0  0  0  0  0  0  0
    0.2669    1.6305   -1.7159 C   0  0  0  0  0  0  0  0  0  0  0  0
    1.3178   -1.4174    0.4337 C   0  0  0  0  0  0  0  0  0  0  0  0
   -0.9850   -2.0615    0.2496 C   0  0  0  0  0  0  0  0  0  0  0  0
    3.0502   -0.1122   -0.9086 C   0  0  0  0  0  0  0  0  0  0  0  0
    0.2094   -2.0608    1.2078 C   0  0  0  0  0  0  0  0  0  0  0  0
    2.6404    2.2262   -2.1606 C   0  0  0  0  0  0  0  0  0  0  0  0
    2.6729   -1.5805    1.0838 C   0  0  0  0  0  0  0  0  0  0  0  0
   -5.6277    1.6068    0.6467 C   0  0  0  0  0  0  0  0  0  0  0  0
    3.6667   -1.0552    0.0716 C   0  0  0  0  0  0  0  0  0  0  0  0
   -2.7269    0.6793   -2.0989 H   0  0  0  0  0  0  0  0  0  0  0  0
   -2.9775    1.6229   -0.5983 H   0  0  0  0  0  0  0  0  0  0  0  0
   -2.9784    0.9359    1.2234 H   0  0  0  0  0  0  0  0  0  0  0  0
   -2.4906   -0.6333    1.8712 H   0  0  0  0  0  0  0  0  0  0  0  0
    1.5468    2.7335   -0.4237 H   0  0  0  0  0  0  0  0  0  0  0  0
   -4.6840   -0.6685   -1.5897 H   0  0  0  0  0  0  0  0  0  0  0  0
   -5.1457    1.1098   -1.7802 H   0  0  0  0  0  0  0  0  0  0  0  0
   -5.0049   -0.2842    2.0834 H   0  0  0  0  0  0  0  0  0  0  0  0
   -4.7302   -1.5717    0.8806 H   0  0  0  0  0  0  0  0  0  0  0  0
    0.2845    0.7918   -2.4104 H   0  0  0  0  0  0  0  0  0  0  0  0
   -0.0530    2.5313   -2.2909 H   0  0  0  0  0  0  0  0  0  0  0  0
    2.6553   -0.6482   -1.8162 H   0  0  0  0  0  0  0  0  0  0  0  0
    0.3995   -3.1299    1.4406 H   0  0  0  0  0  0  0  0  0  0  0  0
    2.7760    1.4656   -2.9326 H   0  0  0  0  0  0  0  0  0  0  0  0
    3.5722    2.5746   -1.6797 H   0  0  0  0  0  0  0  0  0  0  0  0
    2.2199    3.1343   -2.6825 H   0  0  0  0  0  0  0  0  0  0  0  0
   -4.7775    2.3169    0.6807 H   0  0  0  0  0  0  0  0  0  0  0  0
   -6.4823    1.9574    0.0604 H   0  0  0  0  0  0  0  0  0  0  0  0
   -5.9778    1.4401    1.6855 H   0  0  0  0  0  0  0  0  0  0  0  0
    4.9577   -0.5862    0.6742 C   0  0  0  0  0  0  0  0  0  0  0  0
   -2.0659   -2.6259    0.8737 F   0  0  0  0  0  0  0  0  0  0  0  0
   -5.2299    0.3164    0.1269 N   0  0  0  0  0  0  0  0  0  0  0  0
    5.9079   -0.3887   -0.3406 O   0  0  0  0  0  0  0  0  0  0  0  0
   -3.1067    0.6439   -1.0823 C   0  0  0  0  0  0  0  0  0  0  0  0
   -2.6244   -0.4516   -0.2714 N   0  0  0  0  0  0  0  0  0  0  0  0
   -0.6052    1.5068   -0.6676 O   0  0  0  0  0  0  0  0  0  0  0  0
   -3.0702   -0.1804    1.0792 C   0  0  0  0  0  0  0  0  0  0  0  0
    2.0031    0.6932   -0.3927 N   0  0  0  0  0  0  0  0  0  0  0  0
    2.6532   -0.8400    2.2598 O   0  0  0  0  0  0  0  0  0  0  0  0
    1.6497    1.8424   -1.1101 C   0  0  2  0  0  0  0  0  0  0  0  0
    5.4482   -1.6098    1.4821 O   0  0  0  0  0  0  0  0  0  0  0  0
   -1.2238   -0.7244   -0.3651 C   0  0  0  0  0  0  0  0  0  0  0  0
    1.0268    0.0850    0.4213 C   0  0  0  0  0  0  0  0  0  0  0  0
   -0.3917    0.4058    0.1542 C   0  0  0  0  0  0  0  0  0  0  0  0
   -4.6230    0.3776   -1.1667 C   0  0  0  0  0  0  0  0  0  0  0  0
   -4.5507   -0.4850    1.1008 C   0  0  0  0  0  0  0  0  0  0  0  0
    0.2669    1.6305   -1.7159 C   0  0  0  0  0  0  0  0  0  0  0  0
    1.3178   -1.4174    0.4337 C   0  0  0  0  0  0  0  0  0  0  0  0
   -0.9850   -2.0615    0.2496 C   0  0  0  0  0  0  0  0  0  0  0  0
    3.0502   -0.1122   -0.9086 C   0  0  0  0  0  0  0  0  0  0  0  0
    0.2094   -2.0608    1.2078 C   0  0  0  0  0  0  0  0  0  0  0  0
    2.6404    2.2262   -2.1606 C   0  0  0  0  0  0  0  0  0  0  0  0
    2.6729   -1.5805    1.0838 C   0  0  0  0  0  0  0  0  0  0  0  0
   -5.6277    1.6068    0.6467 C   0  0  0  0  0  0  0  0  0  0  0  0
    3.6667   -1.0552    0.0716 C   0  0  0  0  0  0  0  0  0  0  0  0
   -2.7269    0.6793   -2.0989 H   0  0  0  0  0  0  0  0  0  0  0  0
   -2.9775    1.6229   -0.5983 H   0  0  0  0  0  0  0  0  0  0  0  0
   -2.9784    0.9359    1.2234 H   0  0  0  0  0  0  0  0  0  0  0  0
   -2.4906   -0.6333    1.8712 H   0  0  0  0  0  0  0  0  0  0  0  0
    1.5468    2.7335   -0.4237 H   0  0  0  0  0  0  0  0  0  0  0  0
   -4.6840   -0.6685   -1.5897 H   0  0  0  0  0  0  0  0  0  0  0  0
   -5.1457    1.1098   -1.7802 H   0  0  0  0  0  0  0  0  0  0  0  0
   -5.0049   -0.2842    2.0834 H   0  0  0  0  0  0  0  0  0  0  0  0
   -4.7302   -1.5717    0.8806 H   0  0  0  0  0  0  0  0  0  0  0  0
    0.2845    0.7918   -2.4104 H   0  0  0  0  0  0  0  0  0  0  0  0
   -0.0530    2.5313   -2.2909 H   0  0  0  0  0  0  0  0  0  0  0  0
    2.6553   -0.6482   -1.8162 H   0  0  0  0  0  0  0  0  0  0  0  0
    0.3995   -3.1299    1.4406 H   0  0  0  0  0  0  0  0  0  0  0  0
    2.7760    1.4656   -2.9326 H   0  0  0  0  0  0  0  0  0  0  0  0
    3.5722    2.5746   -1.6797 H   0  0  0  0  0  0  0  0  0  0  0  0
    2.2199    3.1343   -2.6825 H   0  0  0  0  0  0  0  0  0  0  0  0
   -4.7775    2.3169    0.6807 H   0  0  0  0  0  0  0  0  0  0  0  0
   -6.4823    1.9574    0.0604 H   0  0  0  0  0  0  0  0  0  0  0  0
   -5.9778    1.4401    1.6855 H   0  0  0  0  0  0  0  0  0  0  0  0
    4.8667    0.3804    1.2137 H   0  0  0  0  0  0  0  0  0  0  0  0
    6.7639   -0.8530   -0.1278 H   0  0  0  0  0  0  0  0  0  0  0  0
    3.1457    0.0089    2.2209 H   0  0  0  0  0  0  0  0  0  0  0  0
    5.8166   -1.1704    2.3030 H   0  0  0  0  0  0  0  0  0  0  0  0
   -1.0092   -0.8145   -1.4706 H   0  0  0  0  0  0  0  0  0  0  0  0
    1.2606    0.3995    1.4855 H   0  0  0  0  0  0  0  0  0  0  0  0
   -0.9141    0.7049    1.1184 H   0  0  0  0  0  0  0  0  0  0  0  0
    1.3328   -1.8165   -0.6104 H   0  0  0  0  0  0  0  0  0  0  0  0
   -0.6857   -2.8206   -0.5396 H   0  0  0  0  0  0  0  0  0  0  0  0
    3.8540    0.5441   -1.2977 H   0  0  0  0  0  0  0  0  0  0  0  0
   -0.0284   -1.4407    2.0752 H   0  0  0  0  0  0  0  0  0  0  0  0
    2.8546   -2.6637    1.3014 H   0  0  0  0  0  0  0  0  0  0  0  0
    3.9504   -1.9708   -0.5369 H   0  0  0  0  0  0  0  0  0  0  0  0
    4.8667    0.3804    1.2137 H   0  0  0  0  0  0  0  0  0  0  0  0
    6.7639   -0.8530   -0.1278 H   0  0  0  0  0  0  0  0  0  0  0  0
    3.1457    0.0089    2.2209 H   0  0  0  0  0  0  0  0  0  0  0  0
    5.8166   -1.1704    2.3030 H   0  0  0  0  0  0  0  0  0  0  0  0
   -1.0092   -0.8145   -1.4706 H   0  0  0  0  0  0  0  0  0  0  0  0
    1.2606    0.3995    1.4855 H   0  0  0  0  0  0  0  0  0  0  0  0
   -0.9141    0.7049    1.1184 H   0  0  0  0  0  0  0  0  0  0  0  0
    1.3328   -1.8165   -0.6104 H   0  0  0  0  0  0  0  0  0  0  0  0
   -0.6857   -2.8206   -0.5396 H   0  0  0  0  0  0  0  0  0  0  0  0
    3.8540    0.5441   -1.2977 H   0  0  0  0  0  0  0  0  0  0  0  0
   -0.0284   -1.4407    2.0752 H   0  0  0  0  0  0  0  0  0  0  0  0
    2.8546   -2.6637    1.3014 H   0  0  0  0  0  0  0  0  0  0  0  0
    3.9504   -1.9708   -0.5369 H   0  0  0  0  0  0  0  0  0  0  0  0
  1  4  1  0
  5  6  1  0
  6  8  1  0
  9 11  1  0
  1 12  1  0
  6 13  1  0
  9 14  1  0
  7 15  1  0
 13 15  1  0
 14 15  1  0
  3 16  1  0
  5 16  1  0
  3 17  1  0
  8 17  1  0
  7 18  1  0
 11 18  1  0
 14 19  1  0
  2 20  1  0
 13 20  1  0
  9 21  1  0
 19 22  1  0
 20 22  1  0
 11 23  1  0
 19 24  1  0
 24 10  1  0
  3 25  1  0
  1 26  1  0
 21 26  1  0
 24 26  1  0
  5 27  1  0
  5 28  1  0
  8 29  1  0
  8 30  1  0
 11 31  1  1
 16 32  1  0
 16 33  1  0
 17 34  1  0
 17 35  1  0
 18 36  1  0
 18 37  1  0
 21 38  1  0
 22 39  1  0
 23 40  1  0
 23 41  1  0
 23 42  1  0
 25 43  1  0
 25 44  1  0
 25 45  1  0
 46 49  1  0
 50 51  1  0
 51 53  1  0
 54 56  1  0
 46 57  1  0
 51 58  1  0
 54 59  1  0
 52 60  1  0
 58 60  1  0
 59 60  1  0
 48 61  1  0
 50 61  1  0
 48 62  1  0
 53 62  1  0
 52 63  1  0
 56 63  1  0
 59 64  1  0
 47 65  1  0
 58 65  1  0
 54 66  1  0
 64 67  1  0
 65 67  1  0
 56 68  1  0
 64 69  1  0
 69 55  1  0
 48 70  1  0
 46 71  1  0
 66 71  1  0
 69 71  1  0
 50 72  1  0
 50 73  1  0
 53 74  1  0
 53 75  1  0
 56 76  1  1
 61 77  1  0
 61 78  1  0
 62 79  1  0
 62 80  1  0
 63 81  1  0
 63 82  1  0
 66 83  1  0
 67 84  1  0
 68 85  1  0
 68 86  1  0
 68 87  1  0
 70 88  1  0
 70 89  1  0
 70 90  1  0
  1 91  1  0
  4 92  1  0
 10 93  1  0
 12 94  1  0
 13 95  1  0
 14 96  1  0
 15 97  1  0
 19 98  1  0
 20 99  1  0
 21100  1  0
 22101  1  0
 24102  1  0
 26103  1  0
 46104  1  0
 49105  1  0
 55106  1  0
 57107  1  0
 58108  1  0
 59109  1  0
 60110  1  0
 64111  1  0
 65112  1  0
 66113  1  0
 67114  1  0
 69115  1  0
 71116  1  0
M  END
>  <PDBID>  (1) 
4Z2D

>  <PDB ID>  (1) 
4Z2D

>  <Generic Name>  (1) 
Levofloxacin

>  <Brand Name>  (1) 
Act Levofloxacin#Apo-levofloxacin#Auro-levofloxacin#Ava-levofloxacin#Dom-levofloxacin#Iquix#Levaquin#Levaquin 25mg/ml#Levaquin 500mg#Levaquin 5mg/ml#Levaquin 750mg#Levofloxacin#Levofloxacin In 5% Dextrose Injection#Levofloxacin Injection#Mylan-levofloxacin#Ntp-levofloxacin#PHL-levofloxacin#PMS-levofloxacin#Quinsair#Quixin#Sandoz Levofloxacin#Teva-levofloxacin#Cravit#Elequine#Floxel#Leroxacin#Levokacin#Levox#Levoxacin#Mosardal#Nofaxin#Reskuin#Tavanic

>  <DrugBank ID>  (1) 
DB01137

>  <ATC Codes>  (1) 
A02BD10#J01RA05#S01AE05#J01MA12

>  <Ligand ID>  (1) 
LFX

>  <Target Name>  (1) 
DNA gyrase subunit A

>  <UniProt ID>  (1) 
P43700

>  <PDB ID.1>  (1) 
4Z2D

>  <Seq. Identity>  (1) 
50%

$$$$
