PDB_DB08881_03
     RDKit          3D

 75 78  0  0  0  0  0  0  0  0999 V2000
    7.4286    0.3945    0.5340 C   0  0  0  0  0  0  0  0  0  0  0  0
   -0.0219   -0.7996   -1.5538 C   0  0  0  0  0  0  0  0  0  0  0  0
    0.0063   -1.1658    0.9804 C   0  0  0  0  0  0  0  0  0  0  0  0
   -2.4034   -0.6678    0.3380 C   0  0  0  0  0  0  0  0  0  0  0  0
   -3.4271    0.0956    1.2045 C   0  0  0  0  0  0  0  0  0  0  0  0
   -2.6974    0.9403    2.2353 C   0  0  0  0  0  0  0  0  0  0  0  0
   -1.8592   -1.3747    2.6345 C   0  0  0  0  0  0  0  0  0  0  0  0
    3.4420    0.9748   -0.5038 C   0  0  0  0  0  0  0  0  0  0  0  0
    3.1356    1.0416   -1.9572 C   0  0  0  0  0  0  0  0  0  0  0  0
    2.9365   -0.1873   -2.6082 N   0  0  0  0  0  0  0  0  0  0  0  0
    2.3785    0.1626    0.1645 C   0  0  0  0  0  0  0  0  0  0  0  0
    0.9033   -1.2932   -2.6010 N   0  0  0  0  0  0  0  0  0  0  0  0
    0.5105   -1.4621   -0.3540 C   0  0  0  0  0  0  0  0  0  0  0  0
    2.0194   -1.1125   -0.4982 C   0  0  0  0  0  0  0  0  0  0  0  0
    2.1844   -1.1931   -1.9470 C   0  0  0  0  0  0  0  0  0  0  0  0
    4.8491    0.6674   -0.1416 C   0  0  0  0  0  0  0  0  0  0  0  0
   -1.4509   -1.4432    1.1735 C   0  0  0  0  0  0  0  0  0  0  0  0
   -1.9365    0.0259    3.1487 C   0  0  0  0  0  0  0  0  0  0  0  0
   -0.9742   -2.0850    3.4299 F   0  0  0  0  0  0  0  0  0  0  0  0
   -3.1590   -1.5272   -0.4300 F   0  0  0  0  0  0  0  0  0  0  0  0
   -4.2232    0.9287    0.3565 N   0  0  0  0  0  0  0  0  0  0  0  0
   -5.2107    0.0933   -0.7450 S   0  0  0  0  0  0  0  0  0  0  0  0
   -4.5329   -0.2011   -2.1070 O   0  0  0  0  0  0  0  0  0  0  0  0
   -5.6683   -1.3486   -0.0289 O   0  0  0  0  0  0  0  0  0  0  0  0
   -6.6608    0.9534   -0.9433 C   0  0  0  0  0  0  0  0  0  0  0  0
   -7.4495    1.1267    0.3378 C   0  0  0  0  0  0  0  0  0  0  0  0
   -8.7257    1.9029    0.0717 C   0  0  0  0  0  0  0  0  0  0  0  0
    5.7350    1.7861   -0.7181 C   0  0  0  0  0  0  0  0  0  0  0  0
    7.1571    1.6282   -0.2525 C   0  0  0  0  0  0  0  0  0  0  0  0
    6.7508   -0.8440    0.0732 C   0  0  0  0  0  0  0  0  0  0  0  0
    5.4188   -0.6089   -0.6343 C   0  0  0  0  0  0  0  0  0  0  0  0
    7.1792    0.6758    2.2944 Cl  0  0  0  0  0  0  0  0  0  0  0  0
    0.6681   -2.0467    1.8877 O   0  0  0  0  0  0  0  0  0  0  0  0
    8.5405    0.1921    0.4585 H   0  0  0  0  0  0  0  0  0  0  0  0
   -1.0109   -1.1685   -1.9236 H   0  0  0  0  0  0  0  0  0  0  0  0
    0.0782    0.2925   -1.5869 H   0  0  0  0  0  0  0  0  0  0  0  0
    0.1630   -0.1138    1.3273 H   0  0  0  0  0  0  0  0  0  0  0  0
   -1.8890    0.1290   -0.2462 H   0  0  0  0  0  0  0  0  0  0  0  0
   -4.0691   -0.6545    1.6765 H   0  0  0  0  0  0  0  0  0  0  0  0
   -3.4898    1.5104    2.7713 H   0  0  0  0  0  0  0  0  0  0  0  0
   -2.0672    1.6760    1.7122 H   0  0  0  0  0  0  0  0  0  0  0  0
   -2.8342   -1.8996    2.7191 H   0  0  0  0  0  0  0  0  0  0  0  0
    3.2815    2.0426   -0.1364 H   0  0  0  0  0  0  0  0  0  0  0  0
    3.8706    1.6452   -2.5265 H   0  0  0  0  0  0  0  0  0  0  0  0
    2.1743    1.6319   -2.0552 H   0  0  0  0  0  0  0  0  0  0  0  0
    2.6185   -0.0109   -3.5868 H   0  0  0  0  0  0  0  0  0  0  0  0
    1.4469    0.8075    0.1094 H   0  0  0  0  0  0  0  0  0  0  0  0
    2.5901    0.0591    1.2462 H   0  0  0  0  0  0  0  0  0  0  0  0
    0.6439   -2.2899   -2.7635 H   0  0  0  0  0  0  0  0  0  0  0  0
    0.4163   -2.5796   -0.5279 H   0  0  0  0  0  0  0  0  0  0  0  0
    2.5039   -1.9483    0.0446 H   0  0  0  0  0  0  0  0  0  0  0  0
    2.7154   -2.1689   -2.1912 H   0  0  0  0  0  0  0  0  0  0  0  0
    5.0186    0.7188    0.9535 H   0  0  0  0  0  0  0  0  0  0  0  0
   -1.5704   -2.5547    0.9234 H   0  0  0  0  0  0  0  0  0  0  0  0
   -0.9341    0.4002    3.4087 H   0  0  0  0  0  0  0  0  0  0  0  0
   -2.5140   -0.0127    4.1153 H   0  0  0  0  0  0  0  0  0  0  0  0
   -3.6841    1.6318   -0.1607 H   0  0  0  0  0  0  0  0  0  0  0  0
   -4.9939    0.1406   -2.9139 H   0  0  0  0  0  0  0  0  0  0  0  0
   -5.8087   -2.0681   -0.6994 H   0  0  0  0  0  0  0  0  0  0  0  0
   -6.4567    1.9596   -1.3767 H   0  0  0  0  0  0  0  0  0  0  0  0
   -7.3143    0.4141   -1.6588 H   0  0  0  0  0  0  0  0  0  0  0  0
   -7.6969    0.0982    0.7181 H   0  0  0  0  0  0  0  0  0  0  0  0
   -6.8950    1.6792    1.1055 H   0  0  0  0  0  0  0  0  0  0  0  0
   -9.1990    1.5969   -0.8958 H   0  0  0  0  0  0  0  0  0  0  0  0
   -8.4633    2.9708    0.0908 H   0  0  0  0  0  0  0  0  0  0  0  0
   -9.4092    1.6897    0.9394 H   0  0  0  0  0  0  0  0  0  0  0  0
    5.2889    2.7310   -0.3476 H   0  0  0  0  0  0  0  0  0  0  0  0
    5.7712    1.7286   -1.8317 H   0  0  0  0  0  0  0  0  0  0  0  0
    7.4027    2.5058    0.4033 H   0  0  0  0  0  0  0  0  0  0  0  0
    7.8929    1.6848   -1.0874 H   0  0  0  0  0  0  0  0  0  0  0  0
    6.5994   -1.4890    0.9896 H   0  0  0  0  0  0  0  0  0  0  0  0
    7.4243   -1.4817   -0.5728 H   0  0  0  0  0  0  0  0  0  0  0  0
    5.6618   -0.6019   -1.7203 H   0  0  0  0  0  0  0  0  0  0  0  0
    4.7929   -1.4789   -0.3535 H   0  0  0  0  0  0  0  0  0  0  0  0
    1.1017   -1.5483    2.6091 H   0  0  0  0  0  0  0  0  0  0  0  0
  4  5  1  0
  5  6  1  0
  8  9  1  0
  9 10  1  0
  8 11  1  0
  2 12  1  0
  2 13  1  0
  3 13  1  0
 11 14  1  0
 13 14  1  0
 10 15  1  0
 12 15  1  0
 14 15  1  0
  8 16  1  0
  3 17  1  0
  4 17  1  0
  7 17  1  0
  6 18  1  0
  7 18  1  0
  7 19  1  0
  4 20  1  0
  5 21  1  0
 21 22  1  0
 22 23  1  0
 22 24  1  0
 22 25  1  0
 25 26  1  0
 26 27  1  0
 16 28  1  0
  1 29  1  0
 28 29  1  0
  1 30  1  0
 16 31  1  0
 30 31  1  0
  1 32  1  0
  3 33  1  0
  1 34  1  0
  2 35  1  0
  2 36  1  0
  3 37  1  0
  4 38  1  0
  5 39  1  0
  6 40  1  0
  6 41  1  0
  7 42  1  0
  8 43  1  0
  9 44  1  0
  9 45  1  0
 10 46  1  0
 11 47  1  0
 11 48  1  0
 12 49  1  0
 13 50  1  0
 14 51  1  0
 15 52  1  0
 16 53  1  0
 17 54  1  0
 18 55  1  0
 18 56  1  0
 21 57  1  0
 23 58  1  0
 24 59  1  0
 25 60  1  0
 25 61  1  0
 26 62  1  0
 26 63  1  0
 27 64  1  0
 27 65  1  0
 27 66  1  0
 28 67  1  0
 28 68  1  0
 29 69  1  0
 29 70  1  0
 30 71  1  0
 30 72  1  0
 31 73  1  0
 31 74  1  0
 33 75  1  0
M  END
>  <PDBID>  (1) 
3OG7

>  <PDB ID>  (1) 
3OG7

>  <Generic Name>  (1) 
Vemurafenib

>  <Brand Name>  (1) 
Zelboraf

>  <DrugBank ID>  (1) 
DB08881

>  <ATC Codes>  (1) 
L01XE15

>  <Ligand ID>  (1) 
32

>  <Target Name>  (1) 
Serine/threonine-protein kinase B-raf

>  <UniProt ID>  (1) 
P15056

>  <PDB ID.1>  (1) 
3OG7

>  <Seq. Identity>  (1) 
94%

$$$$
