PDB_DB08881_09
     RDKit          3D

 75 78  0  0  0  0  0  0  0  0999 V2000
    7.3459    1.2126   -0.5441 C   0  0  0  0  0  0  0  0  0  0  0  0
    1.7896    0.2760    2.3210 C   0  0  0  0  0  0  0  0  0  0  0  0
   -0.3894   -0.6351    1.8898 C   0  0  0  0  0  0  0  0  0  0  0  0
   -2.4009    0.2019    0.6067 C   0  0  0  0  0  0  0  0  0  0  0  0
   -3.8324   -0.2721    0.4834 C   0  0  0  0  0  0  0  0  0  0  0  0
   -4.0163   -1.5552   -0.2346 C   0  0  0  0  0  0  0  0  0  0  0  0
   -1.5718   -1.9817    0.0770 C   0  0  0  0  0  0  0  0  0  0  0  0
    3.4208   -0.1453   -1.3652 C   0  0  0  0  0  0  0  0  0  0  0  0
    3.4101   -1.6503   -1.1592 C   0  0  0  0  0  0  0  0  0  0  0  0
    3.6154   -1.8645    0.2614 N   0  0  0  0  0  0  0  0  0  0  0  0
    2.4505    0.4736   -0.3968 C   0  0  0  0  0  0  0  0  0  0  0  0
    2.7080   -0.8051    2.1839 N   0  0  0  0  0  0  0  0  0  0  0  0
    0.7036    0.0888    1.2350 C   0  0  0  0  0  0  0  0  0  0  0  0
    1.5208   -0.5914    0.2078 C   0  0  0  0  0  0  0  0  0  0  0  0
    2.3963   -1.5424    1.0060 C   0  0  0  0  0  0  0  0  0  0  0  0
    4.8181    0.3147   -0.9722 C   0  0  0  0  0  0  0  0  0  0  0  0
   -1.6150   -0.9791    1.1641 C   0  0  0  0  0  0  0  0  0  0  0  0
   -2.9822   -2.6171    0.0525 C   0  0  0  0  0  0  0  0  0  0  0  0
   -1.5321   -1.3361   -1.1742 F   0  0  0  0  0  0  0  0  0  0  0  0
   -2.3670    1.2904    1.4354 F   0  0  0  0  0  0  0  0  0  0  0  0
   -4.6845    0.7492   -0.0922 N   0  0  0  0  0  0  0  0  0  0  0  0
   -6.3055    0.0467   -0.1656 S   0  0  0  0  0  0  0  0  0  0  0  0
   -6.4057   -0.9232   -1.3604 O   0  0  0  0  0  0  0  0  0  0  0  0
   -6.5909   -0.6491    1.2340 O   0  0  0  0  0  0  0  0  0  0  0  0
   -7.3944    1.3416   -0.3637 C   0  0  0  0  0  0  0  0  0  0  0  0
   -7.2104    2.1668   -1.6056 C   0  0  0  0  0  0  0  0  0  0  0  0
   -5.8801    2.8307   -1.7164 C   0  0  0  0  0  0  0  0  0  0  0  0
    4.9847    1.7952   -1.1235 C   0  0  0  0  0  0  0  0  0  0  0  0
    6.2180    2.1984   -0.3334 C   0  0  0  0  0  0  0  0  0  0  0  0
    7.1475    0.4469   -1.8437 C   0  0  0  0  0  0  0  0  0  0  0  0
    5.8798   -0.3758   -1.8113 C   0  0  0  0  0  0  0  0  0  0  0  0
    7.4649    0.0887    0.8248 Cl  0  0  0  0  0  0  0  0  0  0  0  0
    0.0297   -1.7916    2.5747 O   0  0  0  0  0  0  0  0  0  0  0  0
    8.2863    1.7729   -0.6293 H   0  0  0  0  0  0  0  0  0  0  0  0
    1.3361    0.2046    3.3376 H   0  0  0  0  0  0  0  0  0  0  0  0
    2.2329    1.2850    2.2684 H   0  0  0  0  0  0  0  0  0  0  0  0
   -0.7261    0.0371    2.7453 H   0  0  0  0  0  0  0  0  0  0  0  0
   -2.0434    0.4303   -0.4228 H   0  0  0  0  0  0  0  0  0  0  0  0
   -4.1775   -0.4380    1.5473 H   0  0  0  0  0  0  0  0  0  0  0  0
   -4.9886   -1.9995    0.1344 H   0  0  0  0  0  0  0  0  0  0  0  0
   -4.1336   -1.4543   -1.3305 H   0  0  0  0  0  0  0  0  0  0  0  0
   -0.8748   -2.8045    0.1658 H   0  0  0  0  0  0  0  0  0  0  0  0
    3.2182    0.1367   -2.4054 H   0  0  0  0  0  0  0  0  0  0  0  0
    2.5053   -2.1321   -1.5498 H   0  0  0  0  0  0  0  0  0  0  0  0
    4.2716   -2.1332   -1.6725 H   0  0  0  0  0  0  0  0  0  0  0  0
    3.8911   -2.8624    0.3809 H   0  0  0  0  0  0  0  0  0  0  0  0
    2.9641    1.0626    0.3863 H   0  0  0  0  0  0  0  0  0  0  0  0
    1.7910    1.1912   -0.9359 H   0  0  0  0  0  0  0  0  0  0  0  0
    2.8104   -1.3826    3.0468 H   0  0  0  0  0  0  0  0  0  0  0  0
    0.3815    1.1105    0.9785 H   0  0  0  0  0  0  0  0  0  0  0  0
    1.0351   -1.0594   -0.6303 H   0  0  0  0  0  0  0  0  0  0  0  0
    1.9030   -2.5199    1.1861 H   0  0  0  0  0  0  0  0  0  0  0  0
    5.0251    0.0190    0.0819 H   0  0  0  0  0  0  0  0  0  0  0  0
   -2.3157   -1.3949    1.9642 H   0  0  0  0  0  0  0  0  0  0  0  0
   -2.9699   -3.3114   -0.8129 H   0  0  0  0  0  0  0  0  0  0  0  0
   -3.1474   -3.1655    0.9779 H   0  0  0  0  0  0  0  0  0  0  0  0
   -4.7504    1.5922    0.5357 H   0  0  0  0  0  0  0  0  0  0  0  0
   -6.4671   -0.6358   -2.2925 H   0  0  0  0  0  0  0  0  0  0  0  0
   -6.1573   -0.3021    2.0430 H   0  0  0  0  0  0  0  0  0  0  0  0
   -8.4297    0.9178   -0.4293 H   0  0  0  0  0  0  0  0  0  0  0  0
   -7.3786    2.0251    0.5287 H   0  0  0  0  0  0  0  0  0  0  0  0
   -7.4354    1.5468   -2.5124 H   0  0  0  0  0  0  0  0  0  0  0  0
   -8.0069    2.9533   -1.6066 H   0  0  0  0  0  0  0  0  0  0  0  0
   -5.9632    3.6316   -2.5002 H   0  0  0  0  0  0  0  0  0  0  0  0
   -5.0429    2.1699   -1.9363 H   0  0  0  0  0  0  0  0  0  0  0  0
   -5.6647    3.3630   -0.7620 H   0  0  0  0  0  0  0  0  0  0  0  0
    4.1085    2.3324   -0.7270 H   0  0  0  0  0  0  0  0  0  0  0  0
    5.1608    2.0565   -2.2044 H   0  0  0  0  0  0  0  0  0  0  0  0
    6.5260    3.2017   -0.6629 H   0  0  0  0  0  0  0  0  0  0  0  0
    5.9749    2.2389    0.7435 H   0  0  0  0  0  0  0  0  0  0  0  0
    7.1591    1.1666   -2.6743 H   0  0  0  0  0  0  0  0  0  0  0  0
    8.0206   -0.2199   -1.9547 H   0  0  0  0  0  0  0  0  0  0  0  0
    5.5102   -0.4562   -2.8535 H   0  0  0  0  0  0  0  0  0  0  0  0
    6.1481   -1.3718   -1.4203 H   0  0  0  0  0  0  0  0  0  0  0  0
   -0.3113   -2.6094    2.1415 H   0  0  0  0  0  0  0  0  0  0  0  0
  4  5  1  0
  5  6  1  0
  8  9  1  0
  9 10  1  0
  8 11  1  0
  2 12  1  0
  2 13  1  0
  3 13  1  0
 11 14  1  0
 13 14  1  0
 10 15  1  0
 12 15  1  0
 14 15  1  0
  8 16  1  0
  3 17  1  0
  4 17  1  0
  7 17  1  0
  6 18  1  0
  7 18  1  0
  7 19  1  0
  4 20  1  0
  5 21  1  0
 21 22  1  0
 22 23  1  0
 22 24  1  0
 22 25  1  0
 25 26  1  0
 26 27  1  0
 16 28  1  0
  1 29  1  0
 28 29  1  0
  1 30  1  0
 16 31  1  0
 30 31  1  0
  1 32  1  0
  3 33  1  0
  1 34  1  0
  2 35  1  0
  2 36  1  0
  3 37  1  0
  4 38  1  0
  5 39  1  0
  6 40  1  0
  6 41  1  0
  7 42  1  0
  8 43  1  0
  9 44  1  0
  9 45  1  0
 10 46  1  0
 11 47  1  0
 11 48  1  0
 12 49  1  0
 13 50  1  0
 14 51  1  0
 15 52  1  0
 16 53  1  0
 17 54  1  0
 18 55  1  0
 18 56  1  0
 21 57  1  0
 23 58  1  0
 24 59  1  0
 25 60  1  0
 25 61  1  0
 26 62  1  0
 26 63  1  0
 27 64  1  0
 27 65  1  0
 27 66  1  0
 28 67  1  0
 28 68  1  0
 29 69  1  0
 29 70  1  0
 30 71  1  0
 30 72  1  0
 31 73  1  0
 31 74  1  0
 33 75  1  0
M  END
>  <PDBID>  (1) 
3OG7

>  <PDB ID>  (1) 
3OG7

>  <Generic Name>  (1) 
Vemurafenib

>  <Brand Name>  (1) 
Zelboraf

>  <DrugBank ID>  (1) 
DB08881

>  <ATC Codes>  (1) 
L01XE15

>  <Ligand ID>  (1) 
32

>  <Target Name>  (1) 
Serine/threonine-protein kinase B-raf

>  <UniProt ID>  (1) 
P15056

>  <PDB ID.1>  (1) 
3OG7

>  <Seq. Identity>  (1) 
94%

$$$$
