PDB_DB00307_00
     RDKit          3D

 70 72  0  0  0  0  0  0  0  0999 V2000
    6.5202   -1.3866   -0.8144 O   0  0  0  0  0  0  0  0  0  0  0  0
    5.8382   -1.8418    0.3278 C   0  0  0  0  0  0  0  0  0  0  0  0
    5.8764   -3.2239    0.3626 O   0  0  0  0  0  0  0  0  0  0  0  0
    4.4218   -1.3019    0.3646 C   0  0  0  0  0  0  0  0  0  0  0  0
    3.6283   -1.7336   -0.8390 C   0  0  0  0  0  0  0  0  0  0  0  0
    4.4497    0.1930    0.4763 C   0  0  0  0  0  0  0  0  0  0  0  0
    3.0226    0.6682    0.6828 C   0  0  0  0  0  0  0  0  0  0  0  0
    2.0820    0.0502   -0.3398 C   0  0  0  0  0  0  0  0  0  0  0  0
    2.8977   -0.5342   -1.4661 C   0  0  0  0  0  0  0  0  0  0  0  0
    1.0569    1.0420   -0.8260 C   0  0  0  0  0  0  0  0  0  0  0  0
    1.7713    2.1961   -1.4680 C   0  0  0  0  0  0  0  0  0  0  0  0
    0.1437    1.4817    0.2878 C   0  0  1  0  0  0  0  0  0  0  0  0
   -0.8877    2.4788   -0.1627 C   0  0  0  0  0  0  0  0  0  0  0  0
   -1.2137    3.3353    1.0730 C   0  0  0  0  0  0  0  0  0  0  0  0
   -2.1065    1.9445   -0.7724 C   0  0  0  0  0  0  0  0  0  0  0  0
   -0.6024    0.3843    0.9672 C   0  0  0  0  0  0  0  0  0  0  0  0
   -1.4604   -0.4039   -0.0389 C   0  0  0  0  0  0  0  0  0  0  0  0
   -2.0690   -1.5129    0.7199 C   0  0  0  0  0  0  0  0  0  0  0  0
   -2.0110   -1.3188    2.2395 C   0  0  0  0  0  0  0  0  0  0  0  0
   -1.2920   -2.8344    0.5200 C   0  0  0  0  0  0  0  0  0  0  0  0
   -3.4927   -1.8505    0.4048 C   0  0  0  0  0  0  0  0  0  0  0  0
   -3.9874   -1.2741   -0.8898 C   0  0  0  0  0  0  0  0  0  0  0  0
   -3.8009    0.2130   -0.7890 C   0  0  0  0  0  0  0  0  0  0  0  0
   -2.2959    0.4701   -0.8782 C   0  0  0  0  0  0  0  0  0  0  0  0
   -4.4421    0.8165   -2.0472 C   0  0  0  0  0  0  0  0  0  0  0  0
   -4.4520    0.8450    0.3847 C   0  0  0  0  0  0  0  0  0  0  0  0
    6.6180   -0.4058   -0.8044 H   0  0  0  0  0  0  0  0  0  0  0  0
    6.4183   -1.4594    1.1905 H   0  0  0  0  0  0  0  0  0  0  0  0
    5.1109   -3.6058    0.8666 H   0  0  0  0  0  0  0  0  0  0  0  0
    3.9671   -1.6907    1.3049 H   0  0  0  0  0  0  0  0  0  0  0  0
    4.3569   -2.1641   -1.5702 H   0  0  0  0  0  0  0  0  0  0  0  0
    2.9231   -2.5179   -0.5504 H   0  0  0  0  0  0  0  0  0  0  0  0
    4.9611    0.7044   -0.3489 H   0  0  0  0  0  0  0  0  0  0  0  0
    5.0139    0.4423    1.4007 H   0  0  0  0  0  0  0  0  0  0  0  0
    2.7489    0.3235    1.7235 H   0  0  0  0  0  0  0  0  0  0  0  0
    2.9921    1.7557    0.7114 H   0  0  0  0  0  0  0  0  0  0  0  0
    1.5796   -0.7839    0.1483 H   0  0  0  0  0  0  0  0  0  0  0  0
    2.2265   -0.9279   -2.2325 H   0  0  0  0  0  0  0  0  0  0  0  0
    3.7010    0.1107   -1.8362 H   0  0  0  0  0  0  0  0  0  0  0  0
    0.4884    0.5289   -1.6396 H   0  0  0  0  0  0  0  0  0  0  0  0
    1.1296    2.7541   -2.1823 H   0  0  0  0  0  0  0  0  0  0  0  0
    2.1951    2.9221   -0.7514 H   0  0  0  0  0  0  0  0  0  0  0  0
    2.5988    1.7892   -2.0833 H   0  0  0  0  0  0  0  0  0  0  0  0
    0.7751    1.9737    1.0564 H   0  0  0  0  0  0  0  0  0  0  0  0
   -0.3325    3.1985   -0.8356 H   0  0  0  0  0  0  0  0  0  0  0  0
   -0.4257    3.2572    1.8341 H   0  0  0  0  0  0  0  0  0  0  0  0
   -1.4511    4.3726    0.7861 H   0  0  0  0  0  0  0  0  0  0  0  0
   -2.1377    2.8924    1.4987 H   0  0  0  0  0  0  0  0  0  0  0  0
   -2.2085    2.4261   -1.7986 H   0  0  0  0  0  0  0  0  0  0  0  0
   -2.9969    2.4105   -0.2428 H   0  0  0  0  0  0  0  0  0  0  0  0
    0.1260   -0.3002    1.4315 H   0  0  0  0  0  0  0  0  0  0  0  0
   -1.2640    0.8619    1.7276 H   0  0  0  0  0  0  0  0  0  0  0  0
   -0.6546   -0.8680   -0.6943 H   0  0  0  0  0  0  0  0  0  0  0  0
   -2.5556   -0.4452    2.5892 H   0  0  0  0  0  0  0  0  0  0  0  0
   -2.5976   -2.2051    2.6331 H   0  0  0  0  0  0  0  0  0  0  0  0
   -1.0055   -1.4609    2.6491 H   0  0  0  0  0  0  0  0  0  0  0  0
   -0.3044   -2.7908    0.9920 H   0  0  0  0  0  0  0  0  0  0  0  0
   -1.9142   -3.6088    1.0531 H   0  0  0  0  0  0  0  0  0  0  0  0
   -1.2723   -3.1278   -0.5365 H   0  0  0  0  0  0  0  0  0  0  0  0
   -3.7028   -2.9417    0.3756 H   0  0  0  0  0  0  0  0  0  0  0  0
   -4.1909   -1.4539    1.2025 H   0  0  0  0  0  0  0  0  0  0  0  0
   -3.4498   -1.6264   -1.7760 H   0  0  0  0  0  0  0  0  0  0  0  0
   -5.0878   -1.4643   -0.9279 H   0  0  0  0  0  0  0  0  0  0  0  0
   -2.1030    0.2026   -1.9678 H   0  0  0  0  0  0  0  0  0  0  0  0
   -4.1542    1.8644   -2.1868 H   0  0  0  0  0  0  0  0  0  0  0  0
   -5.5438    0.8059   -1.8324 H   0  0  0  0  0  0  0  0  0  0  0  0
   -4.2877    0.1732   -2.9290 H   0  0  0  0  0  0  0  0  0  0  0  0
   -4.9208    1.8367    0.1128 H   0  0  0  0  0  0  0  0  0  0  0  0
   -3.6774    1.0878    1.1390 H   0  0  0  0  0  0  0  0  0  0  0  0
   -5.2864    0.2525    0.8138 H   0  0  0  0  0  0  0  0  0  0  0  0
  1  2  1  0
  2  3  1  0
  2  4  1  0
  4  5  1  0
  4  6  1  0
  6  7  1  0
  7  8  1  0
  5  9  1  0
  8  9  1  0
  8 10  1  0
 10 11  1  0
 10 12  1  0
 12 13  1  0
 13 14  1  0
 13 15  1  0
 12 16  1  0
 16 17  1  0
 17 18  1  0
 18 19  1  0
 18 20  1  0
 18 21  1  0
 21 22  1  0
 22 23  1  0
 15 24  1  0
 17 24  1  0
 23 24  1  0
 23 25  1  0
 23 26  1  0
  1 27  1  0
  2 28  1  0
  3 29  1  0
  4 30  1  0
  5 31  1  0
  5 32  1  0
  6 33  1  0
  6 34  1  0
  7 35  1  0
  7 36  1  0
  8 37  1  0
  9 38  1  0
  9 39  1  0
 10 40  1  0
 11 41  1  0
 11 42  1  0
 11 43  1  0
 12 44  1  1
 13 45  1  0
 14 46  1  0
 14 47  1  0
 14 48  1  0
 15 49  1  0
 15 50  1  0
 16 51  1  0
 16 52  1  0
 17 53  1  0
 19 54  1  0
 19 55  1  0
 19 56  1  0
 20 57  1  0
 20 58  1  0
 20 59  1  0
 21 60  1  0
 21 61  1  0
 22 62  1  0
 22 63  1  0
 24 64  1  0
 25 65  1  0
 25 66  1  0
 25 67  1  0
 26 68  1  0
 26 69  1  0
 26 70  1  0
M  END
>  <PDBID>  (1) 
3H0A

>  <PDB ID>  (1) 
3H0A

>  <Generic Name>  (1) 
Bexarotene

>  <Brand Name>  (1) 
Bexarotene#Targretin

>  <DrugBank ID>  (1) 
DB00307

>  <ATC Codes>  (1) 
L01XX25

>  <Ligand ID>  (1) 
9RA

>  <Target Name>  (1) 
Retinoic acid receptor RXR-beta

>  <UniProt ID>  (1) 
P28702

>  <PDB ID.1>  (1) 
3H0A

>  <Seq. Identity>  (1) 
87%

$$$$
