PDB_DB08882_07
     RDKit          3D

170178  0  0  0  0  0  0  0  0999 V2000
   -1.5197    0.4929   -0.1698 C   0  0  0  0  0  0  0  0  0  0  0  0
   -2.8251    0.5759    0.4286 N   0  0  0  0  0  0  0  0  0  0  0  0
   -1.3783   -1.0405   -0.0944 C   0  0  0  0  0  0  0  0  0  0  0  0
   -0.3989    1.0760    0.5863 C   0  0  0  0  0  0  0  0  0  0  0  0
   -3.5360   -0.3820   -0.4298 C   0  0  0  0  0  0  0  0  0  0  0  0
   -3.4038    1.8507    0.4995 C   0  0  0  0  0  0  0  0  0  0  0  0
   -2.5989   -1.4396   -0.7201 N   0  0  0  0  0  0  0  0  0  0  0  0
   -0.1837   -1.3838   -0.7596 N   0  0  0  0  0  0  0  0  0  0  0  0
    0.8551    0.5244    0.1221 N   0  0  0  0  0  0  0  0  0  0  0  0
   -0.5307    0.9939    1.9682 O   0  0  0  0  0  0  0  0  0  0  0  0
   -4.7895   -0.7415    0.0315 N   0  0  0  0  0  0  0  0  0  0  0  0
   -3.8094    2.5082   -0.7686 C   0  0  0  0  0  0  0  0  0  0  0  0
    0.9333   -0.8830    0.0682 C   0  0  0  0  0  0  0  0  0  0  0  0
   -0.1002   -0.9207   -2.1125 C   0  0  0  0  0  0  0  0  0  0  0  0
    1.9106    1.2631    0.6758 C   0  0  0  0  0  0  0  0  0  0  0  0
   -5.0006   -1.3766    1.2578 C   0  0  0  0  0  0  0  0  0  0  0  0
   -5.8106   -0.9395   -0.9197 C   0  0  0  0  0  0  0  0  0  0  0  0
   -4.4015    3.8721   -0.3831 C   0  0  0  0  0  0  0  0  0  0  0  0
    0.8413   -1.5190    1.2833 O   0  0  0  0  0  0  0  0  0  0  0  0
    3.3079    0.8683    0.3728 C   0  0  0  0  0  0  0  0  0  0  0  0
   -5.5601   -2.7811    1.1619 C   0  0  1  0  0  0  0  0  0  0  0  0
   -5.9063   -2.3725   -1.3093 C   0  0  0  0  0  0  0  0  0  0  0  0
   -3.3612    4.6709    0.3310 C   0  0  0  0  0  0  0  0  0  0  0  0
    3.6050   -0.4855    0.8310 N   0  0  0  0  0  0  0  0  0  0  0  0
    3.6715    1.0496   -1.0150 N   0  0  0  0  0  0  0  0  0  0  0  0
   -5.6092   -3.3314   -0.2147 C   0  0  0  0  0  0  0  0  0  0  0  0
   -4.6846   -3.6636    1.9523 N   0  0  0  0  0  0  0  0  0  0  0  0
    5.0005   -0.8077    0.7002 C   0  0  0  0  0  0  0  0  0  0  0  0
    5.0761    0.8557   -1.1660 C   0  0  0  0  0  0  0  0  0  0  0  0
    5.4603   -0.5393   -0.7166 C   0  0  0  0  0  0  0  0  0  0  0  0
    5.7871   -0.0227    1.7099 C   0  0  0  0  0  0  0  0  0  0  0  0
    5.5399    0.9946   -2.5998 C   0  0  0  0  0  0  0  0  0  0  0  0
    6.9194   -0.8247   -0.8256 C   0  0  0  0  0  0  0  0  0  0  0  0
    7.2176   -0.5623    1.6556 C   0  0  0  0  0  0  0  0  0  0  0  0
    7.7502   -0.2254    0.2815 C   0  0  0  0  0  0  0  0  0  0  0  0
   -1.5197    0.4929   -0.1698 C   0  0  0  0  0  0  0  0  0  0  0  0
   -2.8251    0.5759    0.4286 N   0  0  0  0  0  0  0  0  0  0  0  0
   -1.3783   -1.0405   -0.0944 C   0  0  0  0  0  0  0  0  0  0  0  0
   -0.3989    1.0760    0.5863 C   0  0  0  0  0  0  0  0  0  0  0  0
   -3.5360   -0.3820   -0.4298 C   0  0  0  0  0  0  0  0  0  0  0  0
   -3.4038    1.8507    0.4995 C   0  0  0  0  0  0  0  0  0  0  0  0
   -2.5989   -1.4396   -0.7201 N   0  0  0  0  0  0  0  0  0  0  0  0
   -0.1837   -1.3838   -0.7596 N   0  0  0  0  0  0  0  0  0  0  0  0
    0.8551    0.5244    0.1221 N   0  0  0  0  0  0  0  0  0  0  0  0
   -0.5307    0.9939    1.9682 O   0  0  0  0  0  0  0  0  0  0  0  0
   -4.7895   -0.7415    0.0315 N   0  0  0  0  0  0  0  0  0  0  0  0
   -3.8094    2.5082   -0.7686 C   0  0  0  0  0  0  0  0  0  0  0  0
    0.9333   -0.8830    0.0682 C   0  0  0  0  0  0  0  0  0  0  0  0
   -0.1002   -0.9207   -2.1125 C   0  0  0  0  0  0  0  0  0  0  0  0
    1.9106    1.2631    0.6758 C   0  0  0  0  0  0  0  0  0  0  0  0
   -5.0006   -1.3766    1.2578 C   0  0  0  0  0  0  0  0  0  0  0  0
   -5.8106   -0.9395   -0.9197 C   0  0  0  0  0  0  0  0  0  0  0  0
   -4.4015    3.8721   -0.3831 C   0  0  0  0  0  0  0  0  0  0  0  0
    0.8413   -1.5190    1.2833 O   0  0  0  0  0  0  0  0  0  0  0  0
    3.3079    0.8683    0.3728 C   0  0  0  0  0  0  0  0  0  0  0  0
   -5.5601   -2.7811    1.1619 C   0  0  1  0  0  0  0  0  0  0  0  0
   -5.9063   -2.3725   -1.3093 C   0  0  0  0  0  0  0  0  0  0  0  0
   -3.3612    4.6709    0.3310 C   0  0  0  0  0  0  0  0  0  0  0  0
    3.6050   -0.4855    0.8310 N   0  0  0  0  0  0  0  0  0  0  0  0
    3.6715    1.0496   -1.0150 N   0  0  0  0  0  0  0  0  0  0  0  0
   -5.6092   -3.3314   -0.2147 C   0  0  0  0  0  0  0  0  0  0  0  0
   -4.6846   -3.6636    1.9523 N   0  0  0  0  0  0  0  0  0  0  0  0
    5.0005   -0.8077    0.7002 C   0  0  0  0  0  0  0  0  0  0  0  0
    5.0761    0.8557   -1.1660 C   0  0  0  0  0  0  0  0  0  0  0  0
    5.4603   -0.5393   -0.7166 C   0  0  0  0  0  0  0  0  0  0  0  0
    5.7871   -0.0227    1.7099 C   0  0  0  0  0  0  0  0  0  0  0  0
    5.5399    0.9946   -2.5998 C   0  0  0  0  0  0  0  0  0  0  0  0
    6.9194   -0.8247   -0.8256 C   0  0  0  0  0  0  0  0  0  0  0  0
    7.2176   -0.5623    1.6556 C   0  0  0  0  0  0  0  0  0  0  0  0
    7.7502   -0.2254    0.2815 C   0  0  0  0  0  0  0  0  0  0  0  0
   -1.4815    0.8257   -1.2137 H   0  0  0  0  0  0  0  0  0  0  0  0
   -1.3272   -1.2920    0.9781 H   0  0  0  0  0  0  0  0  0  0  0  0
   -0.3553    2.1793    0.3474 H   0  0  0  0  0  0  0  0  0  0  0  0
   -3.6672    0.1745   -1.4051 H   0  0  0  0  0  0  0  0  0  0  0  0
   -4.3136    1.7862    1.1509 H   0  0  0  0  0  0  0  0  0  0  0  0
   -2.7133    2.5275    1.0419 H   0  0  0  0  0  0  0  0  0  0  0  0
   -2.8670   -2.3644   -0.3959 H   0  0  0  0  0  0  0  0  0  0  0  0
   -0.0610    1.7616    2.4035 H   0  0  0  0  0  0  0  0  0  0  0  0
   -4.5970    1.9924   -1.3306 H   0  0  0  0  0  0  0  0  0  0  0  0
   -2.9345    2.6835   -1.4087 H   0  0  0  0  0  0  0  0  0  0  0  0
    1.8252   -1.1693   -0.5263 H   0  0  0  0  0  0  0  0  0  0  0  0
    0.4584    0.0390   -2.1801 H   0  0  0  0  0  0  0  0  0  0  0  0
    0.4617   -1.7076   -2.6890 H   0  0  0  0  0  0  0  0  0  0  0  0
   -1.1230   -0.8410   -2.5132 H   0  0  0  0  0  0  0  0  0  0  0  0
    1.7974    2.3299    0.3117 H   0  0  0  0  0  0  0  0  0  0  0  0
    1.8517    1.3859    1.7952 H   0  0  0  0  0  0  0  0  0  0  0  0
   -5.7787   -0.7875    1.8273 H   0  0  0  0  0  0  0  0  0  0  0  0
   -4.1080   -1.3466    1.9464 H   0  0  0  0  0  0  0  0  0  0  0  0
   -5.5195   -0.3715   -1.8529 H   0  0  0  0  0  0  0  0  0  0  0  0
   -6.7934   -0.5177   -0.6256 H   0  0  0  0  0  0  0  0  0  0  0  0
   -4.8196    4.3784   -1.2748 H   0  0  0  0  0  0  0  0  0  0  0  0
   -5.2422    3.6838    0.3144 H   0  0  0  0  0  0  0  0  0  0  0  0
    0.9501   -0.9239    2.0626 H   0  0  0  0  0  0  0  0  0  0  0  0
    3.9729    1.5377    0.9607 H   0  0  0  0  0  0  0  0  0  0  0  0
   -6.5610   -2.8841    1.6292 H   0  0  0  0  0  0  0  0  0  0  0  0
   -6.9344   -2.5156   -1.7465 H   0  0  0  0  0  0  0  0  0  0  0  0
   -5.2258   -2.5882   -2.1825 H   0  0  0  0  0  0  0  0  0  0  0  0
   -3.4375    4.4335    1.4288 H   0  0  0  0  0  0  0  0  0  0  0  0
   -3.5516    5.7476    0.2431 H   0  0  0  0  0  0  0  0  0  0  0  0
   -2.3672    4.3674   -0.0613 H   0  0  0  0  0  0  0  0  0  0  0  0
    3.3470   -0.5281    1.8243 H   0  0  0  0  0  0  0  0  0  0  0  0
    3.0650    0.5800   -1.6862 H   0  0  0  0  0  0  0  0  0  0  0  0
   -4.6791   -3.9260   -0.4550 H   0  0  0  0  0  0  0  0  0  0  0  0
   -6.4183   -4.1204   -0.2434 H   0  0  0  0  0  0  0  0  0  0  0  0
   -5.2422   -4.5156    2.1920 H   0  0  0  0  0  0  0  0  0  0  0  0
   -3.8584   -3.9779    1.3688 H   0  0  0  0  0  0  0  0  0  0  0  0
    5.1284   -1.8849    0.8987 H   0  0  0  0  0  0  0  0  0  0  0  0
    5.6004    1.6350   -0.5705 H   0  0  0  0  0  0  0  0  0  0  0  0
    4.9144   -1.2448   -1.3749 H   0  0  0  0  0  0  0  0  0  0  0  0
    5.8795    1.0468    1.4286 H   0  0  0  0  0  0  0  0  0  0  0  0
    5.3274   -0.1593    2.6998 H   0  0  0  0  0  0  0  0  0  0  0  0
    6.5442    1.4469   -2.6629 H   0  0  0  0  0  0  0  0  0  0  0  0
    4.8281    1.5637   -3.2186 H   0  0  0  0  0  0  0  0  0  0  0  0
    5.6250   -0.0204   -3.0769 H   0  0  0  0  0  0  0  0  0  0  0  0
    7.0549   -1.9366   -0.7585 H   0  0  0  0  0  0  0  0  0  0  0  0
    7.3307   -0.5047   -1.7820 H   0  0  0  0  0  0  0  0  0  0  0  0
    7.1898   -1.6257    1.8821 H   0  0  0  0  0  0  0  0  0  0  0  0
    7.8580    0.0215    2.3745 H   0  0  0  0  0  0  0  0  0  0  0  0
    8.7721   -0.6184    0.2028 H   0  0  0  0  0  0  0  0  0  0  0  0
    7.7275    0.8910    0.1981 H   0  0  0  0  0  0  0  0  0  0  0  0
   -1.4815    0.8257   -1.2137 H   0  0  0  0  0  0  0  0  0  0  0  0
   -1.3272   -1.2920    0.9781 H   0  0  0  0  0  0  0  0  0  0  0  0
   -0.3553    2.1793    0.3474 H   0  0  0  0  0  0  0  0  0  0  0  0
   -3.6672    0.1745   -1.4051 H   0  0  0  0  0  0  0  0  0  0  0  0
   -4.3136    1.7862    1.1509 H   0  0  0  0  0  0  0  0  0  0  0  0
   -2.7133    2.5275    1.0419 H   0  0  0  0  0  0  0  0  0  0  0  0
   -2.8670   -2.3644   -0.3959 H   0  0  0  0  0  0  0  0  0  0  0  0
   -0.0610    1.7616    2.4035 H   0  0  0  0  0  0  0  0  0  0  0  0
   -4.5970    1.9924   -1.3306 H   0  0  0  0  0  0  0  0  0  0  0  0
   -2.9345    2.6835   -1.4087 H   0  0  0  0  0  0  0  0  0  0  0  0
    1.8252   -1.1693   -0.5263 H   0  0  0  0  0  0  0  0  0  0  0  0
    0.4584    0.0390   -2.1801 H   0  0  0  0  0  0  0  0  0  0  0  0
    0.4617   -1.7076   -2.6890 H   0  0  0  0  0  0  0  0  0  0  0  0
   -1.1230   -0.8410   -2.5132 H   0  0  0  0  0  0  0  0  0  0  0  0
    1.7974    2.3299    0.3117 H   0  0  0  0  0  0  0  0  0  0  0  0
    1.8517    1.3859    1.7952 H   0  0  0  0  0  0  0  0  0  0  0  0
   -5.7787   -0.7875    1.8273 H   0  0  0  0  0  0  0  0  0  0  0  0
   -4.1080   -1.3466    1.9464 H   0  0  0  0  0  0  0  0  0  0  0  0
   -5.5195   -0.3715   -1.8529 H   0  0  0  0  0  0  0  0  0  0  0  0
   -6.7934   -0.5177   -0.6256 H   0  0  0  0  0  0  0  0  0  0  0  0
   -4.8196    4.3784   -1.2748 H   0  0  0  0  0  0  0  0  0  0  0  0
   -5.2422    3.6838    0.3144 H   0  0  0  0  0  0  0  0  0  0  0  0
    0.9501   -0.9239    2.0626 H   0  0  0  0  0  0  0  0  0  0  0  0
    3.9729    1.5377    0.9607 H   0  0  0  0  0  0  0  0  0  0  0  0
   -6.5610   -2.8841    1.6292 H   0  0  0  0  0  0  0  0  0  0  0  0
   -6.9344   -2.5156   -1.7465 H   0  0  0  0  0  0  0  0  0  0  0  0
   -5.2258   -2.5882   -2.1825 H   0  0  0  0  0  0  0  0  0  0  0  0
   -3.4375    4.4335    1.4288 H   0  0  0  0  0  0  0  0  0  0  0  0
   -3.5516    5.7476    0.2431 H   0  0  0  0  0  0  0  0  0  0  0  0
   -2.3672    4.3674   -0.0613 H   0  0  0  0  0  0  0  0  0  0  0  0
    3.3470   -0.5281    1.8243 H   0  0  0  0  0  0  0  0  0  0  0  0
    3.0650    0.5800   -1.6862 H   0  0  0  0  0  0  0  0  0  0  0  0
   -4.6791   -3.9260   -0.4550 H   0  0  0  0  0  0  0  0  0  0  0  0
   -6.4183   -4.1204   -0.2434 H   0  0  0  0  0  0  0  0  0  0  0  0
   -5.2422   -4.5156    2.1920 H   0  0  0  0  0  0  0  0  0  0  0  0
   -3.8584   -3.9779    1.3688 H   0  0  0  0  0  0  0  0  0  0  0  0
    5.1284   -1.8849    0.8987 H   0  0  0  0  0  0  0  0  0  0  0  0
    5.6004    1.6350   -0.5705 H   0  0  0  0  0  0  0  0  0  0  0  0
    4.9144   -1.2448   -1.3749 H   0  0  0  0  0  0  0  0  0  0  0  0
    5.8795    1.0468    1.4286 H   0  0  0  0  0  0  0  0  0  0  0  0
    5.3274   -0.1593    2.6998 H   0  0  0  0  0  0  0  0  0  0  0  0
    6.5442    1.4469   -2.6629 H   0  0  0  0  0  0  0  0  0  0  0  0
    4.8281    1.5637   -3.2186 H   0  0  0  0  0  0  0  0  0  0  0  0
    5.6250   -0.0204   -3.0769 H   0  0  0  0  0  0  0  0  0  0  0  0
    7.0549   -1.9366   -0.7585 H   0  0  0  0  0  0  0  0  0  0  0  0
    7.3307   -0.5047   -1.7820 H   0  0  0  0  0  0  0  0  0  0  0  0
    7.1898   -1.6257    1.8821 H   0  0  0  0  0  0  0  0  0  0  0  0
    7.8580    0.0215    2.3745 H   0  0  0  0  0  0  0  0  0  0  0  0
    8.7721   -0.6184    0.2028 H   0  0  0  0  0  0  0  0  0  0  0  0
    7.7275    0.8910    0.1981 H   0  0  0  0  0  0  0  0  0  0  0  0
  1  2  1  0
  1  3  1  0
  1  4  1  0
  2  5  1  0
  2  6  1  0
  3  7  1  0
  5  7  1  0
  3  8  1  0
  4  9  1  0
  4 10  1  0
  5 11  1  0
  6 12  1  0
  8 13  1  0
  9 13  1  0
  8 14  1  0
  9 15  1  0
 11 16  1  0
 11 17  1  0
 12 18  1  0
 13 19  1  0
 15 20  1  0
 16 21  1  0
 17 22  1  0
 18 23  1  0
 20 24  1  0
 20 25  1  0
 21 26  1  0
 22 26  1  0
 21 27  1  0
 24 28  1  0
 25 29  1  0
 28 30  1  0
 29 30  1  0
 28 31  1  0
 29 32  1  0
 30 33  1  0
 31 34  1  0
 33 35  1  0
 34 35  1  0
 36 37  1  0
 36 38  1  0
 36 39  1  0
 37 40  1  0
 37 41  1  0
 38 42  1  0
 40 42  1  0
 38 43  1  0
 39 44  1  0
 39 45  1  0
 40 46  1  0
 41 47  1  0
 43 48  1  0
 44 48  1  0
 43 49  1  0
 44 50  1  0
 46 51  1  0
 46 52  1  0
 47 53  1  0
 48 54  1  0
 50 55  1  0
 51 56  1  0
 52 57  1  0
 53 58  1  0
 55 59  1  0
 55 60  1  0
 56 61  1  0
 57 61  1  0
 56 62  1  0
 59 63  1  0
 60 64  1  0
 63 65  1  0
 64 65  1  0
 63 66  1  0
 64 67  1  0
 65 68  1  0
 66 69  1  0
 68 70  1  0
 69 70  1  0
  1 71  1  0
  3 72  1  0
  4 73  1  0
  5 74  1  0
  6 75  1  0
  6 76  1  0
  7 77  1  0
 10 78  1  0
 12 79  1  0
 12 80  1  0
 13 81  1  0
 14 82  1  0
 14 83  1  0
 14 84  1  0
 15 85  1  0
 15 86  1  0
 16 87  1  0
 16 88  1  0
 17 89  1  0
 17 90  1  0
 18 91  1  0
 18 92  1  0
 19 93  1  0
 20 94  1  0
 21 95  1  1
 22 96  1  0
 22 97  1  0
 23 98  1  0
 23 99  1  0
 23100  1  0
 24101  1  0
 25102  1  0
 26103  1  0
 26104  1  0
 27105  1  0
 27106  1  0
 28107  1  0
 29108  1  0
 30109  1  0
 31110  1  0
 31111  1  0
 32112  1  0
 32113  1  0
 32114  1  0
 33115  1  0
 33116  1  0
 34117  1  0
 34118  1  0
 35119  1  0
 35120  1  0
 36121  1  0
 38122  1  0
 39123  1  0
 40124  1  0
 41125  1  0
 41126  1  0
 42127  1  0
 45128  1  0
 47129  1  0
 47130  1  0
 48131  1  0
 49132  1  0
 49133  1  0
 49134  1  0
 50135  1  0
 50136  1  0
 51137  1  0
 51138  1  0
 52139  1  0
 52140  1  0
 53141  1  0
 53142  1  0
 54143  1  0
 55144  1  0
 56145  1  1
 57146  1  0
 57147  1  0
 58148  1  0
 58149  1  0
 58150  1  0
 59151  1  0
 60152  1  0
 61153  1  0
 61154  1  0
 62155  1  0
 62156  1  0
 63157  1  0
 64158  1  0
 65159  1  0
 66160  1  0
 66161  1  0
 67162  1  0
 67163  1  0
 67164  1  0
 68165  1  0
 68166  1  0
 69167  1  0
 69168  1  0
 70169  1  0
 70170  1  0
M  END
>  <PDBID>  (1) 
2RGU

>  <PDB ID>  (1) 
2RGU

>  <Generic Name>  (1) 
Linagliptin

>  <Brand Name>  (1) 
Glyxambi#Jentadueto#Jentadueto XR#Tradjenta#Trajenta

>  <DrugBank ID>  (1) 
DB08882

>  <ATC Codes>  (1) 
A10BH05#A10BD19#A10BD11

>  <Ligand ID>  (1) 
356

>  <Target Name>  (1) 
Dipeptidyl peptidase 4

>  <UniProt ID>  (1) 
P27487

>  <PDB ID.1>  (1) 
2RGU

>  <Seq. Identity>  (1) 
100%

$$$$
