PDB_DB08906_06
     RDKit          3D

160168  0  0  0  0  0  0  0  0999 V2000
    2.8600   -1.9248   -2.1932 C   0  0  0  0  0  0  0  0  0  0  0  0
    1.7659   -2.1189   -1.1369 C   0  0  2  0  0  0  0  0  0  0  0  0
    0.4313   -1.7195   -1.8051 C   0  0  0  0  0  0  0  0  0  0  0  0
   -0.0796   -0.6470   -0.9121 C   0  0  1  0  0  0  0  0  0  0  0  0
   -1.5806   -0.5085   -0.8961 C   0  0  2  0  0  0  0  0  0  0  0  0
   -1.9246    0.2750   -2.1687 C   0  0  0  0  0  0  0  0  0  0  0  0
   -3.3213    0.7682   -2.1883 C   0  0  2  0  0  0  0  0  0  0  0  0
   -3.3881    1.7758   -3.1630 F   0  0  0  0  0  0  0  0  0  0  0  0
   -3.8087    1.3685   -0.9169 C   0  0  0  0  0  0  0  0  0  0  0  0
   -5.2935    1.5060   -0.9045 C   0  0  0  0  0  0  0  0  0  0  0  0
   -5.7631    2.2602    0.3102 C   0  0  0  0  0  0  0  0  0  0  0  0
   -7.1671    2.0986    0.3614 O   0  0  0  0  0  0  0  0  0  0  0  0
   -5.2118    1.7467    1.5926 C   0  0  0  0  0  0  0  0  0  0  0  0
   -3.7598    1.3497    1.5350 C   0  0  0  0  0  0  0  0  0  0  0  0
   -3.4073    0.5453    0.3158 C   0  0  1  0  0  0  0  0  0  0  0  0
   -4.1647   -0.7494    0.2230 C   0  0  0  0  0  0  0  0  0  0  0  0
   -1.9277    0.3877    0.2483 C   0  0  2  0  0  0  0  0  0  0  0  0
   -1.4150    1.6552   -0.0764 F   0  0  0  0  0  0  0  0  0  0  0  0
   -1.3658    0.0309    1.5695 C   0  0  1  0  0  0  0  0  0  0  0  0
   -1.9804   -0.9886    2.2482 O   0  0  0  0  0  0  0  0  0  0  0  0
    0.1459   -0.1927    1.5428 C   0  0  0  0  0  0  0  0  0  0  0  0
    0.4722   -1.0780    0.4245 C   0  0  1  0  0  0  0  0  0  0  0  0
   -0.1155   -2.4267    0.7539 C   0  0  0  0  0  0  0  0  0  0  0  0
    1.9577   -1.1666    0.0149 C   0  0  2  0  0  0  0  0  0  0  0  0
    2.3010    0.0178   -0.5406 O   0  0  0  0  0  0  0  0  0  0  0  0
    2.7191    1.0996    0.0965 C   0  0  0  0  0  0  0  0  0  0  0  0
    1.8772    2.1975   -0.2191 O   0  0  0  0  0  0  0  0  0  0  0  0
    4.0630    1.6338   -0.5161 C   0  0  0  0  0  0  0  0  0  0  0  0
    4.4776    2.8389    0.2660 C   0  0  0  0  0  0  0  0  0  0  0  0
    5.9924    2.7332    0.2333 C   0  0  0  0  0  0  0  0  0  0  0  0
    6.2371    1.4362   -0.5042 C   0  0  0  0  0  0  0  0  0  0  0  0
    5.0548    0.7019   -0.4369 O   0  0  0  0  0  0  0  0  0  0  0  0
    2.7737   -1.6412    1.1373 C   0  0  0  0  0  0  0  0  0  0  0  0
    2.6880   -0.8708    2.3040 O   0  0  0  0  0  0  0  0  0  0  0  0
    2.7981   -3.3614    1.5407 S   0  0  0  0  0  0  0  0  0  0  0  0
    3.7834   -4.4387    0.5202 C   0  0  0  0  0  0  0  0  0  0  0  0
    5.1397   -4.1212    0.6947 F   0  0  0  0  0  0  0  0  0  0  0  0
    2.8600   -1.9248   -2.1932 C   0  0  0  0  0  0  0  0  0  0  0  0
    1.7659   -2.1189   -1.1369 C   0  0  2  0  0  0  0  0  0  0  0  0
    0.4313   -1.7195   -1.8051 C   0  0  0  0  0  0  0  0  0  0  0  0
   -0.0796   -0.6470   -0.9121 C   0  0  1  0  0  0  0  0  0  0  0  0
   -1.5806   -0.5085   -0.8961 C   0  0  2  0  0  0  0  0  0  0  0  0
   -1.9246    0.2750   -2.1687 C   0  0  0  0  0  0  0  0  0  0  0  0
   -3.3213    0.7682   -2.1883 C   0  0  2  0  0  0  0  0  0  0  0  0
   -3.3881    1.7758   -3.1630 F   0  0  0  0  0  0  0  0  0  0  0  0
   -3.8087    1.3685   -0.9169 C   0  0  0  0  0  0  0  0  0  0  0  0
   -5.2935    1.5060   -0.9045 C   0  0  0  0  0  0  0  0  0  0  0  0
   -5.7631    2.2602    0.3102 C   0  0  0  0  0  0  0  0  0  0  0  0
   -7.1671    2.0986    0.3614 O   0  0  0  0  0  0  0  0  0  0  0  0
   -5.2118    1.7467    1.5926 C   0  0  0  0  0  0  0  0  0  0  0  0
   -3.7598    1.3497    1.5350 C   0  0  0  0  0  0  0  0  0  0  0  0
   -3.4073    0.5453    0.3158 C   0  0  1  0  0  0  0  0  0  0  0  0
   -4.1647   -0.7494    0.2230 C   0  0  0  0  0  0  0  0  0  0  0  0
   -1.9277    0.3877    0.2483 C   0  0  2  0  0  0  0  0  0  0  0  0
   -1.4150    1.6552   -0.0764 F   0  0  0  0  0  0  0  0  0  0  0  0
   -1.3658    0.0309    1.5695 C   0  0  1  0  0  0  0  0  0  0  0  0
   -1.9804   -0.9886    2.2482 O   0  0  0  0  0  0  0  0  0  0  0  0
    0.1459   -0.1927    1.5428 C   0  0  0  0  0  0  0  0  0  0  0  0
    0.4722   -1.0780    0.4245 C   0  0  1  0  0  0  0  0  0  0  0  0
   -0.1155   -2.4267    0.7539 C   0  0  0  0  0  0  0  0  0  0  0  0
    1.9577   -1.1666    0.0149 C   0  0  2  0  0  0  0  0  0  0  0  0
    2.3010    0.0178   -0.5406 O   0  0  0  0  0  0  0  0  0  0  0  0
    2.7191    1.0996    0.0965 C   0  0  0  0  0  0  0  0  0  0  0  0
    1.8772    2.1975   -0.2191 O   0  0  0  0  0  0  0  0  0  0  0  0
    4.0630    1.6338   -0.5161 C   0  0  0  0  0  0  0  0  0  0  0  0
    4.4776    2.8389    0.2660 C   0  0  0  0  0  0  0  0  0  0  0  0
    5.9924    2.7332    0.2333 C   0  0  0  0  0  0  0  0  0  0  0  0
    6.2371    1.4362   -0.5042 C   0  0  0  0  0  0  0  0  0  0  0  0
    5.0548    0.7019   -0.4369 O   0  0  0  0  0  0  0  0  0  0  0  0
    2.7737   -1.6412    1.1373 C   0  0  0  0  0  0  0  0  0  0  0  0
    2.6880   -0.8708    2.3040 O   0  0  0  0  0  0  0  0  0  0  0  0
    2.7981   -3.3614    1.5407 S   0  0  0  0  0  0  0  0  0  0  0  0
    3.7834   -4.4387    0.5202 C   0  0  0  0  0  0  0  0  0  0  0  0
    5.1397   -4.1212    0.6947 F   0  0  0  0  0  0  0  0  0  0  0  0
    2.5698   -2.5752   -3.0512 H   0  0  0  0  0  0  0  0  0  0  0  0
    3.7815   -2.3337   -1.7670 H   0  0  0  0  0  0  0  0  0  0  0  0
    2.9168   -0.8969   -2.5447 H   0  0  0  0  0  0  0  0  0  0  0  0
    1.7776   -3.1703   -0.9043 H   0  0  0  0  0  0  0  0  0  0  0  0
    0.5987   -1.3585   -2.8366 H   0  0  0  0  0  0  0  0  0  0  0  0
   -0.2671   -2.5802   -1.7880 H   0  0  0  0  0  0  0  0  0  0  0  0
    0.3438    0.3042   -1.2503 H   0  0  0  0  0  0  0  0  0  0  0  0
   -2.1289   -1.4454   -0.9558 H   0  0  0  0  0  0  0  0  0  0  0  0
   -1.2461    1.1690   -2.1395 H   0  0  0  0  0  0  0  0  0  0  0  0
   -1.7268   -0.3125   -3.0803 H   0  0  0  0  0  0  0  0  0  0  0  0
   -3.9756   -0.0432   -2.5793 H   0  0  0  0  0  0  0  0  0  0  0  0
   -3.3847    2.4094   -0.8339 H   0  0  0  0  0  0  0  0  0  0  0  0
   -5.5896    2.1169   -1.8012 H   0  0  0  0  0  0  0  0  0  0  0  0
   -5.8436    0.5651   -0.9680 H   0  0  0  0  0  0  0  0  0  0  0  0
   -5.5383    3.3405    0.2203 H   0  0  0  0  0  0  0  0  0  0  0  0
   -7.3519    1.1282    0.1619 H   0  0  0  0  0  0  0  0  0  0  0  0
   -5.7864    0.8689    2.0007 H   0  0  0  0  0  0  0  0  0  0  0  0
   -5.2932    2.5458    2.3721 H   0  0  0  0  0  0  0  0  0  0  0  0
   -3.1247    2.2589    1.5228 H   0  0  0  0  0  0  0  0  0  0  0  0
   -3.5688    0.7120    2.4224 H   0  0  0  0  0  0  0  0  0  0  0  0
   -4.4616   -0.9911   -0.8268 H   0  0  0  0  0  0  0  0  0  0  0  0
   -3.5837   -1.6221    0.5768 H   0  0  0  0  0  0  0  0  0  0  0  0
   -5.1046   -0.6367    0.8000 H   0  0  0  0  0  0  0  0  0  0  0  0
   -1.5040    0.9473    2.2232 H   0  0  0  0  0  0  0  0  0  0  0  0
   -1.7930   -0.9446    3.2017 H   0  0  0  0  0  0  0  0  0  0  0  0
    0.6396    0.7494    1.6717 H   0  0  0  0  0  0  0  0  0  0  0  0
    0.3477   -0.7765    2.4960 H   0  0  0  0  0  0  0  0  0  0  0  0
   -1.2248   -2.3913    0.5838 H   0  0  0  0  0  0  0  0  0  0  0  0
    0.2401   -3.2807    0.2198 H   0  0  0  0  0  0  0  0  0  0  0  0
    0.0092   -2.5720    1.8630 H   0  0  0  0  0  0  0  0  0  0  0  0
    2.8319    1.1211    1.1776 H   0  0  0  0  0  0  0  0  0  0  0  0
    1.8236    2.2536   -1.2069 H   0  0  0  0  0  0  0  0  0  0  0  0
    3.8191    1.9203   -1.5563 H   0  0  0  0  0  0  0  0  0  0  0  0
    4.1433    3.7840   -0.2071 H   0  0  0  0  0  0  0  0  0  0  0  0
    4.0893    2.8594    1.3064 H   0  0  0  0  0  0  0  0  0  0  0  0
    6.3925    3.5644   -0.3850 H   0  0  0  0  0  0  0  0  0  0  0  0
    6.3995    2.7281    1.2543 H   0  0  0  0  0  0  0  0  0  0  0  0
    7.0417    0.8949    0.0047 H   0  0  0  0  0  0  0  0  0  0  0  0
    6.4375    1.6495   -1.5758 H   0  0  0  0  0  0  0  0  0  0  0  0
    3.8792   -1.4251    0.8281 H   0  0  0  0  0  0  0  0  0  0  0  0
    3.4100   -1.1102    2.9278 H   0  0  0  0  0  0  0  0  0  0  0  0
    3.6300   -5.5045    0.8772 H   0  0  0  0  0  0  0  0  0  0  0  0
    3.5115   -4.3929   -0.5258 H   0  0  0  0  0  0  0  0  0  0  0  0
    2.5698   -2.5752   -3.0512 H   0  0  0  0  0  0  0  0  0  0  0  0
    3.7815   -2.3337   -1.7670 H   0  0  0  0  0  0  0  0  0  0  0  0
    2.9168   -0.8969   -2.5447 H   0  0  0  0  0  0  0  0  0  0  0  0
    1.7776   -3.1703   -0.9043 H   0  0  0  0  0  0  0  0  0  0  0  0
    0.5987   -1.3585   -2.8366 H   0  0  0  0  0  0  0  0  0  0  0  0
   -0.2671   -2.5802   -1.7880 H   0  0  0  0  0  0  0  0  0  0  0  0
    0.3438    0.3042   -1.2503 H   0  0  0  0  0  0  0  0  0  0  0  0
   -2.1289   -1.4454   -0.9558 H   0  0  0  0  0  0  0  0  0  0  0  0
   -1.2461    1.1690   -2.1395 H   0  0  0  0  0  0  0  0  0  0  0  0
   -1.7268   -0.3125   -3.0803 H   0  0  0  0  0  0  0  0  0  0  0  0
   -3.9756   -0.0432   -2.5793 H   0  0  0  0  0  0  0  0  0  0  0  0
   -3.3847    2.4094   -0.8339 H   0  0  0  0  0  0  0  0  0  0  0  0
   -5.5896    2.1169   -1.8012 H   0  0  0  0  0  0  0  0  0  0  0  0
   -5.8436    0.5651   -0.9680 H   0  0  0  0  0  0  0  0  0  0  0  0
   -5.5383    3.3405    0.2203 H   0  0  0  0  0  0  0  0  0  0  0  0
   -7.3519    1.1282    0.1619 H   0  0  0  0  0  0  0  0  0  0  0  0
   -5.7864    0.8689    2.0007 H   0  0  0  0  0  0  0  0  0  0  0  0
   -5.2932    2.5458    2.3721 H   0  0  0  0  0  0  0  0  0  0  0  0
   -3.1247    2.2589    1.5228 H   0  0  0  0  0  0  0  0  0  0  0  0
   -3.5688    0.7120    2.4224 H   0  0  0  0  0  0  0  0  0  0  0  0
   -4.4616   -0.9911   -0.8268 H   0  0  0  0  0  0  0  0  0  0  0  0
   -3.5837   -1.6221    0.5768 H   0  0  0  0  0  0  0  0  0  0  0  0
   -5.1046   -0.6367    0.8000 H   0  0  0  0  0  0  0  0  0  0  0  0
   -1.5040    0.9473    2.2232 H   0  0  0  0  0  0  0  0  0  0  0  0
   -1.7930   -0.9446    3.2017 H   0  0  0  0  0  0  0  0  0  0  0  0
    0.6396    0.7494    1.6717 H   0  0  0  0  0  0  0  0  0  0  0  0
    0.3477   -0.7765    2.4960 H   0  0  0  0  0  0  0  0  0  0  0  0
   -1.2248   -2.3913    0.5838 H   0  0  0  0  0  0  0  0  0  0  0  0
    0.2401   -3.2807    0.2198 H   0  0  0  0  0  0  0  0  0  0  0  0
    0.0092   -2.5720    1.8630 H   0  0  0  0  0  0  0  0  0  0  0  0
    2.8319    1.1211    1.1776 H   0  0  0  0  0  0  0  0  0  0  0  0
    1.8236    2.2536   -1.2069 H   0  0  0  0  0  0  0  0  0  0  0  0
    3.8191    1.9203   -1.5563 H   0  0  0  0  0  0  0  0  0  0  0  0
    4.1433    3.7840   -0.2071 H   0  0  0  0  0  0  0  0  0  0  0  0
    4.0893    2.8594    1.3064 H   0  0  0  0  0  0  0  0  0  0  0  0
    6.3925    3.5644   -0.3850 H   0  0  0  0  0  0  0  0  0  0  0  0
    6.3995    2.7281    1.2543 H   0  0  0  0  0  0  0  0  0  0  0  0
    7.0417    0.8949    0.0047 H   0  0  0  0  0  0  0  0  0  0  0  0
    6.4375    1.6495   -1.5758 H   0  0  0  0  0  0  0  0  0  0  0  0
    3.8792   -1.4251    0.8281 H   0  0  0  0  0  0  0  0  0  0  0  0
    3.4100   -1.1102    2.9278 H   0  0  0  0  0  0  0  0  0  0  0  0
    3.6300   -5.5045    0.8772 H   0  0  0  0  0  0  0  0  0  0  0  0
    3.5115   -4.3929   -0.5258 H   0  0  0  0  0  0  0  0  0  0  0  0
  1  2  1  0
  2  3  1  0
  3  4  1  0
  4  5  1  0
  5  6  1  0
  6  7  1  0
  7  8  1  0
  7  9  1  0
  9 10  1  0
 10 11  1  0
 11 12  1  0
 11 13  1  0
 13 14  1  0
  9 15  1  0
 14 15  1  0
 15 16  1  1
  5 17  1  0
 15 17  1  0
 17 18  1  6
 17 19  1  0
 19 20  1  0
 19 21  1  0
  4 22  1  0
 21 22  1  0
 22 23  1  1
  2 24  1  0
 22 24  1  0
 24 25  1  6
 25 26  1  0
 26 27  1  0
 26 28  1  0
 28 29  1  0
 29 30  1  0
 30 31  1  0
 28 32  1  0
 31 32  1  0
 24 33  1  0
 33 34  1  0
 33 35  1  0
 35 36  1  0
 36 37  1  0
 38 39  1  0
 39 40  1  0
 40 41  1  0
 41 42  1  0
 42 43  1  0
 43 44  1  0
 44 45  1  0
 44 46  1  0
 46 47  1  0
 47 48  1  0
 48 49  1  0
 48 50  1  0
 50 51  1  0
 46 52  1  0
 51 52  1  0
 52 53  1  1
 42 54  1  0
 52 54  1  0
 54 55  1  6
 54 56  1  0
 56 57  1  0
 56 58  1  0
 41 59  1  0
 58 59  1  0
 59 60  1  1
 39 61  1  0
 59 61  1  0
 61 62  1  6
 62 63  1  0
 63 64  1  0
 63 65  1  0
 65 66  1  0
 66 67  1  0
 67 68  1  0
 65 69  1  0
 68 69  1  0
 61 70  1  0
 70 71  1  0
 70 72  1  0
 72 73  1  0
 73 74  1  0
  1 75  1  0
  1 76  1  0
  1 77  1  0
  2 78  1  1
  3 79  1  0
  3 80  1  0
  4 81  1  6
  5 82  1  1
  6 83  1  0
  6 84  1  0
  7 85  1  6
  9 86  1  0
 10 87  1  0
 10 88  1  0
 11 89  1  0
 12 90  1  0
 13 91  1  0
 13 92  1  0
 14 93  1  0
 14 94  1  0
 16 95  1  0
 16 96  1  0
 16 97  1  0
 19 98  1  1
 20 99  1  0
 21100  1  0
 21101  1  0
 23102  1  0
 23103  1  0
 23104  1  0
 26105  1  0
 27106  1  0
 28107  1  0
 29108  1  0
 29109  1  0
 30110  1  0
 30111  1  0
 31112  1  0
 31113  1  0
 33114  1  0
 34115  1  0
 36116  1  0
 36117  1  0
 38118  1  0
 38119  1  0
 38120  1  0
 39121  1  1
 40122  1  0
 40123  1  0
 41124  1  6
 42125  1  1
 43126  1  0
 43127  1  0
 44128  1  6
 46129  1  0
 47130  1  0
 47131  1  0
 48132  1  0
 49133  1  0
 50134  1  0
 50135  1  0
 51136  1  0
 51137  1  0
 53138  1  0
 53139  1  0
 53140  1  0
 56141  1  1
 57142  1  0
 58143  1  0
 58144  1  0
 60145  1  0
 60146  1  0
 60147  1  0
 63148  1  0
 64149  1  0
 65150  1  0
 66151  1  0
 66152  1  0
 67153  1  0
 67154  1  0
 68155  1  0
 68156  1  0
 70157  1  0
 71158  1  0
 73159  1  0
 73160  1  0
M  END
>  <PDBID>  (1) 
3CLD

>  <PDB ID>  (1) 
3CLD

>  <Generic Name>  (1) 
Fluticasone furoate

>  <Brand Name>  (1) 
Arnuity Ellipta#Avamys#Breo Ellipta#Flonase Sensimist Allergy Relief#Veramyst

>  <DrugBank ID>  (1) 
DB08906

>  <ATC Codes>  (1) 
R03AK10#R01AD12#R03BA09

>  <Ligand ID>  (1) 
GW6

>  <Target Name>  (1) 
Glucocorticoid receptor

>  <UniProt ID>  (1) 
P04150

>  <PDB ID.1>  (1) 
3CLD

>  <Seq. Identity>  (1) 
99%

$$$$
