PDB_DB00278_02
     RDKit          3D

170174  0  0  0  0  0  0  0  0999 V2000
    1.0862   -0.0454   -1.0486 S   0  0  0  0  0  0  0  0  0  0  0  0
    1.5187   -1.9242   -0.9910 O   0  0  0  0  0  0  0  0  0  0  0  0
    0.3577   -0.1231   -2.4921 O   0  0  0  0  0  0  0  0  0  0  0  0
    4.1389   -0.2919    2.0631 C   0  0  0  0  0  0  0  0  0  0  0  0
    5.4659    0.4081    1.9393 C   0  0  2  0  0  0  0  0  0  0  0  0
    5.9413    0.5183    0.5058 C   0  0  0  0  0  0  0  0  0  0  0  0
    4.8048    1.1576   -0.2636 C   0  0  0  0  0  0  0  0  0  0  0  0
    5.1109    1.4303   -1.6964 C   0  0  0  0  0  0  0  0  0  0  0  0
    3.9774    2.3048   -2.2318 C   0  0  0  0  0  0  0  0  0  0  0  0
    2.6945    1.9854   -1.4521 C   0  0  0  0  0  0  0  0  0  0  0  0
    2.6372    0.4860   -1.2424 C   0  0  0  0  0  0  0  0  0  0  0  0
    3.6408    0.1605   -0.1636 C   0  0  0  0  0  0  0  0  0  0  0  0
    6.4637   -0.2436    2.8367 C   0  0  0  0  0  0  0  0  0  0  0  0
    3.1405    0.2734    1.1720 N   0  0  0  0  0  0  0  0  0  0  0  0
    0.2805    0.0893    0.1474 N   0  0  0  0  0  0  0  0  0  0  0  0
   -1.1218   -0.1959    0.1628 C   0  0  2  0  0  0  0  0  0  0  0  0
   -1.3263   -1.6117   -0.2767 C   0  0  0  0  0  0  0  0  0  0  0  0
   -0.6291   -2.4150    0.6276 O   0  0  0  0  0  0  0  0  0  0  0  0
   -1.9352    0.8036   -0.5854 C   0  0  0  0  0  0  0  0  0  0  0  0
   -1.7536    2.2045    0.0291 C   0  0  0  0  0  0  0  0  0  0  0  0
   -2.5555    3.2150   -0.7131 C   0  0  0  0  0  0  0  0  0  0  0  0
   -2.4644    4.5599   -0.2522 N   0  0  0  0  0  0  0  0  0  0  0  0
   -3.0401    4.8484    1.0168 C   0  0  0  0  0  0  0  0  0  0  0  0
   -2.9475    6.2864    1.3249 N   0  0  0  0  0  0  0  0  0  0  0  0
   -2.2503    4.1912    2.0639 N   0  0  0  0  0  0  0  0  0  0  0  0
   -2.7149   -1.9345   -0.3468 N   0  0  0  0  0  0  0  0  0  0  0  0
   -3.0565   -3.2134   -0.8403 C   0  0  2  0  0  0  0  0  0  0  0  0
   -3.2727   -4.2457    0.2622 C   0  0  0  0  0  0  0  0  0  0  0  0
   -4.6245   -3.9499    0.8758 C   0  0  1  0  0  0  0  0  0  0  0  0
   -4.7369   -2.4346    0.9540 C   0  0  0  0  0  0  0  0  0  0  0  0
   -3.3688   -1.7864    0.9633 C   0  0  0  0  0  0  0  0  0  0  0  0
   -2.1635   -3.8324   -1.8528 C   0  0  0  0  0  0  0  0  0  0  0  0
   -0.8560   -4.0411   -1.4227 O   0  0  0  0  0  0  0  0  0  0  0  0
   -2.2038   -3.1948   -3.0920 O   0  0  0  0  0  0  0  0  0  0  0  0
   -5.6762   -4.4989   -0.0907 C   0  0  0  0  0  0  0  0  0  0  0  0
    1.0862   -0.0454   -1.0486 S   0  0  0  0  0  0  0  0  0  0  0  0
    1.5187   -1.9242   -0.9910 O   0  0  0  0  0  0  0  0  0  0  0  0
    0.3577   -0.1231   -2.4921 O   0  0  0  0  0  0  0  0  0  0  0  0
    4.1389   -0.2919    2.0631 C   0  0  0  0  0  0  0  0  0  0  0  0
    5.4659    0.4081    1.9393 C   0  0  2  0  0  0  0  0  0  0  0  0
    5.9413    0.5183    0.5058 C   0  0  0  0  0  0  0  0  0  0  0  0
    4.8048    1.1576   -0.2636 C   0  0  0  0  0  0  0  0  0  0  0  0
    5.1109    1.4303   -1.6964 C   0  0  0  0  0  0  0  0  0  0  0  0
    3.9774    2.3048   -2.2318 C   0  0  0  0  0  0  0  0  0  0  0  0
    2.6945    1.9854   -1.4521 C   0  0  0  0  0  0  0  0  0  0  0  0
    2.6372    0.4860   -1.2424 C   0  0  0  0  0  0  0  0  0  0  0  0
    3.6408    0.1605   -0.1636 C   0  0  0  0  0  0  0  0  0  0  0  0
    6.4637   -0.2436    2.8367 C   0  0  0  0  0  0  0  0  0  0  0  0
    3.1405    0.2734    1.1720 N   0  0  0  0  0  0  0  0  0  0  0  0
    0.2805    0.0893    0.1474 N   0  0  0  0  0  0  0  0  0  0  0  0
   -1.1218   -0.1959    0.1628 C   0  0  2  0  0  0  0  0  0  0  0  0
   -1.3263   -1.6117   -0.2767 C   0  0  0  0  0  0  0  0  0  0  0  0
   -0.6291   -2.4150    0.6276 O   0  0  0  0  0  0  0  0  0  0  0  0
   -1.9352    0.8036   -0.5854 C   0  0  0  0  0  0  0  0  0  0  0  0
   -1.7536    2.2045    0.0291 C   0  0  0  0  0  0  0  0  0  0  0  0
   -2.5555    3.2150   -0.7131 C   0  0  0  0  0  0  0  0  0  0  0  0
   -2.4644    4.5599   -0.2522 N   0  0  0  0  0  0  0  0  0  0  0  0
   -3.0401    4.8484    1.0168 C   0  0  0  0  0  0  0  0  0  0  0  0
   -2.9475    6.2864    1.3249 N   0  0  0  0  0  0  0  0  0  0  0  0
   -2.2503    4.1912    2.0639 N   0  0  0  0  0  0  0  0  0  0  0  0
   -2.7149   -1.9345   -0.3468 N   0  0  0  0  0  0  0  0  0  0  0  0
   -3.0565   -3.2134   -0.8403 C   0  0  2  0  0  0  0  0  0  0  0  0
   -3.2727   -4.2457    0.2622 C   0  0  0  0  0  0  0  0  0  0  0  0
   -4.6245   -3.9499    0.8758 C   0  0  1  0  0  0  0  0  0  0  0  0
   -4.7369   -2.4346    0.9540 C   0  0  0  0  0  0  0  0  0  0  0  0
   -3.3688   -1.7864    0.9633 C   0  0  0  0  0  0  0  0  0  0  0  0
   -2.1635   -3.8324   -1.8528 C   0  0  0  0  0  0  0  0  0  0  0  0
   -0.8560   -4.0411   -1.4227 O   0  0  0  0  0  0  0  0  0  0  0  0
   -2.2038   -3.1948   -3.0920 O   0  0  0  0  0  0  0  0  0  0  0  0
   -5.6762   -4.4989   -0.0907 C   0  0  0  0  0  0  0  0  0  0  0  0
    1.9755   -1.9582   -1.8501 H   0  0  0  0  0  0  0  0  0  0  0  0
    0.5448    0.6108   -3.1237 H   0  0  0  0  0  0  0  0  0  0  0  0
    4.2600   -1.3502    1.7623 H   0  0  0  0  0  0  0  0  0  0  0  0
    3.8266   -0.2338    3.1233 H   0  0  0  0  0  0  0  0  0  0  0  0
    5.3065    1.4660    2.2867 H   0  0  0  0  0  0  0  0  0  0  0  0
    6.8077    1.1852    0.4839 H   0  0  0  0  0  0  0  0  0  0  0  0
    6.1946   -0.4780    0.0906 H   0  0  0  0  0  0  0  0  0  0  0  0
    4.5579    2.0980    0.2697 H   0  0  0  0  0  0  0  0  0  0  0  0
    5.0877    0.4780   -2.2534 H   0  0  0  0  0  0  0  0  0  0  0  0
    6.0887    1.9492   -1.7714 H   0  0  0  0  0  0  0  0  0  0  0  0
    3.7674    2.0064   -3.2793 H   0  0  0  0  0  0  0  0  0  0  0  0
    4.2085    3.3708   -2.1683 H   0  0  0  0  0  0  0  0  0  0  0  0
    1.8656    2.3748   -2.0463 H   0  0  0  0  0  0  0  0  0  0  0  0
    2.6931    2.5093   -0.4755 H   0  0  0  0  0  0  0  0  0  0  0  0
    3.0873    0.0592   -2.1934 H   0  0  0  0  0  0  0  0  0  0  0  0
    4.0945   -0.8447   -0.2816 H   0  0  0  0  0  0  0  0  0  0  0  0
    6.1380   -0.1358    3.8702 H   0  0  0  0  0  0  0  0  0  0  0  0
    7.4487    0.2909    2.7547 H   0  0  0  0  0  0  0  0  0  0  0  0
    6.5994   -1.3021    2.5706 H   0  0  0  0  0  0  0  0  0  0  0  0
    3.0549    1.2955    1.4529 H   0  0  0  0  0  0  0  0  0  0  0  0
    0.5192    0.6827    0.9742 H   0  0  0  0  0  0  0  0  0  0  0  0
   -1.4719   -0.1496    1.2375 H   0  0  0  0  0  0  0  0  0  0  0  0
   -0.8723   -1.7340   -1.2577 H   0  0  0  0  0  0  0  0  0  0  0  0
   -0.2417   -1.9197    1.3665 H   0  0  0  0  0  0  0  0  0  0  0  0
   -1.5291    0.9036   -1.6119 H   0  0  0  0  0  0  0  0  0  0  0  0
   -2.9920    0.5606   -0.6716 H   0  0  0  0  0  0  0  0  0  0  0  0
   -0.7022    2.4700    0.0995 H   0  0  0  0  0  0  0  0  0  0  0  0
   -2.1479    2.0926    1.0830 H   0  0  0  0  0  0  0  0  0  0  0  0
   -3.6274    2.8936   -0.7166 H   0  0  0  0  0  0  0  0  0  0  0  0
   -2.2668    3.1688   -1.8037 H   0  0  0  0  0  0  0  0  0  0  0  0
   -1.5061    4.9474   -0.3611 H   0  0  0  0  0  0  0  0  0  0  0  0
   -4.0964    4.5497    1.1119 H   0  0  0  0  0  0  0  0  0  0  0  0
   -3.8545    6.6897    1.5861 H   0  0  0  0  0  0  0  0  0  0  0  0
   -2.5110    6.7757    0.5159 H   0  0  0  0  0  0  0  0  0  0  0  0
   -1.4242    4.8052    2.2371 H   0  0  0  0  0  0  0  0  0  0  0  0
   -2.8635    4.1716    2.9042 H   0  0  0  0  0  0  0  0  0  0  0  0
   -4.0703   -3.1193   -1.3324 H   0  0  0  0  0  0  0  0  0  0  0  0
   -2.5175   -4.2010    1.0510 H   0  0  0  0  0  0  0  0  0  0  0  0
   -3.2440   -5.2749   -0.1513 H   0  0  0  0  0  0  0  0  0  0  0  0
   -4.7396   -4.4089    1.8678 H   0  0  0  0  0  0  0  0  0  0  0  0
   -5.1930   -2.1963    1.9444 H   0  0  0  0  0  0  0  0  0  0  0  0
   -5.4009   -2.0334    0.1895 H   0  0  0  0  0  0  0  0  0  0  0  0
   -2.7686   -2.3076    1.7473 H   0  0  0  0  0  0  0  0  0  0  0  0
   -3.5077   -0.7498    1.2612 H   0  0  0  0  0  0  0  0  0  0  0  0
   -2.5774   -4.8672   -2.0468 H   0  0  0  0  0  0  0  0  0  0  0  0
   -0.2668   -3.8891   -2.2171 H   0  0  0  0  0  0  0  0  0  0  0  0
   -2.4989   -2.2648   -3.0505 H   0  0  0  0  0  0  0  0  0  0  0  0
   -6.0677   -3.6690   -0.7285 H   0  0  0  0  0  0  0  0  0  0  0  0
   -5.2345   -5.2354   -0.7935 H   0  0  0  0  0  0  0  0  0  0  0  0
   -6.4940   -5.0226    0.4534 H   0  0  0  0  0  0  0  0  0  0  0  0
    1.9755   -1.9582   -1.8501 H   0  0  0  0  0  0  0  0  0  0  0  0
    0.5448    0.6108   -3.1237 H   0  0  0  0  0  0  0  0  0  0  0  0
    4.2600   -1.3502    1.7623 H   0  0  0  0  0  0  0  0  0  0  0  0
    3.8266   -0.2338    3.1233 H   0  0  0  0  0  0  0  0  0  0  0  0
    5.3065    1.4660    2.2867 H   0  0  0  0  0  0  0  0  0  0  0  0
    6.8077    1.1852    0.4839 H   0  0  0  0  0  0  0  0  0  0  0  0
    6.1946   -0.4780    0.0906 H   0  0  0  0  0  0  0  0  0  0  0  0
    4.5579    2.0980    0.2697 H   0  0  0  0  0  0  0  0  0  0  0  0
    5.0877    0.4780   -2.2534 H   0  0  0  0  0  0  0  0  0  0  0  0
    6.0887    1.9492   -1.7714 H   0  0  0  0  0  0  0  0  0  0  0  0
    3.7674    2.0064   -3.2793 H   0  0  0  0  0  0  0  0  0  0  0  0
    4.2085    3.3708   -2.1683 H   0  0  0  0  0  0  0  0  0  0  0  0
    1.8656    2.3748   -2.0463 H   0  0  0  0  0  0  0  0  0  0  0  0
    2.6931    2.5093   -0.4755 H   0  0  0  0  0  0  0  0  0  0  0  0
    3.0873    0.0592   -2.1934 H   0  0  0  0  0  0  0  0  0  0  0  0
    4.0945   -0.8447   -0.2816 H   0  0  0  0  0  0  0  0  0  0  0  0
    6.1380   -0.1358    3.8702 H   0  0  0  0  0  0  0  0  0  0  0  0
    7.4487    0.2909    2.7547 H   0  0  0  0  0  0  0  0  0  0  0  0
    6.5994   -1.3021    2.5706 H   0  0  0  0  0  0  0  0  0  0  0  0
    3.0549    1.2955    1.4529 H   0  0  0  0  0  0  0  0  0  0  0  0
    0.5192    0.6827    0.9742 H   0  0  0  0  0  0  0  0  0  0  0  0
   -1.4719   -0.1496    1.2375 H   0  0  0  0  0  0  0  0  0  0  0  0
   -0.8723   -1.7340   -1.2577 H   0  0  0  0  0  0  0  0  0  0  0  0
   -0.2417   -1.9197    1.3665 H   0  0  0  0  0  0  0  0  0  0  0  0
   -1.5291    0.9036   -1.6119 H   0  0  0  0  0  0  0  0  0  0  0  0
   -2.9920    0.5606   -0.6716 H   0  0  0  0  0  0  0  0  0  0  0  0
   -0.7022    2.4700    0.0995 H   0  0  0  0  0  0  0  0  0  0  0  0
   -2.1479    2.0926    1.0830 H   0  0  0  0  0  0  0  0  0  0  0  0
   -3.6274    2.8936   -0.7166 H   0  0  0  0  0  0  0  0  0  0  0  0
   -2.2668    3.1688   -1.8037 H   0  0  0  0  0  0  0  0  0  0  0  0
   -1.5061    4.9474   -0.3611 H   0  0  0  0  0  0  0  0  0  0  0  0
   -4.0964    4.5497    1.1119 H   0  0  0  0  0  0  0  0  0  0  0  0
   -3.8545    6.6897    1.5861 H   0  0  0  0  0  0  0  0  0  0  0  0
   -2.5110    6.7757    0.5159 H   0  0  0  0  0  0  0  0  0  0  0  0
   -1.4242    4.8052    2.2371 H   0  0  0  0  0  0  0  0  0  0  0  0
   -2.8635    4.1716    2.9042 H   0  0  0  0  0  0  0  0  0  0  0  0
   -4.0703   -3.1193   -1.3324 H   0  0  0  0  0  0  0  0  0  0  0  0
   -2.5175   -4.2010    1.0510 H   0  0  0  0  0  0  0  0  0  0  0  0
   -3.2440   -5.2749   -0.1513 H   0  0  0  0  0  0  0  0  0  0  0  0
   -4.7396   -4.4089    1.8678 H   0  0  0  0  0  0  0  0  0  0  0  0
   -5.1930   -2.1963    1.9444 H   0  0  0  0  0  0  0  0  0  0  0  0
   -5.4009   -2.0334    0.1895 H   0  0  0  0  0  0  0  0  0  0  0  0
   -2.7686   -2.3076    1.7473 H   0  0  0  0  0  0  0  0  0  0  0  0
   -3.5077   -0.7498    1.2612 H   0  0  0  0  0  0  0  0  0  0  0  0
   -2.5774   -4.8672   -2.0468 H   0  0  0  0  0  0  0  0  0  0  0  0
   -0.2668   -3.8891   -2.2171 H   0  0  0  0  0  0  0  0  0  0  0  0
   -2.4989   -2.2648   -3.0505 H   0  0  0  0  0  0  0  0  0  0  0  0
   -6.0677   -3.6690   -0.7285 H   0  0  0  0  0  0  0  0  0  0  0  0
   -5.2345   -5.2354   -0.7935 H   0  0  0  0  0  0  0  0  0  0  0  0
   -6.4940   -5.0226    0.4534 H   0  0  0  0  0  0  0  0  0  0  0  0
  1  2  1  0
  1  3  1  0
  4  5  1  0
  5  6  1  0
  6  7  1  0
  7  8  1  0
  8  9  1  0
  9 10  1  0
  1 11  1  0
 10 11  1  0
  7 12  1  0
 11 12  1  0
  5 13  1  0
  4 14  1  0
 12 14  1  0
  1 15  1  0
 15 16  1  0
 16 17  1  0
 17 18  1  0
 16 19  1  0
 19 20  1  0
 20 21  1  0
 21 22  1  0
 22 23  1  0
 23 24  1  0
 23 25  1  0
 17 26  1  0
 26 27  1  0
 27 28  1  0
 28 29  1  0
 29 30  1  0
 26 31  1  0
 30 31  1  0
 27 32  1  0
 32 33  1  0
 32 34  1  0
 29 35  1  0
 36 37  1  0
 36 38  1  0
 39 40  1  0
 40 41  1  0
 41 42  1  0
 42 43  1  0
 43 44  1  0
 44 45  1  0
 36 46  1  0
 45 46  1  0
 42 47  1  0
 46 47  1  0
 40 48  1  0
 39 49  1  0
 47 49  1  0
 36 50  1  0
 50 51  1  0
 51 52  1  0
 52 53  1  0
 51 54  1  0
 54 55  1  0
 55 56  1  0
 56 57  1  0
 57 58  1  0
 58 59  1  0
 58 60  1  0
 52 61  1  0
 61 62  1  0
 62 63  1  0
 63 64  1  0
 64 65  1  0
 61 66  1  0
 65 66  1  0
 62 67  1  0
 67 68  1  0
 67 69  1  0
 64 70  1  0
  2 71  1  0
  3 72  1  0
  4 73  1  0
  4 74  1  0
  5 75  1  1
  6 76  1  0
  6 77  1  0
  7 78  1  0
  8 79  1  0
  8 80  1  0
  9 81  1  0
  9 82  1  0
 10 83  1  0
 10 84  1  0
 11 85  1  0
 12 86  1  0
 13 87  1  0
 13 88  1  0
 13 89  1  0
 14 90  1  0
 15 91  1  0
 16 92  1  1
 17 93  1  0
 18 94  1  0
 19 95  1  0
 19 96  1  0
 20 97  1  0
 20 98  1  0
 21 99  1  0
 21100  1  0
 22101  1  0
 23102  1  0
 24103  1  0
 24104  1  0
 25105  1  0
 25106  1  0
 27107  1  6
 28108  1  0
 28109  1  0
 29110  1  1
 30111  1  0
 30112  1  0
 31113  1  0
 31114  1  0
 32115  1  0
 33116  1  0
 34117  1  0
 35118  1  0
 35119  1  0
 35120  1  0
 37121  1  0
 38122  1  0
 39123  1  0
 39124  1  0
 40125  1  1
 41126  1  0
 41127  1  0
 42128  1  0
 43129  1  0
 43130  1  0
 44131  1  0
 44132  1  0
 45133  1  0
 45134  1  0
 46135  1  0
 47136  1  0
 48137  1  0
 48138  1  0
 48139  1  0
 49140  1  0
 50141  1  0
 51142  1  1
 52143  1  0
 53144  1  0
 54145  1  0
 54146  1  0
 55147  1  0
 55148  1  0
 56149  1  0
 56150  1  0
 57151  1  0
 58152  1  0
 59153  1  0
 59154  1  0
 60155  1  0
 60156  1  0
 62157  1  6
 63158  1  0
 63159  1  0
 64160  1  1
 65161  1  0
 65162  1  0
 66163  1  0
 66164  1  0
 67165  1  0
 68166  1  0
 69167  1  0
 70168  1  0
 70169  1  0
 70170  1  0
M  END
>  <PDBID>  (1) 
4HFP

>  <PDB ID>  (1) 
4HFP

>  <Generic Name>  (1) 
Argatroban

>  <Brand Name>  (1) 
Argatroban

>  <DrugBank ID>  (1) 
DB00278

>  <ATC Codes>  (1) 
B01AE03

>  <Ligand ID>  (1) 
15U,MIT

>  <Target Name>  (1) 
Prothrombin

>  <UniProt ID>  (1) 
P00734

>  <PDB ID.1>  (1) 
4HFP

>  <Seq. Identity>  (1) 
100%

$$$$
