PDB_DB00864_06
     RDKit          3D

140143  0  0  0  0  0  0  0  0999 V2000
    1.8185   -0.8179   -0.5792 C   0  0  0  0  0  0  0  0  0  0  0  0
    1.3283   -2.1345   -0.0108 C   0  0  2  0  0  0  0  0  0  0  0  0
    2.3795   -3.1983   -0.2157 C   0  0  0  0  0  0  0  0  0  0  0  0
    1.8145   -4.5833   -0.1928 C   0  0  0  0  0  0  0  0  0  0  0  0
    0.7353   -4.8367   -1.1927 C   0  0  0  0  0  0  0  0  0  0  0  0
    0.2026   -3.4842   -1.6612 C   0  0  0  0  0  0  0  0  0  0  0  0
   -1.0501   -1.8189   -0.4172 C   0  0  0  0  0  0  0  0  0  0  0  0
   -2.0245   -2.5317    0.4976 C   0  0  0  0  0  0  0  0  0  0  0  0
   -3.3699   -2.7723   -0.1072 C   0  0  1  0  0  0  0  0  0  0  0  0
   -4.0154   -3.9342    0.6172 C   0  0  1  0  0  0  0  0  0  0  0  0
   -5.2262   -3.4955    1.4344 C   0  0  0  0  0  0  0  0  0  0  0  0
   -6.2062   -2.7014    0.5769 C   0  0  1  0  0  0  0  0  0  0  0  0
   -5.4610   -1.8272   -0.3693 C   0  0  1  0  0  0  0  0  0  0  0  0
   -6.0145   -0.4349   -0.5155 C   0  0  2  0  0  0  0  0  0  0  0  0
   -5.6363    0.3651    0.6835 C   0  0  0  0  0  0  0  0  0  0  0  0
   -5.2099    1.7888    0.3013 C   0  0  2  0  0  0  0  0  0  0  0  0
   -3.7272    1.9074    0.4275 C   0  0  0  0  0  0  0  0  0  0  0  0
   -3.1225    3.1231   -0.1443 C   0  0  0  0  0  0  0  0  0  0  0  0
   -2.1640    3.7122    0.8924 C   0  0  0  0  0  0  0  0  0  0  0  0
   -1.1649    4.6498    0.2657 C   0  0  2  0  0  0  0  0  0  0  0  0
   -0.0320    4.0180   -0.4151 C   0  0  0  0  0  0  0  0  0  0  0  0
    0.1294    2.5419   -0.2837 C   0  0  0  0  0  0  0  0  0  0  0  0
    1.4021    2.1606    0.5189 C   0  0  1  0  0  0  0  0  0  0  0  0
    2.5628    1.9847   -0.3716 C   0  0  2  0  0  0  0  0  0  0  0  0
    3.4633    0.7752   -0.0799 C   0  0  1  0  0  0  0  0  0  0  0  0
    4.5281    1.0813    0.8890 C   0  0  0  0  0  0  0  0  0  0  0  0
    5.4874    0.0057    1.2314 C   0  0  0  0  0  0  0  0  0  0  0  0
    6.3777   -0.5700    0.1877 C   0  0  1  0  0  0  0  0  0  0  0  0
    7.3035   -1.6240    0.8274 C   0  0  0  0  0  0  0  0  0  0  0  0
    8.4724   -1.9108   -0.0870 C   0  0  2  0  0  0  0  0  0  0  0  0
    7.9731   -2.0793   -1.5210 C   0  0  1  0  0  0  0  0  0  0  0  0
    6.5091   -2.4623   -1.4398 C   0  0  0  0  0  0  0  0  0  0  0  0
    5.6986   -1.2602   -0.9365 C   0  0  0  0  0  0  0  0  0  0  0  0
   -4.4211   -5.0269   -0.3526 C   0  0  0  0  0  0  0  0  0  0  0  0
   -5.9476    2.7238    1.2371 C   0  0  0  0  0  0  0  0  0  0  0  0
   -4.0716    4.2104   -0.5325 C   0  0  0  0  0  0  0  0  0  0  0  0
   -0.7654    5.6228    1.3515 C   0  0  0  0  0  0  0  0  0  0  0  0
    0.2289    6.6528    0.9316 C   0  0  0  0  0  0  0  0  0  0  0  0
   -0.2956    7.4928   -0.1954 C   0  0  0  0  0  0  0  0  0  0  0  0
    3.3760    3.2084   -0.6750 C   0  0  0  0  0  0  0  0  0  0  0  0
    3.9934    1.6023    2.2474 C   0  0  0  0  0  0  0  0  0  0  0  0
   -8.2755   -3.5709    0.3274 C   0  0  0  0  0  0  0  0  0  0  0  0
   -7.5905    0.1505   -2.1199 C   0  0  0  0  0  0  0  0  0  0  0  0
   10.5421   -2.6708    0.5969 C   0  0  0  0  0  0  0  0  0  0  0  0
    0.1137   -2.6034   -0.5538 N   0  0  0  0  0  0  0  0  0  0  0  0
    2.6166   -0.2153    0.3497 O   0  0  0  0  0  0  0  0  0  0  0  0
    2.4202   -1.0252   -1.8190 O   0  0  0  0  0  0  0  0  0  0  0  0
   -1.6691   -1.5942   -1.6405 O   0  0  0  0  0  0  0  0  0  0  0  0
   -1.5173   -3.7834    0.8972 O   0  0  0  0  0  0  0  0  0  0  0  0
   -4.1564   -1.6523    0.1535 O   0  0  0  0  0  0  0  0  0  0  0  0
   -3.3565   -2.9469   -1.4781 O   0  0  0  0  0  0  0  0  0  0  0  0
   -6.9585   -3.6525   -0.1239 O   0  0  0  0  0  0  0  0  0  0  0  0
   -7.3264   -0.3833   -0.8800 O   0  0  0  0  0  0  0  0  0  0  0  0
   -0.0907    4.3374   -1.7945 O   0  0  0  0  0  0  0  0  0  0  0  0
    1.5038    3.1356    1.4992 O   0  0  0  0  0  0  0  0  0  0  0  0
    9.1967   -3.0111    0.3259 O   0  0  0  0  0  0  0  0  0  0  0  0
    8.1226   -0.8503   -2.1579 O   0  0  0  0  0  0  0  0  0  0  0  0
    0.9298   -0.1570   -0.8298 H   0  0  0  0  0  0  0  0  0  0  0  0
    1.2018   -2.0289    1.1056 H   0  0  0  0  0  0  0  0  0  0  0  0
    3.2011   -3.1466    0.5159 H   0  0  0  0  0  0  0  0  0  0  0  0
    2.8469   -3.0526   -1.2189 H   0  0  0  0  0  0  0  0  0  0  0  0
    1.4400   -4.7651    0.8489 H   0  0  0  0  0  0  0  0  0  0  0  0
    2.6549   -5.2835   -0.4257 H   0  0  0  0  0  0  0  0  0  0  0  0
    1.0932   -5.4126   -2.0876 H   0  0  0  0  0  0  0  0  0  0  0  0
   -0.0651   -5.4493   -0.7456 H   0  0  0  0  0  0  0  0  0  0  0  0
    0.8534   -3.1231   -2.4836 H   0  0  0  0  0  0  0  0  0  0  0  0
   -0.7801   -3.6752   -2.0946 H   0  0  0  0  0  0  0  0  0  0  0  0
   -0.7775   -0.8621    0.0919 H   0  0  0  0  0  0  0  0  0  0  0  0
   -2.1874   -1.9646    1.4588 H   0  0  0  0  0  0  0  0  0  0  0  0
   -3.3217   -4.4132    1.3470 H   0  0  0  0  0  0  0  0  0  0  0  0
   -4.9084   -2.8826    2.2833 H   0  0  0  0  0  0  0  0  0  0  0  0
   -5.7348   -4.4331    1.7415 H   0  0  0  0  0  0  0  0  0  0  0  0
   -6.8375   -2.1316    1.3037 H   0  0  0  0  0  0  0  0  0  0  0  0
   -5.3879   -2.2753   -1.3998 H   0  0  0  0  0  0  0  0  0  0  0  0
   -5.4332    0.0118   -1.3816 H   0  0  0  0  0  0  0  0  0  0  0  0
   -4.7651   -0.1324    1.1601 H   0  0  0  0  0  0  0  0  0  0  0  0
   -6.4168    0.3738    1.4762 H   0  0  0  0  0  0  0  0  0  0  0  0
   -5.5474    1.9181   -0.7554 H   0  0  0  0  0  0  0  0  0  0  0  0
   -3.4876    1.7861    1.5253 H   0  0  0  0  0  0  0  0  0  0  0  0
   -3.2890    0.9770   -0.0421 H   0  0  0  0  0  0  0  0  0  0  0  0
   -2.5635    2.8384   -1.0841 H   0  0  0  0  0  0  0  0  0  0  0  0
   -2.8277    4.3702    1.5340 H   0  0  0  0  0  0  0  0  0  0  0  0
   -1.7504    2.9753    1.5768 H   0  0  0  0  0  0  0  0  0  0  0  0
   -1.7807    5.2632   -0.4597 H   0  0  0  0  0  0  0  0  0  0  0  0
    0.9147    4.4800   -0.0708 H   0  0  0  0  0  0  0  0  0  0  0  0
    0.3126    2.0857   -1.3000 H   0  0  0  0  0  0  0  0  0  0  0  0
   -0.6941    1.9883    0.1533 H   0  0  0  0  0  0  0  0  0  0  0  0
    1.2101    1.2120    1.0576 H   0  0  0  0  0  0  0  0  0  0  0  0
    2.1076    1.7181   -1.3853 H   0  0  0  0  0  0  0  0  0  0  0  0
    3.9354    0.5666   -1.0593 H   0  0  0  0  0  0  0  0  0  0  0  0
    5.1766    1.9491    0.5494 H   0  0  0  0  0  0  0  0  0  0  0  0
    6.1982    0.3505    2.0608 H   0  0  0  0  0  0  0  0  0  0  0  0
    4.9619   -0.8606    1.7475 H   0  0  0  0  0  0  0  0  0  0  0  0
    7.0538    0.2111   -0.2426 H   0  0  0  0  0  0  0  0  0  0  0  0
    7.7006   -1.2527    1.7956 H   0  0  0  0  0  0  0  0  0  0  0  0
    6.7697   -2.5546    1.0277 H   0  0  0  0  0  0  0  0  0  0  0  0
    9.1631   -1.0463   -0.0886 H   0  0  0  0  0  0  0  0  0  0  0  0
    8.5738   -2.8566   -1.9991 H   0  0  0  0  0  0  0  0  0  0  0  0
    6.3739   -3.3171   -0.7893 H   0  0  0  0  0  0  0  0  0  0  0  0
    6.1682   -2.7221   -2.4562 H   0  0  0  0  0  0  0  0  0  0  0  0
    4.7231   -1.6069   -0.6033 H   0  0  0  0  0  0  0  0  0  0  0  0
    5.6813   -0.5875   -1.8406 H   0  0  0  0  0  0  0  0  0  0  0  0
   -4.9551   -4.6290   -1.2431 H   0  0  0  0  0  0  0  0  0  0  0  0
   -5.1102   -5.7534    0.1114 H   0  0  0  0  0  0  0  0  0  0  0  0
   -3.5323   -5.5878   -0.7002 H   0  0  0  0  0  0  0  0  0  0  0  0
   -5.2879    3.4908    1.6813 H   0  0  0  0  0  0  0  0  0  0  0  0
   -6.3823    2.1666    2.1167 H   0  0  0  0  0  0  0  0  0  0  0  0
   -6.8446    3.1790    0.7272 H   0  0  0  0  0  0  0  0  0  0  0  0
   -5.0872    3.9014   -0.7528 H   0  0  0  0  0  0  0  0  0  0  0  0
   -4.1380    5.0291    0.2431 H   0  0  0  0  0  0  0  0  0  0  0  0
   -3.6968    4.7511   -1.4519 H   0  0  0  0  0  0  0  0  0  0  0  0
   -0.4311    5.0572    2.2500 H   0  0  0  0  0  0  0  0  0  0  0  0
   -1.7040    6.1507    1.6919 H   0  0  0  0  0  0  0  0  0  0  0  0
    1.2437    6.2874    0.7529 H   0  0  0  0  0  0  0  0  0  0  0  0
    0.3191    7.3621    1.8132 H   0  0  0  0  0  0  0  0  0  0  0  0
    0.4089    7.3647   -1.0504 H   0  0  0  0  0  0  0  0  0  0  0  0
   -1.3065    7.2370   -0.5322 H   0  0  0  0  0  0  0  0  0  0  0  0
   -0.2586    8.5925    0.0298 H   0  0  0  0  0  0  0  0  0  0  0  0
    2.8209    3.8492   -1.3737 H   0  0  0  0  0  0  0  0  0  0  0  0
    3.7922    3.7452    0.1659 H   0  0  0  0  0  0  0  0  0  0  0  0
    4.2654    2.8358   -1.2690 H   0  0  0  0  0  0  0  0  0  0  0  0
    3.0498    1.1447    2.5235 H   0  0  0  0  0  0  0  0  0  0  0  0
    4.0431    2.7040    2.2970 H   0  0  0  0  0  0  0  0  0  0  0  0
    4.7229    1.2818    3.0630 H   0  0  0  0  0  0  0  0  0  0  0  0
   -8.3397   -3.7780    1.4164 H   0  0  0  0  0  0  0  0  0  0  0  0
   -8.6844   -2.5348    0.1987 H   0  0  0  0  0  0  0  0  0  0  0  0
   -8.9517   -4.2349   -0.2291 H   0  0  0  0  0  0  0  0  0  0  0  0
   -7.0395   -0.5091   -2.8577 H   0  0  0  0  0  0  0  0  0  0  0  0
   -7.2225    1.1592   -2.2942 H   0  0  0  0  0  0  0  0  0  0  0  0
   -8.6545    0.0514   -2.4178 H   0  0  0  0  0  0  0  0  0  0  0  0
   10.6040   -1.9029    1.4003 H   0  0  0  0  0  0  0  0  0  0  0  0
   11.0634   -2.3180   -0.3149 H   0  0  0  0  0  0  0  0  0  0  0  0
   11.0820   -3.5627    0.9644 H   0  0  0  0  0  0  0  0  0  0  0  0
    1.8101   -0.9017   -2.5799 H   0  0  0  0  0  0  0  0  0  0  0  0
   -1.0292   -1.6714   -2.4053 H   0  0  0  0  0  0  0  0  0  0  0  0
   -0.9766   -3.6627    1.7062 H   0  0  0  0  0  0  0  0  0  0  0  0
   -3.1532   -3.8444   -1.7863 H   0  0  0  0  0  0  0  0  0  0  0  0
    0.4279    5.1556   -1.9798 H   0  0  0  0  0  0  0  0  0  0  0  0
    2.1620    3.8247    1.3684 H   0  0  0  0  0  0  0  0  0  0  0  0
    8.8467   -0.2989   -1.7869 H   0  0  0  0  0  0  0  0  0  0  0  0
  1  2  1  0
  2  3  1  0
  3  4  1  0
  4  5  1  0
  5  6  1  0
  7  8  1  0
  8  9  1  0
  9 10  1  0
 10 11  1  0
 11 12  1  0
 12 13  1  0
 13 14  1  0
 14 15  1  0
 15 16  1  0
 16 17  1  0
 17 18  1  0
 18 19  1  0
 19 20  1  0
 20 21  1  0
 21 22  1  0
 22 23  1  0
 23 24  1  0
 24 25  1  0
 25 26  1  0
 26 27  1  0
 27 28  1  0
 28 29  1  0
 29 30  1  0
 30 31  1  0
 31 32  1  0
 28 33  1  0
 32 33  1  0
 10 34  1  0
 16 35  1  0
 18 36  1  0
 20 37  1  0
 37 38  1  0
 38 39  1  0
 24 40  1  0
 26 41  1  0
  2 45  1  0
  6 45  1  0
  7 45  1  0
  1 46  1  0
 25 46  1  0
  1 47  1  0
  7 48  1  0
  8 49  1  0
  9 50  1  0
 13 50  1  0
  9 51  1  6
 12 52  1  0
 42 52  1  0
 14 53  1  0
 43 53  1  0
 21 54  1  0
 23 55  1  0
 30 56  1  0
 44 56  1  0
 31 57  1  0
  1 58  1  0
  2 59  1  1
  3 60  1  0
  3 61  1  0
  4 62  1  0
  4 63  1  0
  5 64  1  0
  5 65  1  0
  6 66  1  0
  6 67  1  0
  7 68  1  0
  8 69  1  0
 10 70  1  1
 11 71  1  0
 11 72  1  0
 12 73  1  1
 13 74  1  6
 14 75  1  6
 15 76  1  0
 15 77  1  0
 16 78  1  6
 17 79  1  0
 17 80  1  0
 18 81  1  0
 19 82  1  0
 19 83  1  0
 20 84  1  6
 21 85  1  0
 22 86  1  0
 22 87  1  0
 23 88  1  1
 24 89  1  6
 25 90  1  6
 26 91  1  0
 27 92  1  0
 27 93  1  0
 28 94  1  6
 29 95  1  0
 29 96  1  0
 30 97  1  6
 31 98  1  6
 32 99  1  0
 32100  1  0
 33101  1  0
 33102  1  0
 34103  1  0
 34104  1  0
 34105  1  0
 35106  1  0
 35107  1  0
 35108  1  0
 36109  1  0
 36110  1  0
 36111  1  0
 37112  1  0
 37113  1  0
 38114  1  0
 38115  1  0
 39116  1  0
 39117  1  0
 39118  1  0
 40119  1  0
 40120  1  0
 40121  1  0
 41122  1  0
 41123  1  0
 41124  1  0
 42125  1  0
 42126  1  0
 42127  1  0
 43128  1  0
 43129  1  0
 43130  1  0
 44131  1  0
 44132  1  0
 44133  1  0
 47134  1  0
 48135  1  0
 49136  1  0
 51137  1  0
 54138  1  0
 55139  1  0
 57140  1  0
M  END
>  <PDBID>  (1) 
1FKF

>  <PDB ID>  (1) 
1FKF

>  <Generic Name>  (1) 
Tacrolimus

>  <Brand Name>  (1) 
Ach-tacrolimus#Advagraf#Astagraf XL#Envarsus XR#Hecoria#Prograf#Protopic#Ran-tacrolimus#Sandoz Tacrolimus#Tacrolimus

>  <DrugBank ID>  (1) 
DB00864

>  <ATC Codes>  (1) 
D11AH01#L04AD02

>  <Ligand ID>  (1) 
FK5

>  <Target Name>  (1) 
Peptidyl-prolyl cis-trans isomerase FKBP1A

>  <UniProt ID>  (1) 
P62942

>  <PDB ID.1>  (1) 
1FKF

>  <Seq. Identity>  (1) 
100%

$$$$
