PDB_DB06147_00
     RDKit          3D

 37 38  0  0  0  0  0  0  0  0999 V2000
   -1.2887   -1.6623   -0.4880 O   0  0  0  0  0  0  0  0  0  0  0  0
   -0.5848   -0.3707   -0.6193 S   0  0  0  0  0  0  0  0  0  0  0  0
   -0.5706    0.5100   -1.8078 O   0  0  0  0  0  0  0  0  0  0  0  0
    1.0097   -0.4427    0.1597 C   0  0  0  0  0  0  0  0  0  0  0  0
    1.7147   -1.6204   -0.4742 C   0  0  0  0  0  0  0  0  0  0  0  0
    3.0938   -1.6839    0.1405 C   0  0  0  0  0  0  0  0  0  0  0  0
    1.7103    0.8256   -0.1449 C   0  0  0  0  0  0  0  0  0  0  0  0
    3.1789    0.8280    0.0542 C   0  0  0  0  0  0  0  0  0  0  0  0
    3.8803   -0.4556   -0.1302 C   0  0  0  0  0  0  0  0  0  0  0  0
    5.0437   -0.4705    0.7715 N   0  0  0  0  0  0  0  0  0  0  0  0
   -1.4632    0.6835    0.6994 N   0  0  0  0  0  0  0  0  0  0  0  0
   -2.6849    0.9170   -0.0476 C   0  0  0  0  0  0  0  0  0  0  0  0
   -3.4367   -0.7253   -0.3994 S   0  0  0  0  0  0  0  0  0  0  0  0
   -5.1302   -0.3179    0.1960 C   0  0  0  0  0  0  0  0  0  0  0  0
   -4.9833    1.2124    0.2283 C   0  0  0  0  0  0  0  0  0  0  0  0
   -3.6947    1.4872    0.8048 N   0  0  0  0  0  0  0  0  0  0  0  0
   -1.5689   -2.3066   -1.1950 H   0  0  0  0  0  0  0  0  0  0  0  0
   -0.5288    1.4928   -1.7836 H   0  0  0  0  0  0  0  0  0  0  0  0
    0.8973   -0.6728    1.2382 H   0  0  0  0  0  0  0  0  0  0  0  0
    1.1645   -2.5453   -0.2427 H   0  0  0  0  0  0  0  0  0  0  0  0
    1.7701   -1.4135   -1.5629 H   0  0  0  0  0  0  0  0  0  0  0  0
    2.9896   -1.8571    1.2186 H   0  0  0  0  0  0  0  0  0  0  0  0
    3.6399   -2.5473   -0.3424 H   0  0  0  0  0  0  0  0  0  0  0  0
    1.2515    1.6334    0.4878 H   0  0  0  0  0  0  0  0  0  0  0  0
    1.4467    1.1162   -1.2018 H   0  0  0  0  0  0  0  0  0  0  0  0
    3.4091    1.2806    1.0612 H   0  0  0  0  0  0  0  0  0  0  0  0
    3.6158    1.5670   -0.6794 H   0  0  0  0  0  0  0  0  0  0  0  0
    4.3317   -0.5521   -1.1601 H   0  0  0  0  0  0  0  0  0  0  0  0
    4.7445   -0.0354    1.6730 H   0  0  0  0  0  0  0  0  0  0  0  0
    5.8752   -0.0532    0.3433 H   0  0  0  0  0  0  0  0  0  0  0  0
   -0.8455    1.5148    0.6396 H   0  0  0  0  0  0  0  0  0  0  0  0
   -2.5453    1.5016   -0.9546 H   0  0  0  0  0  0  0  0  0  0  0  0
   -5.2755   -0.6613    1.2222 H   0  0  0  0  0  0  0  0  0  0  0  0
   -5.8871   -0.6207   -0.5228 H   0  0  0  0  0  0  0  0  0  0  0  0
   -4.9561    1.6109   -0.8198 H   0  0  0  0  0  0  0  0  0  0  0  0
   -5.7441    1.6880    0.8440 H   0  0  0  0  0  0  0  0  0  0  0  0
   -3.5790    1.1456    1.7693 H   0  0  0  0  0  0  0  0  0  0  0  0
  2  1  1  0
  2  3  1  0
  2  4  1  0
  4  5  1  0
  5  6  1  0
  4  7  1  0
  7  8  1  0
  6  9  1  0
  8  9  1  0
  9 10  1  0
  2 11  1  0
 11 12  1  0
 12 13  1  0
 13 14  1  0
 14 15  1  0
 12 16  1  0
 15 16  1  0
  1 17  1  0
  3 18  1  0
  4 19  1  0
  5 20  1  0
  5 21  1  0
  6 22  1  0
  6 23  1  0
  7 24  1  0
  7 25  1  0
  8 26  1  0
  8 27  1  0
  9 28  1  0
 10 29  1  0
 10 30  1  0
 11 31  1  0
 12 32  1  0
 14 33  1  0
 14 34  1  0
 15 35  1  0
 15 36  1  0
 16 37  1  0
M  END
>  <PDBID>  (1) 
3TYE

>  <PDB ID>  (1) 
3TYE

>  <Generic Name>  (1) 
Sulfathiazole

>  <Brand Name>  (1) 
Norsulfazolum#Sulfatiazol

>  <DrugBank ID>  (1) 
DB06147

>  <ATC Codes>  (1) 
J01EB07#D06BA02

>  <Ligand ID>  (1) 
YTZ

>  <Target Name>  (1) 
Dihydropteroate synthetase

>  <UniProt ID>  (1) 
Q27738

>  <PDB ID.1>  (1) 
3TYE

>  <Seq. Identity>  (1) 
35%

$$$$
