PDB_DB06335_03
     RDKit          3D

106114  0  0  0  0  0  0  0  0999 V2000
   -1.1371   -0.1812    0.0263 C   0  0  1  0  0  0  0  0  0  0  0  0
    0.3450   -0.2876    0.0826 C   0  0  1  0  0  0  0  0  0  0  0  0
   -1.7821    0.5076    1.1814 C   0  0  0  0  0  0  0  0  0  0  0  0
   -3.2759    0.4264    1.0535 C   0  0  1  0  0  0  0  0  0  0  0  0
   -3.1032    0.4337   -1.3729 C   0  0  2  0  0  0  0  0  0  0  0  0
   -3.1522   -1.6730   -0.1557 C   0  0  1  0  0  0  0  0  0  0  0  0
   -3.7267    1.1303   -0.1836 C   0  0  0  0  0  0  0  0  0  0  0  0
   -3.7898   -0.9940    1.0279 C   0  0  0  0  0  0  0  0  0  0  0  0
   -3.5572   -0.9942   -1.4581 C   0  0  0  0  0  0  0  0  0  0  0  0
    3.9988    0.1527   -1.8520 C   0  0  1  0  0  0  0  0  0  0  0  0
    3.5859    1.4254   -2.4907 C   0  0  0  0  0  0  0  0  0  0  0  0
    4.5930    0.2519   -0.4603 C   0  0  0  0  0  0  0  0  0  0  0  0
    3.7318    0.5449    1.7856 C   0  0  0  0  0  0  0  0  0  0  0  0
    4.8019   -0.3793    2.1937 N   0  0  0  0  0  0  0  0  0  0  0  0
   -1.5870    0.4193   -1.2673 C   0  0  0  0  0  0  0  0  0  0  0  0
   -1.6599   -1.6268    0.0460 C   0  0  0  0  0  0  0  0  0  0  0  0
    1.0786    1.0291    0.1466 C   0  0  0  0  0  0  0  0  0  0  0  0
    0.8629   -1.1481    1.0995 N   0  0  0  0  0  0  0  0  0  0  0  0
    2.4347    0.9972   -0.2739 N   0  0  0  0  0  0  0  0  0  0  0  0
    0.9546    1.6534    1.3845 O   0  0  0  0  0  0  0  0  0  0  0  0
   -3.8987    1.0528    2.1490 O   0  0  0  0  0  0  0  0  0  0  0  0
    2.5759    0.6478   -1.6765 C   0  0  2  0  0  0  0  0  0  0  0  0
    3.3218    0.1187    0.4007 C   0  0  1  0  0  0  0  0  0  0  0  0
   -1.1371   -0.1812    0.0263 C   0  0  1  0  0  0  0  0  0  0  0  0
    0.3450   -0.2876    0.0826 C   0  0  1  0  0  0  0  0  0  0  0  0
   -1.7821    0.5076    1.1814 C   0  0  0  0  0  0  0  0  0  0  0  0
   -3.2759    0.4264    1.0535 C   0  0  1  0  0  0  0  0  0  0  0  0
   -3.1032    0.4337   -1.3729 C   0  0  2  0  0  0  0  0  0  0  0  0
   -3.1522   -1.6730   -0.1557 C   0  0  1  0  0  0  0  0  0  0  0  0
   -3.7267    1.1303   -0.1836 C   0  0  0  0  0  0  0  0  0  0  0  0
   -3.7898   -0.9940    1.0279 C   0  0  0  0  0  0  0  0  0  0  0  0
   -3.5572   -0.9942   -1.4581 C   0  0  0  0  0  0  0  0  0  0  0  0
    3.9988    0.1527   -1.8520 C   0  0  1  0  0  0  0  0  0  0  0  0
    3.5859    1.4254   -2.4907 C   0  0  0  0  0  0  0  0  0  0  0  0
    4.5930    0.2519   -0.4603 C   0  0  0  0  0  0  0  0  0  0  0  0
    3.7318    0.5449    1.7856 C   0  0  0  0  0  0  0  0  0  0  0  0
    4.8019   -0.3793    2.1937 N   0  0  0  0  0  0  0  0  0  0  0  0
   -1.5870    0.4193   -1.2673 C   0  0  0  0  0  0  0  0  0  0  0  0
   -1.6599   -1.6268    0.0460 C   0  0  0  0  0  0  0  0  0  0  0  0
    1.0786    1.0291    0.1466 C   0  0  0  0  0  0  0  0  0  0  0  0
    0.8629   -1.1481    1.0995 N   0  0  0  0  0  0  0  0  0  0  0  0
    2.4347    0.9972   -0.2739 N   0  0  0  0  0  0  0  0  0  0  0  0
    0.9546    1.6534    1.3845 O   0  0  0  0  0  0  0  0  0  0  0  0
   -3.8987    1.0528    2.1490 O   0  0  0  0  0  0  0  0  0  0  0  0
    2.5759    0.6478   -1.6765 C   0  0  2  0  0  0  0  0  0  0  0  0
    3.3218    0.1187    0.4007 C   0  0  1  0  0  0  0  0  0  0  0  0
    0.6421   -0.7913   -0.8930 H   0  0  0  0  0  0  0  0  0  0  0  0
   -1.5159    1.5865    1.1642 H   0  0  0  0  0  0  0  0  0  0  0  0
   -1.5121    0.1087    2.1617 H   0  0  0  0  0  0  0  0  0  0  0  0
   -3.3583    1.0266   -2.2687 H   0  0  0  0  0  0  0  0  0  0  0  0
   -3.4275   -2.7387   -0.2537 H   0  0  0  0  0  0  0  0  0  0  0  0
   -4.8246    1.0215   -0.3029 H   0  0  0  0  0  0  0  0  0  0  0  0
   -3.4131    2.1763   -0.1390 H   0  0  0  0  0  0  0  0  0  0  0  0
   -4.8964   -0.9216    0.9265 H   0  0  0  0  0  0  0  0  0  0  0  0
   -3.4997   -1.5521    1.9385 H   0  0  0  0  0  0  0  0  0  0  0  0
   -2.9792   -1.4760   -2.2702 H   0  0  0  0  0  0  0  0  0  0  0  0
   -4.6433   -1.1169   -1.5641 H   0  0  0  0  0  0  0  0  0  0  0  0
    4.1501   -0.7587   -2.4444 H   0  0  0  0  0  0  0  0  0  0  0  0
    3.4788    1.4357   -3.5741 H   0  0  0  0  0  0  0  0  0  0  0  0
    3.8995    2.3821   -2.0232 H   0  0  0  0  0  0  0  0  0  0  0  0
    4.9901    1.2627   -0.3316 H   0  0  0  0  0  0  0  0  0  0  0  0
    5.2944   -0.5683   -0.2448 H   0  0  0  0  0  0  0  0  0  0  0  0
    2.9504    0.4712    2.5410 H   0  0  0  0  0  0  0  0  0  0  0  0
    4.8163   -1.2362    1.6319 H   0  0  0  0  0  0  0  0  0  0  0  0
    4.7347   -0.6338    3.1917 H   0  0  0  0  0  0  0  0  0  0  0  0
   -1.2559    1.4568   -1.4238 H   0  0  0  0  0  0  0  0  0  0  0  0
   -1.2180   -0.2375   -2.0867 H   0  0  0  0  0  0  0  0  0  0  0  0
   -1.4572   -2.0858    1.0363 H   0  0  0  0  0  0  0  0  0  0  0  0
   -1.1096   -2.1805   -0.7312 H   0  0  0  0  0  0  0  0  0  0  0  0
    0.5804    1.7810   -0.5587 H   0  0  0  0  0  0  0  0  0  0  0  0
    0.3745   -1.1091    1.9968 H   0  0  0  0  0  0  0  0  0  0  0  0
    0.9445   -2.1391    0.8217 H   0  0  0  0  0  0  0  0  0  0  0  0
    0.6792    1.0682    2.1095 H   0  0  0  0  0  0  0  0  0  0  0  0
   -4.8666    0.8129    2.1301 H   0  0  0  0  0  0  0  0  0  0  0  0
    1.7505    0.2341   -2.2532 H   0  0  0  0  0  0  0  0  0  0  0  0
    3.0769   -0.9640    0.3275 H   0  0  0  0  0  0  0  0  0  0  0  0
    0.6421   -0.7913   -0.8930 H   0  0  0  0  0  0  0  0  0  0  0  0
   -1.5159    1.5865    1.1642 H   0  0  0  0  0  0  0  0  0  0  0  0
   -1.5121    0.1087    2.1617 H   0  0  0  0  0  0  0  0  0  0  0  0
   -3.3583    1.0266   -2.2687 H   0  0  0  0  0  0  0  0  0  0  0  0
   -3.4275   -2.7387   -0.2537 H   0  0  0  0  0  0  0  0  0  0  0  0
   -4.8246    1.0215   -0.3029 H   0  0  0  0  0  0  0  0  0  0  0  0
   -3.4131    2.1763   -0.1390 H   0  0  0  0  0  0  0  0  0  0  0  0
   -4.8964   -0.9216    0.9265 H   0  0  0  0  0  0  0  0  0  0  0  0
   -3.4997   -1.5521    1.9385 H   0  0  0  0  0  0  0  0  0  0  0  0
   -2.9792   -1.4760   -2.2702 H   0  0  0  0  0  0  0  0  0  0  0  0
   -4.6433   -1.1169   -1.5641 H   0  0  0  0  0  0  0  0  0  0  0  0
    4.1501   -0.7587   -2.4444 H   0  0  0  0  0  0  0  0  0  0  0  0
    3.4788    1.4357   -3.5741 H   0  0  0  0  0  0  0  0  0  0  0  0
    3.8995    2.3821   -2.0232 H   0  0  0  0  0  0  0  0  0  0  0  0
    4.9901    1.2627   -0.3316 H   0  0  0  0  0  0  0  0  0  0  0  0
    5.2944   -0.5683   -0.2448 H   0  0  0  0  0  0  0  0  0  0  0  0
    2.9504    0.4712    2.5410 H   0  0  0  0  0  0  0  0  0  0  0  0
    4.8163   -1.2362    1.6319 H   0  0  0  0  0  0  0  0  0  0  0  0
    4.7347   -0.6338    3.1917 H   0  0  0  0  0  0  0  0  0  0  0  0
   -1.2559    1.4568   -1.4238 H   0  0  0  0  0  0  0  0  0  0  0  0
   -1.2180   -0.2375   -2.0867 H   0  0  0  0  0  0  0  0  0  0  0  0
   -1.4572   -2.0858    1.0363 H   0  0  0  0  0  0  0  0  0  0  0  0
   -1.1096   -2.1805   -0.7312 H   0  0  0  0  0  0  0  0  0  0  0  0
    0.5804    1.7810   -0.5587 H   0  0  0  0  0  0  0  0  0  0  0  0
    0.3745   -1.1091    1.9968 H   0  0  0  0  0  0  0  0  0  0  0  0
    0.9445   -2.1391    0.8217 H   0  0  0  0  0  0  0  0  0  0  0  0
    0.6792    1.0682    2.1095 H   0  0  0  0  0  0  0  0  0  0  0  0
   -4.8666    0.8129    2.1301 H   0  0  0  0  0  0  0  0  0  0  0  0
    1.7505    0.2341   -2.2532 H   0  0  0  0  0  0  0  0  0  0  0  0
    3.0769   -0.9640    0.3275 H   0  0  0  0  0  0  0  0  0  0  0  0
  1  2  1  0
  1  3  1  0
  3  4  1  0
  4  7  1  0
  5  7  1  0
  4  8  1  0
  6  8  1  0
  5  9  1  0
  6  9  1  0
 10 11  1  0
 10 12  1  0
 13 14  1  0
  1 15  1  6
  5 15  1  0
  1 16  1  0
  6 16  1  0
  2 17  1  0
  2 18  1  0
 17 19  1  0
 17 20  1  0
  4 21  1  1
 10 22  1  0
 11 22  1  0
 19 22  1  0
 12 23  1  0
 13 23  1  0
 19 23  1  0
 24 25  1  0
 24 26  1  1
 26 27  1  0
 27 30  1  0
 28 30  1  0
 27 31  1  0
 29 31  1  0
 28 32  1  0
 29 32  1  0
 33 34  1  0
 33 35  1  0
 36 37  1  0
 24 38  1  0
 28 38  1  0
 24 39  1  0
 29 39  1  0
 25 40  1  0
 25 41  1  0
 40 42  1  0
 40 43  1  0
 27 44  1  1
 33 45  1  0
 34 45  1  0
 42 45  1  0
 35 46  1  0
 36 46  1  0
 42 46  1  0
  2 47  1  6
  3 48  1  0
  3 49  1  0
  5 50  1  6
  6 51  1  6
  7 52  1  0
  7 53  1  0
  8 54  1  0
  8 55  1  0
  9 56  1  0
  9 57  1  0
 10 58  1  6
 11 59  1  0
 11 60  1  0
 12 61  1  0
 12 62  1  0
 13 63  1  0
 14 64  1  0
 14 65  1  0
 15 66  1  0
 15 67  1  0
 16 68  1  0
 16 69  1  0
 17 70  1  0
 18 71  1  0
 18 72  1  0
 20 73  1  0
 21 74  1  0
 22 75  1  6
 23 76  1  1
 25 77  1  6
 26 78  1  0
 26 79  1  0
 28 80  1  6
 29 81  1  6
 30 82  1  0
 30 83  1  0
 31 84  1  0
 31 85  1  0
 32 86  1  0
 32 87  1  0
 33 88  1  6
 34 89  1  0
 34 90  1  0
 35 91  1  0
 35 92  1  0
 36 93  1  0
 37 94  1  0
 37 95  1  0
 38 96  1  0
 38 97  1  0
 39 98  1  0
 39 99  1  0
 40100  1  0
 41101  1  0
 41102  1  0
 43103  1  0
 44104  1  0
 45105  1  6
 46106  1  1
M  END
>  <PDBID>  (1) 
3BJM

>  <PDB ID>  (1) 
3BJM

>  <Generic Name>  (1) 
Saxagliptin

>  <Brand Name>  (1) 
Kombiglyze XR#Komboglyze#Onglyza#Qtern

>  <DrugBank ID>  (1) 
DB06335

>  <ATC Codes>  (1) 
A10BD10#A10BH03#A10BD21

>  <Ligand ID>  (1) 
BJM

>  <Target Name>  (1) 
Dipeptidyl peptidase 4

>  <UniProt ID>  (1) 
P27487

>  <PDB ID.1>  (1) 
3BJM

>  <Seq. Identity>  (1) 
100%

$$$$
