PDB_DB01015_03
     RDKit          3D

 40 41  0  0  0  0  0  0  0  0999 V2000
   -0.4812    0.1813   -1.9541 O   0  0  0  0  0  0  0  0  0  0  0  0
    0.0963    0.6513   -0.1512 S   0  0  0  0  0  0  0  0  0  0  0  0
    0.2373    2.1113   -0.2895 O   0  0  0  0  0  0  0  0  0  0  0  0
   -1.4911    0.2683    0.5981 C   0  0  0  0  0  0  0  0  0  0  0  0
   -1.8014   -1.1908    0.3919 C   0  0  0  0  0  0  0  0  0  0  0  0
   -3.2455   -1.5230    0.5058 C   0  0  0  0  0  0  0  0  0  0  0  0
   -2.4888    1.2003    0.0241 C   0  0  0  0  0  0  0  0  0  0  0  0
   -3.3973    0.5049   -0.9572 C   0  0  0  0  0  0  0  0  0  0  0  0
   -4.1332   -0.6620   -0.3564 C   0  0  0  0  0  0  0  0  0  0  0  0
   -5.1978   -0.1445    0.4826 N   0  0  0  0  0  0  0  0  0  0  0  0
    1.0854   -0.4434    0.0386 N   0  0  0  0  0  0  0  0  0  0  0  0
    2.2834   -0.4283    0.7977 C   0  0  0  0  0  0  0  0  0  0  0  0
    3.0335   -1.6338    0.7936 N   0  0  0  0  0  0  0  0  0  0  0  0
    4.3273   -1.3723    0.7635 O   0  0  0  0  0  0  0  0  0  0  0  0
    4.5571   -0.0397    0.9104 C   0  0  0  0  0  0  0  0  0  0  0  0
    3.2931    0.5906    0.3117 C   0  0  0  0  0  0  0  0  0  0  0  0
    5.7912    0.4623    0.2080 C   0  0  0  0  0  0  0  0  0  0  0  0
    0.4035    0.4016   -2.3291 H   0  0  0  0  0  0  0  0  0  0  0  0
    0.1758    2.6935   -1.0801 H   0  0  0  0  0  0  0  0  0  0  0  0
   -1.3050    0.4962    1.6742 H   0  0  0  0  0  0  0  0  0  0  0  0
   -1.4168   -1.5693   -0.5846 H   0  0  0  0  0  0  0  0  0  0  0  0
   -1.2529   -1.7540    1.1746 H   0  0  0  0  0  0  0  0  0  0  0  0
   -3.5799   -1.5195    1.5806 H   0  0  0  0  0  0  0  0  0  0  0  0
   -3.3869   -2.5704    0.1669 H   0  0  0  0  0  0  0  0  0  0  0  0
   -1.9674    2.0018   -0.5341 H   0  0  0  0  0  0  0  0  0  0  0  0
   -3.1114    1.7240    0.7814 H   0  0  0  0  0  0  0  0  0  0  0  0
   -2.8094    0.2487   -1.8418 H   0  0  0  0  0  0  0  0  0  0  0  0
   -4.1469    1.2758   -1.2852 H   0  0  0  0  0  0  0  0  0  0  0  0
   -4.6138   -1.2312   -1.1739 H   0  0  0  0  0  0  0  0  0  0  0  0
   -5.9220    0.3767   -0.0570 H   0  0  0  0  0  0  0  0  0  0  0  0
   -4.7674    0.4089    1.2512 H   0  0  0  0  0  0  0  0  0  0  0  0
    1.0651   -1.3250   -0.5278 H   0  0  0  0  0  0  0  0  0  0  0  0
    2.0351   -0.1705    1.8463 H   0  0  0  0  0  0  0  0  0  0  0  0
    2.7512   -2.2394   -0.0212 H   0  0  0  0  0  0  0  0  0  0  0  0
    4.5971    0.2580    1.9745 H   0  0  0  0  0  0  0  0  0  0  0  0
    3.0874    1.5727    0.7574 H   0  0  0  0  0  0  0  0  0  0  0  0
    3.3531    0.5770   -0.7798 H   0  0  0  0  0  0  0  0  0  0  0  0
    6.5769   -0.3013    0.2860 H   0  0  0  0  0  0  0  0  0  0  0  0
    6.1642    1.3625    0.7766 H   0  0  0  0  0  0  0  0  0  0  0  0
    5.6019    0.7507   -0.8456 H   0  0  0  0  0  0  0  0  0  0  0  0
  2  1  1  0
  2  3  1  0
  2  4  1  0
  4  5  1  0
  5  6  1  0
  4  7  1  0
  7  8  1  0
  6  9  1  0
  8  9  1  0
  9 10  1  0
  2 11  1  0
 11 12  1  0
 12 13  1  0
 13 14  1  0
 14 15  1  0
 12 16  1  0
 15 16  1  0
 15 17  1  0
  1 18  1  0
  3 19  1  0
  4 20  1  0
  5 21  1  0
  5 22  1  0
  6 23  1  0
  6 24  1  0
  7 25  1  0
  7 26  1  0
  8 27  1  0
  8 28  1  0
  9 29  1  0
 10 30  1  0
 10 31  1  0
 11 32  1  0
 12 33  1  0
 13 34  1  0
 15 35  1  0
 16 36  1  0
 16 37  1  0
 17 38  1  0
 17 39  1  0
 17 40  1  0
M  END
>  <PDBID>  (1) 
3TZF

>  <PDB ID>  (1) 
3TZF

>  <Generic Name>  (1) 
Sulfamethoxazole

>  <Brand Name>  (1) 
Apo Sulfamethoxazole Tab 500mg#Apo Sulfatrim DS Tab#Apo Sulfatrim Pediatric#Apo Sulfatrim Tab#Apo-sulfatrim Oral Suspension#Bactrim#Bactrim DS#Bactrim DS Roche Tab#Bactrim Roche Inj#Bactrim Roche Suspension Paediatric#Bactrim Roche Tab#Nu-cotrimox Sus 40/8mg/ml#Nu-cotrimox Tab 400/80mg#Nu-cotrimox-DS Tab 800/160mg#Protrin Df Tab#Protrin Tab#Riva-sep DS#Roubac Tab 160/800#Roubac Tab 80/400#Septra#Septra DS Tablets#Septra Injection#Septra Pediatric Suspension#Sulfamethoxazole Tab 500mg#Sulfamethoxazole and Trimethoprim#Sulfamethoxazole and Trimethoprim (double Strength)#Sulfamethoxazole and Trimethoprim DS#Sulfamethoxazole and Trimethoprim Double Strength#Sulfamethoxazole and Trimethoprim Tablets#Sulfatrim#Teva-trimel#Teva-trimel DS#Trisulfa DS Tab#Trisulfa S Suspension#Trisulfa Tab#Gantanol#Sinomin#Urobak

>  <DrugBank ID>  (1) 
DB01015

>  <ATC Codes>  (1) 
J01EE01#J01EC01

>  <Ligand ID>  (1) 
08D

>  <Target Name>  (1) 
Dihydropteroate synthase

>  <UniProt ID>  (1) 
P0AC13

>  <PDB ID.1>  (1) 
3TZF

>  <Seq. Identity>  (1) 
75%

$$$$
