PDB_DB00302_04
     RDKit          3D

 56 56  0  0  0  0  0  0  0  0999 V2000
    1.4653   -0.1446   -0.2593 C   0  0  0  0  0  0  0  0  0  0  0  0
    0.6726    1.0600    0.2037 C   0  0  0  0  0  0  0  0  0  0  0  0
   -0.6928    1.1189   -0.3976 C   0  0  0  0  0  0  0  0  0  0  0  0
   -1.4022   -0.1898   -0.3223 C   0  0  0  0  0  0  0  0  0  0  0  0
   -0.6469   -1.1690    0.5504 C   0  0  0  0  0  0  0  0  0  0  0  0
    0.7278   -1.4231   -0.0155 C   0  0  0  0  0  0  0  0  0  0  0  0
   -2.8049   -0.0712    0.2291 C   0  0  0  0  0  0  0  0  0  0  0  0
    2.7840   -0.0818    0.4824 C   0  0  0  0  0  0  0  0  0  0  0  0
   -3.6280    0.8005   -0.5948 N   0  0  0  0  0  0  0  0  0  0  0  0
    3.6343   -1.1056    0.1820 O   0  0  0  0  0  0  0  0  0  0  0  0
    3.3830    1.1408    0.1429 O   0  0  0  0  0  0  0  0  0  0  0  0
    1.4653   -0.1446   -0.2593 C   0  0  0  0  0  0  0  0  0  0  0  0
    0.6726    1.0600    0.2037 C   0  0  0  0  0  0  0  0  0  0  0  0
   -0.6928    1.1189   -0.3976 C   0  0  0  0  0  0  0  0  0  0  0  0
   -1.4022   -0.1898   -0.3223 C   0  0  0  0  0  0  0  0  0  0  0  0
   -0.6469   -1.1690    0.5504 C   0  0  0  0  0  0  0  0  0  0  0  0
    0.7278   -1.4231   -0.0155 C   0  0  0  0  0  0  0  0  0  0  0  0
   -2.8049   -0.0712    0.2291 C   0  0  0  0  0  0  0  0  0  0  0  0
    2.7840   -0.0818    0.4824 C   0  0  0  0  0  0  0  0  0  0  0  0
   -3.6280    0.8005   -0.5948 N   0  0  0  0  0  0  0  0  0  0  0  0
    3.6343   -1.1056    0.1820 O   0  0  0  0  0  0  0  0  0  0  0  0
    3.3830    1.1408    0.1429 O   0  0  0  0  0  0  0  0  0  0  0  0
    1.6627    0.0020   -1.3585 H   0  0  0  0  0  0  0  0  0  0  0  0
    1.2422    1.9580   -0.1656 H   0  0  0  0  0  0  0  0  0  0  0  0
    0.6711    1.0663    1.3219 H   0  0  0  0  0  0  0  0  0  0  0  0
   -1.2720    1.8911    0.1782 H   0  0  0  0  0  0  0  0  0  0  0  0
   -0.5725    1.4840   -1.4554 H   0  0  0  0  0  0  0  0  0  0  0  0
   -1.4652   -0.6251   -1.3362 H   0  0  0  0  0  0  0  0  0  0  0  0
   -0.6107   -0.8177    1.6001 H   0  0  0  0  0  0  0  0  0  0  0  0
   -1.2299   -2.1342    0.5077 H   0  0  0  0  0  0  0  0  0  0  0  0
    0.5744   -1.9426   -1.0015 H   0  0  0  0  0  0  0  0  0  0  0  0
    1.2652   -2.1313    0.6405 H   0  0  0  0  0  0  0  0  0  0  0  0
   -3.2541   -1.0636    0.3130 H   0  0  0  0  0  0  0  0  0  0  0  0
   -2.7770    0.3798    1.2505 H   0  0  0  0  0  0  0  0  0  0  0  0
    2.5240    0.0009    1.5659 H   0  0  0  0  0  0  0  0  0  0  0  0
   -3.1154    1.7184   -0.7085 H   0  0  0  0  0  0  0  0  0  0  0  0
   -4.4926    0.9967   -0.0156 H   0  0  0  0  0  0  0  0  0  0  0  0
    3.3222   -1.7502   -0.4726 H   0  0  0  0  0  0  0  0  0  0  0  0
    4.0356    1.0324   -0.5914 H   0  0  0  0  0  0  0  0  0  0  0  0
    1.6627    0.0020   -1.3585 H   0  0  0  0  0  0  0  0  0  0  0  0
    1.2422    1.9580   -0.1656 H   0  0  0  0  0  0  0  0  0  0  0  0
    0.6711    1.0663    1.3219 H   0  0  0  0  0  0  0  0  0  0  0  0
   -1.2720    1.8911    0.1782 H   0  0  0  0  0  0  0  0  0  0  0  0
   -0.5725    1.4840   -1.4554 H   0  0  0  0  0  0  0  0  0  0  0  0
   -1.4652   -0.6251   -1.3362 H   0  0  0  0  0  0  0  0  0  0  0  0
   -0.6107   -0.8177    1.6001 H   0  0  0  0  0  0  0  0  0  0  0  0
   -1.2299   -2.1342    0.5077 H   0  0  0  0  0  0  0  0  0  0  0  0
    0.5744   -1.9426   -1.0015 H   0  0  0  0  0  0  0  0  0  0  0  0
    1.2652   -2.1313    0.6405 H   0  0  0  0  0  0  0  0  0  0  0  0
   -3.2541   -1.0636    0.3130 H   0  0  0  0  0  0  0  0  0  0  0  0
   -2.7770    0.3798    1.2505 H   0  0  0  0  0  0  0  0  0  0  0  0
    2.5240    0.0009    1.5659 H   0  0  0  0  0  0  0  0  0  0  0  0
   -3.1154    1.7184   -0.7085 H   0  0  0  0  0  0  0  0  0  0  0  0
   -4.4926    0.9967   -0.0156 H   0  0  0  0  0  0  0  0  0  0  0  0
    3.3222   -1.7502   -0.4726 H   0  0  0  0  0  0  0  0  0  0  0  0
    4.0356    1.0324   -0.5914 H   0  0  0  0  0  0  0  0  0  0  0  0
  1  2  1  0
  2  3  1  0
  3  4  1  0
  4  5  1  0
  1  6  1  0
  5  6  1  0
  4  7  1  0
  1  8  1  0
  7  9  1  0
  8 10  1  0
  8 11  1  0
 12 13  1  0
 13 14  1  0
 14 15  1  0
 15 16  1  0
 12 17  1  0
 16 17  1  0
 15 18  1  0
 12 19  1  0
 18 20  1  0
 19 21  1  0
 19 22  1  0
  1 23  1  0
  2 24  1  0
  2 25  1  0
  3 26  1  0
  3 27  1  0
  4 28  1  0
  5 29  1  0
  5 30  1  0
  6 31  1  0
  6 32  1  0
  7 33  1  0
  7 34  1  0
  8 35  1  0
  9 36  1  0
  9 37  1  0
 10 38  1  0
 11 39  1  0
 12 40  1  0
 13 41  1  0
 13 42  1  0
 14 43  1  0
 14 44  1  0
 15 45  1  0
 16 46  1  0
 16 47  1  0
 17 48  1  0
 17 49  1  0
 18 50  1  0
 18 51  1  0
 19 52  1  0
 20 53  1  0
 20 54  1  0
 21 55  1  0
 22 56  1  0
M  END
>  <PDBID>  (1) 
1CEB

>  <PDB ID>  (1) 
1CEB

>  <Generic Name>  (1) 
Tranexamic Acid

>  <Brand Name>  (1) 
Cyklokapron#Cyklokapron 100 mg/ml#Cyklokapron 500 mg#Erfa-tranexamic#Gd-tranexamic Acid#Lysteda#Pure Whitenol Serum#Tranexamic Acid#Tranexamic Acid Injection#Tranexamic Acid Injection BP#Tranexamic Acid Tablets#Tranexamic Acid Tranexamic Acid#Cyclo-F#Espercil#Femstrual#Rikavarin#Transamin#Transcam#Traxyl

>  <DrugBank ID>  (1) 
DB00302

>  <ATC Codes>  (1) 
B02AA02

>  <Ligand ID>  (1) 
AMH

>  <Target Name>  (1) 
Plasminogen

>  <UniProt ID>  (1) 
P00747

>  <PDB ID.1>  (1) 
1CEB

>  <Seq. Identity>  (1) 
100%

$$$$
