PDB_DB00234_04
     RDKit          3D

 58 60  0  0  0  0  0  0  0  0999 V2000
    1.8932   -0.2788   -2.9611 C   0  0  0  0  0  0  0  0  0  0  0  0
    3.2149    0.0372   -2.3165 C   0  0  0  0  0  0  0  0  0  0  0  0
    3.1193    0.2175   -1.0034 O   0  0  0  0  0  0  0  0  0  0  0  0
    2.3873    1.1531   -0.4032 C   0  0  0  0  0  0  0  0  0  0  0  0
    3.2148    2.1276    0.4448 C   0  0  0  0  0  0  0  0  0  0  0  0
    4.0926    1.4225    1.4135 C   0  0  0  0  0  0  0  0  0  0  0  0
    3.5872    0.1549    1.9878 C   0  0  0  0  0  0  0  0  0  0  0  0
    2.4583   -0.5121    1.2852 C   0  0  0  0  0  0  0  0  0  0  0  0
    1.4794    0.4860    0.6625 C   0  0  0  0  0  0  0  0  0  0  0  0
    0.5350   -0.1578    0.0623 O   0  0  0  0  0  0  0  0  0  0  0  0
   -0.8114    0.0593    0.0854 C   0  0  2  0  0  0  0  0  0  0  0  0
   -1.3473   -1.1775    0.7536 C   0  0  0  0  0  0  0  0  0  0  0  0
   -2.7975   -1.3473    0.9223 C   0  0  0  0  0  0  0  0  0  0  0  0
   -2.9334   -2.6919    1.7129 C   0  0  0  0  0  0  0  0  0  0  0  0
   -2.6493   -2.4236    3.1685 C   0  0  0  0  0  0  0  0  0  0  0  0
   -1.8422   -1.1644    3.2406 C   0  0  0  0  0  0  0  0  0  0  0  0
   -0.7550   -1.1815    2.1757 C   0  0  0  0  0  0  0  0  0  0  0  0
   -1.4316    0.4087   -1.2242 C   0  0  2  0  0  0  0  0  0  0  0  0
   -0.7637    1.5025   -1.8339 O   0  0  0  0  0  0  0  0  0  0  0  0
   -1.4806    2.0015   -2.8920 C   0  0  0  0  0  0  0  0  0  0  0  0
   -2.5413    1.1157   -3.4453 C   0  0  0  0  0  0  0  0  0  0  0  0
   -3.5133    0.8042   -2.4144 N   0  0  0  0  0  0  0  0  0  0  0  0
   -2.8427    0.9570   -1.1281 C   0  0  0  0  0  0  0  0  0  0  0  0
    1.3502    0.6419   -3.2687 H   0  0  0  0  0  0  0  0  0  0  0  0
    1.3075   -0.9883   -2.3855 H   0  0  0  0  0  0  0  0  0  0  0  0
    2.1463   -0.7868   -3.9310 H   0  0  0  0  0  0  0  0  0  0  0  0
    3.8498   -0.8916   -2.4868 H   0  0  0  0  0  0  0  0  0  0  0  0
    3.6340    0.8859   -2.9040 H   0  0  0  0  0  0  0  0  0  0  0  0
    1.7588    1.7956   -1.0143 H   0  0  0  0  0  0  0  0  0  0  0  0
    2.4636    2.7155    1.0109 H   0  0  0  0  0  0  0  0  0  0  0  0
    3.7935    2.8337   -0.1552 H   0  0  0  0  0  0  0  0  0  0  0  0
    4.2426    2.1379    2.2797 H   0  0  0  0  0  0  0  0  0  0  0  0
    5.1470    1.3040    1.0190 H   0  0  0  0  0  0  0  0  0  0  0  0
    4.4411   -0.5857    2.0007 H   0  0  0  0  0  0  0  0  0  0  0  0
    3.3200    0.2456    3.0818 H   0  0  0  0  0  0  0  0  0  0  0  0
    2.9094   -1.0654    0.4072 H   0  0  0  0  0  0  0  0  0  0  0  0
    2.0313   -1.2615    1.9188 H   0  0  0  0  0  0  0  0  0  0  0  0
    1.2450    1.3369    1.3296 H   0  0  0  0  0  0  0  0  0  0  0  0
   -0.9711    0.9040    0.7656 H   0  0  0  0  0  0  0  0  0  0  0  0
   -0.9452   -2.1102    0.2866 H   0  0  0  0  0  0  0  0  0  0  0  0
   -3.3422   -0.6538    1.5495 H   0  0  0  0  0  0  0  0  0  0  0  0
   -3.3801   -1.5856    0.0011 H   0  0  0  0  0  0  0  0  0  0  0  0
   -3.9433   -3.1090    1.5681 H   0  0  0  0  0  0  0  0  0  0  0  0
   -2.1846   -3.3777    1.3177 H   0  0  0  0  0  0  0  0  0  0  0  0
   -3.5949   -2.3050    3.7549 H   0  0  0  0  0  0  0  0  0  0  0  0
   -2.1039   -3.2528    3.6583 H   0  0  0  0  0  0  0  0  0  0  0  0
   -1.2530   -1.1688    4.2122 H   0  0  0  0  0  0  0  0  0  0  0  0
   -2.4148   -0.2358    3.2802 H   0  0  0  0  0  0  0  0  0  0  0  0
   -0.1525   -0.2752    2.3759 H   0  0  0  0  0  0  0  0  0  0  0  0
   -0.1458   -2.0599    2.3789 H   0  0  0  0  0  0  0  0  0  0  0  0
   -1.4287   -0.3884   -1.9808 H   0  0  0  0  0  0  0  0  0  0  0  0
   -0.7430    2.2024   -3.7159 H   0  0  0  0  0  0  0  0  0  0  0  0
   -1.9002    2.9848   -2.6239 H   0  0  0  0  0  0  0  0  0  0  0  0
   -2.1811    0.2481   -4.0026 H   0  0  0  0  0  0  0  0  0  0  0  0
   -3.1138    1.7420   -4.1930 H   0  0  0  0  0  0  0  0  0  0  0  0
   -3.9274   -0.1482   -2.5245 H   0  0  0  0  0  0  0  0  0  0  0  0
   -2.7478    2.0923   -1.0109 H   0  0  0  0  0  0  0  0  0  0  0  0
   -3.4393    0.6664   -0.2925 H   0  0  0  0  0  0  0  0  0  0  0  0
  1  2  1  0
  2  3  1  0
  3  4  1  0
  4  5  1  0
  5  6  1  0
  6  7  1  0
  7  8  1  0
  4  9  1  0
  8  9  1  0
  9 10  1  0
 10 11  1  0
 11 12  1  0
 12 13  1  0
 13 14  1  0
 14 15  1  0
 15 16  1  0
 12 17  1  0
 16 17  1  0
 11 18  1  0
 18 19  1  0
 19 20  1  0
 20 21  1  0
 21 22  1  0
 18 23  1  0
 22 23  1  0
  1 24  1  0
  1 25  1  0
  1 26  1  0
  2 27  1  0
  2 28  1  0
  4 29  1  0
  5 30  1  0
  5 31  1  0
  6 32  1  0
  6 33  1  0
  7 34  1  0
  7 35  1  0
  8 36  1  0
  8 37  1  0
  9 38  1  0
 11 39  1  1
 12 40  1  0
 13 41  1  0
 13 42  1  0
 14 43  1  0
 14 44  1  0
 15 45  1  0
 15 46  1  0
 16 47  1  0
 16 48  1  0
 17 49  1  0
 17 50  1  0
 18 51  1  6
 20 52  1  0
 20 53  1  0
 21 54  1  0
 21 55  1  0
 22 56  1  0
 23 57  1  0
 23 58  1  0
M  END
>  <PDBID>  (1) 
4XNX

>  <PDB ID>  (1) 
4XNX

>  <Generic Name>  (1) 
Reboxetine

>  <Brand Name>  (1) 
Davedax#Edronax#Norebox#Prolift#Solvex#Vestra

>  <DrugBank ID>  (1) 
DB00234

>  <ATC Codes>  (1) 
N06AX18

>  <Ligand ID>  (1) 
41X

>  <Target Name>  (1) 
Sodium-dependent noradrenaline transporter

>  <UniProt ID>  (1) 
P23975

>  <PDB ID.1>  (1) 
4XNX

>  <Seq. Identity>  (1) 
58%

$$$$
