PDB_DB01041_09
     RDKit          3D

172180  0  0  0  0  0  0  0  0999 V2000
    2.2693   -0.6141    1.0744 O   0  0  0  0  0  0  0  0  0  0  0  0
    2.2223   -1.0519   -0.2442 C   0  0  0  0  0  0  0  0  0  0  0  0
    3.5891   -0.9871   -0.7506 N   0  0  0  0  0  0  0  0  0  0  0  0
    4.1730    0.2168   -0.2055 C   0  0  0  0  0  0  0  0  0  0  0  0
    4.3516    0.0053    1.1605 O   0  0  0  0  0  0  0  0  0  0  0  0
    3.2037    1.3468   -0.3907 C   0  0  0  0  0  0  0  0  0  0  0  0
    2.1473    1.0590   -1.4373 C   0  0  0  0  0  0  0  0  0  0  0  0
    1.3095   -0.1676   -1.0528 C   0  0  2  0  0  0  0  0  0  0  0  0
    0.2047    0.2735   -0.2628 N   0  0  0  0  0  0  0  0  0  0  0  0
   -3.4267   -0.5763    1.7950 C   0  0  0  0  0  0  0  0  0  0  0  0
   -2.6860   -1.5789    0.9692 C   0  0  0  0  0  0  0  0  0  0  0  0
   -1.7137   -1.0014    0.0060 C   0  0  0  0  0  0  0  0  0  0  0  0
   -2.1276    0.2241   -0.6966 C   0  0  0  0  0  0  0  0  0  0  0  0
   -0.5192   -0.1342    1.8884 O   0  0  0  0  0  0  0  0  0  0  0  0
   -0.5738    1.0291   -2.3618 O   0  0  0  0  0  0  0  0  0  0  0  0
   -3.0152    1.1576    0.0223 C   0  0  0  0  0  0  0  0  0  0  0  0
   -3.9617    0.5721    0.9973 C   0  0  0  0  0  0  0  0  0  0  0  0
   -0.8159    0.9555   -0.9786 C   0  0  2  0  0  0  0  0  0  0  0  0
   -0.3633   -0.6896    0.6089 C   0  0  0  0  0  0  0  0  0  0  0  0
    2.2693   -0.6141    1.0744 O   0  0  0  0  0  0  0  0  0  0  0  0
    2.2223   -1.0519   -0.2442 C   0  0  0  0  0  0  0  0  0  0  0  0
    3.5891   -0.9871   -0.7506 N   0  0  0  0  0  0  0  0  0  0  0  0
    4.1730    0.2168   -0.2055 C   0  0  0  0  0  0  0  0  0  0  0  0
    4.3516    0.0053    1.1605 O   0  0  0  0  0  0  0  0  0  0  0  0
    3.2037    1.3468   -0.3907 C   0  0  0  0  0  0  0  0  0  0  0  0
    2.1473    1.0590   -1.4373 C   0  0  0  0  0  0  0  0  0  0  0  0
    1.3095   -0.1676   -1.0528 C   0  0  2  0  0  0  0  0  0  0  0  0
    0.2047    0.2735   -0.2628 N   0  0  0  0  0  0  0  0  0  0  0  0
   -3.4267   -0.5763    1.7950 C   0  0  0  0  0  0  0  0  0  0  0  0
   -2.6860   -1.5789    0.9692 C   0  0  0  0  0  0  0  0  0  0  0  0
   -1.7137   -1.0014    0.0060 C   0  0  0  0  0  0  0  0  0  0  0  0
   -2.1276    0.2241   -0.6966 C   0  0  0  0  0  0  0  0  0  0  0  0
   -0.5192   -0.1342    1.8884 O   0  0  0  0  0  0  0  0  0  0  0  0
   -0.5738    1.0291   -2.3618 O   0  0  0  0  0  0  0  0  0  0  0  0
   -3.0152    1.1576    0.0223 C   0  0  0  0  0  0  0  0  0  0  0  0
   -3.9617    0.5721    0.9973 C   0  0  0  0  0  0  0  0  0  0  0  0
   -0.8159    0.9555   -0.9786 C   0  0  2  0  0  0  0  0  0  0  0  0
   -0.3633   -0.6896    0.6089 C   0  0  0  0  0  0  0  0  0  0  0  0
    1.5693   -2.1941   -0.0424 O   0  0  0  0  0  0  0  0  0  0  0  0
    2.1292   -0.9071   -0.0667 C   0  0  0  0  0  0  0  0  0  0  0  0
    3.4124   -1.0744   -0.7556 N   0  0  0  0  0  0  0  0  0  0  0  0
    4.2509    0.0515   -0.3490 C   0  0  0  0  0  0  0  0  0  0  0  0
    4.8523   -0.2348    0.8863 O   0  0  0  0  0  0  0  0  0  0  0  0
    3.3895    1.2761   -0.1708 C   0  0  0  0  0  0  0  0  0  0  0  0
    2.1981    1.2694   -1.1194 C   0  0  0  0  0  0  0  0  0  0  0  0
    1.3282    0.0374   -0.8856 C   0  0  2  0  0  0  0  0  0  0  0  0
    0.0816    0.4556   -0.4444 N   0  0  0  0  0  0  0  0  0  0  0  0
   -3.2131   -0.0807    1.9221 C   0  0  0  0  0  0  0  0  0  0  0  0
   -2.5241   -1.3007    1.3801 C   0  0  0  0  0  0  0  0  0  0  0  0
   -1.5728   -0.9436    0.2786 C   0  0  0  0  0  0  0  0  0  0  0  0
   -2.1905   -0.1482   -0.8311 C   0  0  0  0  0  0  0  0  0  0  0  0
    0.2638   -0.4685    1.7439 O   0  0  0  0  0  0  0  0  0  0  0  0
   -0.6022   -0.0359   -2.6475 O   0  0  0  0  0  0  0  0  0  0  0  0
   -3.1120    0.9393   -0.3822 C   0  0  0  0  0  0  0  0  0  0  0  0
   -3.9344    0.6264    0.8195 C   0  0  0  0  0  0  0  0  0  0  0  0
   -0.9630    0.5299   -1.4300 C   0  0  0  0  0  0  0  0  0  0  0  0
   -0.5019    0.0373    0.7436 C   0  0  0  0  0  0  0  0  0  0  0  0
    2.2693   -0.6141    1.0744 O   0  0  0  0  0  0  0  0  0  0  0  0
    2.2223   -1.0519   -0.2442 C   0  0  0  0  0  0  0  0  0  0  0  0
    3.5891   -0.9871   -0.7506 N   0  0  0  0  0  0  0  0  0  0  0  0
    4.1730    0.2168   -0.2055 C   0  0  0  0  0  0  0  0  0  0  0  0
    4.3516    0.0053    1.1605 O   0  0  0  0  0  0  0  0  0  0  0  0
    3.2037    1.3468   -0.3907 C   0  0  0  0  0  0  0  0  0  0  0  0
    2.1473    1.0590   -1.4373 C   0  0  0  0  0  0  0  0  0  0  0  0
    1.3095   -0.1676   -1.0528 C   0  0  2  0  0  0  0  0  0  0  0  0
    0.2047    0.2735   -0.2628 N   0  0  0  0  0  0  0  0  0  0  0  0
   -3.4267   -0.5763    1.7950 C   0  0  0  0  0  0  0  0  0  0  0  0
   -2.6860   -1.5789    0.9692 C   0  0  0  0  0  0  0  0  0  0  0  0
   -1.7137   -1.0014    0.0060 C   0  0  0  0  0  0  0  0  0  0  0  0
   -2.1276    0.2241   -0.6966 C   0  0  0  0  0  0  0  0  0  0  0  0
   -0.5192   -0.1342    1.8884 O   0  0  0  0  0  0  0  0  0  0  0  0
   -0.5738    1.0291   -2.3618 O   0  0  0  0  0  0  0  0  0  0  0  0
   -3.0152    1.1576    0.0223 C   0  0  0  0  0  0  0  0  0  0  0  0
   -3.9617    0.5721    0.9973 C   0  0  0  0  0  0  0  0  0  0  0  0
   -0.8159    0.9555   -0.9786 C   0  0  2  0  0  0  0  0  0  0  0  0
   -0.3633   -0.6896    0.6089 C   0  0  0  0  0  0  0  0  0  0  0  0
    2.4542   -1.4288    1.6234 H   0  0  0  0  0  0  0  0  0  0  0  0
    1.9258   -2.1240   -0.3252 H   0  0  0  0  0  0  0  0  0  0  0  0
    3.6025   -0.9362   -1.7858 H   0  0  0  0  0  0  0  0  0  0  0  0
    5.1712    0.4180   -0.6493 H   0  0  0  0  0  0  0  0  0  0  0  0
    4.7763   -0.8713    1.3636 H   0  0  0  0  0  0  0  0  0  0  0  0
    3.7502    2.2393   -0.7309 H   0  0  0  0  0  0  0  0  0  0  0  0
    2.7051    1.6257    0.5640 H   0  0  0  0  0  0  0  0  0  0  0  0
    2.6523    0.9250   -2.4003 H   0  0  0  0  0  0  0  0  0  0  0  0
    1.5241    1.9695   -1.5127 H   0  0  0  0  0  0  0  0  0  0  0  0
    1.0190   -0.6722   -1.9858 H   0  0  0  0  0  0  0  0  0  0  0  0
   -2.7557   -0.2120    2.5922 H   0  0  0  0  0  0  0  0  0  0  0  0
   -4.3094   -1.1047    2.2368 H   0  0  0  0  0  0  0  0  0  0  0  0
   -3.4028   -2.2228    0.3996 H   0  0  0  0  0  0  0  0  0  0  0  0
   -2.1672   -2.2708    1.6706 H   0  0  0  0  0  0  0  0  0  0  0  0
   -1.5143   -1.7982   -0.7705 H   0  0  0  0  0  0  0  0  0  0  0  0
   -2.5741   -0.0371   -1.6906 H   0  0  0  0  0  0  0  0  0  0  0  0
   -0.2926    0.8401    1.8711 H   0  0  0  0  0  0  0  0  0  0  0  0
   -0.9787    1.8608   -2.7393 H   0  0  0  0  0  0  0  0  0  0  0  0
   -2.4165    1.9685    0.5269 H   0  0  0  0  0  0  0  0  0  0  0  0
   -3.6224    1.7180   -0.7443 H   0  0  0  0  0  0  0  0  0  0  0  0
   -4.9531    0.2889    0.5546 H   0  0  0  0  0  0  0  0  0  0  0  0
   -4.2210    1.3794    1.7428 H   0  0  0  0  0  0  0  0  0  0  0  0
   -0.8485    2.0074   -0.6272 H   0  0  0  0  0  0  0  0  0  0  0  0
    0.2083   -1.6391    0.6748 H   0  0  0  0  0  0  0  0  0  0  0  0
    2.4542   -1.4288    1.6234 H   0  0  0  0  0  0  0  0  0  0  0  0
    1.9258   -2.1240   -0.3252 H   0  0  0  0  0  0  0  0  0  0  0  0
    3.6025   -0.9362   -1.7858 H   0  0  0  0  0  0  0  0  0  0  0  0
    5.1712    0.4180   -0.6493 H   0  0  0  0  0  0  0  0  0  0  0  0
    4.7763   -0.8713    1.3636 H   0  0  0  0  0  0  0  0  0  0  0  0
    3.7502    2.2393   -0.7309 H   0  0  0  0  0  0  0  0  0  0  0  0
    2.7051    1.6257    0.5640 H   0  0  0  0  0  0  0  0  0  0  0  0
    2.6523    0.9250   -2.4003 H   0  0  0  0  0  0  0  0  0  0  0  0
    1.5241    1.9695   -1.5127 H   0  0  0  0  0  0  0  0  0  0  0  0
    1.0190   -0.6722   -1.9858 H   0  0  0  0  0  0  0  0  0  0  0  0
   -2.7557   -0.2120    2.5922 H   0  0  0  0  0  0  0  0  0  0  0  0
   -4.3094   -1.1047    2.2368 H   0  0  0  0  0  0  0  0  0  0  0  0
   -3.4028   -2.2228    0.3996 H   0  0  0  0  0  0  0  0  0  0  0  0
   -2.1672   -2.2708    1.6706 H   0  0  0  0  0  0  0  0  0  0  0  0
   -1.5143   -1.7982   -0.7705 H   0  0  0  0  0  0  0  0  0  0  0  0
   -2.5741   -0.0371   -1.6906 H   0  0  0  0  0  0  0  0  0  0  0  0
   -0.2926    0.8401    1.8711 H   0  0  0  0  0  0  0  0  0  0  0  0
   -0.9787    1.8608   -2.7393 H   0  0  0  0  0  0  0  0  0  0  0  0
   -2.4165    1.9685    0.5269 H   0  0  0  0  0  0  0  0  0  0  0  0
   -3.6224    1.7180   -0.7443 H   0  0  0  0  0  0  0  0  0  0  0  0
   -4.9531    0.2889    0.5546 H   0  0  0  0  0  0  0  0  0  0  0  0
   -4.2210    1.3794    1.7428 H   0  0  0  0  0  0  0  0  0  0  0  0
   -0.8485    2.0074   -0.6272 H   0  0  0  0  0  0  0  0  0  0  0  0
    0.2083   -1.6391    0.6748 H   0  0  0  0  0  0  0  0  0  0  0  0
    1.6766   -2.6408    0.8227 H   0  0  0  0  0  0  0  0  0  0  0  0
    2.4114   -0.5461    0.9342 H   0  0  0  0  0  0  0  0  0  0  0  0
    3.3064   -1.1450   -1.7806 H   0  0  0  0  0  0  0  0  0  0  0  0
    5.0409    0.2478   -1.0959 H   0  0  0  0  0  0  0  0  0  0  0  0
    4.2495   -0.0320    1.6465 H   0  0  0  0  0  0  0  0  0  0  0  0
    4.0000    2.1574   -0.4603 H   0  0  0  0  0  0  0  0  0  0  0  0
    3.0270    1.4129    0.8643 H   0  0  0  0  0  0  0  0  0  0  0  0
    1.6358    2.2114   -0.9071 H   0  0  0  0  0  0  0  0  0  0  0  0
    2.5496    1.3485   -2.1568 H   0  0  0  0  0  0  0  0  0  0  0  0
    1.2098   -0.4343   -1.8953 H   0  0  0  0  0  0  0  0  0  0  0  0
   -2.5601    0.5687    2.5317 H   0  0  0  0  0  0  0  0  0  0  0  0
   -3.9983   -0.4544    2.6287 H   0  0  0  0  0  0  0  0  0  0  0  0
   -3.3091   -1.9454    0.9331 H   0  0  0  0  0  0  0  0  0  0  0  0
   -1.9530   -1.8465    2.1506 H   0  0  0  0  0  0  0  0  0  0  0  0
   -1.1486   -1.8611   -0.1518 H   0  0  0  0  0  0  0  0  0  0  0  0
   -2.6325   -0.8217   -1.5948 H   0  0  0  0  0  0  0  0  0  0  0  0
    0.5146    0.2687    2.3705 H   0  0  0  0  0  0  0  0  0  0  0  0
   -1.0851    0.4526   -3.3717 H   0  0  0  0  0  0  0  0  0  0  0  0
   -2.5784    1.9179   -0.2753 H   0  0  0  0  0  0  0  0  0  0  0  0
   -3.8313    1.1075   -1.2252 H   0  0  0  0  0  0  0  0  0  0  0  0
   -4.8588    0.0470    0.5912 H   0  0  0  0  0  0  0  0  0  0  0  0
   -4.2996    1.5998    1.2349 H   0  0  0  0  0  0  0  0  0  0  0  0
   -1.1450    1.6181   -1.6132 H   0  0  0  0  0  0  0  0  0  0  0  0
   -1.0830    0.8965    1.1701 H   0  0  0  0  0  0  0  0  0  0  0  0
    2.4542   -1.4288    1.6234 H   0  0  0  0  0  0  0  0  0  0  0  0
    1.9258   -2.1240   -0.3252 H   0  0  0  0  0  0  0  0  0  0  0  0
    3.6025   -0.9362   -1.7858 H   0  0  0  0  0  0  0  0  0  0  0  0
    5.1712    0.4180   -0.6493 H   0  0  0  0  0  0  0  0  0  0  0  0
    4.7763   -0.8713    1.3636 H   0  0  0  0  0  0  0  0  0  0  0  0
    3.7502    2.2393   -0.7309 H   0  0  0  0  0  0  0  0  0  0  0  0
    2.7051    1.6257    0.5640 H   0  0  0  0  0  0  0  0  0  0  0  0
    2.6523    0.9250   -2.4003 H   0  0  0  0  0  0  0  0  0  0  0  0
    1.5241    1.9695   -1.5127 H   0  0  0  0  0  0  0  0  0  0  0  0
    1.0190   -0.6722   -1.9858 H   0  0  0  0  0  0  0  0  0  0  0  0
   -2.7557   -0.2120    2.5922 H   0  0  0  0  0  0  0  0  0  0  0  0
   -4.3094   -1.1047    2.2368 H   0  0  0  0  0  0  0  0  0  0  0  0
   -3.4028   -2.2228    0.3996 H   0  0  0  0  0  0  0  0  0  0  0  0
   -2.1672   -2.2708    1.6706 H   0  0  0  0  0  0  0  0  0  0  0  0
   -1.5143   -1.7982   -0.7705 H   0  0  0  0  0  0  0  0  0  0  0  0
   -2.5741   -0.0371   -1.6906 H   0  0  0  0  0  0  0  0  0  0  0  0
   -0.2926    0.8401    1.8711 H   0  0  0  0  0  0  0  0  0  0  0  0
   -0.9787    1.8608   -2.7393 H   0  0  0  0  0  0  0  0  0  0  0  0
   -2.4165    1.9685    0.5269 H   0  0  0  0  0  0  0  0  0  0  0  0
   -3.6224    1.7180   -0.7443 H   0  0  0  0  0  0  0  0  0  0  0  0
   -4.9531    0.2889    0.5546 H   0  0  0  0  0  0  0  0  0  0  0  0
   -4.2210    1.3794    1.7428 H   0  0  0  0  0  0  0  0  0  0  0  0
   -0.8485    2.0074   -0.6272 H   0  0  0  0  0  0  0  0  0  0  0  0
    0.2083   -1.6391    0.6748 H   0  0  0  0  0  0  0  0  0  0  0  0
  1  2  1  0
  2  3  1  0
  3  4  1  0
  4  5  1  0
  4  6  1  0
  6  7  1  0
  2  8  1  0
  7  8  1  0
  8  9  1  0
 10 11  1  0
 11 12  1  0
 12 13  1  0
 13 16  1  0
 10 17  1  0
 16 17  1  0
  9 18  1  0
 13 18  1  0
 15 18  1  0
  9 19  1  0
 12 19  1  0
 14 19  1  0
 20 21  1  0
 21 22  1  0
 22 23  1  0
 23 24  1  0
 23 25  1  0
 25 26  1  0
 21 27  1  0
 26 27  1  0
 27 28  1  0
 29 30  1  0
 30 31  1  0
 31 32  1  0
 32 35  1  0
 29 36  1  0
 35 36  1  0
 28 37  1  0
 32 37  1  0
 34 37  1  0
 28 38  1  0
 31 38  1  0
 33 38  1  0
 39 40  1  0
 40 41  1  0
 41 42  1  0
 42 43  1  0
 42 44  1  0
 44 45  1  0
 40 46  1  0
 45 46  1  0
 46 47  1  0
 48 49  1  0
 49 50  1  0
 50 51  1  0
 51 54  1  0
 48 55  1  0
 54 55  1  0
 47 56  1  0
 51 56  1  0
 53 56  1  0
 47 57  1  0
 50 57  1  0
 52 57  1  0
 58 59  1  0
 59 60  1  0
 60 61  1  0
 61 62  1  0
 61 63  1  0
 63 64  1  0
 59 65  1  0
 64 65  1  0
 65 66  1  0
 67 68  1  0
 68 69  1  0
 69 70  1  0
 70 73  1  0
 67 74  1  0
 73 74  1  0
 66 75  1  0
 70 75  1  0
 72 75  1  0
 66 76  1  0
 69 76  1  0
 71 76  1  0
  1 77  1  0
  2 78  1  0
  3 79  1  0
  4 80  1  0
  5 81  1  0
  6 82  1  0
  6 83  1  0
  7 84  1  0
  7 85  1  0
  8 86  1  6
 10 87  1  0
 10 88  1  0
 11 89  1  0
 11 90  1  0
 12 91  1  0
 13 92  1  0
 14 93  1  0
 15 94  1  0
 16 95  1  0
 16 96  1  0
 17 97  1  0
 17 98  1  0
 18 99  1  1
 19100  1  0
 20101  1  0
 21102  1  0
 22103  1  0
 23104  1  0
 24105  1  0
 25106  1  0
 25107  1  0
 26108  1  0
 26109  1  0
 27110  1  6
 29111  1  0
 29112  1  0
 30113  1  0
 30114  1  0
 31115  1  0
 32116  1  0
 33117  1  0
 34118  1  0
 35119  1  0
 35120  1  0
 36121  1  0
 36122  1  0
 37123  1  1
 38124  1  0
 39125  1  0
 40126  1  0
 41127  1  0
 42128  1  0
 43129  1  0
 44130  1  0
 44131  1  0
 45132  1  0
 45133  1  0
 46134  1  6
 48135  1  0
 48136  1  0
 49137  1  0
 49138  1  0
 50139  1  0
 51140  1  0
 52141  1  0
 53142  1  0
 54143  1  0
 54144  1  0
 55145  1  0
 55146  1  0
 56147  1  0
 57148  1  0
 58149  1  0
 59150  1  0
 60151  1  0
 61152  1  0
 62153  1  0
 63154  1  0
 63155  1  0
 64156  1  0
 64157  1  0
 65158  1  6
 67159  1  0
 67160  1  0
 68161  1  0
 68162  1  0
 69163  1  0
 70164  1  0
 71165  1  0
 72166  1  0
 73167  1  0
 73168  1  0
 74169  1  0
 74170  1  0
 75171  1  1
 76172  1  0
M  END
>  <PDBID>  (1) 
4TZC

>  <PDB ID>  (1) 
4TZC

>  <Generic Name>  (1) 
Thalidomide

>  <Brand Name>  (1) 
Thalomid#Contergan#Distaval#K-17#Pro-ban M#Sedalis#Softenon#Talimol#Thaled

>  <DrugBank ID>  (1) 
DB01041

>  <ATC Codes>  (1) 
L04AX02

>  <Ligand ID>  (1) 
EF2

>  <Target Name>  (1) 
Protein cereblon

>  <UniProt ID>  (1) 
Q96SW2

>  <PDB ID.1>  (1) 
4TZC

>  <Seq. Identity>  (1) 
97%

$$$$
