PDB_DB01194_02
     RDKit          3D

 52 53  0  0  0  0  0  0  0  0999 V2000
    3.5408   -1.4043    0.2425 C   0  0  0  0  0  0  0  0  0  0  0  0
   -1.3037    0.0528   -0.6853 C   0  0  0  0  0  0  0  0  0  0  0  0
   -0.8869   -0.2802    0.7491 C   0  0  1  0  0  0  0  0  0  0  0  0
   -0.4374    1.1659   -1.1172 C   0  0  2  0  0  0  0  0  0  0  0  0
    1.0128    0.8655   -1.1025 C   0  0  0  0  0  0  0  0  0  0  0  0
   -4.8396   -1.3648    0.0791 S   0  0  0  0  0  0  0  0  0  0  0  0
    4.9822   -1.2121    0.6545 C   0  0  0  0  0  0  0  0  0  0  0  0
   -1.8719    4.4883   -0.1482 C   0  0  0  0  0  0  0  0  0  0  0  0
   -1.8538    3.1785   -0.9758 C   0  0  0  0  0  0  0  0  0  0  0  0
   -2.2296   -1.3962    1.2292 S   0  0  0  0  0  0  0  0  0  0  0  0
   -4.7139   -3.1156    0.8620 N   0  0  0  0  0  0  0  0  0  0  0  0
   -5.4203   -0.5040    1.1708 O   0  0  0  0  0  0  0  0  0  0  0  0
   -5.7481   -1.7371   -1.1869 O   0  0  0  0  0  0  0  0  0  0  0  0
   -3.2736   -1.1709   -0.2920 C   0  0  0  0  0  0  0  0  0  0  0  0
   -2.7626    0.2387   -0.6389 C   0  0  0  0  0  0  0  0  0  0  0  0
    0.6336   -1.0454    0.6382 S   0  0  0  0  0  0  0  0  0  0  0  0
    1.4162   -1.0158    2.3778 O   0  0  0  0  0  0  0  0  0  0  0  0
    0.4458   -2.9125    0.3666 O   0  0  0  0  0  0  0  0  0  0  0  0
    1.4647   -0.3562   -0.5134 N   0  0  0  0  0  0  0  0  0  0  0  0
   -0.6934    2.4666   -0.5908 N   0  0  0  0  0  0  0  0  0  0  0  0
    2.8885   -0.1236   -0.1765 C   0  0  0  0  0  0  0  0  0  0  0  0
    5.7875   -0.6831   -0.3213 O   0  0  0  0  0  0  0  0  0  0  0  0
    7.0733   -0.5884    0.2688 C   0  0  0  0  0  0  0  0  0  0  0  0
    3.5536   -2.1509   -0.5960 H   0  0  0  0  0  0  0  0  0  0  0  0
    3.0287   -1.9358    1.0697 H   0  0  0  0  0  0  0  0  0  0  0  0
   -1.0220   -0.8365   -1.3117 H   0  0  0  0  0  0  0  0  0  0  0  0
   -0.8248    0.6105    1.3687 H   0  0  0  0  0  0  0  0  0  0  0  0
   -0.7125    1.2896   -2.2463 H   0  0  0  0  0  0  0  0  0  0  0  0
    1.4378    0.8649   -2.1526 H   0  0  0  0  0  0  0  0  0  0  0  0
    1.5576    1.7146   -0.6079 H   0  0  0  0  0  0  0  0  0  0  0  0
    5.3507   -2.2444    0.9321 H   0  0  0  0  0  0  0  0  0  0  0  0
    5.0549   -0.6260    1.5879 H   0  0  0  0  0  0  0  0  0  0  0  0
   -2.1255    5.3475   -0.7846 H   0  0  0  0  0  0  0  0  0  0  0  0
   -2.6175    4.3680    0.6812 H   0  0  0  0  0  0  0  0  0  0  0  0
   -0.8983    4.5714    0.3555 H   0  0  0  0  0  0  0  0  0  0  0  0
   -1.7869    3.5350   -2.0548 H   0  0  0  0  0  0  0  0  0  0  0  0
   -2.8381    2.7374   -0.8002 H   0  0  0  0  0  0  0  0  0  0  0  0
   -5.5355   -3.0546    1.4887 H   0  0  0  0  0  0  0  0  0  0  0  0
   -3.8839   -2.9404    1.4826 H   0  0  0  0  0  0  0  0  0  0  0  0
   -6.1982   -0.7695    1.7108 H   0  0  0  0  0  0  0  0  0  0  0  0
   -5.2666   -2.3627   -1.8149 H   0  0  0  0  0  0  0  0  0  0  0  0
   -2.8191   -1.8542   -1.0150 H   0  0  0  0  0  0  0  0  0  0  0  0
   -3.1528    0.5813   -1.5815 H   0  0  0  0  0  0  0  0  0  0  0  0
   -3.0557    0.8214    0.2719 H   0  0  0  0  0  0  0  0  0  0  0  0
    1.6726   -0.0398    2.3633 H   0  0  0  0  0  0  0  0  0  0  0  0
    0.0460   -2.8760   -0.5138 H   0  0  0  0  0  0  0  0  0  0  0  0
   -0.6053    2.5143    0.4592 H   0  0  0  0  0  0  0  0  0  0  0  0
    3.3586    0.2395   -1.0975 H   0  0  0  0  0  0  0  0  0  0  0  0
    2.9786    0.6587    0.5837 H   0  0  0  0  0  0  0  0  0  0  0  0
    6.9990    0.0796    1.1769 H   0  0  0  0  0  0  0  0  0  0  0  0
    7.7633   -0.1936   -0.4896 H   0  0  0  0  0  0  0  0  0  0  0  0
    7.3306   -1.5954    0.6441 H   0  0  0  0  0  0  0  0  0  0  0  0
  2  3  1  0
  2  4  1  0
  4  5  1  0
  1  7  1  0
  8  9  1  0
  3 10  1  0
  6 11  1  0
  6 12  1  0
  6 13  1  0
  6 14  1  0
 10 14  1  0
  2 15  1  0
 14 15  1  0
  3 16  1  0
 16 17  1  0
 16 18  1  0
  5 19  1  0
 16 19  1  0
  4 20  1  0
  9 20  1  0
  1 21  1  0
 19 21  1  0
  7 22  1  0
 22 23  1  0
  1 24  1  0
  1 25  1  0
  2 26  1  0
  3 27  1  1
  4 28  1  6
  5 29  1  0
  5 30  1  0
  7 31  1  0
  7 32  1  0
  8 33  1  0
  8 34  1  0
  8 35  1  0
  9 36  1  0
  9 37  1  0
 11 38  1  0
 11 39  1  0
 12 40  1  0
 13 41  1  0
 14 42  1  0
 15 43  1  0
 15 44  1  0
 17 45  1  0
 18 46  1  0
 20 47  1  0
 21 48  1  0
 21 49  1  0
 23 50  1  0
 23 51  1  0
 23 52  1  0
M  END
>  <PDBID>  (1) 
4M2R

>  <PDB ID>  (1) 
4M2R

>  <Generic Name>  (1) 
Brinzolamide

>  <Brand Name>  (1) 
Azarga#Azopt#Sandoz Brinzolamide#Simbrinza

>  <DrugBank ID>  (1) 
DB01194

>  <ATC Codes>  (1) 
S01EC54#S01EC04

>  <Ligand ID>  (1) 
BZ1

>  <Target Name>  (1) 
Carbonic anhydrase 2

>  <UniProt ID>  (1) 
P00918

>  <PDB ID.1>  (1) 
4M2R

>  <Seq. Identity>  (1) 
100%

$$$$
