PDB_DB00147_04
     RDKit          3D

 58 58  0  0  0  0  0  0  0  0999 V2000
    2.5761    0.0015    1.3526 O   0  0  0  0  0  0  0  0  0  0  0  0
    1.7811   -0.9982    0.8102 C   0  0  0  0  0  0  0  0  0  0  0  0
    0.9434   -0.4438   -0.3490 C   0  0  0  0  0  0  0  0  0  0  0  0
    0.1303   -1.5713   -0.8648 C   0  0  0  0  0  0  0  0  0  0  0  0
   -1.1818   -1.2670   -1.3193 N   0  0  0  0  0  0  0  0  0  0  0  0
   -1.9292   -0.4036   -0.4479 C   0  0  0  0  0  0  0  0  0  0  0  0
   -1.2046    0.8943   -0.2618 C   0  0  0  0  0  0  0  0  0  0  0  0
    0.2386    0.7862    0.0662 C   0  0  0  0  0  0  0  0  0  0  0  0
    0.9329    1.9965   -0.5764 C   0  0  0  0  0  0  0  0  0  0  0  0
    2.2663    2.0977   -0.1887 O   0  0  0  0  0  0  0  0  0  0  0  0
   -1.8527    1.6852    0.6899 O   0  0  0  0  0  0  0  0  0  0  0  0
   -2.2406   -1.1266    0.8175 C   0  0  0  0  0  0  0  0  0  0  0  0
    2.5761    0.0015    1.3526 O   0  0  0  0  0  0  0  0  0  0  0  0
    1.7811   -0.9982    0.8102 C   0  0  0  0  0  0  0  0  0  0  0  0
    0.9434   -0.4438   -0.3490 C   0  0  0  0  0  0  0  0  0  0  0  0
    0.1303   -1.5713   -0.8648 C   0  0  0  0  0  0  0  0  0  0  0  0
   -1.1818   -1.2670   -1.3193 N   0  0  0  0  0  0  0  0  0  0  0  0
   -1.9292   -0.4036   -0.4479 C   0  0  0  0  0  0  0  0  0  0  0  0
   -1.2046    0.8943   -0.2618 C   0  0  0  0  0  0  0  0  0  0  0  0
    0.2386    0.7862    0.0662 C   0  0  0  0  0  0  0  0  0  0  0  0
    0.9329    1.9965   -0.5764 C   0  0  0  0  0  0  0  0  0  0  0  0
    2.2663    2.0977   -0.1887 O   0  0  0  0  0  0  0  0  0  0  0  0
   -1.8527    1.6852    0.6899 O   0  0  0  0  0  0  0  0  0  0  0  0
   -2.2406   -1.1266    0.8175 C   0  0  0  0  0  0  0  0  0  0  0  0
    3.4987   -0.0400    1.0391 H   0  0  0  0  0  0  0  0  0  0  0  0
    1.1510   -1.4906    1.5611 H   0  0  0  0  0  0  0  0  0  0  0  0
    2.4794   -1.7402    0.3312 H   0  0  0  0  0  0  0  0  0  0  0  0
    1.7144   -0.1851   -1.1288 H   0  0  0  0  0  0  0  0  0  0  0  0
    0.6618   -2.0627   -1.7349 H   0  0  0  0  0  0  0  0  0  0  0  0
    0.0647   -2.3979   -0.1130 H   0  0  0  0  0  0  0  0  0  0  0  0
   -1.2720   -1.0601   -2.3182 H   0  0  0  0  0  0  0  0  0  0  0  0
   -2.8965   -0.1782   -0.9666 H   0  0  0  0  0  0  0  0  0  0  0  0
   -1.3068    1.4566   -1.2287 H   0  0  0  0  0  0  0  0  0  0  0  0
    0.3485    0.9769    1.1757 H   0  0  0  0  0  0  0  0  0  0  0  0
    0.8326    1.9210   -1.6827 H   0  0  0  0  0  0  0  0  0  0  0  0
    0.4350    2.9440   -0.2918 H   0  0  0  0  0  0  0  0  0  0  0  0
    2.2896    2.6404    0.6361 H   0  0  0  0  0  0  0  0  0  0  0  0
   -1.4293    1.6025    1.5822 H   0  0  0  0  0  0  0  0  0  0  0  0
   -1.4113   -1.7794    1.1502 H   0  0  0  0  0  0  0  0  0  0  0  0
   -2.5140   -0.4406    1.6600 H   0  0  0  0  0  0  0  0  0  0  0  0
   -3.1056   -1.8174    0.6008 H   0  0  0  0  0  0  0  0  0  0  0  0
    3.4987   -0.0400    1.0391 H   0  0  0  0  0  0  0  0  0  0  0  0
    1.1510   -1.4906    1.5611 H   0  0  0  0  0  0  0  0  0  0  0  0
    2.4794   -1.7402    0.3312 H   0  0  0  0  0  0  0  0  0  0  0  0
    1.7144   -0.1851   -1.1288 H   0  0  0  0  0  0  0  0  0  0  0  0
    0.6618   -2.0627   -1.7349 H   0  0  0  0  0  0  0  0  0  0  0  0
    0.0647   -2.3979   -0.1130 H   0  0  0  0  0  0  0  0  0  0  0  0
   -1.2720   -1.0601   -2.3182 H   0  0  0  0  0  0  0  0  0  0  0  0
   -2.8965   -0.1782   -0.9666 H   0  0  0  0  0  0  0  0  0  0  0  0
   -1.3068    1.4566   -1.2287 H   0  0  0  0  0  0  0  0  0  0  0  0
    0.3485    0.9769    1.1757 H   0  0  0  0  0  0  0  0  0  0  0  0
    0.8326    1.9210   -1.6827 H   0  0  0  0  0  0  0  0  0  0  0  0
    0.4350    2.9440   -0.2918 H   0  0  0  0  0  0  0  0  0  0  0  0
    2.2896    2.6404    0.6361 H   0  0  0  0  0  0  0  0  0  0  0  0
   -1.4293    1.6025    1.5822 H   0  0  0  0  0  0  0  0  0  0  0  0
   -1.4113   -1.7794    1.1502 H   0  0  0  0  0  0  0  0  0  0  0  0
   -2.5140   -0.4406    1.6600 H   0  0  0  0  0  0  0  0  0  0  0  0
   -3.1056   -1.8174    0.6008 H   0  0  0  0  0  0  0  0  0  0  0  0
  1  2  1  0
  2  3  1  0
  3  4  1  0
  4  5  1  0
  5  6  1  0
  6  7  1  0
  3  8  1  0
  7  8  1  0
  8  9  1  0
  9 10  1  0
  7 11  1  0
  6 12  1  0
 13 14  1  0
 14 15  1  0
 15 16  1  0
 16 17  1  0
 17 18  1  0
 18 19  1  0
 15 20  1  0
 19 20  1  0
 20 21  1  0
 21 22  1  0
 19 23  1  0
 18 24  1  0
  1 25  1  0
  2 26  1  0
  2 27  1  0
  3 28  1  0
  4 29  1  0
  4 30  1  0
  5 31  1  0
  6 32  1  0
  7 33  1  0
  8 34  1  0
  9 35  1  0
  9 36  1  0
 10 37  1  0
 11 38  1  0
 12 39  1  0
 12 40  1  0
 12 41  1  0
 13 42  1  0
 14 43  1  0
 14 44  1  0
 15 45  1  0
 16 46  1  0
 16 47  1  0
 17 48  1  0
 18 49  1  0
 19 50  1  0
 20 51  1  0
 21 52  1  0
 21 53  1  0
 22 54  1  0
 23 55  1  0
 24 56  1  0
 24 57  1  0
 24 58  1  0
M  END
>  <PDBID>  (1) 
3FHX

>  <PDB ID>  (1) 
3FHX

>  <Generic Name>  (1) 
Pyridoxal

>  <Brand Name>  (1) 
nan

>  <DrugBank ID>  (1) 
DB00147

>  <ATC Codes>  (1) 
nan

>  <Ligand ID>  (1) 
PXL

>  <Target Name>  (1) 
Pyridoxal kinase

>  <UniProt ID>  (1) 
O00764

>  <PDB ID.1>  (1) 
3FHX

>  <Seq. Identity>  (1) 
100%

$$$$
