PDB_DB00775_06
     RDKit          3D

 76 77  0  0  0  0  0  0  0  0999 V2000
   -5.4443    0.2677    3.1747 C   0  0  0  0  0  0  0  0  0  0  0  0
   -6.8691   -0.0775    2.9187 C   0  0  0  0  0  0  0  0  0  0  0  0
   -7.1685   -0.5813    1.5538 C   0  0  0  0  0  0  0  0  0  0  0  0
   -6.9779    0.2907    0.3878 C   0  0  0  0  0  0  0  0  0  0  0  0
   -5.5214    0.9377   -0.0570 S   0  0  0  0  0  0  0  0  0  0  0  0
   -5.8364    1.8082   -1.4661 O   0  0  0  0  0  0  0  0  0  0  0  0
   -5.0834    2.2282    0.9903 O   0  0  0  0  0  0  0  0  0  0  0  0
   -4.3280    0.0247   -0.2880 N   0  0  0  0  0  0  0  0  0  0  0  0
   -3.8102   -0.2103   -1.6396 C   0  0  1  0  0  0  0  0  0  0  0  0
   -2.5830   -1.0304   -1.6257 C   0  0  0  0  0  0  0  0  0  0  0  0
   -1.4011   -0.4658   -0.8863 C   0  0  0  0  0  0  0  0  0  0  0  0
   -1.6701   -0.2366    0.5765 C   0  0  0  0  0  0  0  0  0  0  0  0
   -0.3166   -0.0997    1.2767 C   0  0  0  0  0  0  0  0  0  0  0  0
    0.6681    0.5025    0.3151 C   0  0  0  0  0  0  0  0  0  0  0  0
    1.6855    1.0528    1.0635 O   0  0  0  0  0  0  0  0  0  0  0  0
   -0.0465    1.5614   -0.5027 C   0  0  0  0  0  0  0  0  0  0  0  0
   -0.9419    0.8466   -1.4847 C   0  0  0  0  0  0  0  0  0  0  0  0
   -4.8873   -0.9870   -2.3688 C   0  0  0  0  0  0  0  0  0  0  0  0
   -4.4959   -1.2713   -3.6886 O   0  0  0  0  0  0  0  0  0  0  0  0
   -5.0740   -2.2461   -1.7603 O   0  0  0  0  0  0  0  0  0  0  0  0
    2.9128    0.5243    0.6754 C   0  0  0  0  0  0  0  0  0  0  0  0
    3.2765    0.8301   -0.7460 C   0  0  0  0  0  0  0  0  0  0  0  0
    4.6017    0.2083   -1.0962 C   0  0  0  0  0  0  0  0  0  0  0  0
    5.6746    0.7697   -0.2010 C   0  0  0  0  0  0  0  0  0  0  0  0
    6.9876    0.1203   -0.6339 C   0  0  0  0  0  0  0  0  0  0  0  0
    6.8863   -1.3804   -0.4770 C   0  0  0  0  0  0  0  0  0  0  0  0
    8.2417   -1.8982   -0.0480 C   0  0  0  0  0  0  0  0  0  0  0  0
    8.4394   -1.5043    1.3357 N   0  0  0  0  0  0  0  0  0  0  0  0
    8.2943   -0.0737    1.5065 C   0  0  0  0  0  0  0  0  0  0  0  0
    8.1318    0.6311    0.1765 C   0  0  0  0  0  0  0  0  0  0  0  0
   -5.3080    1.3295    3.4784 H   0  0  0  0  0  0  0  0  0  0  0  0
   -5.1277   -0.2964    4.1115 H   0  0  0  0  0  0  0  0  0  0  0  0
   -4.7354   -0.0253    2.4064 H   0  0  0  0  0  0  0  0  0  0  0  0
   -7.4760    0.8495    3.1409 H   0  0  0  0  0  0  0  0  0  0  0  0
   -7.2317   -0.8104    3.7081 H   0  0  0  0  0  0  0  0  0  0  0  0
   -8.2404   -0.9813    1.6001 H   0  0  0  0  0  0  0  0  0  0  0  0
   -6.5681   -1.5377    1.4271 H   0  0  0  0  0  0  0  0  0  0  0  0
   -7.4191   -0.2837   -0.5065 H   0  0  0  0  0  0  0  0  0  0  0  0
   -7.7522    1.1323    0.4787 H   0  0  0  0  0  0  0  0  0  0  0  0
   -5.0004    2.2923   -1.6997 H   0  0  0  0  0  0  0  0  0  0  0  0
   -4.4243    2.8045    0.5120 H   0  0  0  0  0  0  0  0  0  0  0  0
   -4.3777   -0.9291    0.1801 H   0  0  0  0  0  0  0  0  0  0  0  0
   -3.7155    0.7603   -2.1656 H   0  0  0  0  0  0  0  0  0  0  0  0
   -2.2970   -1.3594   -2.6450 H   0  0  0  0  0  0  0  0  0  0  0  0
   -2.8418   -1.9942   -1.0925 H   0  0  0  0  0  0  0  0  0  0  0  0
   -0.5861   -1.2155   -0.9717 H   0  0  0  0  0  0  0  0  0  0  0  0
   -2.2224   -1.0950    1.0335 H   0  0  0  0  0  0  0  0  0  0  0  0
   -2.2564    0.7004    0.6651 H   0  0  0  0  0  0  0  0  0  0  0  0
   -0.0060   -1.0685    1.6791 H   0  0  0  0  0  0  0  0  0  0  0  0
   -0.4829    0.6561    2.0827 H   0  0  0  0  0  0  0  0  0  0  0  0
    1.1004   -0.2390   -0.3780 H   0  0  0  0  0  0  0  0  0  0  0  0
   -0.6273    2.1861    0.2059 H   0  0  0  0  0  0  0  0  0  0  0  0
    0.6960    2.2200   -0.9841 H   0  0  0  0  0  0  0  0  0  0  0  0
   -1.8430    1.4981   -1.6200 H   0  0  0  0  0  0  0  0  0  0  0  0
   -0.3783    0.7080   -2.4252 H   0  0  0  0  0  0  0  0  0  0  0  0
   -5.8668   -0.4752   -2.3267 H   0  0  0  0  0  0  0  0  0  0  0  0
   -4.3974   -0.3801   -4.1326 H   0  0  0  0  0  0  0  0  0  0  0  0
   -5.7760   -2.7166   -2.2358 H   0  0  0  0  0  0  0  0  0  0  0  0
    2.9232   -0.5964    0.7767 H   0  0  0  0  0  0  0  0  0  0  0  0
    3.7136    0.8721    1.3927 H   0  0  0  0  0  0  0  0  0  0  0  0
    3.3521    1.9481   -0.8736 H   0  0  0  0  0  0  0  0  0  0  0  0
    2.5510    0.4730   -1.4981 H   0  0  0  0  0  0  0  0  0  0  0  0
    4.5484   -0.9144   -0.9660 H   0  0  0  0  0  0  0  0  0  0  0  0
    4.8473    0.3403   -2.1714 H   0  0  0  0  0  0  0  0  0  0  0  0
    5.7086    1.8525   -0.3155 H   0  0  0  0  0  0  0  0  0  0  0  0
    5.5317    0.4341    0.8673 H   0  0  0  0  0  0  0  0  0  0  0  0
    7.1841    0.3287   -1.7163 H   0  0  0  0  0  0  0  0  0  0  0  0
    6.1531   -1.6408    0.3297 H   0  0  0  0  0  0  0  0  0  0  0  0
    6.5984   -1.8377   -1.4536 H   0  0  0  0  0  0  0  0  0  0  0  0
    9.0254   -1.4708   -0.7154 H   0  0  0  0  0  0  0  0  0  0  0  0
    8.2532   -2.9778   -0.1881 H   0  0  0  0  0  0  0  0  0  0  0  0
    7.6354   -1.9425    1.8690 H   0  0  0  0  0  0  0  0  0  0  0  0
    7.4826    0.2063    2.1991 H   0  0  0  0  0  0  0  0  0  0  0  0
    9.2574    0.2920    1.9360 H   0  0  0  0  0  0  0  0  0  0  0  0
    9.1011    0.6053   -0.3830 H   0  0  0  0  0  0  0  0  0  0  0  0
    7.9501    1.7024    0.4026 H   0  0  0  0  0  0  0  0  0  0  0  0
  1  2  1  0
  2  3  1  0
  3  4  1  0
  4  5  1  0
  5  6  1  0
  5  7  1  0
  5  8  1  0
  8  9  1  0
  9 10  1  0
 10 11  1  0
 11 12  1  0
 12 13  1  0
 13 14  1  0
 14 15  1  0
 14 16  1  0
 11 17  1  0
 16 17  1  0
  9 18  1  0
 18 19  1  0
 18 20  1  0
 15 21  1  0
 21 22  1  0
 22 23  1  0
 23 24  1  0
 24 25  1  0
 25 26  1  0
 26 27  1  0
 27 28  1  0
 28 29  1  0
 25 30  1  0
 29 30  1  0
  1 31  1  0
  1 32  1  0
  1 33  1  0
  2 34  1  0
  2 35  1  0
  3 36  1  0
  3 37  1  0
  4 38  1  0
  4 39  1  0
  6 40  1  0
  7 41  1  0
  8 42  1  0
  9 43  1  6
 10 44  1  0
 10 45  1  0
 11 46  1  0
 12 47  1  0
 12 48  1  0
 13 49  1  0
 13 50  1  0
 14 51  1  0
 16 52  1  0
 16 53  1  0
 17 54  1  0
 17 55  1  0
 18 56  1  0
 19 57  1  0
 20 58  1  0
 21 59  1  0
 21 60  1  0
 22 61  1  0
 22 62  1  0
 23 63  1  0
 23 64  1  0
 24 65  1  0
 24 66  1  0
 25 67  1  0
 26 68  1  0
 26 69  1  0
 27 70  1  0
 27 71  1  0
 28 72  1  0
 29 73  1  0
 29 74  1  0
 30 75  1  0
 30 76  1  0
M  END
>  <PDBID>  (1) 
2VDM

>  <PDB ID>  (1) 
2VDM

>  <Generic Name>  (1) 
Tirofiban

>  <Brand Name>  (1) 
Aggrastat#Aggribloc#Agrastat

>  <DrugBank ID>  (1) 
DB00775

>  <ATC Codes>  (1) 
B01AC17

>  <Ligand ID>  (1) 
AGG

>  <Target Name>  (1) 
Integrin alpha-IIb

>  <UniProt ID>  (1) 
P08514

>  <PDB ID.1>  (1) 
2VDM

>  <Seq. Identity>  (1) 
100%

$$$$
