PDB_DB01261_08
     RDKit          3D

110114  0  0  0  0  0  0  0  0999 V2000
   -5.9093   -0.5442    0.6948 C   0  0  0  0  0  0  0  0  0  0  0  0
   -4.4320   -0.8249    0.4065 C   0  0  0  0  0  0  0  0  0  0  0  0
   -3.8729    0.4266   -0.1831 C   0  0  0  0  0  0  0  0  0  0  0  0
   -3.7956    1.4520    0.9254 C   0  0  0  0  0  0  0  0  0  0  0  0
   -5.2431    1.8184    1.2460 C   0  0  0  0  0  0  0  0  0  0  0  0
   -6.0688    0.6333    1.6237 C   0  0  0  0  0  0  0  0  0  0  0  0
   -5.7667    2.3415    0.0682 F   0  0  0  0  0  0  0  0  0  0  0  0
   -3.8499   -1.0151    1.6536 F   0  0  0  0  0  0  0  0  0  0  0  0
   -2.6244    0.2762   -0.9635 C   0  0  0  0  0  0  0  0  0  0  0  0
   -1.4597   -0.2806   -0.1916 C   0  0  2  0  0  0  0  0  0  0  0  0
   -0.2704   -0.3621   -1.1514 C   0  0  0  0  0  0  0  0  0  0  0  0
    0.9459   -0.9042   -0.4843 C   0  0  1  0  0  0  0  0  0  0  0  0
    2.0417   -0.9795   -1.3846 N   0  0  0  0  0  0  0  0  0  0  0  0
   -1.7771   -1.6512    0.1651 N   0  0  0  0  0  0  0  0  0  0  0  0
    1.3207   -0.0278    0.5569 O   0  0  0  0  0  0  0  0  0  0  0  0
    2.5233    0.2413   -1.9288 C   0  0  0  0  0  0  0  0  0  0  0  0
    3.3586    1.0425   -0.9520 C   0  0  0  0  0  0  0  0  0  0  0  0
    4.0412    0.1503   -0.0330 N   0  0  0  0  0  0  0  0  0  0  0  0
    4.3609   -1.0505   -0.8228 C   0  0  0  0  0  0  0  0  0  0  0  0
    3.1075   -1.8521   -0.9174 C   0  0  0  0  0  0  0  0  0  0  0  0
    5.3719    0.6161    0.2924 C   0  0  0  0  0  0  0  0  0  0  0  0
    6.2209   -0.5607    0.2757 N   0  0  0  0  0  0  0  0  0  0  0  0
    5.3719   -1.6561    0.0201 N   0  0  0  0  0  0  0  0  0  0  0  0
    5.3603    1.1679    1.7123 C   0  0  0  0  0  0  0  0  0  0  0  0
    4.4550    2.2260    1.7930 F   0  0  0  0  0  0  0  0  0  0  0  0
    6.5862    1.6779    2.0639 F   0  0  0  0  0  0  0  0  0  0  0  0
    5.0128    0.1891    2.6023 F   0  0  0  0  0  0  0  0  0  0  0  0
   -5.8601    0.2565    2.9516 F   0  0  0  0  0  0  0  0  0  0  0  0
   -5.5714   -0.3609    0.9617 C   0  0  0  0  0  0  0  0  0  0  0  0
   -4.2230   -0.7630    0.3988 C   0  0  0  0  0  0  0  0  0  0  0  0
   -3.6558    0.4626   -0.2542 C   0  0  0  0  0  0  0  0  0  0  0  0
   -3.2519    1.3981    0.8603 C   0  0  0  0  0  0  0  0  0  0  0  0
   -4.5530    1.8935    1.4848 C   0  0  0  0  0  0  0  0  0  0  0  0
   -5.4854    0.8083    1.8875 C   0  0  0  0  0  0  0  0  0  0  0  0
   -5.1798    2.6672    0.5133 F   0  0  0  0  0  0  0  0  0  0  0  0
   -3.4276   -1.0796    1.4887 F   0  0  0  0  0  0  0  0  0  0  0  0
   -2.6271    0.2227   -1.2890 C   0  0  0  0  0  0  0  0  0  0  0  0
   -1.4004   -0.5009   -0.8081 C   0  0  2  0  0  0  0  0  0  0  0  0
   -0.4081   -0.6996   -1.9408 C   0  0  0  0  0  0  0  0  0  0  0  0
    0.8207   -1.4220   -1.4571 C   0  0  0  0  0  0  0  0  0  0  0  0
    1.5032   -0.6696   -0.3923 N   0  0  0  0  0  0  0  0  0  0  0  0
   -1.8446   -1.8606   -0.4561 N   0  0  0  0  0  0  0  0  0  0  0  0
    1.7308   -1.5916   -2.4948 O   0  0  0  0  0  0  0  0  0  0  0  0
    1.9185    0.5693   -0.9945 C   0  0  0  0  0  0  0  0  0  0  0  0
    2.9263    1.3482   -0.2101 C   0  0  0  0  0  0  0  0  0  0  0  0
    3.8176    0.4824    0.4879 N   0  0  0  0  0  0  0  0  0  0  0  0
    3.8780   -0.7816   -0.2605 C   0  0  0  0  0  0  0  0  0  0  0  0
    2.6073   -1.5021    0.0515 C   0  0  0  0  0  0  0  0  0  0  0  0
    5.1988    0.9032    0.4342 C   0  0  0  0  0  0  0  0  0  0  0  0
    5.9747   -0.3080    0.2376 N   0  0  0  0  0  0  0  0  0  0  0  0
    5.0536   -1.3794    0.3316 N   0  0  0  0  0  0  0  0  0  0  0  0
    5.5444    1.4101    1.8413 C   0  0  0  0  0  0  0  0  0  0  0  0
    4.7407    2.4616    2.2036 F   0  0  0  0  0  0  0  0  0  0  0  0
    6.8679    1.8379    1.8985 F   0  0  0  0  0  0  0  0  0  0  0  0
    5.4228    0.3886    2.7598 F   0  0  0  0  0  0  0  0  0  0  0  0
   -5.2650    0.3846    3.2052 F   0  0  0  0  0  0  0  0  0  0  0  0
   -6.3745   -0.3348   -0.2735 H   0  0  0  0  0  0  0  0  0  0  0  0
   -6.4073   -1.4157    1.1631 H   0  0  0  0  0  0  0  0  0  0  0  0
   -4.3777   -1.7092   -0.2349 H   0  0  0  0  0  0  0  0  0  0  0  0
   -4.6559    0.8199   -0.8964 H   0  0  0  0  0  0  0  0  0  0  0  0
   -3.4121    0.9241    1.8233 H   0  0  0  0  0  0  0  0  0  0  0  0
   -3.2536    2.3561    0.6589 H   0  0  0  0  0  0  0  0  0  0  0  0
   -5.3019    2.5552    2.0570 H   0  0  0  0  0  0  0  0  0  0  0  0
   -7.1384    0.9405    1.5652 H   0  0  0  0  0  0  0  0  0  0  0  0
   -2.8495   -0.3164   -1.8730 H   0  0  0  0  0  0  0  0  0  0  0  0
   -2.3558    1.3009   -1.3497 H   0  0  0  0  0  0  0  0  0  0  0  0
   -1.2215    0.2793    0.7077 H   0  0  0  0  0  0  0  0  0  0  0  0
   -0.1157    0.6428   -1.5521 H   0  0  0  0  0  0  0  0  0  0  0  0
   -0.5115   -1.0227   -2.0088 H   0  0  0  0  0  0  0  0  0  0  0  0
    0.7769   -1.9071   -0.0408 H   0  0  0  0  0  0  0  0  0  0  0  0
   -1.0784   -2.0931    0.7805 H   0  0  0  0  0  0  0  0  0  0  0  0
   -1.7969   -2.1930   -0.7286 H   0  0  0  0  0  0  0  0  0  0  0  0
    0.7588    0.7630    0.5450 H   0  0  0  0  0  0  0  0  0  0  0  0
    1.7143    0.8544   -2.3077 H   0  0  0  0  0  0  0  0  0  0  0  0
    3.2104    0.0027   -2.7933 H   0  0  0  0  0  0  0  0  0  0  0  0
    2.7361    1.7765   -0.4226 H   0  0  0  0  0  0  0  0  0  0  0  0
    4.1340    1.6030   -1.5115 H   0  0  0  0  0  0  0  0  0  0  0  0
    4.8063   -0.7923   -1.7948 H   0  0  0  0  0  0  0  0  0  0  0  0
    2.8573   -2.2172    0.1090 H   0  0  0  0  0  0  0  0  0  0  0  0
    3.2570   -2.6909   -1.6363 H   0  0  0  0  0  0  0  0  0  0  0  0
    5.6975    1.3881   -0.4163 H   0  0  0  0  0  0  0  0  0  0  0  0
    6.8543   -0.4661   -0.5586 H   0  0  0  0  0  0  0  0  0  0  0  0
    4.8990   -1.8545    0.9505 H   0  0  0  0  0  0  0  0  0  0  0  0
   -6.2651   -0.1671    0.1221 H   0  0  0  0  0  0  0  0  0  0  0  0
   -6.0378   -1.2104    1.5362 H   0  0  0  0  0  0  0  0  0  0  0  0
   -4.3807   -1.5989   -0.2874 H   0  0  0  0  0  0  0  0  0  0  0  0
   -4.5295    0.9740   -0.7578 H   0  0  0  0  0  0  0  0  0  0  0  0
   -2.6821    0.8274    1.6160 H   0  0  0  0  0  0  0  0  0  0  0  0
   -2.7280    2.3067    0.5001 H   0  0  0  0  0  0  0  0  0  0  0  0
   -4.3413    2.5135    2.3929 H   0  0  0  0  0  0  0  0  0  0  0  0
   -6.5203    1.2623    1.9214 H   0  0  0  0  0  0  0  0  0  0  0  0
   -3.1067   -0.3018   -2.1398 H   0  0  0  0  0  0  0  0  0  0  0  0
   -2.2928    1.2076   -1.6962 H   0  0  0  0  0  0  0  0  0  0  0  0
   -0.9656   -0.0731    0.0919 H   0  0  0  0  0  0  0  0  0  0  0  0
   -0.1071    0.2197   -2.4366 H   0  0  0  0  0  0  0  0  0  0  0  0
   -0.9301   -1.3988   -2.6566 H   0  0  0  0  0  0  0  0  0  0  0  0
    0.5083   -2.3944   -1.0456 H   0  0  0  0  0  0  0  0  0  0  0  0
   -1.1650   -2.3642    0.1179 H   0  0  0  0  0  0  0  0  0  0  0  0
   -2.2439   -2.3505   -1.2610 H   0  0  0  0  0  0  0  0  0  0  0  0
    1.7882   -2.5320   -2.7899 H   0  0  0  0  0  0  0  0  0  0  0  0
    1.0045    1.2127   -1.0540 H   0  0  0  0  0  0  0  0  0  0  0  0
    2.2192    0.3975   -2.0541 H   0  0  0  0  0  0  0  0  0  0  0  0
    2.4152    2.0012    0.5387 H   0  0  0  0  0  0  0  0  0  0  0  0
    3.4400    2.0314   -0.9224 H   0  0  0  0  0  0  0  0  0  0  0  0
    4.0678   -0.6276   -1.3232 H   0  0  0  0  0  0  0  0  0  0  0  0
    2.5606   -2.5321   -0.3543 H   0  0  0  0  0  0  0  0  0  0  0  0
    2.5299   -1.5479    1.1770 H   0  0  0  0  0  0  0  0  0  0  0  0
    5.4081    1.6749   -0.3153 H   0  0  0  0  0  0  0  0  0  0  0  0
    6.3417   -0.3093   -0.7550 H   0  0  0  0  0  0  0  0  0  0  0  0
    4.9003   -1.5401    1.3464 H   0  0  0  0  0  0  0  0  0  0  0  0
  1  2  1  0
  2  3  1  0
  3  4  1  0
  4  5  1  0
  1  6  1  0
  5  6  1  0
  5  7  1  0
  2  8  1  0
  3  9  1  0
  9 10  1  0
 10 11  1  0
 11 12  1  0
 12 13  1  0
 10 14  1  0
 12 15  1  0
 13 16  1  0
 16 17  1  0
 17 18  1  0
 18 19  1  0
 13 20  1  0
 19 20  1  0
 18 21  1  0
 21 22  1  0
 19 23  1  0
 22 23  1  0
 21 24  1  0
 24 25  1  0
 24 26  1  0
 24 27  1  0
  6 28  1  0
 29 30  1  0
 30 31  1  0
 31 32  1  0
 32 33  1  0
 29 34  1  0
 33 34  1  0
 33 35  1  0
 30 36  1  0
 31 37  1  0
 37 38  1  0
 38 39  1  0
 39 40  1  0
 40 41  1  0
 38 42  1  0
 40 43  1  0
 41 44  1  0
 44 45  1  0
 45 46  1  0
 46 47  1  0
 41 48  1  0
 47 48  1  0
 46 49  1  0
 49 50  1  0
 47 51  1  0
 50 51  1  0
 49 52  1  0
 52 53  1  0
 52 54  1  0
 52 55  1  0
 34 56  1  0
  1 57  1  0
  1 58  1  0
  2 59  1  0
  3 60  1  0
  4 61  1  0
  4 62  1  0
  5 63  1  0
  6 64  1  0
  9 65  1  0
  9 66  1  0
 10 67  1  1
 11 68  1  0
 11 69  1  0
 12 70  1  1
 14 71  1  0
 14 72  1  0
 15 73  1  0
 16 74  1  0
 16 75  1  0
 17 76  1  0
 17 77  1  0
 19 78  1  0
 20 79  1  0
 20 80  1  0
 21 81  1  0
 22 82  1  0
 23 83  1  0
 29 84  1  0
 29 85  1  0
 30 86  1  0
 31 87  1  0
 32 88  1  0
 32 89  1  0
 33 90  1  0
 34 91  1  0
 37 92  1  0
 37 93  1  0
 38 94  1  1
 39 95  1  0
 39 96  1  0
 40 97  1  0
 42 98  1  0
 42 99  1  0
 43100  1  0
 44101  1  0
 44102  1  0
 45103  1  0
 45104  1  0
 47105  1  0
 48106  1  0
 48107  1  0
 49108  1  0
 50109  1  0
 51110  1  0
M  END
>  <PDBID>  (1) 
1X70

>  <PDB ID>  (1) 
1X70

>  <Generic Name>  (1) 
Sitagliptin

>  <Brand Name>  (1) 
Janumet#Janumet XR#Januvia#Xelevia

>  <DrugBank ID>  (1) 
DB01261

>  <ATC Codes>  (1) 
A10BD12#A10BH51#A10BH01#A10BD07

>  <Ligand ID>  (1) 
715

>  <Target Name>  (1) 
Dipeptidyl peptidase 4

>  <UniProt ID>  (1) 
P27487

>  <PDB ID.1>  (1) 
1X70

>  <Seq. Identity>  (1) 
100%

$$$$
