PDB_DB00866_00
     RDKit          3D

 49 49  0  0  0  0  0  0  0  0999 V2000
    5.4797    1.3415    0.1530 C   0  0  0  0  0  0  0  0  0  0  0  0
    3.2038    0.6720   -0.6186 N   0  0  0  0  0  0  0  0  0  0  0  0
    0.4915    0.9444    1.7070 O   0  0  0  0  0  0  0  0  0  0  0  0
    4.5891    0.3839   -0.5532 C   0  0  0  0  0  0  0  0  0  0  0  0
   -0.5815   -0.9285   -0.3140 O   0  0  0  0  0  0  0  0  0  0  0  0
    5.1240    0.2737   -1.9851 C   0  0  0  0  0  0  0  0  0  0  0  0
    2.5545    0.7481    0.6658 C   0  0  0  0  0  0  0  0  0  0  0  0
    1.0166    0.8297    0.4167 C   0  0  1  0  0  0  0  0  0  0  0  0
    0.6589   -0.5228   -0.1202 C   0  0  0  0  0  0  0  0  0  0  0  0
   -1.5524   -0.9814    0.6402 C   0  0  0  0  0  0  0  0  0  0  0  0
   -1.5378   -2.4389    1.2257 C   0  0  0  0  0  0  0  0  0  0  0  0
   -2.8829   -3.0444    1.0075 C   0  0  0  0  0  0  0  0  0  0  0  0
   -3.1581   -3.0200   -0.4990 C   0  0  0  0  0  0  0  0  0  0  0  0
   -3.4726   -1.5859   -0.8470 C   0  0  0  0  0  0  0  0  0  0  0  0
   -2.9076   -0.6234    0.1893 C   0  0  0  0  0  0  0  0  0  0  0  0
   -3.0935    0.7393   -0.3661 C   0  0  0  0  0  0  0  0  0  0  0  0
   -2.8253    1.8962    0.5187 C   0  0  0  0  0  0  0  0  0  0  0  0
   -3.0953    3.1589   -0.3174 C   0  0  0  0  0  0  0  0  0  0  0  0
    5.2600    1.4789    1.2406 H   0  0  0  0  0  0  0  0  0  0  0  0
    6.5073    0.8545    0.1524 H   0  0  0  0  0  0  0  0  0  0  0  0
    5.6193    2.2871   -0.3887 H   0  0  0  0  0  0  0  0  0  0  0  0
    2.9593    1.4789   -1.2380 H   0  0  0  0  0  0  0  0  0  0  0  0
    1.0446    1.5866    2.2442 H   0  0  0  0  0  0  0  0  0  0  0  0
    4.7705   -0.6240   -0.1064 H   0  0  0  0  0  0  0  0  0  0  0  0
    5.2577    1.3079   -2.3329 H   0  0  0  0  0  0  0  0  0  0  0  0
    4.4843   -0.3392   -2.6237 H   0  0  0  0  0  0  0  0  0  0  0  0
    6.1559   -0.1803   -1.9791 H   0  0  0  0  0  0  0  0  0  0  0  0
    2.8074    1.7225    1.1282 H   0  0  0  0  0  0  0  0  0  0  0  0
    2.7889   -0.0698    1.3410 H   0  0  0  0  0  0  0  0  0  0  0  0
    0.8070    1.6689   -0.2408 H   0  0  0  0  0  0  0  0  0  0  0  0
    1.1694   -0.5464   -1.1563 H   0  0  0  0  0  0  0  0  0  0  0  0
    1.2684   -1.2461    0.5322 H   0  0  0  0  0  0  0  0  0  0  0  0
   -1.2493   -0.4125    1.5305 H   0  0  0  0  0  0  0  0  0  0  0  0
   -1.3091   -2.4358    2.2913 H   0  0  0  0  0  0  0  0  0  0  0  0
   -0.7983   -3.0458    0.6336 H   0  0  0  0  0  0  0  0  0  0  0  0
   -2.7897   -4.1545    1.2352 H   0  0  0  0  0  0  0  0  0  0  0  0
   -3.7082   -2.6172    1.5750 H   0  0  0  0  0  0  0  0  0  0  0  0
   -2.1863   -3.2629   -0.9861 H   0  0  0  0  0  0  0  0  0  0  0  0
   -3.9182   -3.7393   -0.7961 H   0  0  0  0  0  0  0  0  0  0  0  0
   -4.5756   -1.4891   -0.8058 H   0  0  0  0  0  0  0  0  0  0  0  0
   -3.1371   -1.2639   -1.8345 H   0  0  0  0  0  0  0  0  0  0  0  0
   -3.6299   -0.7072    1.0669 H   0  0  0  0  0  0  0  0  0  0  0  0
   -2.4704    0.8495   -1.2974 H   0  0  0  0  0  0  0  0  0  0  0  0
   -4.1742    0.8146   -0.7031 H   0  0  0  0  0  0  0  0  0  0  0  0
   -3.6278    1.9422    1.3159 H   0  0  0  0  0  0  0  0  0  0  0  0
   -1.8578    1.9395    1.0007 H   0  0  0  0  0  0  0  0  0  0  0  0
   -2.1217    3.6325   -0.5555 H   0  0  0  0  0  0  0  0  0  0  0  0
   -3.5520    2.8878   -1.3150 H   0  0  0  0  0  0  0  0  0  0  0  0
   -3.8053    3.8403    0.1682 H   0  0  0  0  0  0  0  0  0  0  0  0
  1  4  1  0
  2  4  1  0
  4  6  1  0
  2  7  1  0
  3  8  1  0
  7  8  1  0
  5  9  1  0
  8  9  1  0
  5 10  1  0
 10 11  1  0
 11 12  1  0
 12 13  1  0
 13 14  1  0
 10 15  1  0
 14 15  1  0
 15 16  1  0
 16 17  1  0
 17 18  1  0
  1 19  1  0
  1 20  1  0
  1 21  1  0
  2 22  1  0
  3 23  1  0
  4 24  1  0
  6 25  1  0
  6 26  1  0
  6 27  1  0
  7 28  1  0
  7 29  1  0
  8 30  1  6
  9 31  1  0
  9 32  1  0
 10 33  1  0
 11 34  1  0
 11 35  1  0
 12 36  1  0
 12 37  1  0
 13 38  1  0
 13 39  1  0
 14 40  1  0
 14 41  1  0
 15 42  1  0
 16 43  1  0
 16 44  1  0
 17 45  1  0
 17 46  1  0
 18 47  1  0
 18 48  1  0
 18 49  1  0
M  END
>  <PDBID>  (1) 
3NYA

>  <PDB ID>  (1) 
3NYA

>  <Generic Name>  (1) 
Alprenolol

>  <Brand Name>  (1) 
Apllobal#Aptin#Aptine#Aptol Duriles#Atenenol#Elp#Gubernal#Regletin#Skajilol#Yobir

>  <DrugBank ID>  (1) 
DB00866

>  <ATC Codes>  (1) 
C07AA01

>  <Ligand ID>  (1) 
JTZ

>  <Target Name>  (1) 
Beta-1 adrenergic receptor

>  <UniProt ID>  (1) 
P08588

>  <PDB ID.1>  (1) 
3NYA

>  <Seq. Identity>  (1) 
67%

$$$$
