PDB_DB01409_09
     RDKit          3D

116124  0  0  0  0  0  0  0  0999 V2000
   -0.9344    0.4249   -0.7812 C   0  0  2  0  0  0  0  0  0  0  0  0
   -1.3363   -0.0699   -2.0182 O   0  0  0  0  0  0  0  0  0  0  0  0
   -3.2363    1.0697   -0.0508 C   0  0  0  0  0  0  0  0  0  0  0  0
   -2.4033   -1.1010    0.6060 C   0  0  0  0  0  0  0  0  0  0  0  0
   -3.0696    2.5146   -0.1610 C   0  0  0  0  0  0  0  0  0  0  0  0
   -3.8843    3.2923    0.7536 C   0  0  0  0  0  0  0  0  0  0  0  0
   -5.0594    2.5706    1.2647 C   0  0  0  0  0  0  0  0  0  0  0  0
   -2.9664   -1.9387   -0.5167 C   0  0  0  0  0  0  0  0  0  0  0  0
   -3.0455   -3.3500    0.0566 C   0  0  0  0  0  0  0  0  0  0  0  0
   -1.5947   -3.7503    0.3629 C   0  0  0  0  0  0  0  0  0  0  0  0
    3.8514   -2.4725    0.2419 O   0  0  0  0  0  0  0  0  0  0  0  0
    0.2620   -0.2231   -0.4716 O   0  0  0  0  0  0  0  0  0  0  0  0
   -1.4824    0.8355    1.4543 O   0  0  0  0  0  0  0  0  0  0  0  0
   -4.4484    0.8380    1.2798 S   0  0  0  0  0  0  0  0  0  0  0  0
   -0.9946   -2.1746    1.0990 S   0  0  0  0  0  0  0  0  0  0  0  0
    4.2439    1.5506   -0.0959 C   0  0  0  0  0  0  0  0  0  0  0  0
    3.5122   -0.4560   -1.1901 C   0  0  2  0  0  0  0  0  0  0  0  0
    2.2766    0.2692   -1.6220 C   0  0  0  0  0  0  0  0  0  0  0  0
    1.3459    0.6528   -0.5120 C   0  0  2  0  0  0  0  0  0  0  0  0
    1.9650    0.7045    0.8502 C   0  0  0  0  0  0  0  0  0  0  0  0
    3.1538   -0.1876    1.0076 C   0  0  1  0  0  0  0  0  0  0  0  0
    2.7946   -1.6077    0.7149 C   0  0  1  0  0  0  0  0  0  0  0  0
    3.0727   -1.8521   -0.7299 C   0  0  2  0  0  0  0  0  0  0  0  0
    5.4083   -0.4590    0.2137 C   0  0  0  0  0  0  0  0  0  0  0  0
   -1.9928    0.2749    0.2483 C   0  0  0  0  0  0  0  0  0  0  0  0
    4.1162    0.1240   -0.0169 N   0  0  0  0  0  0  0  0  0  0  0  0
   -0.7445    0.6907    1.2345 C   0  0  1  0  0  0  0  0  0  0  0  0
   -0.8632    1.3687    2.4784 O   0  0  0  0  0  0  0  0  0  0  0  0
   -3.1066    1.0472    1.0349 C   0  0  0  0  0  0  0  0  0  0  0  0
   -1.9503   -0.7499   -0.3158 C   0  0  0  0  0  0  0  0  0  0  0  0
   -3.0119    2.2651    0.1812 C   0  0  0  0  0  0  0  0  0  0  0  0
   -4.3082    3.0198    0.3725 C   0  0  0  0  0  0  0  0  0  0  0  0
   -5.4407    2.0815    0.0011 C   0  0  0  0  0  0  0  0  0  0  0  0
   -3.1648   -1.4798   -0.8117 C   0  0  0  0  0  0  0  0  0  0  0  0
   -2.6033   -2.1620   -2.0736 C   0  0  0  0  0  0  0  0  0  0  0  0
   -2.2767   -1.0075   -3.0340 C   0  0  0  0  0  0  0  0  0  0  0  0
    4.8881   -2.3573    1.0035 O   0  0  0  0  0  0  0  0  0  0  0  0
    0.2462   -0.2554    1.4131 O   0  0  0  0  0  0  0  0  0  0  0  0
   -2.2639   -0.8818    1.9743 O   0  0  0  0  0  0  0  0  0  0  0  0
   -4.8121    0.5274    0.7633 S   0  0  0  0  0  0  0  0  0  0  0  0
   -1.5015    0.1489   -1.8282 S   0  0  0  0  0  0  0  0  0  0  0  0
    3.5612    0.8800   -1.0740 C   0  0  0  0  0  0  0  0  0  0  0  0
    3.1322   -1.4250   -0.5139 C   0  0  2  0  0  0  0  0  0  0  0  0
    1.6756   -1.1326   -0.3092 C   0  0  0  0  0  0  0  0  0  0  0  0
    1.3547   -0.0130    0.6043 C   0  0  2  0  0  0  0  0  0  0  0  0
    2.4781    0.3520    1.5476 C   0  0  0  0  0  0  0  0  0  0  0  0
    3.8322   -0.0816    1.1200 C   0  0  1  0  0  0  0  0  0  0  0  0
    4.0339   -1.5027    1.6546 C   0  0  1  0  0  0  0  0  0  0  0  0
    3.5899   -2.4050    0.5118 C   0  0  2  0  0  0  0  0  0  0  0  0
    5.3279   -0.5753   -0.6421 C   0  0  0  0  0  0  0  0  0  0  0  0
   -2.0661    0.0286    0.8948 C   0  0  0  0  0  0  0  0  0  0  0  0
    3.9721   -0.2615   -0.3032 N   0  0  0  0  0  0  0  0  0  0  0  0
   -0.7263    1.5198   -0.9875 H   0  0  0  0  0  0  0  0  0  0  0  0
   -0.6623   -0.6461   -2.4558 H   0  0  0  0  0  0  0  0  0  0  0  0
   -3.7225    0.6489   -0.9794 H   0  0  0  0  0  0  0  0  0  0  0  0
   -3.1187   -1.1272    1.4600 H   0  0  0  0  0  0  0  0  0  0  0  0
   -3.2559    2.8399   -1.2268 H   0  0  0  0  0  0  0  0  0  0  0  0
   -1.9826    2.7794    0.0019 H   0  0  0  0  0  0  0  0  0  0  0  0
   -4.2444    4.2340    0.2438 H   0  0  0  0  0  0  0  0  0  0  0  0
   -3.2991    3.6823    1.6374 H   0  0  0  0  0  0  0  0  0  0  0  0
   -5.9354    2.5823    0.5860 H   0  0  0  0  0  0  0  0  0  0  0  0
   -5.3345    2.9052    2.2787 H   0  0  0  0  0  0  0  0  0  0  0  0
   -3.9920   -1.6295   -0.7206 H   0  0  0  0  0  0  0  0  0  0  0  0
   -2.3165   -2.0116   -1.3850 H   0  0  0  0  0  0  0  0  0  0  0  0
   -3.4920   -3.9779   -0.7134 H   0  0  0  0  0  0  0  0  0  0  0  0
   -3.5841   -3.3824    1.0095 H   0  0  0  0  0  0  0  0  0  0  0  0
   -1.5858   -4.5640    1.0886 H   0  0  0  0  0  0  0  0  0  0  0  0
   -1.0971   -3.9517   -0.5877 H   0  0  0  0  0  0  0  0  0  0  0  0
   -2.2042    1.2229    1.9889 H   0  0  0  0  0  0  0  0  0  0  0  0
    5.2102    1.8785   -0.5490 H   0  0  0  0  0  0  0  0  0  0  0  0
    3.4183    2.0232   -0.6517 H   0  0  0  0  0  0  0  0  0  0  0  0
    4.2450    1.9434    0.9528 H   0  0  0  0  0  0  0  0  0  0  0  0
    4.1914   -0.5214   -2.0464 H   0  0  0  0  0  0  0  0  0  0  0  0
    1.7183   -0.4540   -2.2878 H   0  0  0  0  0  0  0  0  0  0  0  0
    2.5069    1.1187   -2.3179 H   0  0  0  0  0  0  0  0  0  0  0  0
    0.9917    1.6980   -0.7779 H   0  0  0  0  0  0  0  0  0  0  0  0
    1.2033    0.3302    1.5954 H   0  0  0  0  0  0  0  0  0  0  0  0
    2.1633    1.7475    1.1868 H   0  0  0  0  0  0  0  0  0  0  0  0
    3.5685   -0.0513    2.0283 H   0  0  0  0  0  0  0  0  0  0  0  0
    1.9902   -2.1155    1.2638 H   0  0  0  0  0  0  0  0  0  0  0  0
    2.4032   -2.4208   -1.3750 H   0  0  0  0  0  0  0  0  0  0  0  0
    6.2113    0.3315    0.2263 H   0  0  0  0  0  0  0  0  0  0  0  0
    5.6917   -1.1717   -0.5877 H   0  0  0  0  0  0  0  0  0  0  0  0
    5.4861   -0.9398    1.2283 H   0  0  0  0  0  0  0  0  0  0  0  0
   -0.4096    1.3989    0.4552 H   0  0  0  0  0  0  0  0  0  0  0  0
   -0.4229    2.2433    2.4504 H   0  0  0  0  0  0  0  0  0  0  0  0
   -3.0735    1.4185    2.1046 H   0  0  0  0  0  0  0  0  0  0  0  0
   -1.1656   -1.5521   -0.1814 H   0  0  0  0  0  0  0  0  0  0  0  0
   -2.7662    2.1138   -0.8663 H   0  0  0  0  0  0  0  0  0  0  0  0
   -2.2200    2.9203    0.6258 H   0  0  0  0  0  0  0  0  0  0  0  0
   -4.3012    3.8928   -0.2991 H   0  0  0  0  0  0  0  0  0  0  0  0
   -4.3867    3.3888    1.3998 H   0  0  0  0  0  0  0  0  0  0  0  0
   -5.5418    1.9864   -1.0790 H   0  0  0  0  0  0  0  0  0  0  0  0
   -6.3374    2.3879    0.5406 H   0  0  0  0  0  0  0  0  0  0  0  0
   -3.5167   -2.2861   -0.1722 H   0  0  0  0  0  0  0  0  0  0  0  0
   -3.9594   -0.8135   -1.2117 H   0  0  0  0  0  0  0  0  0  0  0  0
   -3.3180   -2.8588   -2.5069 H   0  0  0  0  0  0  0  0  0  0  0  0
   -1.6205   -2.6205   -1.8290 H   0  0  0  0  0  0  0  0  0  0  0  0
   -1.4809   -1.3039   -3.7312 H   0  0  0  0  0  0  0  0  0  0  0  0
   -3.1680   -0.5807   -3.4854 H   0  0  0  0  0  0  0  0  0  0  0  0
   -2.7646   -0.4784    2.7000 H   0  0  0  0  0  0  0  0  0  0  0  0
    4.3998    1.2631   -1.7271 H   0  0  0  0  0  0  0  0  0  0  0  0
    2.7313    0.6706   -1.7769 H   0  0  0  0  0  0  0  0  0  0  0  0
    3.3436    1.7252   -0.3823 H   0  0  0  0  0  0  0  0  0  0  0  0
    3.2708   -1.8649   -1.5159 H   0  0  0  0  0  0  0  0  0  0  0  0
    1.2158   -2.0674    0.1298 H   0  0  0  0  0  0  0  0  0  0  0  0
    1.1778   -1.0422   -1.3121 H   0  0  0  0  0  0  0  0  0  0  0  0
    1.1207    0.9010   -0.0134 H   0  0  0  0  0  0  0  0  0  0  0  0
    2.4800    1.4531    1.6811 H   0  0  0  0  0  0  0  0  0  0  0  0
    2.2857   -0.0534    2.5851 H   0  0  0  0  0  0  0  0  0  0  0  0
    4.6016    0.5809    1.5538 H   0  0  0  0  0  0  0  0  0  0  0  0
    3.6635   -1.7190    2.6710 H   0  0  0  0  0  0  0  0  0  0  0  0
    2.9954   -3.2894    0.7690 H   0  0  0  0  0  0  0  0  0  0  0  0
    5.7382    0.1328   -1.4212 H   0  0  0  0  0  0  0  0  0  0  0  0
    5.4156   -1.5858   -1.1383 H   0  0  0  0  0  0  0  0  0  0  0  0
    6.0351   -0.4809    0.2136 H   0  0  0  0  0  0  0  0  0  0  0  0
  1  2  1  0
  3  5  1  0
  5  6  1  0
  6  7  1  0
  4  8  1  0
  8  9  1  0
  9 10  1  0
  1 12  1  0
  3 14  1  0
  7 14  1  0
  4 15  1  0
 10 15  1  0
 17 18  1  0
 12 19  1  0
 18 19  1  0
 19 20  1  0
 20 21  1  0
 11 22  1  0
 21 22  1  0
 11 23  1  0
 17 23  1  0
 22 23  1  0
  1 25  1  0
  3 25  1  0
  4 25  1  0
 25 13  1  0
 26 16  1  0
 17 26  1  0
 21 26  1  0
 24 26  1  0
 27 28  1  0
 29 31  1  0
 31 32  1  0
 32 33  1  0
 30 34  1  0
 34 35  1  0
 35 36  1  0
 27 38  1  0
 29 40  1  0
 33 40  1  0
 30 41  1  0
 36 41  1  0
 43 44  1  0
 38 45  1  0
 44 45  1  0
 45 46  1  0
 46 47  1  0
 37 48  1  0
 47 48  1  0
 37 49  1  0
 43 49  1  0
 48 49  1  0
 27 51  1  0
 29 51  1  0
 30 51  1  0
 51 39  1  0
 52 42  1  0
 43 52  1  0
 47 52  1  0
 50 52  1  0
  1 53  1  6
  2 54  1  0
  3 55  1  0
  4 56  1  0
  5 57  1  0
  5 58  1  0
  6 59  1  0
  6 60  1  0
  7 61  1  0
  7 62  1  0
  8 63  1  0
  8 64  1  0
  9 65  1  0
  9 66  1  0
 10 67  1  0
 10 68  1  0
 13 69  1  0
 16 70  1  0
 16 71  1  0
 16 72  1  0
 17 73  1  6
 18 74  1  0
 18 75  1  0
 19 76  1  6
 20 77  1  0
 20 78  1  0
 21 79  1  1
 22 80  1  1
 23 81  1  6
 24 82  1  0
 24 83  1  0
 24 84  1  0
 27 85  1  6
 28 86  1  0
 29 87  1  0
 30 88  1  0
 31 89  1  0
 31 90  1  0
 32 91  1  0
 32 92  1  0
 33 93  1  0
 33 94  1  0
 34 95  1  0
 34 96  1  0
 35 97  1  0
 35 98  1  0
 36 99  1  0
 36100  1  0
 39101  1  0
 42102  1  0
 42103  1  0
 42104  1  0
 43105  1  6
 44106  1  0
 44107  1  0
 45108  1  6
 46109  1  0
 46110  1  0
 47111  1  1
 48112  1  1
 49113  1  1
 50114  1  0
 50115  1  0
 50116  1  0
M  CHG  2  26   1  52   1
M  END
>  <PDBID>  (1) 
4U15

>  <PDB ID>  (1) 
4U15

>  <Generic Name>  (1) 
Tiotropium

>  <Brand Name>  (1) 
Inspiolto Respimat#Spiriva#Spiriva Respimat#Stiolto Respimat

>  <DrugBank ID>  (1) 
DB01409

>  <ATC Codes>  (1) 
R03AL06#R03BB54#R03BB04

>  <Ligand ID>  (1) 
0HK

>  <Target Name>  (1) 
Muscarinic acetylcholine receptor M3

>  <UniProt ID>  (1) 
P20309

>  <PDB ID.1>  (1) 
4U15

>  <Seq. Identity>  (1) 
98%

$$$$
