PDB_DB00537_00
     RDKit          3D

108114  0  0  0  0  0  0  0  0999 V2000
    4.5773   -1.3720    1.6014 O   0  0  0  0  0  0  0  0  0  0  0  0
    4.0256   -1.8538    0.3989 C   0  0  0  0  0  0  0  0  0  0  0  0
    4.9412   -1.5994   -0.6030 O   0  0  0  0  0  0  0  0  0  0  0  0
    2.7345   -1.0935    0.2035 C   0  0  0  0  0  0  0  0  0  0  0  0
    2.9751    0.4004    0.1097 C   0  0  0  0  0  0  0  0  0  0  0  0
    1.7147    1.0511    0.2013 N   0  0  0  0  0  0  0  0  0  0  0  0
    0.7034    0.6357   -0.7069 C   0  0  0  0  0  0  0  0  0  0  0  0
   -0.6241    0.9516   -0.0147 C   0  0  0  0  0  0  0  0  0  0  0  0
   -1.7351    0.1858   -0.7006 C   0  0  0  0  0  0  0  0  0  0  0  0
   -2.9872    0.7193   -0.2682 N   0  0  0  0  0  0  0  0  0  0  0  0
   -3.3023    0.6135    1.1035 C   0  0  0  0  0  0  0  0  0  0  0  0
   -4.5159   -0.2064    1.4267 C   0  0  0  0  0  0  0  0  0  0  0  0
   -4.9780   -1.0529    0.4026 N   0  0  0  0  0  0  0  0  0  0  0  0
   -4.9147   -0.5799   -0.9271 C   0  0  0  0  0  0  0  0  0  0  0  0
   -4.0741    0.6152   -1.1710 C   0  0  0  0  0  0  0  0  0  0  0  0
   -1.6097   -1.3014   -0.5262 C   0  0  0  0  0  0  0  0  0  0  0  0
   -1.7856   -1.9673   -1.7390 F   0  0  0  0  0  0  0  0  0  0  0  0
   -0.1855   -1.5929   -0.1006 C   0  0  0  0  0  0  0  0  0  0  0  0
    0.6952   -0.7959   -1.0736 C   0  0  0  0  0  0  0  0  0  0  0  0
    2.0302   -1.4762   -1.0869 C   0  0  0  0  0  0  0  0  0  0  0  0
    1.8118   -2.8458   -1.1672 O   0  0  0  0  0  0  0  0  0  0  0  0
    1.7469    2.4815    0.2732 C   0  0  0  0  0  0  0  0  0  0  0  0
    2.4397    3.1019    1.4852 C   0  0  0  0  0  0  0  0  0  0  0  0
    3.1061    3.1382    0.1603 C   0  0  0  0  0  0  0  0  0  0  0  0
    3.6200    0.7651    0.9308 H   0  0  0  0  0  0  0  0  0  0  0  0
   -0.8260    2.0382   -0.1132 H   0  0  0  0  0  0  0  0  0  0  0  0
   -3.5218    1.6582    1.4798 H   0  0  0  0  0  0  0  0  0  0  0  0
   -2.4081    0.3015    1.7006 H   0  0  0  0  0  0  0  0  0  0  0  0
   -5.3736    0.4164    1.8122 H   0  0  0  0  0  0  0  0  0  0  0  0
   -4.2419   -0.8519    2.3138 H   0  0  0  0  0  0  0  0  0  0  0  0
   -4.8249   -2.0703    0.5393 H   0  0  0  0  0  0  0  0  0  0  0  0
   -5.9691   -0.3348   -1.2513 H   0  0  0  0  0  0  0  0  0  0  0  0
   -4.6048   -1.4278   -1.6040 H   0  0  0  0  0  0  0  0  0  0  0  0
   -3.6488    0.5213   -2.2118 H   0  0  0  0  0  0  0  0  0  0  0  0
   -4.7101    1.5278   -1.1368 H   0  0  0  0  0  0  0  0  0  0  0  0
   -0.0249   -1.2196    0.9426 H   0  0  0  0  0  0  0  0  0  0  0  0
    0.9292    3.0759   -0.1658 H   0  0  0  0  0  0  0  0  0  0  0  0
    1.9751    4.0081    1.9318 H   0  0  0  0  0  0  0  0  0  0  0  0
    2.8330    2.3938    2.2552 H   0  0  0  0  0  0  0  0  0  0  0  0
    4.0072    2.5310   -0.0197 H   0  0  0  0  0  0  0  0  0  0  0  0
    3.1695    4.1399   -0.3265 H   0  0  0  0  0  0  0  0  0  0  0  0
    4.5718   -1.3674    1.6027 O   0  0  0  0  0  0  0  0  0  0  0  0
    4.0233   -1.8538    0.4017 C   0  0  0  0  0  0  0  0  0  0  0  0
    4.9408   -1.6072   -0.5997 O   0  0  0  0  0  0  0  0  0  0  0  0
    2.7326   -1.0953    0.1994 C   0  0  0  0  0  0  0  0  0  0  0  0
    2.9756    0.4002    0.1011 C   0  0  0  0  0  0  0  0  0  0  0  0
    1.7153    1.0501    0.1901 N   0  0  0  0  0  0  0  0  0  0  0  0
    0.7043    0.6353   -0.7175 C   0  0  0  0  0  0  0  0  0  0  0  0
   -0.6227    0.9511   -0.0213 C   0  0  0  0  0  0  0  0  0  0  0  0
   -1.7345    0.1834   -0.7019 C   0  0  0  0  0  0  0  0  0  0  0  0
   -2.9865    0.7160   -0.2669 N   0  0  0  0  0  0  0  0  0  0  0  0
   -3.2993    0.6132    1.1056 C   0  0  0  0  0  0  0  0  0  0  0  0
   -4.5122   -0.2039    1.4370 C   0  0  0  0  0  0  0  0  0  0  0  0
   -4.9796   -1.0501    0.4141 N   0  0  0  0  0  0  0  0  0  0  0  0
   -4.9206   -0.5782   -0.9154 C   0  0  0  0  0  0  0  0  0  0  0  0
   -4.0742    0.6116   -1.1681 C   0  0  0  0  0  0  0  0  0  0  0  0
   -1.6085   -1.3040   -0.5301 C   0  0  0  0  0  0  0  0  0  0  0  0
   -1.7818   -1.9684   -1.7422 F   0  0  0  0  0  0  0  0  0  0  0  0
   -0.1834   -1.5911   -0.1018 C   0  0  0  0  0  0  0  0  0  0  0  0
    0.6946   -0.7975   -1.0812 C   0  0  0  0  0  0  0  0  0  0  0  0
    2.0327   -1.4803   -1.0895 C   0  0  0  0  0  0  0  0  0  0  0  0
    1.8175   -2.8474   -1.1716 O   0  0  0  0  0  0  0  0  0  0  0  0
    1.7463    2.4803    0.2660 C   0  0  0  0  0  0  0  0  0  0  0  0
    2.4349    3.0922    1.4854 C   0  0  0  0  0  0  0  0  0  0  0  0
    3.1063    3.1374    0.1632 C   0  0  0  0  0  0  0  0  0  0  0  0
    3.6182    0.7635    0.9260 H   0  0  0  0  0  0  0  0  0  0  0  0
   -0.8244    2.0377   -0.1233 H   0  0  0  0  0  0  0  0  0  0  0  0
   -3.5112    1.6585    1.4840 H   0  0  0  0  0  0  0  0  0  0  0  0
   -2.4011    0.2978    1.6917 H   0  0  0  0  0  0  0  0  0  0  0  0
   -5.3636    0.4219    1.8269 H   0  0  0  0  0  0  0  0  0  0  0  0
   -4.2327   -0.8521    2.3203 H   0  0  0  0  0  0  0  0  0  0  0  0
   -4.8223   -2.0675    0.5498 H   0  0  0  0  0  0  0  0  0  0  0  0
   -5.9750   -0.3226   -1.2328 H   0  0  0  0  0  0  0  0  0  0  0  0
   -4.6224   -1.4316   -1.5935 H   0  0  0  0  0  0  0  0  0  0  0  0
   -3.6526    0.5103   -2.2119 H   0  0  0  0  0  0  0  0  0  0  0  0
   -4.6999    1.5320   -1.1401 H   0  0  0  0  0  0  0  0  0  0  0  0
   -0.0249   -1.2160    0.9343 H   0  0  0  0  0  0  0  0  0  0  0  0
    0.9309    3.0754   -0.1709 H   0  0  0  0  0  0  0  0  0  0  0  0
    1.9650    3.9952    1.9374 H   0  0  0  0  0  0  0  0  0  0  0  0
    2.8380    2.4018    2.2622 H   0  0  0  0  0  0  0  0  0  0  0  0
    4.0108    2.5321   -0.0057 H   0  0  0  0  0  0  0  0  0  0  0  0
    3.1764    4.1398   -0.3171 H   0  0  0  0  0  0  0  0  0  0  0  0
    4.9688   -2.1108    2.1426 H   0  0  0  0  0  0  0  0  0  0  0  0
    3.8200   -2.9118    0.5577 H   0  0  0  0  0  0  0  0  0  0  0  0
    5.3523   -0.7013   -0.4415 H   0  0  0  0  0  0  0  0  0  0  0  0
    2.0149   -1.2881    1.0234 H   0  0  0  0  0  0  0  0  0  0  0  0
    3.4753    0.6096   -0.8758 H   0  0  0  0  0  0  0  0  0  0  0  0
    0.7388    1.2307   -1.6685 H   0  0  0  0  0  0  0  0  0  0  0  0
   -0.5357    0.7484    1.0590 H   0  0  0  0  0  0  0  0  0  0  0  0
   -1.6412    0.3953   -1.7873 H   0  0  0  0  0  0  0  0  0  0  0  0
   -2.2732   -1.7408    0.2093 H   0  0  0  0  0  0  0  0  0  0  0  0
    0.0749   -2.6599   -0.1517 H   0  0  0  0  0  0  0  0  0  0  0  0
    0.2421   -0.9298   -2.0877 H   0  0  0  0  0  0  0  0  0  0  0  0
    2.5972   -1.1281   -1.9838 H   0  0  0  0  0  0  0  0  0  0  0  0
    1.9964   -3.1431   -2.1122 H   0  0  0  0  0  0  0  0  0  0  0  0
    4.9735   -2.0999    2.1448 H   0  0  0  0  0  0  0  0  0  0  0  0
    3.8184   -2.9118    0.5635 H   0  0  0  0  0  0  0  0  0  0  0  0
    5.3433   -0.7019   -0.4237 H   0  0  0  0  0  0  0  0  0  0  0  0
    2.0164   -1.2741    1.0242 H   0  0  0  0  0  0  0  0  0  0  0  0
    3.4728    0.6042   -0.8864 H   0  0  0  0  0  0  0  0  0  0  0  0
    0.7364    1.2292   -1.6787 H   0  0  0  0  0  0  0  0  0  0  0  0
   -0.5305    0.7528    1.0511 H   0  0  0  0  0  0  0  0  0  0  0  0
   -1.6461    0.3926   -1.7900 H   0  0  0  0  0  0  0  0  0  0  0  0
   -2.2811   -1.7481    0.1929 H   0  0  0  0  0  0  0  0  0  0  0  0
    0.0750   -2.6624   -0.1560 H   0  0  0  0  0  0  0  0  0  0  0  0
    0.2390   -0.9366   -2.0881 H   0  0  0  0  0  0  0  0  0  0  0  0
    2.5827   -1.1070   -1.9871 H   0  0  0  0  0  0  0  0  0  0  0  0
    1.9983   -3.1393   -2.1207 H   0  0  0  0  0  0  0  0  0  0  0  0
  1  2  1  0
  2  3  1  0
  2  4  1  0
  4  5  1  0
  5  6  1  0
  6  7  1  0
  7  8  1  0
  8  9  1  0
  9 10  1  0
 10 11  1  0
 11 12  1  0
 12 13  1  0
 13 14  1  0
 10 15  1  0
 14 15  1  0
  9 16  1  0
 16 17  1  0
 16 18  1  0
  7 19  1  0
 18 19  1  0
  4 20  1  0
 19 20  1  0
 20 21  1  0
  6 22  1  0
 22 23  1  0
 22 24  1  0
 23 24  1  0
  5 25  1  0
  8 26  1  0
 11 27  1  0
 11 28  1  0
 12 29  1  0
 12 30  1  0
 13 31  1  0
 14 32  1  0
 14 33  1  0
 15 34  1  0
 15 35  1  0
 18 36  1  0
 22 37  1  0
 23 38  1  0
 23 39  1  0
 24 40  1  0
 24 41  1  0
 43 42  1  0
 43 44  1  0
 43 45  1  0
 45 46  1  0
 46 47  1  0
 47 48  1  0
 48 49  1  0
 49 50  1  0
 50 51  1  0
 51 52  1  0
 52 53  1  0
 53 54  1  0
 54 55  1  0
 51 56  1  0
 55 56  1  0
 50 57  1  0
 57 58  1  0
 57 59  1  0
 48 60  1  0
 59 60  1  0
 45 61  1  0
 60 61  1  0
 61 62  1  0
 47 63  1  0
 63 64  1  0
 63 65  1  0
 64 65  1  0
 46 66  1  0
 49 67  1  0
 52 68  1  0
 52 69  1  0
 53 70  1  0
 53 71  1  0
 54 72  1  0
 55 73  1  0
 55 74  1  0
 56 75  1  0
 56 76  1  0
 59 77  1  0
 63 78  1  0
 64 79  1  0
 64 80  1  0
 65 81  1  0
 65 82  1  0
  1 83  1  0
  2 84  1  0
  3 85  1  0
  4 86  1  0
  5 87  1  0
  7 88  1  0
  8 89  1  0
  9 90  1  0
 16 91  1  0
 18 92  1  0
 19 93  1  0
 20 94  1  0
 21 95  1  0
 42 96  1  0
 43 97  1  0
 44 98  1  0
 45 99  1  0
 46100  1  0
 48101  1  0
 49102  1  0
 50103  1  0
 57104  1  0
 59105  1  0
 60106  1  0
 61107  1  0
 62108  1  0
M  END
>  <PDBID>  (1) 
5BTC

>  <PDB ID>  (1) 
5BTC

>  <Generic Name>  (1) 
Ciprofloxacin

>  <Brand Name>  (1) 
Act Ciprofloxacin#Apo-ciproflox#Auro-ciprofloxacin#Bio-ciprofloxacin#Ciloxan#Cipro#Cipro 100 - Tab 100mg#Cipro 250 - Tab 250mg#Cipro 500 - Tab 500mg#Cipro 750 - Tab 750mg#Cipro HC#Cipro HC Otic Suspension#Cipro I.V. - Liq 10mg/ml#Cipro I.V. Minibags 2mg/ml#Cipro IV 10mg/ml#Cipro Oral Suspension 10%#Cipro Tab 100mg#Cipro Tab 250mg#Cipro Tab 500mg#Cipro Tab 750mg#Cipro XL#Ciprodex#Ciprofloxacin#Ciprofloxacin Extended-release#Ciprofloxacin Hydrochloride#Ciprofloxacin Injection#Ciprofloxacin Injection USP#Ciprofloxacin Injection, USP#Ciprofloxacin Intravenous Infusion#Ciprofloxacin Intravenous Infusion BP#Ciprofloxacin Intravenous Infusion, BP#Ciprofloxacin Omega#Ciprofloxacin Otic#Ciprofloxacin Tablets#Ciprofloxacin Tablets USP - 100 mg#Ciprofloxacin Tablets USP - 250 mg#Ciprofloxacin Tablets USP - 500 mg#Ciprofloxacin Tablets USP - 750 mg#Ciprofloxacin-250#Ciprofloxacin-500#Ciprofloxacin-750#Dom-ciprofloxacin#Ipg-ciprofloxacin#Jamp-ciprofloxacin#Mar-ciprofloxacin#Mint-ciproflox#Mint-ciprofloxacin#Mylan-ciprofloxacin#Mylan-ciprofloxacin XL#Nu-ciproflox#Nu-ciprofloxacin Tablets#Otiprio#Otixal#Otovel#PHL-ciprofloxacin#PMS-ciprofloxacin#PMS-ciprofloxacin 0.3%#PMS-ciprofloxacin XL#Priva-ciprofloxacin#Pro-ciprofloxacin#Proquin XR#Q-ciprofloxacin#Ran-ciproflox#Ran-ciprofloxacin#Ratio-ciprofloxacin#Riva-ciprofloxacin#Sandoz Ciprofloxacin#Septa-ciprofloxacin#Taro-ciprofloxacin#Teva-ciprofloxacin#Van-ciprofloxacin#Bacquinor#Baycip#Ciflox#Cifloxin#Ciprinol#Ciprobay#Ciprocinol#Ciprodar#Ciproxan#Ciproxin#Flociprin#Proquin

>  <DrugBank ID>  (1) 
DB00537

>  <ATC Codes>  (1) 
J01MA02#J01RA11#J01RA12#S02AA15#S03AA07#S01AE03#J01RA10

>  <Ligand ID>  (1) 
CPF

>  <Target Name>  (1) 
DNA gyrase subunit A

>  <UniProt ID>  (1) 
P43700

>  <PDB ID.1>  (1) 
5BTC

>  <Seq. Identity>  (1) 
48%

$$$$
