PDB_DB04835_04
     RDKit          3D

180188  0  0  0  0  0  0  0  0999 V2000
   -7.0424    4.7932    1.1441 F   0  0  0  0  0  0  0  0  0  0  0  0
   -3.7731    0.3951   -1.6034 O   0  0  0  0  0  0  0  0  0  0  0  0
    3.7995    0.4006    0.6160 C   0  0  0  0  0  0  0  0  0  0  0  0
    4.8088    0.3433   -0.3515 N   0  0  0  0  0  0  0  0  0  0  0  0
   -0.4739    0.4251    0.0179 C   0  0  0  0  0  0  0  0  0  0  0  0
    6.8043    1.5556    0.6056 C   0  0  0  0  0  0  0  0  0  0  0  0
   -1.0500   -0.8667    0.5903 C   0  0  0  0  0  0  0  0  0  0  0  0
   -2.4452   -1.1817    0.2010 C   0  0  1  0  0  0  0  0  0  0  0  0
    5.6444   -1.9060    0.2961 C   0  0  0  0  0  0  0  0  0  0  0  0
   -2.8288   -2.5028    0.8662 C   0  0  0  0  0  0  0  0  0  0  0  0
   -4.2739    0.2662   -0.3337 C   0  0  2  0  0  0  0  0  0  0  0  0
   -5.0543    1.4574    0.1598 C   0  0  0  0  0  0  0  0  0  0  0  0
   -6.3604    4.0146    0.2227 C   0  0  0  0  0  0  0  0  0  0  0  0
    6.1705    2.2042    1.8115 C   0  0  0  0  0  0  0  0  0  0  0  0
   -6.3914    4.6686   -1.0110 F   0  0  0  0  0  0  0  0  0  0  0  0
    0.8830    0.4538    0.5189 N   0  0  0  0  0  0  0  0  0  0  0  0
    1.5892    1.6520    0.2630 C   0  0  1  0  0  0  0  0  0  0  0  0
    7.7238    0.4902    1.1039 C   0  0  0  0  0  0  0  0  0  0  0  0
   -6.2821    1.7049   -0.7102 C   0  0  0  0  0  0  0  0  0  0  0  0
   -4.2066    2.7207    0.0105 C   0  0  0  0  0  0  0  0  0  0  0  0
   -7.1193    2.7176    0.0873 C   0  0  0  0  0  0  0  0  0  0  0  0
   -4.9480    3.8509    0.6789 C   0  0  0  0  0  0  0  0  0  0  0  0
   -4.2675   -2.8867    0.5814 C   0  0  0  0  0  0  0  0  0  0  0  0
   -1.9574   -3.6522    0.3916 C   0  0  0  0  0  0  0  0  0  0  0  0
   -4.4192   -4.3468    1.0278 C   0  0  0  0  0  0  0  0  0  0  0  0
   -2.6618   -4.4432   -0.7313 C   0  0  0  0  0  0  0  0  0  0  0  0
   -3.8472   -5.1809   -0.1263 C   0  0  0  0  0  0  0  0  0  0  0  0
    1.6435   -0.4286   -0.3942 C   0  0  2  0  0  0  0  0  0  0  0  0
    6.6108    0.6819   -1.5810 N   0  0  0  0  0  0  0  0  0  0  0  0
    5.8521    1.2066   -0.4702 C   0  0  1  0  0  0  0  0  0  0  0  0
    6.4436   -0.6691   -1.5294 N   0  0  0  0  0  0  0  0  0  0  0  0
   -3.3488   -0.1652    0.6626 N   0  0  0  0  0  0  0  0  0  0  0  0
    3.0045    1.6687    0.6892 C   0  0  0  0  0  0  0  0  0  0  0  0
    2.8509   -0.7999    0.4246 C   0  0  0  0  0  0  0  0  0  0  0  0
    5.2382   -0.9414   -0.7906 C   0  0  0  0  0  0  0  0  0  0  0  0
    1.5040    1.7827   -1.2576 C   0  0  0  0  0  0  0  0  0  0  0  0
    1.9314    0.3631   -1.6334 C   0  0  0  0  0  0  0  0  0  0  0  0
   -7.0723    4.6584    1.2781 F   0  0  0  0  0  0  0  0  0  0  0  0
   -3.7063    0.4594   -1.5619 O   0  0  0  0  0  0  0  0  0  0  0  0
    3.6946    0.5734    0.2624 C   0  0  0  0  0  0  0  0  0  0  0  0
    4.9590    0.4223   -0.3062 N   0  0  0  0  0  0  0  0  0  0  0  0
   -0.5350    0.3678   -0.1683 C   0  0  0  0  0  0  0  0  0  0  0  0
    6.8720    1.4511    0.9495 C   0  0  0  0  0  0  0  0  0  0  0  0
   -1.0196   -0.7940    0.6736 C   0  0  0  0  0  0  0  0  0  0  0  0
   -2.4320   -1.2107    0.4140 C   0  0  1  0  0  0  0  0  0  0  0  0
    5.7217   -1.9026    0.0675 C   0  0  0  0  0  0  0  0  0  0  0  0
   -2.7935   -2.4157    1.3113 C   0  0  0  0  0  0  0  0  0  0  0  0
   -4.2050    0.2790   -0.3043 C   0  0  2  0  0  0  0  0  0  0  0  0
   -5.0022    1.4774    0.1474 C   0  0  0  0  0  0  0  0  0  0  0  0
   -6.3908    3.9876    0.2637 C   0  0  0  0  0  0  0  0  0  0  0  0
    6.0925    1.7630    2.2100 C   0  0  0  0  0  0  0  0  0  0  0  0
   -6.4678    4.7310   -0.9051 F   0  0  0  0  0  0  0  0  0  0  0  0
    0.8622    0.5326    0.1848 N   0  0  0  0  0  0  0  0  0  0  0  0
    1.4759    1.6806   -0.3789 C   0  0  1  0  0  0  0  0  0  0  0  0
    7.8375    0.3378    1.1586 C   0  0  0  0  0  0  0  0  0  0  0  0
   -6.2034    1.7127   -0.7530 C   0  0  0  0  0  0  0  0  0  0  0  0
   -4.1836    2.7735    0.0197 C   0  0  0  0  0  0  0  0  0  0  0  0
   -7.0940    2.6867    0.0408 C   0  0  0  0  0  0  0  0  0  0  0  0
   -4.9646    3.8642    0.7028 C   0  0  0  0  0  0  0  0  0  0  0  0
   -4.2479   -2.7548    0.9544 C   0  0  0  0  0  0  0  0  0  0  0  0
   -1.9688   -3.6284    0.9909 C   0  0  0  0  0  0  0  0  0  0  0  0
   -4.5379   -4.2085    1.2898 C   0  0  0  0  0  0  0  0  0  0  0  0
   -2.5361   -4.3965   -0.1906 C   0  0  0  0  0  0  0  0  0  0  0  0
   -3.8577   -5.0410    0.1901 C   0  0  0  0  0  0  0  0  0  0  0  0
    1.5654   -0.5056   -0.6042 C   0  0  2  0  0  0  0  0  0  0  0  0
    6.8453    0.9397   -1.3639 N   0  0  0  0  0  0  0  0  0  0  0  0
    5.9741    1.3509   -0.2458 C   0  0  0  0  0  0  0  0  0  0  0  0
    6.6818   -0.4015   -1.4697 N   0  0  0  0  0  0  0  0  0  0  0  0
   -3.3525   -0.1738    0.7252 N   0  0  0  0  0  0  0  0  0  0  0  0
    2.9440    1.7846   -0.2393 C   0  0  0  0  0  0  0  0  0  0  0  0
    2.8615   -0.6965    0.1351 C   0  0  0  0  0  0  0  0  0  0  0  0
    5.4108   -0.7545   -0.9026 C   0  0  0  0  0  0  0  0  0  0  0  0
    1.1951    1.4589   -1.8798 C   0  0  0  0  0  0  0  0  0  0  0  0
    1.7349    0.0529   -1.9995 C   0  0  0  0  0  0  0  0  0  0  0  0
   -4.4630    0.3431   -2.2875 H   0  0  0  0  0  0  0  0  0  0  0  0
    4.2452    0.2272    1.5982 H   0  0  0  0  0  0  0  0  0  0  0  0
   -0.4764    0.3298   -1.0835 H   0  0  0  0  0  0  0  0  0  0  0  0
   -1.0588    1.2943    0.3095 H   0  0  0  0  0  0  0  0  0  0  0  0
    7.5274    2.3706    0.2316 H   0  0  0  0  0  0  0  0  0  0  0  0
   -1.0634   -0.6963    1.7260 H   0  0  0  0  0  0  0  0  0  0  0  0
   -0.3820   -1.7112    0.4733 H   0  0  0  0  0  0  0  0  0  0  0  0
   -2.5257   -1.3121   -0.9191 H   0  0  0  0  0  0  0  0  0  0  0  0
    6.7399   -2.0685    0.3706 H   0  0  0  0  0  0  0  0  0  0  0  0
    5.3082   -1.4990    1.2669 H   0  0  0  0  0  0  0  0  0  0  0  0
    5.2369   -2.9303    0.0813 H   0  0  0  0  0  0  0  0  0  0  0  0
   -2.7268   -2.3607    1.9532 H   0  0  0  0  0  0  0  0  0  0  0  0
   -5.0845   -0.5545   -0.4143 H   0  0  0  0  0  0  0  0  0  0  0  0
   -5.3804    1.3963    1.2011 H   0  0  0  0  0  0  0  0  0  0  0  0
    5.3871    2.9359    1.5107 H   0  0  0  0  0  0  0  0  0  0  0  0
    5.8801    1.5159    2.6121 H   0  0  0  0  0  0  0  0  0  0  0  0
    6.9622    2.8732    2.3010 H   0  0  0  0  0  0  0  0  0  0  0  0
    1.0731    2.5244    0.6909 H   0  0  0  0  0  0  0  0  0  0  0  0
    8.5925    0.9853    1.5985 H   0  0  0  0  0  0  0  0  0  0  0  0
    8.1662   -0.0826    0.2559 H   0  0  0  0  0  0  0  0  0  0  0  0
    7.2863   -0.1530    1.8876 H   0  0  0  0  0  0  0  0  0  0  0  0
   -6.0511    2.0743   -1.7105 H   0  0  0  0  0  0  0  0  0  0  0  0
   -6.8804    0.7523   -0.7107 H   0  0  0  0  0  0  0  0  0  0  0  0
   -3.2451    2.5901    0.5237 H   0  0  0  0  0  0  0  0  0  0  0  0
   -4.0775    2.9868   -1.0625 H   0  0  0  0  0  0  0  0  0  0  0  0
   -8.0735    2.9191   -0.3980 H   0  0  0  0  0  0  0  0  0  0  0  0
   -7.2928    2.2665    1.0822 H   0  0  0  0  0  0  0  0  0  0  0  0
   -4.4053    4.7922    0.4345 H   0  0  0  0  0  0  0  0  0  0  0  0
   -4.8828    3.6896    1.7834 H   0  0  0  0  0  0  0  0  0  0  0  0
   -4.4328   -2.8549   -0.4971 H   0  0  0  0  0  0  0  0  0  0  0  0
   -4.9447   -2.2467    1.1895 H   0  0  0  0  0  0  0  0  0  0  0  0
   -0.9821   -3.3948    0.0163 H   0  0  0  0  0  0  0  0  0  0  0  0
   -1.8078   -4.3718    1.2280 H   0  0  0  0  0  0  0  0  0  0  0  0
   -3.7349   -4.4997    1.8870 H   0  0  0  0  0  0  0  0  0  0  0  0
   -5.4608   -4.6132    1.2448 H   0  0  0  0  0  0  0  0  0  0  0  0
   -1.9397   -5.2098   -1.0672 H   0  0  0  0  0  0  0  0  0  0  0  0
   -2.9542   -3.7661   -1.5536 H   0  0  0  0  0  0  0  0  0  0  0  0
   -4.6524   -5.2825   -0.8690 H   0  0  0  0  0  0  0  0  0  0  0  0
   -3.5824   -6.1815    0.2507 H   0  0  0  0  0  0  0  0  0  0  0  0
    1.1307   -1.3522   -0.6353 H   0  0  0  0  0  0  0  0  0  0  0  0
    6.3197    1.1204   -2.4622 H   0  0  0  0  0  0  0  0  0  0  0  0
    5.5557    2.2460   -0.8868 H   0  0  0  0  0  0  0  0  0  0  0  0
    6.4315   -1.0583   -2.5049 H   0  0  0  0  0  0  0  0  0  0  0  0
   -2.8247    0.6669    1.0726 H   0  0  0  0  0  0  0  0  0  0  0  0
    3.0084    2.1010    1.7406 H   0  0  0  0  0  0  0  0  0  0  0  0
    3.4856    2.5009    0.0904 H   0  0  0  0  0  0  0  0  0  0  0  0
    2.4302   -1.1148    1.4268 H   0  0  0  0  0  0  0  0  0  0  0  0
    3.2826   -1.6704   -0.0143 H   0  0  0  0  0  0  0  0  0  0  0  0
    4.5423   -1.4123   -1.5498 H   0  0  0  0  0  0  0  0  0  0  0  0
    0.4920    2.0372   -1.5680 H   0  0  0  0  0  0  0  0  0  0  0  0
    2.2745    2.5346   -1.5270 H   0  0  0  0  0  0  0  0  0  0  0  0
    1.3061    0.0682   -2.5073 H   0  0  0  0  0  0  0  0  0  0  0  0
    2.9704    0.4092   -1.9429 H   0  0  0  0  0  0  0  0  0  0  0  0
   -4.4724    0.4991   -2.2128 H   0  0  0  0  0  0  0  0  0  0  0  0
    3.8002    0.7140    1.3565 H   0  0  0  0  0  0  0  0  0  0  0  0
   -0.5952    0.0063   -1.2195 H   0  0  0  0  0  0  0  0  0  0  0  0
   -1.1371    1.2685    0.0211 H   0  0  0  0  0  0  0  0  0  0  0  0
    7.5097    2.4065    0.8012 H   0  0  0  0  0  0  0  0  0  0  0  0
   -0.9474   -0.3876    1.7421 H   0  0  0  0  0  0  0  0  0  0  0  0
   -0.3160   -1.6406    0.6859 H   0  0  0  0  0  0  0  0  0  0  0  0
   -2.5185   -1.5317   -0.6655 H   0  0  0  0  0  0  0  0  0  0  0  0
    6.7939   -2.0996    0.1777 H   0  0  0  0  0  0  0  0  0  0  0  0
    5.3235   -1.6522    1.0712 H   0  0  0  0  0  0  0  0  0  0  0  0
    5.2635   -2.8591   -0.2952 H   0  0  0  0  0  0  0  0  0  0  0  0
   -2.6803   -2.0809    2.3452 H   0  0  0  0  0  0  0  0  0  0  0  0
   -5.0334   -0.5217   -0.4456 H   0  0  0  0  0  0  0  0  0  0  0  0
   -5.3591    1.4305    1.1817 H   0  0  0  0  0  0  0  0  0  0  0  0
    5.2628    2.4490    1.9318 H   0  0  0  0  0  0  0  0  0  0  0  0
    5.7636    0.8044    2.6291 H   0  0  0  0  0  0  0  0  0  0  0  0
    6.7768    2.3152    2.8973 H   0  0  0  0  0  0  0  0  0  0  0  0
    0.9380    2.6314   -0.0945 H   0  0  0  0  0  0  0  0  0  0  0  0
    8.7414    0.7826    1.6826 H   0  0  0  0  0  0  0  0  0  0  0  0
    8.1919   -0.1314    0.2443 H   0  0  0  0  0  0  0  0  0  0  0  0
    7.3922   -0.3895    1.8778 H   0  0  0  0  0  0  0  0  0  0  0  0
   -5.8557    2.1772   -1.6936 H   0  0  0  0  0  0  0  0  0  0  0  0
   -6.8109    0.8082   -0.9159 H   0  0  0  0  0  0  0  0  0  0  0  0
   -3.2340    2.6477    0.5409 H   0  0  0  0  0  0  0  0  0  0  0  0
   -4.0104    3.0213   -1.0727 H   0  0  0  0  0  0  0  0  0  0  0  0
   -8.0532    2.8711   -0.4456 H   0  0  0  0  0  0  0  0  0  0  0  0
   -7.1948    2.2002    1.0481 H   0  0  0  0  0  0  0  0  0  0  0  0
   -4.4908    4.8591    0.5340 H   0  0  0  0  0  0  0  0  0  0  0  0
   -4.9119    3.6414    1.8013 H   0  0  0  0  0  0  0  0  0  0  0  0
   -4.2633   -2.7088   -0.1644 H   0  0  0  0  0  0  0  0  0  0  0  0
   -4.9470   -2.0591    1.4039 H   0  0  0  0  0  0  0  0  0  0  0  0
   -0.9159   -3.4833    0.8221 H   0  0  0  0  0  0  0  0  0  0  0  0
   -2.0503   -4.3089    1.8894 H   0  0  0  0  0  0  0  0  0  0  0  0
   -4.1927   -4.5076    2.2820 H   0  0  0  0  0  0  0  0  0  0  0  0
   -5.6396   -4.3279    1.2102 H   0  0  0  0  0  0  0  0  0  0  0  0
   -1.8262   -5.1994   -0.4318 H   0  0  0  0  0  0  0  0  0  0  0  0
   -2.6149   -3.7139   -1.0393 H   0  0  0  0  0  0  0  0  0  0  0  0
   -4.5296   -4.9477   -0.6875 H   0  0  0  0  0  0  0  0  0  0  0  0
   -3.7807   -6.1009    0.4488 H   0  0  0  0  0  0  0  0  0  0  0  0
    1.0346   -1.4470   -0.6341 H   0  0  0  0  0  0  0  0  0  0  0  0
    6.6149    1.4049   -2.2380 H   0  0  0  0  0  0  0  0  0  0  0  0
    5.6457    2.4182   -0.4491 H   0  0  0  0  0  0  0  0  0  0  0  0
    6.8199   -0.8276   -2.3903 H   0  0  0  0  0  0  0  0  0  0  0  0
   -2.9659    0.6033    1.3296 H   0  0  0  0  0  0  0  0  0  0  0  0
    3.3830    2.1729   -1.2060 H   0  0  0  0  0  0  0  0  0  0  0  0
    3.1224    2.6464    0.4739 H   0  0  0  0  0  0  0  0  0  0  0  0
    2.5670   -1.1057    1.1419 H   0  0  0  0  0  0  0  0  0  0  0  0
    3.3702   -1.5183   -0.3755 H   0  0  0  0  0  0  0  0  0  0  0  0
    4.8009   -1.1293   -1.7544 H   0  0  0  0  0  0  0  0  0  0  0  0
    0.1649    1.6067   -2.1538 H   0  0  0  0  0  0  0  0  0  0  0  0
    1.8651    2.2083   -2.3851 H   0  0  0  0  0  0  0  0  0  0  0  0
    1.2201   -0.5173   -2.7827 H   0  0  0  0  0  0  0  0  0  0  0  0
    2.8237    0.1415   -2.2012 H   0  0  0  0  0  0  0  0  0  0  0  0
  3  4  1  0
  5  7  1  0
  7  8  1  0
  8 10  1  0
  2 11  1  0
 11 12  1  0
 13  1  1  0
  6 14  1  0
 13 15  1  0
  5 16  1  0
 16 17  1  0
  6 18  1  0
 12 19  1  0
 12 20  1  0
 13 21  1  0
 19 21  1  0
 13 22  1  0
 20 22  1  0
 10 23  1  0
 10 24  1  0
 23 25  1  0
 24 26  1  0
 25 27  1  0
 26 27  1  0
 16 28  1  0
  4 30  1  0
  6 30  1  0
 29 30  1  0
 29 31  1  0
  8 32  1  0
 11 32  1  0
  3 33  1  0
 17 33  1  0
  3 34  1  0
 28 34  1  0
  4 35  1  0
  9 35  1  0
 31 35  1  0
 17 36  1  0
 28 37  1  0
 36 37  1  0
 40 41  1  0
 42 44  1  0
 44 45  1  0
 45 47  1  0
 39 48  1  0
 48 49  1  0
 50 38  1  0
 43 51  1  0
 50 52  1  0
 42 53  1  0
 53 54  1  0
 43 55  1  0
 49 56  1  0
 49 57  1  0
 50 58  1  0
 56 58  1  0
 50 59  1  0
 57 59  1  0
 47 60  1  0
 47 61  1  0
 60 62  1  0
 61 63  1  0
 62 64  1  0
 63 64  1  0
 53 65  1  0
 41 67  1  0
 43 67  1  0
 66 67  1  0
 66 68  1  0
 45 69  1  0
 48 69  1  0
 40 70  1  0
 54 70  1  0
 40 71  1  0
 65 71  1  0
 41 72  1  0
 46 72  1  0
 68 72  1  0
 54 73  1  0
 65 74  1  0
 73 74  1  0
  2 75  1  0
  3 76  1  0
  5 77  1  0
  5 78  1  0
  6 79  1  0
  7 80  1  0
  7 81  1  0
  8 82  1  6
  9 83  1  0
  9 84  1  0
  9 85  1  0
 10 86  1  0
 11 87  1  6
 12 88  1  0
 14 89  1  0
 14 90  1  0
 14 91  1  0
 17 92  1  1
 18 93  1  0
 18 94  1  0
 18 95  1  0
 19 96  1  0
 19 97  1  0
 20 98  1  0
 20 99  1  0
 21100  1  0
 21101  1  0
 22102  1  0
 22103  1  0
 23104  1  0
 23105  1  0
 24106  1  0
 24107  1  0
 25108  1  0
 25109  1  0
 26110  1  0
 26111  1  0
 27112  1  0
 27113  1  0
 28114  1  6
 29115  1  0
 30116  1  6
 31117  1  0
 32118  1  0
 33119  1  0
 33120  1  0
 34121  1  0
 34122  1  0
 35123  1  0
 36124  1  0
 36125  1  0
 37126  1  0
 37127  1  0
 39128  1  0
 40129  1  0
 42130  1  0
 42131  1  0
 43132  1  0
 44133  1  0
 44134  1  0
 45135  1  6
 46136  1  0
 46137  1  0
 46138  1  0
 47139  1  0
 48140  1  6
 49141  1  0
 51142  1  0
 51143  1  0
 51144  1  0
 54145  1  1
 55146  1  0
 55147  1  0
 55148  1  0
 56149  1  0
 56150  1  0
 57151  1  0
 57152  1  0
 58153  1  0
 58154  1  0
 59155  1  0
 59156  1  0
 60157  1  0
 60158  1  0
 61159  1  0
 61160  1  0
 62161  1  0
 62162  1  0
 63163  1  0
 63164  1  0
 64165  1  0
 64166  1  0
 65167  1  6
 66168  1  0
 67169  1  0
 68170  1  0
 69171  1  0
 70172  1  0
 70173  1  0
 71174  1  0
 71175  1  0
 72176  1  0
 73177  1  0
 73178  1  0
 74179  1  0
 74180  1  0
M  END
>  <PDBID>  (1) 
4MBS

>  <PDB ID>  (1) 
4MBS

>  <Generic Name>  (1) 
Maraviroc

>  <Brand Name>  (1) 
Celsentri#Selzentry

>  <DrugBank ID>  (1) 
DB04835

>  <ATC Codes>  (1) 
J05AX09

>  <Ligand ID>  (1) 
MRV

>  <Target Name>  (1) 
C-C chemokine receptor type 5

>  <UniProt ID>  (1) 
P51681

>  <PDB ID.1>  (1) 
4MBS

>  <Seq. Identity>  (1) 
74%

$$$$
