PDB_DB01117_03
     RDKit          3D

 63 66  0  0  0  0  0  0  0  0999 V2000
   -2.2537   -1.6788   -1.3514 O   0  0  0  0  0  0  0  0  0  0  0  0
   -2.9130    1.0977    1.8314 O   0  0  0  0  0  0  0  0  0  0  0  0
   -2.2083   -0.3023   -1.1220 C   0  0  0  0  0  0  0  0  0  0  0  0
   -1.2696    0.0917   -0.0333 C   0  0  0  0  0  0  0  0  0  0  0  0
   -1.5386   -0.6926    1.2302 C   0  0  0  0  0  0  0  0  0  0  0  0
   -2.9438   -0.2919    1.7014 C   0  0  0  0  0  0  0  0  0  0  0  0
   -5.3434   -0.5314    1.0258 C   0  0  0  0  0  0  0  0  0  0  0  0
   -5.9622    0.6730    0.3502 C   0  0  0  0  0  0  0  0  0  0  0  0
   -5.9179    0.5935   -1.1485 C   0  0  0  0  0  0  0  0  0  0  0  0
   -4.6639   -0.1097   -1.6446 C   0  0  0  0  0  0  0  0  0  0  0  0
   -3.6045    0.0941   -0.6186 C   0  0  0  0  0  0  0  0  0  0  0  0
   -3.9013   -0.7273    0.6122 C   0  0  0  0  0  0  0  0  0  0  0  0
   -0.5807   -0.4134    2.1756 O   0  0  0  0  0  0  0  0  0  0  0  0
    0.7131   -1.2758   -0.7619 C   0  0  0  0  0  0  0  0  0  0  0  0
    2.0827   -1.1473   -1.4275 C   0  0  0  0  0  0  0  0  0  0  0  0
    2.7934   -0.0055   -0.7866 C   0  0  0  0  0  0  0  0  0  0  0  0
    2.0975    1.3127   -1.1372 C   0  0  0  0  0  0  0  0  0  0  0  0
    0.6012    1.0703   -1.3809 C   0  0  0  0  0  0  0  0  0  0  0  0
    0.1739    0.0609   -0.3538 C   0  0  0  0  0  0  0  0  0  0  0  0
    7.5210    0.7206    0.1662 Cl  0  0  0  0  0  0  0  0  0  0  0  0
    4.2548    0.0915   -1.0631 C   0  0  0  0  0  0  0  0  0  0  0  0
    5.0695   -1.0676   -0.6311 C   0  0  0  0  0  0  0  0  0  0  0  0
    5.5216   -1.0207    0.8016 C   0  0  0  0  0  0  0  0  0  0  0  0
    6.1140    0.3180    1.1789 C   0  0  0  0  0  0  0  0  0  0  0  0
    5.0118    1.3505    0.9654 C   0  0  0  0  0  0  0  0  0  0  0  0
    4.7757    1.4155   -0.5245 C   0  0  0  0  0  0  0  0  0  0  0  0
   -3.1472   -2.0389   -1.4656 H   0  0  0  0  0  0  0  0  0  0  0  0
   -3.7218    1.3933    2.2957 H   0  0  0  0  0  0  0  0  0  0  0  0
   -2.0079    0.2639   -2.0343 H   0  0  0  0  0  0  0  0  0  0  0  0
   -1.5216    1.1624    0.2275 H   0  0  0  0  0  0  0  0  0  0  0  0
   -1.6030   -1.7641    0.9633 H   0  0  0  0  0  0  0  0  0  0  0  0
   -3.1482   -0.7589    2.6716 H   0  0  0  0  0  0  0  0  0  0  0  0
   -5.4336   -0.3827    2.1124 H   0  0  0  0  0  0  0  0  0  0  0  0
   -5.9601   -1.4184    0.7721 H   0  0  0  0  0  0  0  0  0  0  0  0
   -5.5355    1.6270    0.7414 H   0  0  0  0  0  0  0  0  0  0  0  0
   -7.0356    0.6853    0.6559 H   0  0  0  0  0  0  0  0  0  0  0  0
   -6.8327    0.1007   -1.5482 H   0  0  0  0  0  0  0  0  0  0  0  0
   -5.9027    1.6307   -1.5420 H   0  0  0  0  0  0  0  0  0  0  0  0
   -4.3618    0.3543   -2.6035 H   0  0  0  0  0  0  0  0  0  0  0  0
   -4.9380   -1.1451   -1.8484 H   0  0  0  0  0  0  0  0  0  0  0  0
   -3.5983    1.1566   -0.3269 H   0  0  0  0  0  0  0  0  0  0  0  0
   -3.7512   -1.8084    0.4684 H   0  0  0  0  0  0  0  0  0  0  0  0
   -1.0180    0.0008    2.9723 H   0  0  0  0  0  0  0  0  0  0  0  0
    0.0643   -1.8397   -1.4616 H   0  0  0  0  0  0  0  0  0  0  0  0
    0.8553   -1.9413    0.1203 H   0  0  0  0  0  0  0  0  0  0  0  0
    2.6038   -2.0881   -1.2714 H   0  0  0  0  0  0  0  0  0  0  0  0
    1.8718   -0.9893   -2.5054 H   0  0  0  0  0  0  0  0  0  0  0  0
    2.6815   -0.1347    0.3299 H   0  0  0  0  0  0  0  0  0  0  0  0
    2.5490    1.7455   -2.0617 H   0  0  0  0  0  0  0  0  0  0  0  0
    2.1479    2.0310   -0.2932 H   0  0  0  0  0  0  0  0  0  0  0  0
    0.1136    2.0585   -1.2608 H   0  0  0  0  0  0  0  0  0  0  0  0
    0.4183    0.7449   -2.4195 H   0  0  0  0  0  0  0  0  0  0  0  0
    0.7171    0.3406    0.5973 H   0  0  0  0  0  0  0  0  0  0  0  0
    4.3655    0.1763   -2.1862 H   0  0  0  0  0  0  0  0  0  0  0  0
    4.5691   -2.0286   -0.7940 H   0  0  0  0  0  0  0  0  0  0  0  0
    6.0136   -1.1137   -1.2512 H   0  0  0  0  0  0  0  0  0  0  0  0
    4.7349   -1.2605    1.5211 H   0  0  0  0  0  0  0  0  0  0  0  0
    6.3306   -1.7707    0.9251 H   0  0  0  0  0  0  0  0  0  0  0  0
    6.4275    0.2554    2.2320 H   0  0  0  0  0  0  0  0  0  0  0  0
    5.4146    2.3218    1.2790 H   0  0  0  0  0  0  0  0  0  0  0  0
    4.1256    1.0223    1.5332 H   0  0  0  0  0  0  0  0  0  0  0  0
    5.7802    1.5717   -0.9963 H   0  0  0  0  0  0  0  0  0  0  0  0
    4.1036    2.2143   -0.8385 H   0  0  0  0  0  0  0  0  0  0  0  0
  1  3  1  0
  3  4  1  0
  4  5  1  0
  2  6  1  0
  5  6  1  0
  7  8  1  0
  8  9  1  0
  9 10  1  0
  3 11  1  0
 10 11  1  0
  6 12  1  0
  7 12  1  0
 11 12  1  0
  5 13  1  0
 14 15  1  0
 15 16  1  0
 16 17  1  0
 17 18  1  0
  4 19  1  0
 14 19  1  0
 18 19  1  0
 16 21  1  0
 21 22  1  0
 22 23  1  0
 20 24  1  0
 23 24  1  0
 24 25  1  0
 21 26  1  0
 25 26  1  0
  1 27  1  0
  2 28  1  0
  3 29  1  0
  4 30  1  0
  5 31  1  0
  6 32  1  0
  7 33  1  0
  7 34  1  0
  8 35  1  0
  8 36  1  0
  9 37  1  0
  9 38  1  0
 10 39  1  0
 10 40  1  0
 11 41  1  0
 12 42  1  0
 13 43  1  0
 14 44  1  0
 14 45  1  0
 15 46  1  0
 15 47  1  0
 16 48  1  0
 17 49  1  0
 17 50  1  0
 18 51  1  0
 18 52  1  0
 19 53  1  0
 21 54  1  0
 22 55  1  0
 22 56  1  0
 23 57  1  0
 23 58  1  0
 24 59  1  0
 25 60  1  0
 25 61  1  0
 26 62  1  0
 26 63  1  0
M  END
>  <PDBID>  (1) 
4PD4

>  <PDB ID>  (1) 
4PD4

>  <Generic Name>  (1) 
Atovaquone

>  <Brand Name>  (1) 
Atovaquone#Atovaquone Proguanil#Atovaquone and Proguanil HCl#Atovaquone and Proguanil Hydrochloride#Atovaquone and Proguanil Hydrochloride Pediatric#Malarone#Malarone Pediatric#Mepron#Mepron Tab 250mg#Mylan-atovaquone/proguanil#Teva-atovaquone Proguanil

>  <DrugBank ID>  (1) 
DB01117

>  <ATC Codes>  (1) 
P01AX06

>  <Ligand ID>  (1) 
AOQ

>  <Target Name>  (1) 
Cytochrome b

>  <UniProt ID>  (1) 
Q02768

>  <PDB ID.1>  (1) 
4PD4

>  <Seq. Identity>  (1) 
42%

$$$$
