PDB_DB11730_06
     RDKit          3D

 78 82  0  0  0  0  0  0  0  0999 V2000
    0.3437   -0.2017   -0.3163 C   0  0  2  0  0  0  0  0  0  0  0  0
   -0.8715   -1.4947   -1.8875 C   0  0  0  0  0  0  0  0  0  0  0  0
   -1.9823   -1.3229   -0.9092 C   0  0  0  0  0  0  0  0  0  0  0  0
   -1.9580    0.1482   -0.4610 C   0  0  0  0  0  0  0  0  0  0  0  0
    4.1753    1.5229    0.1280 C   0  0  0  0  0  0  0  0  0  0  0  0
    3.0037    2.0311    0.8116 N   0  0  0  0  0  0  0  0  0  0  0  0
   -3.3645   -1.3045   -1.5809 C   0  0  0  0  0  0  0  0  0  0  0  0
    3.7918   -0.6156    1.2573 C   0  0  0  0  0  0  0  0  0  0  0  0
    4.8027    0.4596    1.0209 C   0  0  0  0  0  0  0  0  0  0  0  0
   -4.1573   -0.6462   -0.4865 C   0  0  0  0  0  0  0  0  0  0  0  0
    1.9735    1.0292    0.9984 C   0  0  0  0  0  0  0  0  0  0  0  0
   -4.6044   -1.6874    0.5147 C   0  0  2  0  0  0  0  0  0  0  0  0
   -5.3020    3.3132    0.3548 C   0  0  0  0  0  0  0  0  0  0  0  0
   -3.9270    3.8878    0.5191 C   0  0  0  0  0  0  0  0  0  0  0  0
   -5.0839    1.8224    0.6468 C   0  0  0  0  0  0  0  0  0  0  0  0
   -2.9407    2.7283    0.4834 C   0  0  0  0  0  0  0  0  0  0  0  0
    5.9580   -0.6962   -0.7486 C   0  0  0  0  0  0  0  0  0  0  0  0
    7.1197    0.9304    0.5885 C   0  0  0  0  0  0  0  0  0  0  0  0
    7.3272   -0.9695   -1.3202 C   0  0  0  0  0  0  0  0  0  0  0  0
    8.4665    0.2673    0.4086 C   0  0  0  0  0  0  0  0  0  0  0  0
   -3.7674    1.6074   -0.0686 C   0  0  0  0  0  0  0  0  0  0  0  0
   -6.7348   -2.2528   -0.5065 C   0  0  0  0  0  0  0  0  0  0  0  0
   -4.9535   -3.8949   -0.4436 C   0  0  0  0  0  0  0  0  0  0  0  0
    2.5251   -0.0692    1.8320 C   0  0  0  0  0  0  0  0  0  0  0  0
    0.0301   -0.3692   -1.7472 N   0  0  0  0  0  0  0  0  0  0  0  0
   -0.8208    0.2892    0.3934 N   0  0  0  0  0  0  0  0  0  0  0  0
   -3.2310    0.2915    0.1667 N   0  0  0  0  0  0  0  0  0  0  0  0
    6.0523   -0.0274    0.5175 N   0  0  0  0  0  0  0  0  0  0  0  0
    1.4620    0.6820   -0.2754 N   0  0  0  0  0  0  0  0  0  0  0  0
   -5.4774   -2.6618   -0.0053 N   0  0  0  0  0  0  0  0  0  0  0  0
    8.3665   -0.9807   -0.3171 N   0  0  0  0  0  0  0  0  0  0  0  0
   -5.2592   -1.0716    1.6022 O   0  0  0  0  0  0  0  0  0  0  0  0
   -1.3207   -1.4300   -2.9208 H   0  0  0  0  0  0  0  0  0  0  0  0
    4.0041    1.1870   -0.8943 H   0  0  0  0  0  0  0  0  0  0  0  0
   -3.2541   -0.6391   -2.4658 H   0  0  0  0  0  0  0  0  0  0  0  0
    4.2318   -1.2805    2.0593 H   0  0  0  0  0  0  0  0  0  0  0  0
   -6.0599    3.7362    1.0330 H   0  0  0  0  0  0  0  0  0  0  0  0
   -5.7021    3.3844   -0.6785 H   0  0  0  0  0  0  0  0  0  0  0  0
   -3.9109    4.4153    1.4965 H   0  0  0  0  0  0  0  0  0  0  0  0
   -3.7521    4.6052   -0.3109 H   0  0  0  0  0  0  0  0  0  0  0  0
   -4.9747    1.7561    1.7398 H   0  0  0  0  0  0  0  0  0  0  0  0
   -5.9216    1.2728    0.2221 H   0  0  0  0  0  0  0  0  0  0  0  0
   -2.1164    3.0395   -0.1644 H   0  0  0  0  0  0  0  0  0  0  0  0
   -2.6277    2.5618    1.5433 H   0  0  0  0  0  0  0  0  0  0  0  0
    5.3708   -0.1916   -1.5152 H   0  0  0  0  0  0  0  0  0  0  0  0
    5.4871   -1.6981   -0.5242 H   0  0  0  0  0  0  0  0  0  0  0  0
    7.0106    1.6856   -0.2175 H   0  0  0  0  0  0  0  0  0  0  0  0
    7.1044    1.3682    1.5959 H   0  0  0  0  0  0  0  0  0  0  0  0
    7.3119   -1.9848   -1.7690 H   0  0  0  0  0  0  0  0  0  0  0  0
    7.5449   -0.2269   -2.1407 H   0  0  0  0  0  0  0  0  0  0  0  0
    9.1887    0.9688   -0.0699 H   0  0  0  0  0  0  0  0  0  0  0  0
    8.8767    0.0207    1.4090 H   0  0  0  0  0  0  0  0  0  0  0  0
   -3.9248    1.8037   -1.1426 H   0  0  0  0  0  0  0  0  0  0  0  0
   -7.4676   -3.0984   -0.3764 H   0  0  0  0  0  0  0  0  0  0  0  0
   -7.1814   -1.3966    0.0036 H   0  0  0  0  0  0  0  0  0  0  0  0
   -6.7161   -2.0943   -1.6235 H   0  0  0  0  0  0  0  0  0  0  0  0
   -5.5011   -4.7056    0.1314 H   0  0  0  0  0  0  0  0  0  0  0  0
   -3.9071   -3.9941   -0.1327 H   0  0  0  0  0  0  0  0  0  0  0  0
   -5.1529   -4.1438   -1.5025 H   0  0  0  0  0  0  0  0  0  0  0  0
    2.7801    0.3786    2.8329 H   0  0  0  0  0  0  0  0  0  0  0  0
    2.1547    0.3507   -0.9795 H   0  0  0  0  0  0  0  0  0  0  0  0
    9.2780   -1.0831   -0.8340 H   0  0  0  0  0  0  0  0  0  0  0  0
    0.5887   -1.2207    0.0535 H   0  0  0  0  0  0  0  0  0  0  0  0
   -0.3589   -2.4721   -1.7619 H   0  0  0  0  0  0  0  0  0  0  0  0
   -1.9512   -1.9927   -0.0502 H   0  0  0  0  0  0  0  0  0  0  0  0
   -1.8650    0.7829   -1.3752 H   0  0  0  0  0  0  0  0  0  0  0  0
    4.8584    2.4194    0.0466 H   0  0  0  0  0  0  0  0  0  0  0  0
    3.3097    2.4486    1.7142 H   0  0  0  0  0  0  0  0  0  0  0  0
   -3.6331   -2.3257   -1.8194 H   0  0  0  0  0  0  0  0  0  0  0  0
    3.5337   -1.2075    0.3622 H   0  0  0  0  0  0  0  0  0  0  0  0
    5.0055    0.9546    1.9934 H   0  0  0  0  0  0  0  0  0  0  0  0
   -5.0166   -0.1459   -0.9470 H   0  0  0  0  0  0  0  0  0  0  0  0
    1.1568    1.5671    1.5500 H   0  0  0  0  0  0  0  0  0  0  0  0
   -3.7201   -2.1956    0.9457 H   0  0  0  0  0  0  0  0  0  0  0  0
    1.7931   -0.8729    2.0605 H   0  0  0  0  0  0  0  0  0  0  0  0
    0.9017   -0.5595   -2.2704 H   0  0  0  0  0  0  0  0  0  0  0  0
   -0.6837    1.2432    0.7688 H   0  0  0  0  0  0  0  0  0  0  0  0
   -5.7341   -1.7348    2.1510 H   0  0  0  0  0  0  0  0  0  0  0  0
  2  3  1  0
  3  4  1  0
  5  6  1  0
  3  7  1  0
  5  9  1  0
  8  9  1  0
  7 10  1  0
  6 11  1  0
 10 12  1  0
 13 14  1  0
 13 15  1  0
 14 16  1  0
 17 19  1  0
 18 20  1  0
 15 21  1  0
 16 21  1  0
  8 24  1  0
 11 24  1  0
  1 25  1  0
  2 25  1  0
  1 26  1  0
  4 26  1  0
  4 27  1  0
 10 27  1  0
 21 27  1  0
  9 28  1  0
 17 28  1  0
 18 28  1  0
  1 29  1  0
 11 29  1  0
 12 30  1  0
 22 30  1  0
 23 30  1  0
 19 31  1  0
 20 31  1  0
 12 32  1  0
  2 33  1  0
  5 34  1  0
  7 35  1  0
  8 36  1  0
 13 37  1  0
 13 38  1  0
 14 39  1  0
 14 40  1  0
 15 41  1  0
 15 42  1  0
 16 43  1  0
 16 44  1  0
 17 45  1  0
 17 46  1  0
 18 47  1  0
 18 48  1  0
 19 49  1  0
 19 50  1  0
 20 51  1  0
 20 52  1  0
 21 53  1  0
 22 54  1  0
 22 55  1  0
 22 56  1  0
 23 57  1  0
 23 58  1  0
 23 59  1  0
 24 60  1  0
 29 61  1  0
 31 62  1  0
  1 63  1  1
  2 64  1  0
  3 65  1  0
  4 66  1  0
  5 67  1  0
  6 68  1  0
  7 69  1  0
  8 70  1  0
  9 71  1  0
 10 72  1  0
 11 73  1  0
 12 74  1  1
 24 75  1  0
 25 76  1  0
 26 77  1  0
 32 78  1  0
M  END
>  <PDBID>  (1) 
5L2T

>  <PDB ID>  (1) 
5L2T

>  <Generic Name>  (1) 
Ribociclib

>  <Brand Name>  (1) 
Kisqali

>  <DrugBank ID>  (1) 
DB11730

>  <ATC Codes>  (1) 
nan

>  <Ligand ID>  (1) 
6ZZ

>  <Target Name>  (1) 
Cyclin-dependent kinase 6

>  <UniProt ID>  (1) 
Q00534

>  <PDB ID.1>  (1) 
5L2T

>  <Seq. Identity>  (1) 
100%

$$$$
