PDB_DB00311_06
     RDKit          3D

 36 37  0  0  0  0  0  0  0  0999 V2000
   -5.0809   -0.0377   -0.6100 N   0  0  0  0  0  0  0  0  0  0  0  0
   -0.5564   -0.4453   -0.4668 C   0  0  2  0  0  0  0  0  0  0  0  0
    0.0113   -0.5439    0.9612 C   0  0  1  0  0  0  0  0  0  0  0  0
    1.2779    0.2355    0.9598 C   0  0  0  0  0  0  0  0  0  0  0  0
    2.1968   -0.3533   -0.0855 C   0  0  0  0  0  0  0  0  0  0  0  0
    4.0515    0.8024   -0.8247 C   0  0  0  0  0  0  0  0  0  0  0  0
   -4.6436   -0.5929    1.9336 O   0  0  0  0  0  0  0  0  0  0  0  0
   -4.5895    1.9340    1.0455 O   0  0  0  0  0  0  0  0  0  0  0  0
   -4.1089    0.1247    0.7714 S   0  0  0  0  0  0  0  0  0  0  0  0
   -2.5226    0.2613    0.3865 C   0  0  0  0  0  0  0  0  0  0  0  0
   -1.9173   -0.8437   -0.3383 N   0  0  0  0  0  0  0  0  0  0  0  0
   -1.3584    0.3779    1.7855 S   0  0  0  0  0  0  0  0  0  0  0  0
    1.5860   -1.5270   -0.8069 C   0  0  0  0  0  0  0  0  0  0  0  0
    0.2578   -1.1992   -1.4384 C   0  0  0  0  0  0  0  0  0  0  0  0
    2.6737    0.6264   -0.9277 O   0  0  0  0  0  0  0  0  0  0  0  0
    4.4599    1.1992    0.5709 C   0  0  0  0  0  0  0  0  0  0  0  0
   -5.3950   -1.0207   -0.7526 H   0  0  0  0  0  0  0  0  0  0  0  0
   -4.6124    0.3453   -1.4379 H   0  0  0  0  0  0  0  0  0  0  0  0
   -0.5384    0.6484   -0.6990 H   0  0  0  0  0  0  0  0  0  0  0  0
    0.0754   -1.5688    1.3126 H   0  0  0  0  0  0  0  0  0  0  0  0
    1.0343    1.2788    0.6487 H   0  0  0  0  0  0  0  0  0  0  0  0
    1.7574    0.3207    1.9531 H   0  0  0  0  0  0  0  0  0  0  0  0
    3.0770   -0.7706    0.4865 H   0  0  0  0  0  0  0  0  0  0  0  0
    4.3275    1.6200   -1.5275 H   0  0  0  0  0  0  0  0  0  0  0  0
    4.6122   -0.0978   -1.1291 H   0  0  0  0  0  0  0  0  0  0  0  0
   -5.1442   -0.1793    2.6583 H   0  0  0  0  0  0  0  0  0  0  0  0
   -4.1494    2.3089    0.2431 H   0  0  0  0  0  0  0  0  0  0  0  0
   -2.3059    1.1595   -0.2517 H   0  0  0  0  0  0  0  0  0  0  0  0
   -2.3913   -1.0912   -1.2062 H   0  0  0  0  0  0  0  0  0  0  0  0
    1.5234   -2.3983   -0.1427 H   0  0  0  0  0  0  0  0  0  0  0  0
    2.2777   -1.7965   -1.6288 H   0  0  0  0  0  0  0  0  0  0  0  0
    0.4719   -0.5601   -2.3452 H   0  0  0  0  0  0  0  0  0  0  0  0
   -0.1877   -2.1377   -1.8048 H   0  0  0  0  0  0  0  0  0  0  0  0
    3.7279    1.8750    1.0548 H   0  0  0  0  0  0  0  0  0  0  0  0
    4.6606    0.3101    1.1835 H   0  0  0  0  0  0  0  0  0  0  0  0
    5.4419    1.7361    0.4687 H   0  0  0  0  0  0  0  0  0  0  0  0
  2  3  1  0
  3  4  1  0
  4  5  1  0
  1  9  1  0
  9  7  1  0
  8  9  1  0
  9 10  1  0
  2 11  1  0
 10 11  1  0
  3 12  1  0
 10 12  1  0
  5 13  1  0
  2 14  1  0
 13 14  1  0
  5 15  1  0
  6 15  1  0
  6 16  1  0
  1 17  1  0
  1 18  1  0
  2 19  1  6
  3 20  1  1
  4 21  1  0
  4 22  1  0
  5 23  1  0
  6 24  1  0
  6 25  1  0
  7 26  1  0
  8 27  1  0
 10 28  1  0
 11 29  1  0
 13 30  1  0
 13 31  1  0
 14 32  1  0
 14 33  1  0
 16 34  1  0
 16 35  1  0
 16 36  1  0
M  END
>  <PDBID>  (1) 
3DD0

>  <PDB ID>  (1) 
3DD0

>  <Generic Name>  (1) 
Ethoxzolamide

>  <Brand Name>  (1) 
Cardrase#Ethamide

>  <DrugBank ID>  (1) 
DB00311

>  <ATC Codes>  (1) 
nan

>  <Ligand ID>  (1) 
EZL

>  <Target Name>  (1) 
Carbonic anhydrase 1

>  <UniProt ID>  (1) 
P00915

>  <PDB ID.1>  (1) 
3DD0

>  <Seq. Identity>  (1) 
61%

$$$$
