PDB_DB00396_02
     RDKit          3D

118124  0  0  0  0  0  0  0  0999 V2000
   -2.8366    1.1281   -1.1318 C   0  0  0  0  0  0  0  0  0  0  0  0
   -4.3064    1.2607   -0.9302 C   0  0  0  0  0  0  0  0  0  0  0  0
   -4.9763    0.0206   -0.4291 C   0  0  0  0  0  0  0  0  0  0  0  0
   -6.2906    0.3407   -0.0847 O   0  0  0  0  0  0  0  0  0  0  0  0
   -4.2474   -0.6601    0.6829 C   0  0  0  0  0  0  0  0  0  0  0  0
   -2.8189   -0.8730    0.2709 C   0  0  2  0  0  0  0  0  0  0  0  0
   -2.0817   -1.7403    1.2628 C   0  0  0  0  0  0  0  0  0  0  0  0
   -0.7359   -2.0541    0.6914 C   0  0  0  0  0  0  0  0  0  0  0  0
    0.0234   -0.7308    0.5819 C   0  0  2  0  0  0  0  0  0  0  0  0
   -0.7230    0.2301   -0.3538 C   0  0  1  0  0  0  0  0  0  0  0  0
   -2.1358    0.4354    0.0301 C   0  0  1  0  0  0  0  0  0  0  0  0
    0.0933    1.4905   -0.4114 C   0  0  0  0  0  0  0  0  0  0  0  0
    1.4517    1.2117   -1.0203 C   0  0  0  0  0  0  0  0  0  0  0  0
    2.2262    0.2058   -0.1978 C   0  0  1  0  0  0  0  0  0  0  0  0
    1.2994   -1.0113   -0.0829 C   0  0  1  0  0  0  0  0  0  0  0  0
    2.1927   -2.0303    0.4902 C   0  0  0  0  0  0  0  0  0  0  0  0
    3.4187   -1.8589   -0.4075 C   0  0  0  0  0  0  0  0  0  0  0  0
    3.3604   -0.4140   -0.9042 C   0  0  2  0  0  0  0  0  0  0  0  0
    2.5509    0.7894    1.1459 C   0  0  0  0  0  0  0  0  0  0  0  0
   -2.3140    1.2893    1.2636 C   0  0  0  0  0  0  0  0  0  0  0  0
    4.6956    0.1705   -0.7712 C   0  0  0  0  0  0  0  0  0  0  0  0
    5.1967    0.2176    0.5281 O   0  0  0  0  0  0  0  0  0  0  0  0
    4.8860    1.5324   -1.3812 C   0  0  0  0  0  0  0  0  0  0  0  0
   -2.8366    1.1281   -1.1318 C   0  0  0  0  0  0  0  0  0  0  0  0
   -4.3064    1.2607   -0.9302 C   0  0  0  0  0  0  0  0  0  0  0  0
   -4.9763    0.0206   -0.4291 C   0  0  0  0  0  0  0  0  0  0  0  0
   -6.2906    0.3407   -0.0847 O   0  0  0  0  0  0  0  0  0  0  0  0
   -4.2474   -0.6601    0.6829 C   0  0  0  0  0  0  0  0  0  0  0  0
   -2.8189   -0.8730    0.2709 C   0  0  2  0  0  0  0  0  0  0  0  0
   -2.0817   -1.7403    1.2628 C   0  0  0  0  0  0  0  0  0  0  0  0
   -0.7359   -2.0541    0.6914 C   0  0  0  0  0  0  0  0  0  0  0  0
    0.0234   -0.7308    0.5819 C   0  0  2  0  0  0  0  0  0  0  0  0
   -0.7230    0.2301   -0.3538 C   0  0  1  0  0  0  0  0  0  0  0  0
   -2.1358    0.4354    0.0301 C   0  0  1  0  0  0  0  0  0  0  0  0
    0.0933    1.4905   -0.4114 C   0  0  0  0  0  0  0  0  0  0  0  0
    1.4517    1.2117   -1.0203 C   0  0  0  0  0  0  0  0  0  0  0  0
    2.2262    0.2058   -0.1978 C   0  0  1  0  0  0  0  0  0  0  0  0
    1.2994   -1.0113   -0.0829 C   0  0  1  0  0  0  0  0  0  0  0  0
    2.1927   -2.0303    0.4902 C   0  0  0  0  0  0  0  0  0  0  0  0
    3.4187   -1.8589   -0.4075 C   0  0  0  0  0  0  0  0  0  0  0  0
    3.3604   -0.4140   -0.9042 C   0  0  2  0  0  0  0  0  0  0  0  0
    2.5509    0.7894    1.1459 C   0  0  0  0  0  0  0  0  0  0  0  0
   -2.3140    1.2893    1.2636 C   0  0  0  0  0  0  0  0  0  0  0  0
    4.6956    0.1705   -0.7712 C   0  0  0  0  0  0  0  0  0  0  0  0
    5.1967    0.2176    0.5281 O   0  0  0  0  0  0  0  0  0  0  0  0
    4.8860    1.5324   -1.3812 C   0  0  0  0  0  0  0  0  0  0  0  0
   -2.4214    2.1691   -1.2370 H   0  0  0  0  0  0  0  0  0  0  0  0
   -2.6306    0.5131   -2.0387 H   0  0  0  0  0  0  0  0  0  0  0  0
   -4.7550    1.4787   -1.9441 H   0  0  0  0  0  0  0  0  0  0  0  0
   -4.5169    2.1642   -0.3278 H   0  0  0  0  0  0  0  0  0  0  0  0
   -5.0565   -0.6798   -1.3112 H   0  0  0  0  0  0  0  0  0  0  0  0
   -6.9393   -0.3064   -0.4651 H   0  0  0  0  0  0  0  0  0  0  0  0
   -4.3424   -0.0792    1.6195 H   0  0  0  0  0  0  0  0  0  0  0  0
   -4.7094   -1.6802    0.7984 H   0  0  0  0  0  0  0  0  0  0  0  0
   -2.8318   -1.4355   -0.6911 H   0  0  0  0  0  0  0  0  0  0  0  0
   -2.6455   -2.6943    1.3383 H   0  0  0  0  0  0  0  0  0  0  0  0
   -2.0244   -1.3186    2.2675 H   0  0  0  0  0  0  0  0  0  0  0  0
   -0.8421   -2.5159   -0.3059 H   0  0  0  0  0  0  0  0  0  0  0  0
   -0.1189   -2.7000    1.3412 H   0  0  0  0  0  0  0  0  0  0  0  0
    0.0781   -0.3282    1.5956 H   0  0  0  0  0  0  0  0  0  0  0  0
   -0.6881   -0.2460   -1.3512 H   0  0  0  0  0  0  0  0  0  0  0  0
   -0.3961    2.2817   -1.0232 H   0  0  0  0  0  0  0  0  0  0  0  0
    0.2340    1.8586    0.6273 H   0  0  0  0  0  0  0  0  0  0  0  0
    1.9767    2.2043   -1.0479 H   0  0  0  0  0  0  0  0  0  0  0  0
    1.3496    0.7954   -2.0362 H   0  0  0  0  0  0  0  0  0  0  0  0
    1.0832   -1.2946   -1.1524 H   0  0  0  0  0  0  0  0  0  0  0  0
    2.5179   -1.7461    1.5117 H   0  0  0  0  0  0  0  0  0  0  0  0
    1.8113   -3.0702    0.4446 H   0  0  0  0  0  0  0  0  0  0  0  0
    4.3526   -2.0715    0.1379 H   0  0  0  0  0  0  0  0  0  0  0  0
    3.2573   -2.5610   -1.2638 H   0  0  0  0  0  0  0  0  0  0  0  0
    3.1093   -0.4337   -2.0060 H   0  0  0  0  0  0  0  0  0  0  0  0
    2.9867    1.7953    0.9708 H   0  0  0  0  0  0  0  0  0  0  0  0
    1.6504    0.9552    1.7734 H   0  0  0  0  0  0  0  0  0  0  0  0
    3.2162    0.1530    1.7499 H   0  0  0  0  0  0  0  0  0  0  0  0
   -3.3707    1.6831    1.2895 H   0  0  0  0  0  0  0  0  0  0  0  0
   -2.1959    0.7153    2.2062 H   0  0  0  0  0  0  0  0  0  0  0  0
   -1.6687    2.1717    1.2901 H   0  0  0  0  0  0  0  0  0  0  0  0
    5.4112   -0.5107   -1.3269 H   0  0  0  0  0  0  0  0  0  0  0  0
    6.1857    0.1309    0.5243 H   0  0  0  0  0  0  0  0  0  0  0  0
    4.4070    1.6330   -2.3764 H   0  0  0  0  0  0  0  0  0  0  0  0
    4.6147    2.3636   -0.6973 H   0  0  0  0  0  0  0  0  0  0  0  0
    5.9837    1.6557   -1.5684 H   0  0  0  0  0  0  0  0  0  0  0  0
   -2.4214    2.1691   -1.2370 H   0  0  0  0  0  0  0  0  0  0  0  0
   -2.6306    0.5131   -2.0387 H   0  0  0  0  0  0  0  0  0  0  0  0
   -4.7550    1.4787   -1.9441 H   0  0  0  0  0  0  0  0  0  0  0  0
   -4.5169    2.1642   -0.3278 H   0  0  0  0  0  0  0  0  0  0  0  0
   -5.0565   -0.6798   -1.3112 H   0  0  0  0  0  0  0  0  0  0  0  0
   -6.9393   -0.3064   -0.4651 H   0  0  0  0  0  0  0  0  0  0  0  0
   -4.3424   -0.0792    1.6195 H   0  0  0  0  0  0  0  0  0  0  0  0
   -4.7094   -1.6802    0.7984 H   0  0  0  0  0  0  0  0  0  0  0  0
   -2.8318   -1.4355   -0.6911 H   0  0  0  0  0  0  0  0  0  0  0  0
   -2.6455   -2.6943    1.3383 H   0  0  0  0  0  0  0  0  0  0  0  0
   -2.0244   -1.3186    2.2675 H   0  0  0  0  0  0  0  0  0  0  0  0
   -0.8421   -2.5159   -0.3059 H   0  0  0  0  0  0  0  0  0  0  0  0
   -0.1189   -2.7000    1.3412 H   0  0  0  0  0  0  0  0  0  0  0  0
    0.0781   -0.3282    1.5956 H   0  0  0  0  0  0  0  0  0  0  0  0
   -0.6881   -0.2460   -1.3512 H   0  0  0  0  0  0  0  0  0  0  0  0
   -0.3961    2.2817   -1.0232 H   0  0  0  0  0  0  0  0  0  0  0  0
    0.2340    1.8586    0.6273 H   0  0  0  0  0  0  0  0  0  0  0  0
    1.9767    2.2043   -1.0479 H   0  0  0  0  0  0  0  0  0  0  0  0
    1.3496    0.7954   -2.0362 H   0  0  0  0  0  0  0  0  0  0  0  0
    1.0832   -1.2946   -1.1524 H   0  0  0  0  0  0  0  0  0  0  0  0
    2.5179   -1.7461    1.5117 H   0  0  0  0  0  0  0  0  0  0  0  0
    1.8113   -3.0702    0.4446 H   0  0  0  0  0  0  0  0  0  0  0  0
    4.3526   -2.0715    0.1379 H   0  0  0  0  0  0  0  0  0  0  0  0
    3.2573   -2.5610   -1.2638 H   0  0  0  0  0  0  0  0  0  0  0  0
    3.1093   -0.4337   -2.0060 H   0  0  0  0  0  0  0  0  0  0  0  0
    2.9867    1.7953    0.9708 H   0  0  0  0  0  0  0  0  0  0  0  0
    1.6504    0.9552    1.7734 H   0  0  0  0  0  0  0  0  0  0  0  0
    3.2162    0.1530    1.7499 H   0  0  0  0  0  0  0  0  0  0  0  0
   -3.3707    1.6831    1.2895 H   0  0  0  0  0  0  0  0  0  0  0  0
   -2.1959    0.7153    2.2062 H   0  0  0  0  0  0  0  0  0  0  0  0
   -1.6687    2.1717    1.2901 H   0  0  0  0  0  0  0  0  0  0  0  0
    5.4112   -0.5107   -1.3269 H   0  0  0  0  0  0  0  0  0  0  0  0
    6.1857    0.1309    0.5243 H   0  0  0  0  0  0  0  0  0  0  0  0
    4.4070    1.6330   -2.3764 H   0  0  0  0  0  0  0  0  0  0  0  0
    4.6147    2.3636   -0.6973 H   0  0  0  0  0  0  0  0  0  0  0  0
    5.9837    1.6557   -1.5684 H   0  0  0  0  0  0  0  0  0  0  0  0
  1  2  1  0
  2  3  1  0
  3  4  1  0
  3  5  1  0
  5  6  1  0
  6  7  1  0
  7  8  1  0
  8  9  1  0
  9 10  1  0
  1 11  1  0
  6 11  1  0
 10 11  1  0
 10 12  1  0
 12 13  1  0
 13 14  1  0
  9 15  1  0
 14 15  1  0
 15 16  1  0
 16 17  1  0
 14 18  1  0
 17 18  1  0
 14 19  1  1
 11 20  1  1
 18 21  1  0
 21 22  1  0
 21 23  1  0
 24 25  1  0
 25 26  1  0
 26 27  1  0
 26 28  1  0
 28 29  1  0
 29 30  1  0
 30 31  1  0
 31 32  1  0
 32 33  1  0
 24 34  1  0
 29 34  1  0
 33 34  1  0
 33 35  1  0
 35 36  1  0
 36 37  1  0
 32 38  1  0
 37 38  1  0
 38 39  1  0
 39 40  1  0
 37 41  1  0
 40 41  1  0
 37 42  1  1
 34 43  1  1
 41 44  1  0
 44 45  1  0
 44 46  1  0
  1 47  1  0
  1 48  1  0
  2 49  1  0
  2 50  1  0
  3 51  1  0
  4 52  1  0
  5 53  1  0
  5 54  1  0
  6 55  1  6
  7 56  1  0
  7 57  1  0
  8 58  1  0
  8 59  1  0
  9 60  1  1
 10 61  1  6
 12 62  1  0
 12 63  1  0
 13 64  1  0
 13 65  1  0
 15 66  1  6
 16 67  1  0
 16 68  1  0
 17 69  1  0
 17 70  1  0
 18 71  1  6
 19 72  1  0
 19 73  1  0
 19 74  1  0
 20 75  1  0
 20 76  1  0
 20 77  1  0
 21 78  1  0
 22 79  1  0
 23 80  1  0
 23 81  1  0
 23 82  1  0
 24 83  1  0
 24 84  1  0
 25 85  1  0
 25 86  1  0
 26 87  1  0
 27 88  1  0
 28 89  1  0
 28 90  1  0
 29 91  1  6
 30 92  1  0
 30 93  1  0
 31 94  1  0
 31 95  1  0
 32 96  1  1
 33 97  1  6
 35 98  1  0
 35 99  1  0
 36100  1  0
 36101  1  0
 38102  1  6
 39103  1  0
 39104  1  0
 40105  1  0
 40106  1  0
 41107  1  6
 42108  1  0
 42109  1  0
 42110  1  0
 43111  1  0
 43112  1  0
 43113  1  0
 44114  1  0
 45115  1  0
 46116  1  0
 46117  1  0
 46118  1  0
M  END
>  <PDBID>  (1) 
4FN9

>  <PDB ID>  (1) 
4FN9

>  <Generic Name>  (1) 
Progesterone

>  <Brand Name>  (1) 
Act Progesterone Injection#Crinone#Endometrin#Estrogel Propak#Gesterol In Oil-liq Im 50mg/ml#PMS-progesterone Inj 50mg/ml USP#Prochieve#Progesterone#Progesterone Inj 50mg/ml USP#Progesterone Injection USP#Prometrium#Teva-progesterone#Agolutin#Cyclogest#Gesterol#Gestone#Progestasert#Progestogel#Qi Ning#Relantan#Susten#Utrogestan#Utrogestran#Utrovin#Vasclor

>  <DrugBank ID>  (1) 
DB00396

>  <ATC Codes>  (1) 
G03DA04#G03FA04

>  <Ligand ID>  (1) 
STR

>  <Target Name>  (1) 
Estrogen receptor

>  <UniProt ID>  (1) 
P03372

>  <PDB ID.1>  (1) 
4FN9

>  <Seq. Identity>  (1) 
32%

$$$$
