PDB_DB08916_03
     RDKit          3D

158164  0  0  0  0  0  0  0  0999 V2000
    3.0014    1.1203    1.8999 C   0  0  0  0  0  0  0  0  0  0  0  0
    2.5131   -0.1892    2.2010 N   0  0  0  0  0  0  0  0  0  0  0  0
    2.0205    1.8728    1.1128 N   0  0  0  0  0  0  0  0  0  0  0  0
    2.2289   -0.9835    1.0098 C   0  0  0  0  0  0  0  0  0  0  0  0
    2.0596    1.2262   -0.1942 C   0  0  0  0  0  0  0  0  0  0  0  0
    1.5328   -0.1501   -0.0500 C   0  0  0  0  0  0  0  0  0  0  0  0
   -0.8100    0.9059   -0.2863 C   0  0  0  0  0  0  0  0  0  0  0  0
    0.0528   -0.0634    0.3534 C   0  0  0  0  0  0  0  0  0  0  0  0
   -0.1316    2.2573   -0.5060 C   0  0  0  0  0  0  0  0  0  0  0  0
    1.1760    1.9596   -1.1943 C   0  0  0  0  0  0  0  0  0  0  0  0
    3.2338   -1.8682    0.6528 N   0  0  0  0  0  0  0  0  0  0  0  0
    5.4791   -3.5901   -0.9521 C   0  0  0  0  0  0  0  0  0  0  0  0
    6.8360   -3.1225   -0.4557 C   0  0  0  0  0  0  0  0  0  0  0  0
    4.6682   -2.3434   -1.1847 C   0  0  0  0  0  0  0  0  0  0  0  0
    6.5949   -2.5835    0.9304 C   0  0  0  0  0  0  0  0  0  0  0  0
    4.4612   -1.5240    0.0833 C   0  0  0  0  0  0  0  0  0  0  0  0
    5.6320   -1.4671    0.9961 C   0  0  0  0  0  0  0  0  0  0  0  0
    7.7423   -4.1541   -0.3687 F   0  0  0  0  0  0  0  0  0  0  0  0
    5.6632   -4.4157   -2.5105 Cl  0  0  0  0  0  0  0  0  0  0  0  0
   -0.9291    3.0421   -1.3511 O   0  0  0  0  0  0  0  0  0  0  0  0
   -1.1497    4.2716   -0.7936 C   0  0  2  0  0  0  0  0  0  0  0  0
   -2.5888    4.5894   -0.4724 C   0  0  0  0  0  0  0  0  0  0  0  0
   -2.8015    5.9378   -0.7274 O   0  0  0  0  0  0  0  0  0  0  0  0
   -1.6191    6.5267   -1.0825 C   0  0  0  0  0  0  0  0  0  0  0  0
   -0.7911    5.4130   -1.7188 C   0  0  0  0  0  0  0  0  0  0  0  0
   -2.0674    1.0673    0.3066 N   0  0  0  0  0  0  0  0  0  0  0  0
   -3.1244    0.1952    0.3230 C   0  0  0  0  0  0  0  0  0  0  0  0
   -3.0322   -1.1502    0.9539 C   0  0  0  0  0  0  0  0  0  0  0  0
   -4.2454    0.8848    0.9175 O   0  0  0  0  0  0  0  0  0  0  0  0
   -4.3796   -1.8851    0.8626 C   0  0  0  0  0  0  0  0  0  0  0  0
   -4.7968   -2.0828   -0.5512 C   0  0  0  0  0  0  0  0  0  0  0  0
   -6.0527   -2.8049   -0.6778 N   0  0  0  0  0  0  0  0  0  0  0  0
   -5.9551   -4.1725   -0.2842 C   0  0  0  0  0  0  0  0  0  0  0  0
   -7.1830   -2.1034   -0.1521 C   0  0  0  0  0  0  0  0  0  0  0  0
    3.0014    1.1203    1.8999 C   0  0  0  0  0  0  0  0  0  0  0  0
    2.5131   -0.1892    2.2010 N   0  0  0  0  0  0  0  0  0  0  0  0
    2.0205    1.8728    1.1128 N   0  0  0  0  0  0  0  0  0  0  0  0
    2.2289   -0.9835    1.0098 C   0  0  0  0  0  0  0  0  0  0  0  0
    2.0596    1.2262   -0.1942 C   0  0  0  0  0  0  0  0  0  0  0  0
    1.5328   -0.1501   -0.0500 C   0  0  0  0  0  0  0  0  0  0  0  0
   -0.8100    0.9059   -0.2863 C   0  0  0  0  0  0  0  0  0  0  0  0
    0.0528   -0.0634    0.3534 C   0  0  0  0  0  0  0  0  0  0  0  0
   -0.1316    2.2573   -0.5060 C   0  0  0  0  0  0  0  0  0  0  0  0
    1.1760    1.9596   -1.1943 C   0  0  0  0  0  0  0  0  0  0  0  0
    3.2338   -1.8682    0.6528 N   0  0  0  0  0  0  0  0  0  0  0  0
    5.4791   -3.5901   -0.9521 C   0  0  0  0  0  0  0  0  0  0  0  0
    6.8360   -3.1225   -0.4557 C   0  0  0  0  0  0  0  0  0  0  0  0
    4.6682   -2.3434   -1.1847 C   0  0  0  0  0  0  0  0  0  0  0  0
    6.5949   -2.5835    0.9304 C   0  0  0  0  0  0  0  0  0  0  0  0
    4.4612   -1.5240    0.0833 C   0  0  0  0  0  0  0  0  0  0  0  0
    5.6320   -1.4671    0.9961 C   0  0  0  0  0  0  0  0  0  0  0  0
    7.7423   -4.1541   -0.3687 F   0  0  0  0  0  0  0  0  0  0  0  0
    5.6632   -4.4157   -2.5105 Cl  0  0  0  0  0  0  0  0  0  0  0  0
   -0.9291    3.0421   -1.3511 O   0  0  0  0  0  0  0  0  0  0  0  0
   -1.1497    4.2716   -0.7936 C   0  0  2  0  0  0  0  0  0  0  0  0
   -2.5888    4.5894   -0.4724 C   0  0  0  0  0  0  0  0  0  0  0  0
   -2.8015    5.9378   -0.7274 O   0  0  0  0  0  0  0  0  0  0  0  0
   -1.6191    6.5267   -1.0825 C   0  0  0  0  0  0  0  0  0  0  0  0
   -0.7911    5.4130   -1.7188 C   0  0  0  0  0  0  0  0  0  0  0  0
   -2.0674    1.0673    0.3066 N   0  0  0  0  0  0  0  0  0  0  0  0
   -3.1244    0.1952    0.3230 C   0  0  0  0  0  0  0  0  0  0  0  0
   -3.0322   -1.1502    0.9539 C   0  0  0  0  0  0  0  0  0  0  0  0
   -4.2454    0.8848    0.9175 O   0  0  0  0  0  0  0  0  0  0  0  0
   -4.3796   -1.8851    0.8626 C   0  0  0  0  0  0  0  0  0  0  0  0
   -4.7968   -2.0828   -0.5512 C   0  0  0  0  0  0  0  0  0  0  0  0
   -6.0527   -2.8049   -0.6778 N   0  0  0  0  0  0  0  0  0  0  0  0
   -5.9551   -4.1725   -0.2842 C   0  0  0  0  0  0  0  0  0  0  0  0
   -7.1830   -2.1034   -0.1521 C   0  0  0  0  0  0  0  0  0  0  0  0
    3.1331    1.6757    2.8438 H   0  0  0  0  0  0  0  0  0  0  0  0
    3.9668    1.1288    1.3639 H   0  0  0  0  0  0  0  0  0  0  0  0
    1.6302   -0.0534    2.7850 H   0  0  0  0  0  0  0  0  0  0  0  0
    1.0889    1.7312    1.5745 H   0  0  0  0  0  0  0  0  0  0  0  0
    1.3915   -1.6717    1.3980 H   0  0  0  0  0  0  0  0  0  0  0  0
    3.0744    1.3510   -0.5900 H   0  0  0  0  0  0  0  0  0  0  0  0
    1.5486   -0.6942   -1.0262 H   0  0  0  0  0  0  0  0  0  0  0  0
   -1.0103    0.5235   -1.3637 H   0  0  0  0  0  0  0  0  0  0  0  0
   -0.0268   -0.0654    1.4744 H   0  0  0  0  0  0  0  0  0  0  0  0
   -0.3154   -1.1004    0.0740 H   0  0  0  0  0  0  0  0  0  0  0  0
    0.0016    2.8299    0.4072 H   0  0  0  0  0  0  0  0  0  0  0  0
    1.7145    2.8361   -1.5373 H   0  0  0  0  0  0  0  0  0  0  0  0
    0.9864    1.2815   -2.0318 H   0  0  0  0  0  0  0  0  0  0  0  0
    2.9894   -2.8903    0.6370 H   0  0  0  0  0  0  0  0  0  0  0  0
    5.0684   -4.2451   -0.1853 H   0  0  0  0  0  0  0  0  0  0  0  0
    7.1763   -2.2968   -1.1267 H   0  0  0  0  0  0  0  0  0  0  0  0
    3.6868   -2.6504   -1.6096 H   0  0  0  0  0  0  0  0  0  0  0  0
    5.1961   -1.7625   -1.9683 H   0  0  0  0  0  0  0  0  0  0  0  0
    7.5803   -2.2627    1.3227 H   0  0  0  0  0  0  0  0  0  0  0  0
    6.2664   -3.4248    1.5868 H   0  0  0  0  0  0  0  0  0  0  0  0
    4.3610   -0.4881   -0.3513 H   0  0  0  0  0  0  0  0  0  0  0  0
    5.3180   -1.3855    2.0676 H   0  0  0  0  0  0  0  0  0  0  0  0
    6.2321   -0.5220    0.8204 H   0  0  0  0  0  0  0  0  0  0  0  0
   -0.5986    4.4242    0.1601 H   0  0  0  0  0  0  0  0  0  0  0  0
   -2.7598    4.4676    0.6404 H   0  0  0  0  0  0  0  0  0  0  0  0
   -3.3089    3.9747   -1.0230 H   0  0  0  0  0  0  0  0  0  0  0  0
   -0.9964    6.8913   -0.2147 H   0  0  0  0  0  0  0  0  0  0  0  0
   -1.7539    7.3795   -1.7780 H   0  0  0  0  0  0  0  0  0  0  0  0
   -1.2221    5.2641   -2.7371 H   0  0  0  0  0  0  0  0  0  0  0  0
    0.2850    5.6474   -1.7460 H   0  0  0  0  0  0  0  0  0  0  0  0
   -2.1558    1.9193    0.9262 H   0  0  0  0  0  0  0  0  0  0  0  0
   -3.5232    0.0328   -0.7463 H   0  0  0  0  0  0  0  0  0  0  0  0
   -2.3153   -1.8504    0.4679 H   0  0  0  0  0  0  0  0  0  0  0  0
   -2.7678   -1.1097    2.0290 H   0  0  0  0  0  0  0  0  0  0  0  0
   -4.3280    1.7833    0.5341 H   0  0  0  0  0  0  0  0  0  0  0  0
   -5.1071   -1.2804    1.4544 H   0  0  0  0  0  0  0  0  0  0  0  0
   -4.2470   -2.8773    1.3684 H   0  0  0  0  0  0  0  0  0  0  0  0
   -4.0532   -2.6573   -1.1009 H   0  0  0  0  0  0  0  0  0  0  0  0
   -5.0145   -1.0993   -1.0565 H   0  0  0  0  0  0  0  0  0  0  0  0
   -6.8509   -4.4548    0.3021 H   0  0  0  0  0  0  0  0  0  0  0  0
   -6.0372   -4.7866   -1.2354 H   0  0  0  0  0  0  0  0  0  0  0  0
   -5.0163   -4.4420    0.1974 H   0  0  0  0  0  0  0  0  0  0  0  0
   -7.8676   -2.7792    0.4057 H   0  0  0  0  0  0  0  0  0  0  0  0
   -6.9188   -1.2453    0.5126 H   0  0  0  0  0  0  0  0  0  0  0  0
   -7.7391   -1.6626   -1.0150 H   0  0  0  0  0  0  0  0  0  0  0  0
    3.1331    1.6757    2.8438 H   0  0  0  0  0  0  0  0  0  0  0  0
    3.9668    1.1288    1.3639 H   0  0  0  0  0  0  0  0  0  0  0  0
    1.6302   -0.0534    2.7850 H   0  0  0  0  0  0  0  0  0  0  0  0
    1.0889    1.7312    1.5745 H   0  0  0  0  0  0  0  0  0  0  0  0
    1.3915   -1.6717    1.3980 H   0  0  0  0  0  0  0  0  0  0  0  0
    3.0744    1.3510   -0.5900 H   0  0  0  0  0  0  0  0  0  0  0  0
    1.5486   -0.6942   -1.0262 H   0  0  0  0  0  0  0  0  0  0  0  0
   -1.0103    0.5235   -1.3637 H   0  0  0  0  0  0  0  0  0  0  0  0
   -0.0268   -0.0654    1.4744 H   0  0  0  0  0  0  0  0  0  0  0  0
   -0.3154   -1.1004    0.0740 H   0  0  0  0  0  0  0  0  0  0  0  0
    0.0016    2.8299    0.4072 H   0  0  0  0  0  0  0  0  0  0  0  0
    1.7145    2.8361   -1.5373 H   0  0  0  0  0  0  0  0  0  0  0  0
    0.9864    1.2815   -2.0318 H   0  0  0  0  0  0  0  0  0  0  0  0
    2.9894   -2.8903    0.6370 H   0  0  0  0  0  0  0  0  0  0  0  0
    5.0684   -4.2451   -0.1853 H   0  0  0  0  0  0  0  0  0  0  0  0
    7.1763   -2.2968   -1.1267 H   0  0  0  0  0  0  0  0  0  0  0  0
    3.6868   -2.6504   -1.6096 H   0  0  0  0  0  0  0  0  0  0  0  0
    5.1961   -1.7625   -1.9683 H   0  0  0  0  0  0  0  0  0  0  0  0
    7.5803   -2.2627    1.3227 H   0  0  0  0  0  0  0  0  0  0  0  0
    6.2664   -3.4248    1.5868 H   0  0  0  0  0  0  0  0  0  0  0  0
    4.3610   -0.4881   -0.3513 H   0  0  0  0  0  0  0  0  0  0  0  0
    5.3180   -1.3855    2.0676 H   0  0  0  0  0  0  0  0  0  0  0  0
    6.2321   -0.5220    0.8204 H   0  0  0  0  0  0  0  0  0  0  0  0
   -0.5986    4.4242    0.1601 H   0  0  0  0  0  0  0  0  0  0  0  0
   -2.7598    4.4676    0.6404 H   0  0  0  0  0  0  0  0  0  0  0  0
   -3.3089    3.9747   -1.0230 H   0  0  0  0  0  0  0  0  0  0  0  0
   -0.9964    6.8913   -0.2147 H   0  0  0  0  0  0  0  0  0  0  0  0
   -1.7539    7.3795   -1.7780 H   0  0  0  0  0  0  0  0  0  0  0  0
   -1.2221    5.2641   -2.7371 H   0  0  0  0  0  0  0  0  0  0  0  0
    0.2850    5.6474   -1.7460 H   0  0  0  0  0  0  0  0  0  0  0  0
   -2.1558    1.9193    0.9262 H   0  0  0  0  0  0  0  0  0  0  0  0
   -3.5232    0.0328   -0.7463 H   0  0  0  0  0  0  0  0  0  0  0  0
   -2.3153   -1.8504    0.4679 H   0  0  0  0  0  0  0  0  0  0  0  0
   -2.7678   -1.1097    2.0290 H   0  0  0  0  0  0  0  0  0  0  0  0
   -4.3280    1.7833    0.5341 H   0  0  0  0  0  0  0  0  0  0  0  0
   -5.1071   -1.2804    1.4544 H   0  0  0  0  0  0  0  0  0  0  0  0
   -4.2470   -2.8773    1.3684 H   0  0  0  0  0  0  0  0  0  0  0  0
   -4.0532   -2.6573   -1.1009 H   0  0  0  0  0  0  0  0  0  0  0  0
   -5.0145   -1.0993   -1.0565 H   0  0  0  0  0  0  0  0  0  0  0  0
   -6.8509   -4.4548    0.3021 H   0  0  0  0  0  0  0  0  0  0  0  0
   -6.0372   -4.7866   -1.2354 H   0  0  0  0  0  0  0  0  0  0  0  0
   -5.0163   -4.4420    0.1974 H   0  0  0  0  0  0  0  0  0  0  0  0
   -7.8676   -2.7792    0.4057 H   0  0  0  0  0  0  0  0  0  0  0  0
   -6.9188   -1.2453    0.5126 H   0  0  0  0  0  0  0  0  0  0  0  0
   -7.7391   -1.6626   -1.0150 H   0  0  0  0  0  0  0  0  0  0  0  0
  1  2  1  0
  1  3  1  0
  2  4  1  0
  3  5  1  0
  4  6  1  0
  5  6  1  0
  6  8  1  0
  7  8  1  0
  7  9  1  0
  5 10  1  0
  9 10  1  0
  4 11  1  0
 12 13  1  0
 12 14  1  0
 13 15  1  0
 11 16  1  0
 14 16  1  0
 15 17  1  0
 16 17  1  0
 13 18  1  0
 12 19  1  0
  9 20  1  0
 20 21  1  0
 21 22  1  0
 22 23  1  0
 23 24  1  0
 21 25  1  0
 24 25  1  0
  7 26  1  0
 26 27  1  0
 27 28  1  0
 27 29  1  0
 28 30  1  0
 30 31  1  0
 31 32  1  0
 32 33  1  0
 32 34  1  0
 35 36  1  0
 35 37  1  0
 36 38  1  0
 37 39  1  0
 38 40  1  0
 39 40  1  0
 40 42  1  0
 41 42  1  0
 41 43  1  0
 39 44  1  0
 43 44  1  0
 38 45  1  0
 46 47  1  0
 46 48  1  0
 47 49  1  0
 45 50  1  0
 48 50  1  0
 49 51  1  0
 50 51  1  0
 47 52  1  0
 46 53  1  0
 43 54  1  0
 54 55  1  0
 55 56  1  0
 56 57  1  0
 57 58  1  0
 55 59  1  0
 58 59  1  0
 41 60  1  0
 60 61  1  0
 61 62  1  0
 61 63  1  0
 62 64  1  0
 64 65  1  0
 65 66  1  0
 66 67  1  0
 66 68  1  0
  1 69  1  0
  1 70  1  0
  2 71  1  0
  3 72  1  0
  4 73  1  0
  5 74  1  0
  6 75  1  0
  7 76  1  0
  8 77  1  0
  8 78  1  0
  9 79  1  0
 10 80  1  0
 10 81  1  0
 11 82  1  0
 12 83  1  0
 13 84  1  0
 14 85  1  0
 14 86  1  0
 15 87  1  0
 15 88  1  0
 16 89  1  0
 17 90  1  0
 17 91  1  0
 21 92  1  1
 22 93  1  0
 22 94  1  0
 24 95  1  0
 24 96  1  0
 25 97  1  0
 25 98  1  0
 26 99  1  0
 27100  1  0
 28101  1  0
 28102  1  0
 29103  1  0
 30104  1  0
 30105  1  0
 31106  1  0
 31107  1  0
 33108  1  0
 33109  1  0
 33110  1  0
 34111  1  0
 34112  1  0
 34113  1  0
 35114  1  0
 35115  1  0
 36116  1  0
 37117  1  0
 38118  1  0
 39119  1  0
 40120  1  0
 41121  1  0
 42122  1  0
 42123  1  0
 43124  1  0
 44125  1  0
 44126  1  0
 45127  1  0
 46128  1  0
 47129  1  0
 48130  1  0
 48131  1  0
 49132  1  0
 49133  1  0
 50134  1  0
 51135  1  0
 51136  1  0
 55137  1  1
 56138  1  0
 56139  1  0
 58140  1  0
 58141  1  0
 59142  1  0
 59143  1  0
 60144  1  0
 61145  1  0
 62146  1  0
 62147  1  0
 63148  1  0
 64149  1  0
 64150  1  0
 65151  1  0
 65152  1  0
 67153  1  0
 67154  1  0
 67155  1  0
 68156  1  0
 68157  1  0
 68158  1  0
M  END
>  <PDBID>  (1) 
4G5J

>  <PDB ID>  (1) 
4G5J

>  <Generic Name>  (1) 
Afatinib

>  <Brand Name>  (1) 
Gilotrif#Giotrif

>  <DrugBank ID>  (1) 
DB08916

>  <ATC Codes>  (1) 
L01XE13

>  <Ligand ID>  (1) 
0WM

>  <Target Name>  (1) 
Receptor tyrosine-protein kinase erbB-2

>  <UniProt ID>  (1) 
P04626

>  <PDB ID.1>  (1) 
4G5J

>  <Seq. Identity>  (1) 
78%

$$$$
