PDB_DB03849_02
     RDKit          3D

124128  0  0  0  0  0  0  0  0999 V2000
    5.8430    0.8391    2.3660 O   0  0  0  0  0  0  0  0  0  0  0  0
    5.5735   -0.0608    1.3196 C   0  0  0  0  0  0  0  0  0  0  0  0
    6.0460    0.4840    0.1294 O   0  0  0  0  0  0  0  0  0  0  0  0
    4.0755   -0.2481    1.2122 C   0  0  0  0  0  0  0  0  0  0  0  0
    3.4304    1.0684    0.9279 C   0  0  0  0  0  0  0  0  0  0  0  0
    1.9937    0.9678    0.5159 C   0  0  0  0  0  0  0  0  0  0  0  0
    3.8027   -1.3054    0.1948 C   0  0  0  0  0  0  0  0  0  0  0  0
    2.3478   -1.3432   -0.1201 C   0  0  0  0  0  0  0  0  0  0  0  0
    1.7990   -0.0060   -0.6231 C   0  0  0  0  0  0  0  0  0  0  0  0
    2.6814    0.4132   -1.7632 C   0  0  0  0  0  0  0  0  0  0  0  0
    2.4336    1.7267   -2.2786 N   0  0  0  0  0  0  0  0  0  0  0  0
    0.3652   -0.2160   -0.9657 C   0  0  0  0  0  0  0  0  0  0  0  0
   -0.3991    1.0233   -1.3468 C   0  0  0  0  0  0  0  0  0  0  0  0
   -1.6524    0.5645   -2.1046 C   0  0  0  0  0  0  0  0  0  0  0  0
   -2.0641   -0.8229   -1.7533 C   0  0  0  0  0  0  0  0  0  0  0  0
   -3.4300   -0.9758   -1.9938 O   0  0  0  0  0  0  0  0  0  0  0  0
   -3.6876   -2.0571   -2.8387 C   0  0  0  0  0  0  0  0  0  0  0  0
   -1.8686   -0.9735   -0.2448 C   0  0  0  0  0  0  0  0  0  0  0  0
   -0.4101   -0.9209    0.1183 C   0  0  0  0  0  0  0  0  0  0  0  0
   -2.5833    0.0891    0.3361 O   0  0  0  0  0  0  0  0  0  0  0  0
   -3.5986   -0.3587    1.1680 C   0  0  0  0  0  0  0  0  0  0  0  0
   -4.9505    0.1353    0.7750 C   0  0  0  0  0  0  0  0  0  0  0  0
   -5.5359    0.8636    1.9669 C   0  0  0  0  0  0  0  0  0  0  0  0
   -4.2923    1.3796    2.6632 C   0  0  0  0  0  0  0  0  0  0  0  0
   -3.3971    0.1353    2.5994 C   0  0  0  0  0  0  0  0  0  0  0  0
    5.8430    0.8391    2.3660 O   0  0  0  0  0  0  0  0  0  0  0  0
    5.5735   -0.0608    1.3196 C   0  0  0  0  0  0  0  0  0  0  0  0
    6.0460    0.4840    0.1294 O   0  0  0  0  0  0  0  0  0  0  0  0
    4.0755   -0.2481    1.2122 C   0  0  0  0  0  0  0  0  0  0  0  0
    3.4304    1.0684    0.9279 C   0  0  0  0  0  0  0  0  0  0  0  0
    1.9937    0.9678    0.5159 C   0  0  0  0  0  0  0  0  0  0  0  0
    3.8027   -1.3054    0.1948 C   0  0  0  0  0  0  0  0  0  0  0  0
    2.3478   -1.3432   -0.1201 C   0  0  0  0  0  0  0  0  0  0  0  0
    1.7990   -0.0060   -0.6231 C   0  0  0  0  0  0  0  0  0  0  0  0
    2.6814    0.4132   -1.7632 C   0  0  0  0  0  0  0  0  0  0  0  0
    2.4336    1.7267   -2.2786 N   0  0  0  0  0  0  0  0  0  0  0  0
    0.3652   -0.2160   -0.9657 C   0  0  0  0  0  0  0  0  0  0  0  0
   -0.3991    1.0233   -1.3468 C   0  0  0  0  0  0  0  0  0  0  0  0
   -1.6524    0.5645   -2.1046 C   0  0  0  0  0  0  0  0  0  0  0  0
   -2.0641   -0.8229   -1.7533 C   0  0  0  0  0  0  0  0  0  0  0  0
   -3.4300   -0.9758   -1.9938 O   0  0  0  0  0  0  0  0  0  0  0  0
   -3.6876   -2.0571   -2.8387 C   0  0  0  0  0  0  0  0  0  0  0  0
   -1.8686   -0.9735   -0.2448 C   0  0  0  0  0  0  0  0  0  0  0  0
   -0.4101   -0.9209    0.1183 C   0  0  0  0  0  0  0  0  0  0  0  0
   -2.5833    0.0891    0.3361 O   0  0  0  0  0  0  0  0  0  0  0  0
   -3.5986   -0.3587    1.1680 C   0  0  0  0  0  0  0  0  0  0  0  0
   -4.9505    0.1353    0.7750 C   0  0  0  0  0  0  0  0  0  0  0  0
   -5.5359    0.8636    1.9669 C   0  0  0  0  0  0  0  0  0  0  0  0
   -4.2923    1.3796    2.6632 C   0  0  0  0  0  0  0  0  0  0  0  0
   -3.3971    0.1353    2.5994 C   0  0  0  0  0  0  0  0  0  0  0  0
    6.7524    1.2362    2.2558 H   0  0  0  0  0  0  0  0  0  0  0  0
    6.0470   -1.0496    1.4936 H   0  0  0  0  0  0  0  0  0  0  0  0
    6.6550    1.2252    0.3327 H   0  0  0  0  0  0  0  0  0  0  0  0
    3.6514   -0.6133    2.1834 H   0  0  0  0  0  0  0  0  0  0  0  0
    3.4352    1.6411    1.9033 H   0  0  0  0  0  0  0  0  0  0  0  0
    4.0540    1.6847    0.2482 H   0  0  0  0  0  0  0  0  0  0  0  0
    1.7103    1.9798    0.1000 H   0  0  0  0  0  0  0  0  0  0  0  0
    1.3528    0.7977    1.3800 H   0  0  0  0  0  0  0  0  0  0  0  0
    4.4775   -1.3080   -0.6751 H   0  0  0  0  0  0  0  0  0  0  0  0
    4.0239   -2.2874    0.7143 H   0  0  0  0  0  0  0  0  0  0  0  0
    2.0569   -2.1727   -0.7957 H   0  0  0  0  0  0  0  0  0  0  0  0
    1.8184   -1.5525    0.8558 H   0  0  0  0  0  0  0  0  0  0  0  0
    3.7274    0.4531   -1.3397 H   0  0  0  0  0  0  0  0  0  0  0  0
    2.7415   -0.3619   -2.5587 H   0  0  0  0  0  0  0  0  0  0  0  0
    2.9110    2.4781   -1.7325 H   0  0  0  0  0  0  0  0  0  0  0  0
    2.7870    1.7827   -3.2587 H   0  0  0  0  0  0  0  0  0  0  0  0
    0.3332   -0.8618   -1.8981 H   0  0  0  0  0  0  0  0  0  0  0  0
    0.1296    1.7228   -1.9877 H   0  0  0  0  0  0  0  0  0  0  0  0
   -0.7364    1.4831   -0.3828 H   0  0  0  0  0  0  0  0  0  0  0  0
   -1.5055    0.6939   -3.2017 H   0  0  0  0  0  0  0  0  0  0  0  0
   -2.4604    1.2674   -1.8155 H   0  0  0  0  0  0  0  0  0  0  0  0
   -1.5492   -1.6168   -2.3096 H   0  0  0  0  0  0  0  0  0  0  0  0
   -4.7755   -2.1088   -2.9770 H   0  0  0  0  0  0  0  0  0  0  0  0
   -3.2167   -1.8320   -3.8226 H   0  0  0  0  0  0  0  0  0  0  0  0
   -3.3211   -3.0129   -2.4091 H   0  0  0  0  0  0  0  0  0  0  0  0
   -2.3233   -1.9143    0.1302 H   0  0  0  0  0  0  0  0  0  0  0  0
   -0.2554   -0.4014    1.0669 H   0  0  0  0  0  0  0  0  0  0  0  0
   -0.0447   -1.9884    0.1635 H   0  0  0  0  0  0  0  0  0  0  0  0
   -3.5933   -1.4615    1.1672 H   0  0  0  0  0  0  0  0  0  0  0  0
   -4.9171    0.8802   -0.0570 H   0  0  0  0  0  0  0  0  0  0  0  0
   -5.6622   -0.6994    0.5365 H   0  0  0  0  0  0  0  0  0  0  0  0
   -6.1194    0.2029    2.6262 H   0  0  0  0  0  0  0  0  0  0  0  0
   -6.2075    1.6957    1.6598 H   0  0  0  0  0  0  0  0  0  0  0  0
   -4.4705    1.7078    3.6890 H   0  0  0  0  0  0  0  0  0  0  0  0
   -3.8246    2.1555    2.0226 H   0  0  0  0  0  0  0  0  0  0  0  0
   -3.8477   -0.6181    3.2753 H   0  0  0  0  0  0  0  0  0  0  0  0
   -2.3565    0.3715    2.8231 H   0  0  0  0  0  0  0  0  0  0  0  0
    6.7524    1.2362    2.2558 H   0  0  0  0  0  0  0  0  0  0  0  0
    6.0470   -1.0496    1.4936 H   0  0  0  0  0  0  0  0  0  0  0  0
    6.6550    1.2252    0.3327 H   0  0  0  0  0  0  0  0  0  0  0  0
    3.6514   -0.6133    2.1834 H   0  0  0  0  0  0  0  0  0  0  0  0
    3.4352    1.6411    1.9033 H   0  0  0  0  0  0  0  0  0  0  0  0
    4.0540    1.6847    0.2482 H   0  0  0  0  0  0  0  0  0  0  0  0
    1.7103    1.9798    0.1000 H   0  0  0  0  0  0  0  0  0  0  0  0
    1.3528    0.7977    1.3800 H   0  0  0  0  0  0  0  0  0  0  0  0
    4.4775   -1.3080   -0.6751 H   0  0  0  0  0  0  0  0  0  0  0  0
    4.0239   -2.2874    0.7143 H   0  0  0  0  0  0  0  0  0  0  0  0
    2.0569   -2.1727   -0.7957 H   0  0  0  0  0  0  0  0  0  0  0  0
    1.8184   -1.5525    0.8558 H   0  0  0  0  0  0  0  0  0  0  0  0
    3.7274    0.4531   -1.3397 H   0  0  0  0  0  0  0  0  0  0  0  0
    2.7415   -0.3619   -2.5587 H   0  0  0  0  0  0  0  0  0  0  0  0
    2.9110    2.4781   -1.7325 H   0  0  0  0  0  0  0  0  0  0  0  0
    2.7870    1.7827   -3.2587 H   0  0  0  0  0  0  0  0  0  0  0  0
    0.3332   -0.8618   -1.8981 H   0  0  0  0  0  0  0  0  0  0  0  0
    0.1296    1.7228   -1.9877 H   0  0  0  0  0  0  0  0  0  0  0  0
   -0.7364    1.4831   -0.3828 H   0  0  0  0  0  0  0  0  0  0  0  0
   -1.5055    0.6939   -3.2017 H   0  0  0  0  0  0  0  0  0  0  0  0
   -2.4604    1.2674   -1.8155 H   0  0  0  0  0  0  0  0  0  0  0  0
   -1.5492   -1.6168   -2.3096 H   0  0  0  0  0  0  0  0  0  0  0  0
   -4.7755   -2.1088   -2.9770 H   0  0  0  0  0  0  0  0  0  0  0  0
   -3.2167   -1.8320   -3.8226 H   0  0  0  0  0  0  0  0  0  0  0  0
   -3.3211   -3.0129   -2.4091 H   0  0  0  0  0  0  0  0  0  0  0  0
   -2.3233   -1.9143    0.1302 H   0  0  0  0  0  0  0  0  0  0  0  0
   -0.2554   -0.4014    1.0669 H   0  0  0  0  0  0  0  0  0  0  0  0
   -0.0447   -1.9884    0.1635 H   0  0  0  0  0  0  0  0  0  0  0  0
   -3.5933   -1.4615    1.1672 H   0  0  0  0  0  0  0  0  0  0  0  0
   -4.9171    0.8802   -0.0570 H   0  0  0  0  0  0  0  0  0  0  0  0
   -5.6622   -0.6994    0.5365 H   0  0  0  0  0  0  0  0  0  0  0  0
   -6.1194    0.2029    2.6262 H   0  0  0  0  0  0  0  0  0  0  0  0
   -6.2075    1.6957    1.6598 H   0  0  0  0  0  0  0  0  0  0  0  0
   -4.4705    1.7078    3.6890 H   0  0  0  0  0  0  0  0  0  0  0  0
   -3.8246    2.1555    2.0226 H   0  0  0  0  0  0  0  0  0  0  0  0
   -3.8477   -0.6181    3.2753 H   0  0  0  0  0  0  0  0  0  0  0  0
   -2.3565    0.3715    2.8231 H   0  0  0  0  0  0  0  0  0  0  0  0
  1  2  1  0
  2  3  1  0
  2  4  1  0
  4  5  1  0
  5  6  1  0
  4  7  1  0
  7  8  1  0
  6  9  1  0
  8  9  1  0
  9 10  1  0
 10 11  1  0
  9 12  1  0
 12 13  1  0
 13 14  1  0
 14 15  1  0
 15 16  1  0
 16 17  1  0
 15 18  1  0
 12 19  1  0
 18 19  1  0
 18 20  1  0
 20 21  1  0
 21 22  1  0
 22 23  1  0
 23 24  1  0
 21 25  1  0
 24 25  1  0
 26 27  1  0
 27 28  1  0
 27 29  1  0
 29 30  1  0
 30 31  1  0
 29 32  1  0
 32 33  1  0
 31 34  1  0
 33 34  1  0
 34 35  1  0
 35 36  1  0
 34 37  1  0
 37 38  1  0
 38 39  1  0
 39 40  1  0
 40 41  1  0
 41 42  1  0
 40 43  1  0
 37 44  1  0
 43 44  1  0
 43 45  1  0
 45 46  1  0
 46 47  1  0
 47 48  1  0
 48 49  1  0
 46 50  1  0
 49 50  1  0
  1 51  1  0
  2 52  1  0
  3 53  1  0
  4 54  1  0
  5 55  1  0
  5 56  1  0
  6 57  1  0
  6 58  1  0
  7 59  1  0
  7 60  1  0
  8 61  1  0
  8 62  1  0
 10 63  1  0
 10 64  1  0
 11 65  1  0
 11 66  1  0
 12 67  1  0
 13 68  1  0
 13 69  1  0
 14 70  1  0
 14 71  1  0
 15 72  1  0
 17 73  1  0
 17 74  1  0
 17 75  1  0
 18 76  1  0
 19 77  1  0
 19 78  1  0
 21 79  1  0
 22 80  1  0
 22 81  1  0
 23 82  1  0
 23 83  1  0
 24 84  1  0
 24 85  1  0
 25 86  1  0
 25 87  1  0
 26 88  1  0
 27 89  1  0
 28 90  1  0
 29 91  1  0
 30 92  1  0
 30 93  1  0
 31 94  1  0
 31 95  1  0
 32 96  1  0
 32 97  1  0
 33 98  1  0
 33 99  1  0
 35100  1  0
 35101  1  0
 36102  1  0
 36103  1  0
 37104  1  0
 38105  1  0
 38106  1  0
 39107  1  0
 39108  1  0
 40109  1  0
 42110  1  0
 42111  1  0
 42112  1  0
 43113  1  0
 44114  1  0
 44115  1  0
 46116  1  0
 47117  1  0
 47118  1  0
 48119  1  0
 48120  1  0
 49121  1  0
 49122  1  0
 50123  1  0
 50124  1  0
M  END
>  <PDBID>  (1) 
1XLX

>  <PDB ID>  (1) 
1XLX

>  <Generic Name>  (1) 
Cilomilast

>  <Brand Name>  (1) 
nan

>  <DrugBank ID>  (1) 
DB03849

>  <ATC Codes>  (1) 
nan

>  <Ligand ID>  (1) 
CIO

>  <Target Name>  (1) 
cAMP-specific 3',5'-cyclic phosphodiesterase 4B

>  <UniProt ID>  (1) 
Q07343

>  <PDB ID.1>  (1) 
1XLX

>  <Seq. Identity>  (1) 
97%

$$$$
