PDB_DB00523_01
     RDKit          3D

 62 62  0  0  0  0  0  0  0  0999 V2000
   -3.6758   -0.6273   -0.3206 C   0  0  0  0  0  0  0  0  0  0  0  0
   -4.8677    0.2758   -0.6270 C   0  0  0  0  0  0  0  0  0  0  0  0
   -5.0812    1.3181    0.4533 C   0  0  0  0  0  0  0  0  0  0  0  0
   -3.7684    1.9525    0.8565 C   0  0  0  0  0  0  0  0  0  0  0  0
   -2.7149    1.7104   -0.2291 C   0  0  2  0  0  0  0  0  0  0  0  0
   -2.4526    0.2278   -0.4085 C   0  0  1  0  0  0  0  0  0  0  0  0
   -1.2854   -0.2310    0.4182 C   0  0  0  0  0  0  0  0  0  0  0  0
   -0.8118   -1.6131    0.0308 C   0  0  0  0  0  0  0  0  0  0  0  0
    0.3575   -2.0660    0.8669 C   0  0  0  0  0  0  0  0  0  0  0  0
    1.5451   -1.1002    0.7004 C   0  0  0  0  0  0  0  0  0  0  0  0
    1.9981   -1.0263   -0.7051 C   0  0  0  0  0  0  0  0  0  0  0  0
    3.1091   -0.0575   -0.9090 C   0  0  0  0  0  0  0  0  0  0  0  0
    4.3912   -0.2392   -0.2157 C   0  0  0  0  0  0  0  0  0  0  0  0
    5.3273    0.8786   -0.6724 C   0  0  0  0  0  0  0  0  0  0  0  0
    4.8328    2.2510   -0.3813 C   0  0  0  0  0  0  0  0  0  0  0  0
   -3.6249   -1.6618   -1.4283 C   0  0  0  0  0  0  0  0  0  0  0  0
   -3.8657   -1.3528    0.9811 C   0  0  0  0  0  0  0  0  0  0  0  0
   -1.4943    2.4791    0.1508 C   0  0  0  0  0  0  0  0  0  0  0  0
    0.8189   -3.3988    0.3191 C   0  0  0  0  0  0  0  0  0  0  0  0
    4.4140   -0.2276    1.2702 C   0  0  0  0  0  0  0  0  0  0  0  0
    4.6426    2.4208    0.9981 O   0  0  0  0  0  0  0  0  0  0  0  0
    5.8364    3.2111   -0.7001 O   0  0  0  0  0  0  0  0  0  0  0  0
   -4.6311    0.7935   -1.5784 H   0  0  0  0  0  0  0  0  0  0  0  0
   -5.7518   -0.3479   -0.7813 H   0  0  0  0  0  0  0  0  0  0  0  0
   -5.5299    0.8524    1.3281 H   0  0  0  0  0  0  0  0  0  0  0  0
   -5.7469    2.1160    0.0710 H   0  0  0  0  0  0  0  0  0  0  0  0
   -3.9268    3.0449    0.9258 H   0  0  0  0  0  0  0  0  0  0  0  0
   -3.4103    1.6145    1.8416 H   0  0  0  0  0  0  0  0  0  0  0  0
   -3.1285    2.1769   -1.1476 H   0  0  0  0  0  0  0  0  0  0  0  0
   -2.1109    0.1492   -1.4869 H   0  0  0  0  0  0  0  0  0  0  0  0
   -1.4374   -0.1076    1.5169 H   0  0  0  0  0  0  0  0  0  0  0  0
   -0.3786    0.4263    0.2214 H   0  0  0  0  0  0  0  0  0  0  0  0
   -0.5999   -1.6023   -1.0386 H   0  0  0  0  0  0  0  0  0  0  0  0
   -1.6620   -2.3100    0.1754 H   0  0  0  0  0  0  0  0  0  0  0  0
    0.1309   -2.0822    1.9438 H   0  0  0  0  0  0  0  0  0  0  0  0
    2.3732   -1.6052    1.2814 H   0  0  0  0  0  0  0  0  0  0  0  0
    1.3347   -0.1431    1.1631 H   0  0  0  0  0  0  0  0  0  0  0  0
    2.2783   -2.0610   -1.0810 H   0  0  0  0  0  0  0  0  0  0  0  0
    1.1835   -0.7300   -1.4172 H   0  0  0  0  0  0  0  0  0  0  0  0
    2.7407    1.0075   -0.6897 H   0  0  0  0  0  0  0  0  0  0  0  0
    3.3615    0.0380   -2.0208 H   0  0  0  0  0  0  0  0  0  0  0  0
    4.8863   -1.1777   -0.5584 H   0  0  0  0  0  0  0  0  0  0  0  0
    6.3593    0.7122   -0.3232 H   0  0  0  0  0  0  0  0  0  0  0  0
    5.3721    0.7717   -1.7923 H   0  0  0  0  0  0  0  0  0  0  0  0
    3.9348    2.5699   -0.9080 H   0  0  0  0  0  0  0  0  0  0  0  0
   -2.7359   -1.5127   -2.0869 H   0  0  0  0  0  0  0  0  0  0  0  0
   -4.5166   -1.5509   -2.0529 H   0  0  0  0  0  0  0  0  0  0  0  0
   -3.6695   -2.7063   -1.0332 H   0  0  0  0  0  0  0  0  0  0  0  0
   -3.9573   -2.4596    0.8131 H   0  0  0  0  0  0  0  0  0  0  0  0
   -4.8953   -1.0779    1.3616 H   0  0  0  0  0  0  0  0  0  0  0  0
   -3.1019   -1.2042    1.7343 H   0  0  0  0  0  0  0  0  0  0  0  0
   -0.7541    2.5140   -0.7010 H   0  0  0  0  0  0  0  0  0  0  0  0
   -1.0228    2.1544    1.0933 H   0  0  0  0  0  0  0  0  0  0  0  0
   -1.7991    3.5361    0.3009 H   0  0  0  0  0  0  0  0  0  0  0  0
    1.9188   -3.5151    0.3585 H   0  0  0  0  0  0  0  0  0  0  0  0
    0.5413   -3.4627   -0.7569 H   0  0  0  0  0  0  0  0  0  0  0  0
    0.3034   -4.2468    0.8317 H   0  0  0  0  0  0  0  0  0  0  0  0
    5.3733    0.3150    1.5881 H   0  0  0  0  0  0  0  0  0  0  0  0
    4.5555   -1.2211    1.7537 H   0  0  0  0  0  0  0  0  0  0  0  0
    3.6059    0.3071    1.7603 H   0  0  0  0  0  0  0  0  0  0  0  0
    5.4357    2.7837    1.4441 H   0  0  0  0  0  0  0  0  0  0  0  0
    5.4469    4.1174   -0.7131 H   0  0  0  0  0  0  0  0  0  0  0  0
  1  2  1  0
  2  3  1  0
  3  4  1  0
  4  5  1  0
  1  6  1  0
  5  6  1  0
  6  7  1  0
  7  8  1  0
  8  9  1  0
  9 10  1  0
 10 11  1  0
 11 12  1  0
 12 13  1  0
 13 14  1  0
 14 15  1  0
  1 16  1  0
  1 17  1  0
  5 18  1  0
  9 19  1  0
 13 20  1  0
 15 21  1  0
 15 22  1  0
  2 23  1  0
  2 24  1  0
  3 25  1  0
  3 26  1  0
  4 27  1  0
  4 28  1  0
  5 29  1  6
  6 30  1  6
  7 31  1  0
  7 32  1  0
  8 33  1  0
  8 34  1  0
  9 35  1  0
 10 36  1  0
 10 37  1  0
 11 38  1  0
 11 39  1  0
 12 40  1  0
 12 41  1  0
 13 42  1  0
 14 43  1  0
 14 44  1  0
 15 45  1  0
 16 46  1  0
 16 47  1  0
 16 48  1  0
 17 49  1  0
 17 50  1  0
 17 51  1  0
 18 52  1  0
 18 53  1  0
 18 54  1  0
 19 55  1  0
 19 56  1  0
 19 57  1  0
 20 58  1  0
 20 59  1  0
 20 60  1  0
 21 61  1  0
 22 62  1  0
M  END
>  <PDBID>  (1) 
3OAP

>  <PDB ID>  (1) 
3OAP

>  <Generic Name>  (1) 
Alitretinoin

>  <Brand Name>  (1) 
Panretin#Toctino

>  <DrugBank ID>  (1) 
DB00523

>  <ATC Codes>  (1) 
D11AH04#L01XX22

>  <Ligand ID>  (1) 
9CR

>  <Target Name>  (1) 
Retinoic acid receptor RXR-beta

>  <UniProt ID>  (1) 
P28702

>  <PDB ID.1>  (1) 
3OAP

>  <Seq. Identity>  (1) 
87%

$$$$
