PDB_DB05015_09
     RDKit          3D

108110  0  0  0  0  0  0  0  0999 V2000
   -4.8931    1.6955   -2.4102 O   0  0  0  0  0  0  0  0  0  0  0  0
   -5.3982    1.1242   -1.2466 C   0  0  0  0  0  0  0  0  0  0  0  0
   -6.2925    0.0509   -1.5265 N   0  0  0  0  0  0  0  0  0  0  0  0
   -5.7756   -0.9652   -2.2116 O   0  0  0  0  0  0  0  0  0  0  0  0
   -4.2928    0.8130   -0.2985 C   0  0  0  0  0  0  0  0  0  0  0  0
   -3.2745   -0.1395   -0.8264 C   0  0  0  0  0  0  0  0  0  0  0  0
   -2.2182   -0.3506    0.2571 C   0  0  0  0  0  0  0  0  0  0  0  0
   -1.1525   -1.3106   -0.2192 C   0  0  0  0  0  0  0  0  0  0  0  0
   -2.9302   -0.9313    1.4540 C   0  0  0  0  0  0  0  0  0  0  0  0
   -1.9589   -1.7293    2.2564 C   0  0  0  0  0  0  0  0  0  0  0  0
   -0.5487   -1.1914    2.1580 C   0  0  0  0  0  0  0  0  0  0  0  0
   -0.0164   -1.2872    0.7417 C   0  0  2  0  0  0  0  0  0  0  0  0
    1.0655    0.0577    0.4703 S   0  0  0  0  0  0  0  0  0  0  0  0
    2.2641   -0.2050    1.8118 O   0  0  0  0  0  0  0  0  0  0  0  0
    0.4869    1.3434    0.6487 O   0  0  0  0  0  0  0  0  0  0  0  0
    2.0227   -0.2435   -0.8183 N   0  0  0  0  0  0  0  0  0  0  0  0
    3.4393   -0.0887   -0.5482 C   0  0  0  0  0  0  0  0  0  0  0  0
    4.2823   -0.3772   -1.7682 C   0  0  0  0  0  0  0  0  0  0  0  0
    5.4026    0.6248   -1.9422 C   0  0  0  0  0  0  0  0  0  0  0  0
    6.1013    0.7793   -0.6135 C   0  0  0  0  0  0  0  0  0  0  0  0
    5.1451    1.4814    0.3234 C   0  0  0  0  0  0  0  0  0  0  0  0
    3.7127    1.3444   -0.1420 C   0  0  0  0  0  0  0  0  0  0  0  0
   -4.8948    1.7146   -2.4050 O   0  0  0  0  0  0  0  0  0  0  0  0
   -5.3970    1.1523   -1.2406 C   0  0  0  0  0  0  0  0  0  0  0  0
   -6.3044    0.0853   -1.5058 N   0  0  0  0  0  0  0  0  0  0  0  0
   -5.8034   -0.9397   -2.1903 O   0  0  0  0  0  0  0  0  0  0  0  0
   -4.2858    0.8343   -0.2976 C   0  0  0  0  0  0  0  0  0  0  0  0
   -3.2788   -0.1283   -0.8312 C   0  0  0  0  0  0  0  0  0  0  0  0
   -2.2180   -0.3427    0.2471 C   0  0  0  0  0  0  0  0  0  0  0  0
   -1.1600   -1.3135   -0.2314 C   0  0  0  0  0  0  0  0  0  0  0  0
   -2.9327   -0.9246    1.4459 C   0  0  0  0  0  0  0  0  0  0  0  0
   -1.9638   -1.7310    2.2418 C   0  0  0  0  0  0  0  0  0  0  0  0
   -0.5505   -1.2019    2.1408 C   0  0  0  0  0  0  0  0  0  0  0  0
   -0.0201   -1.2995    0.7248 C   0  0  2  0  0  0  0  0  0  0  0  0
    1.0692    0.0364    0.4549 S   0  0  0  0  0  0  0  0  0  0  0  0
    2.2694   -0.2415    1.8032 O   0  0  0  0  0  0  0  0  0  0  0  0
    0.5135    1.3274    0.6437 O   0  0  0  0  0  0  0  0  0  0  0  0
    2.0335   -0.2550   -0.8260 N   0  0  0  0  0  0  0  0  0  0  0  0
    3.4481   -0.0993   -0.5515 C   0  0  0  0  0  0  0  0  0  0  0  0
    4.2961   -0.3805   -1.7689 C   0  0  0  0  0  0  0  0  0  0  0  0
    5.4215    0.6284   -1.9265 C   0  0  0  0  0  0  0  0  0  0  0  0
    6.1116    0.7668   -0.5891 C   0  0  0  0  0  0  0  0  0  0  0  0
    5.1482    1.4745    0.3392 C   0  0  0  0  0  0  0  0  0  0  0  0
    3.7196    1.3351   -0.1398 C   0  0  0  0  0  0  0  0  0  0  0  0
   -4.6129    2.6269   -2.1744 H   0  0  0  0  0  0  0  0  0  0  0  0
   -6.0163    1.9382   -0.7649 H   0  0  0  0  0  0  0  0  0  0  0  0
   -6.9440   -0.1892   -0.7765 H   0  0  0  0  0  0  0  0  0  0  0  0
   -5.6527   -0.6509   -3.1586 H   0  0  0  0  0  0  0  0  0  0  0  0
   -4.7412    0.4475    0.6709 H   0  0  0  0  0  0  0  0  0  0  0  0
   -3.7974    1.7744   -0.0277 H   0  0  0  0  0  0  0  0  0  0  0  0
   -2.7904    0.3133   -1.7028 H   0  0  0  0  0  0  0  0  0  0  0  0
   -3.7233   -1.0996   -1.1061 H   0  0  0  0  0  0  0  0  0  0  0  0
   -1.7944    0.6562    0.4689 H   0  0  0  0  0  0  0  0  0  0  0  0
   -1.6149   -2.3145   -0.3015 H   0  0  0  0  0  0  0  0  0  0  0  0
   -0.8688   -1.0191   -1.2531 H   0  0  0  0  0  0  0  0  0  0  0  0
   -3.6939   -1.6433    1.0497 H   0  0  0  0  0  0  0  0  0  0  0  0
   -3.3866   -0.1325    2.0764 H   0  0  0  0  0  0  0  0  0  0  0  0
   -2.2328   -1.6851    3.3395 H   0  0  0  0  0  0  0  0  0  0  0  0
   -1.9260   -2.8048    1.9911 H   0  0  0  0  0  0  0  0  0  0  0  0
    0.0813   -1.8084    2.8333 H   0  0  0  0  0  0  0  0  0  0  0  0
   -0.4658   -0.1500    2.4846 H   0  0  0  0  0  0  0  0  0  0  0  0
    0.5758   -2.2205    0.6497 H   0  0  0  0  0  0  0  0  0  0  0  0
    2.3093   -1.2007    1.8440 H   0  0  0  0  0  0  0  0  0  0  0  0
    0.3176    2.1362    0.0750 H   0  0  0  0  0  0  0  0  0  0  0  0
    1.8725   -1.1417   -1.3284 H   0  0  0  0  0  0  0  0  0  0  0  0
    3.7958   -0.7523    0.2601 H   0  0  0  0  0  0  0  0  0  0  0  0
    4.7736   -1.3839   -1.6889 H   0  0  0  0  0  0  0  0  0  0  0  0
    3.6659   -0.4324   -2.6993 H   0  0  0  0  0  0  0  0  0  0  0  0
    5.0454    1.5977   -2.3158 H   0  0  0  0  0  0  0  0  0  0  0  0
    6.1248    0.1875   -2.6548 H   0  0  0  0  0  0  0  0  0  0  0  0
    6.3415   -0.1963   -0.1914 H   0  0  0  0  0  0  0  0  0  0  0  0
    7.0452    1.3488   -0.7174 H   0  0  0  0  0  0  0  0  0  0  0  0
    5.3782    2.5620    0.3812 H   0  0  0  0  0  0  0  0  0  0  0  0
    5.2171    1.0596    1.3304 H   0  0  0  0  0  0  0  0  0  0  0  0
    3.4824    1.9968   -1.0089 H   0  0  0  0  0  0  0  0  0  0  0  0
    3.0638    1.6847    0.6894 H   0  0  0  0  0  0  0  0  0  0  0  0
   -4.4500    2.5708   -2.1240 H   0  0  0  0  0  0  0  0  0  0  0  0
   -6.0039    1.9710   -0.7524 H   0  0  0  0  0  0  0  0  0  0  0  0
   -6.9508   -0.1445   -0.7483 H   0  0  0  0  0  0  0  0  0  0  0  0
   -6.0524   -0.8013   -3.1540 H   0  0  0  0  0  0  0  0  0  0  0  0
   -4.7334    0.4764    0.6739 H   0  0  0  0  0  0  0  0  0  0  0  0
   -3.7795    1.7893   -0.0363 H   0  0  0  0  0  0  0  0  0  0  0  0
   -2.7919    0.3289   -1.7081 H   0  0  0  0  0  0  0  0  0  0  0  0
   -3.7359   -1.0820   -1.1157 H   0  0  0  0  0  0  0  0  0  0  0  0
   -1.7884    0.6554    0.4499 H   0  0  0  0  0  0  0  0  0  0  0  0
   -1.6307   -2.3138   -0.3157 H   0  0  0  0  0  0  0  0  0  0  0  0
   -0.8765   -1.0120   -1.2622 H   0  0  0  0  0  0  0  0  0  0  0  0
   -3.7043   -1.6259    1.0366 H   0  0  0  0  0  0  0  0  0  0  0  0
   -3.3830   -0.1261    2.0720 H   0  0  0  0  0  0  0  0  0  0  0  0
   -2.2373   -1.6760    3.3260 H   0  0  0  0  0  0  0  0  0  0  0  0
   -1.9492   -2.8039    1.9886 H   0  0  0  0  0  0  0  0  0  0  0  0
    0.0789   -1.8180    2.8123 H   0  0  0  0  0  0  0  0  0  0  0  0
   -0.4627   -0.1584    2.4672 H   0  0  0  0  0  0  0  0  0  0  0  0
    0.5659   -2.2364    0.6314 H   0  0  0  0  0  0  0  0  0  0  0  0
    2.3486   -1.2274    1.8106 H   0  0  0  0  0  0  0  0  0  0  0  0
    0.4395    2.1536    0.0988 H   0  0  0  0  0  0  0  0  0  0  0  0
    1.8754   -1.1158   -1.3702 H   0  0  0  0  0  0  0  0  0  0  0  0
    3.7982   -0.7686    0.2617 H   0  0  0  0  0  0  0  0  0  0  0  0
    4.7773   -1.3802   -1.7213 H   0  0  0  0  0  0  0  0  0  0  0  0
    3.6664   -0.4030   -2.7034 H   0  0  0  0  0  0  0  0  0  0  0  0
    5.0549    1.6145   -2.2638 H   0  0  0  0  0  0  0  0  0  0  0  0
    6.1539    0.2155   -2.6316 H   0  0  0  0  0  0  0  0  0  0  0  0
    6.3570   -0.2111   -0.1767 H   0  0  0  0  0  0  0  0  0  0  0  0
    7.0444    1.3570   -0.7086 H   0  0  0  0  0  0  0  0  0  0  0  0
    5.3814    2.5562    0.3956 H   0  0  0  0  0  0  0  0  0  0  0  0
    5.2094    1.0619    1.3554 H   0  0  0  0  0  0  0  0  0  0  0  0
    3.4920    1.9900   -0.9962 H   0  0  0  0  0  0  0  0  0  0  0  0
    3.0654    1.6661    0.6943 H   0  0  0  0  0  0  0  0  0  0  0  0
  1  2  1  0
  2  3  1  0
  3  4  1  0
  2  5  1  0
  5  6  1  0
  6  7  1  0
  7  8  1  0
  7  9  1  0
  9 10  1  0
 10 11  1  0
  8 12  1  0
 11 12  1  0
 12 13  1  0
 13 14  1  0
 13 15  1  0
 13 16  1  0
 16 17  1  0
 17 18  1  0
 18 19  1  0
 19 20  1  0
 20 21  1  0
 17 22  1  0
 21 22  1  0
 24 23  1  0
 24 25  1  0
 26 25  1  0
 24 27  1  0
 27 28  1  0
 28 29  1  0
 29 30  1  0
 29 31  1  0
 31 32  1  0
 32 33  1  0
 30 34  1  0
 33 34  1  0
 34 35  1  0
 35 36  1  0
 35 37  1  0
 35 38  1  0
 38 39  1  0
 39 40  1  0
 40 41  1  0
 41 42  1  0
 42 43  1  0
 39 44  1  0
 43 44  1  0
  1 45  1  0
  2 46  1  0
  3 47  1  0
  4 48  1  0
  5 49  1  0
  5 50  1  0
  6 51  1  0
  6 52  1  0
  7 53  1  0
  8 54  1  0
  8 55  1  0
  9 56  1  0
  9 57  1  0
 10 58  1  0
 10 59  1  0
 11 60  1  0
 11 61  1  0
 12 62  1  1
 14 63  1  0
 15 64  1  0
 16 65  1  0
 17 66  1  0
 18 67  1  0
 18 68  1  0
 19 69  1  0
 19 70  1  0
 20 71  1  0
 20 72  1  0
 21 73  1  0
 21 74  1  0
 22 75  1  0
 22 76  1  0
 23 77  1  0
 24 78  1  0
 25 79  1  0
 26 80  1  0
 27 81  1  0
 27 82  1  0
 28 83  1  0
 28 84  1  0
 29 85  1  0
 30 86  1  0
 30 87  1  0
 31 88  1  0
 31 89  1  0
 32 90  1  0
 32 91  1  0
 33 92  1  0
 33 93  1  0
 34 94  1  1
 36 95  1  0
 37 96  1  0
 38 97  1  0
 39 98  1  0
 40 99  1  0
 40100  1  0
 41101  1  0
 41102  1  0
 42103  1  0
 42104  1  0
 43105  1  0
 43106  1  0
 44107  1  0
 44108  1  0
M  END
>  <PDBID>  (1) 
5EEN

>  <PDB ID>  (1) 
5EEN

>  <Generic Name>  (1) 
Belinostat

>  <Brand Name>  (1) 
Beleodaq

>  <DrugBank ID>  (1) 
DB05015

>  <ATC Codes>  (1) 
L01XX49

>  <Ligand ID>  (1) 
5OG

>  <Target Name>  (1) 
Histone deacetylase 9

>  <UniProt ID>  (1) 
Q9UKV0

>  <PDB ID.1>  (1) 
5EEN

>  <Seq. Identity>  (1) 
46%

$$$$
