PDB_DB00990_07
     RDKit          3D

 56 59  0  0  0  0  0  0  0  0999 V2000
    1.4606   -0.7347   -3.2983 C   0  0  0  0  0  0  0  0  0  0  0  0
    2.5067    0.3288    1.2984 C   0  0  0  0  0  0  0  0  0  0  0  0
    5.0220   -1.2043    0.4984 O   0  0  0  0  0  0  0  0  0  0  0  0
    3.8582    0.8116    0.8141 C   0  0  0  0  0  0  0  0  0  0  0  0
   -3.9785   -1.7962    1.5052 O   0  0  0  0  0  0  0  0  0  0  0  0
    4.3405   -0.2200   -0.1941 C   0  0  0  0  0  0  0  0  0  0  0  0
    3.2021   -0.7903   -0.9577 C   0  0  0  0  0  0  0  0  0  0  0  0
    2.0105    0.1179   -1.0806 C   0  0  0  0  0  0  0  0  0  0  0  0
    0.9590   -0.6638   -1.8492 C   0  0  0  0  0  0  0  0  0  0  0  0
   -0.3526    0.0491   -1.8783 C   0  0  0  0  0  0  0  0  0  0  0  0
   -0.8465    0.4535   -0.5103 C   0  0  2  0  0  0  0  0  0  0  0  0
    0.1695   -0.0015    0.5061 C   0  0  1  0  0  0  0  0  0  0  0  0
    1.4991    0.6260    0.2384 C   0  0  1  0  0  0  0  0  0  0  0  0
   -0.2850    0.1615    1.9242 C   0  0  0  0  0  0  0  0  0  0  0  0
   -1.6423   -0.4240    2.1312 C   0  0  0  0  0  0  0  0  0  0  0  0
   -2.6053    0.1582    1.1594 C   0  0  1  0  0  0  0  0  0  0  0  0
   -2.1308   -0.2340   -0.2398 C   0  0  1  0  0  0  0  0  0  0  0  0
   -3.2832    0.1682   -1.0807 C   0  0  0  0  0  0  0  0  0  0  0  0
   -4.4785   -0.2024   -0.2393 C   0  0  0  0  0  0  0  0  0  0  0  0
   -3.9676   -0.4577    1.1679 C   0  0  0  0  0  0  0  0  0  0  0  0
   -2.7623    1.6506    1.2949 C   0  0  0  0  0  0  0  0  0  0  0  0
    1.2855    2.1411    0.2214 C   0  0  0  0  0  0  0  0  0  0  0  0
    0.5606   -1.0390   -3.9046 H   0  0  0  0  0  0  0  0  0  0  0  0
    1.8408    0.2491   -3.6344 H   0  0  0  0  0  0  0  0  0  0  0  0
    2.1919   -1.5454   -3.4273 H   0  0  0  0  0  0  0  0  0  0  0  0
    2.3172    0.8271    2.2654 H   0  0  0  0  0  0  0  0  0  0  0  0
    2.5967   -0.7750    1.4183 H   0  0  0  0  0  0  0  0  0  0  0  0
    5.6582   -0.8212    1.1562 H   0  0  0  0  0  0  0  0  0  0  0  0
    3.8213    1.7682    0.2877 H   0  0  0  0  0  0  0  0  0  0  0  0
    4.5767    0.9262    1.6526 H   0  0  0  0  0  0  0  0  0  0  0  0
   -4.5816   -1.8902    2.2902 H   0  0  0  0  0  0  0  0  0  0  0  0
    5.0983    0.2919   -0.8429 H   0  0  0  0  0  0  0  0  0  0  0  0
    3.5547   -1.0029   -1.9893 H   0  0  0  0  0  0  0  0  0  0  0  0
    2.8719   -1.7825   -0.5507 H   0  0  0  0  0  0  0  0  0  0  0  0
    2.2602    1.0028   -1.7021 H   0  0  0  0  0  0  0  0  0  0  0  0
    0.8914   -1.7195   -1.5154 H   0  0  0  0  0  0  0  0  0  0  0  0
   -0.2186    0.9464   -2.5514 H   0  0  0  0  0  0  0  0  0  0  0  0
   -1.0887   -0.5890   -2.3946 H   0  0  0  0  0  0  0  0  0  0  0  0
   -1.0101    1.5363   -0.5249 H   0  0  0  0  0  0  0  0  0  0  0  0
    0.2955   -1.1112    0.3381 H   0  0  0  0  0  0  0  0  0  0  0  0
   -0.1757    1.1992    2.3106 H   0  0  0  0  0  0  0  0  0  0  0  0
    0.4285   -0.4474    2.5553 H   0  0  0  0  0  0  0  0  0  0  0  0
   -1.9601   -0.3047    3.1906 H   0  0  0  0  0  0  0  0  0  0  0  0
   -1.5783   -1.5117    1.9510 H   0  0  0  0  0  0  0  0  0  0  0  0
   -1.9895   -1.3246   -0.2469 H   0  0  0  0  0  0  0  0  0  0  0  0
   -3.2826    1.2150   -1.3975 H   0  0  0  0  0  0  0  0  0  0  0  0
   -3.3060   -0.4775   -1.9900 H   0  0  0  0  0  0  0  0  0  0  0  0
   -5.1933    0.6327   -0.2854 H   0  0  0  0  0  0  0  0  0  0  0  0
   -5.0072   -1.1068   -0.6459 H   0  0  0  0  0  0  0  0  0  0  0  0
   -4.6204    0.1598    1.8462 H   0  0  0  0  0  0  0  0  0  0  0  0
   -2.0290    2.0082    2.0463 H   0  0  0  0  0  0  0  0  0  0  0  0
   -2.7349    2.1921    0.3443 H   0  0  0  0  0  0  0  0  0  0  0  0
   -3.7708    1.8833    1.7479 H   0  0  0  0  0  0  0  0  0  0  0  0
    0.3240    2.4094    0.7465 H   0  0  0  0  0  0  0  0  0  0  0  0
    2.0702    2.6621    0.8297 H   0  0  0  0  0  0  0  0  0  0  0  0
    1.2076    2.5351   -0.8045 H   0  0  0  0  0  0  0  0  0  0  0  0
  2  4  1  0
  3  6  1  0
  4  6  1  0
  6  7  1  0
  7  8  1  0
  1  9  1  0
  8  9  1  0
  9 10  1  0
 10 11  1  0
 11 12  1  0
  2 13  1  0
  8 13  1  0
 12 13  1  0
 12 14  1  0
 14 15  1  0
 15 16  1  0
 11 17  1  0
 16 17  1  0
 17 18  1  0
 18 19  1  0
  5 20  1  0
 16 20  1  0
 19 20  1  0
 16 21  1  6
 13 22  1  6
  1 23  1  0
  1 24  1  0
  1 25  1  0
  2 26  1  0
  2 27  1  0
  3 28  1  0
  4 29  1  0
  4 30  1  0
  5 31  1  0
  6 32  1  0
  7 33  1  0
  7 34  1  0
  8 35  1  0
  9 36  1  0
 10 37  1  0
 10 38  1  0
 11 39  1  6
 12 40  1  6
 14 41  1  0
 14 42  1  0
 15 43  1  0
 15 44  1  0
 17 45  1  1
 18 46  1  0
 18 47  1  0
 19 48  1  0
 19 49  1  0
 20 50  1  0
 21 51  1  0
 21 52  1  0
 21 53  1  0
 22 54  1  0
 22 55  1  0
 22 56  1  0
M  END
>  <PDBID>  (1) 
3S7S

>  <PDB ID>  (1) 
3S7S

>  <Generic Name>  (1) 
Exemestane

>  <Brand Name>  (1) 
Act Exemestane#Apo-exemestane#Aromasin#Exemestane#Gd-exemestane#Med-exemestane#Mylan-exemestane#Teva-exemestane#Exemestance

>  <DrugBank ID>  (1) 
DB00990

>  <ATC Codes>  (1) 
L02BG06

>  <Ligand ID>  (1) 
EXM

>  <Target Name>  (1) 
Aromatase

>  <UniProt ID>  (1) 
P11511

>  <PDB ID.1>  (1) 
3S7S

>  <Seq. Identity>  (1) 
98%

$$$$
