PDB_DB00224_01
     RDKit          3D

114118  0  0  0  0  0  0  0  0999 V2000
   -4.1169    0.0680    1.2143 N   0  0  0  0  0  0  0  0  0  0  0  0
   -3.5428    0.7628    0.1861 C   0  0  0  0  0  0  0  0  0  0  0  0
   -2.8070   -0.1766   -0.8042 C   0  0  1  0  0  0  0  0  0  0  0  0
   -2.4999    0.6504   -1.9936 C   0  0  0  0  0  0  0  0  0  0  0  0
   -2.1286   -0.1620   -3.0967 O   0  0  0  0  0  0  0  0  0  0  0  0
   -3.4812    1.5723   -2.3719 N   0  0  0  0  0  0  0  0  0  0  0  0
   -4.7074    1.3085   -2.9236 C   0  0  0  0  0  0  0  0  0  0  0  0
   -5.6150    2.5426   -2.6654 C   0  0  0  0  0  0  0  0  0  0  0  0
   -4.5908    1.3341   -4.4953 C   0  0  0  0  0  0  0  0  0  0  0  0
   -5.5232    0.1321   -2.5400 C   0  0  0  0  0  0  0  0  0  0  0  0
   -1.9255   -0.9884   -0.1694 N   0  0  0  0  0  0  0  0  0  0  0  0
   -1.8065   -0.6679    1.2741 C   0  0  0  0  0  0  0  0  0  0  0  0
   -3.1640   -0.7137    1.9517 C   0  0  0  0  0  0  0  0  0  0  0  0
   -0.9765   -1.8439   -0.5528 C   0  0  0  0  0  0  0  0  0  0  0  0
    0.4133   -1.6281   -1.0375 C   0  0  1  0  0  0  0  0  0  0  0  0
    0.4470   -0.8921   -2.1882 O   0  0  0  0  0  0  0  0  0  0  0  0
    1.2383   -1.0887    0.0662 C   0  0  0  0  0  0  0  0  0  0  0  0
    2.6745   -0.8543   -0.0207 C   0  0  1  0  0  0  0  0  0  0  0  0
    3.5684   -2.0142   -0.3032 C   0  0  0  0  0  0  0  0  0  0  0  0
    3.6415   -3.1793    0.5799 C   0  0  0  0  0  0  0  0  0  0  0  0
    2.4584   -4.0237    0.8179 C   0  0  0  0  0  0  0  0  0  0  0  0
    2.8504   -5.2196    1.6927 C   0  0  0  0  0  0  0  0  0  0  0  0
    3.8696   -6.0423    0.9695 C   0  0  0  0  0  0  0  0  0  0  0  0
    5.1368   -5.1857    0.9339 C   0  0  0  0  0  0  0  0  0  0  0  0
    4.8482   -3.9983    0.0903 C   0  0  0  0  0  0  0  0  0  0  0  0
    3.1063    0.2656   -0.9829 C   0  0  2  0  0  0  0  0  0  0  0  0
    2.8019   -0.0291   -2.2920 O   0  0  0  0  0  0  0  0  0  0  0  0
    4.4601    0.6576   -0.8686 N   0  0  0  0  0  0  0  0  0  0  0  0
    4.8487    1.2587    0.3516 C   0  0  2  0  0  0  0  0  0  0  0  0
    4.0992    2.5844    0.5768 C   0  0  2  0  0  0  0  0  0  0  0  0
    3.8099    3.0632   -0.7037 O   0  0  0  0  0  0  0  0  0  0  0  0
    4.9941    3.4847    1.3512 C   0  0  0  0  0  0  0  0  0  0  0  0
    6.3050    2.7532    1.4386 C   0  0  0  0  0  0  0  0  0  0  0  0
    7.4930    3.6513    1.4152 C   0  0  0  0  0  0  0  0  0  0  0  0
    8.4850    3.2999    0.3305 C   0  0  0  0  0  0  0  0  0  0  0  0
    7.8173    3.2162   -1.0159 C   0  0  0  0  0  0  0  0  0  0  0  0
    6.7431    2.1905   -0.9886 C   0  0  0  0  0  0  0  0  0  0  0  0
    6.2927    1.7299    0.3475 C   0  0  0  0  0  0  0  0  0  0  0  0
   -5.3823   -0.4716    1.2681 C   0  0  0  0  0  0  0  0  0  0  0  0
   -6.5654    0.4560    1.3369 C   0  0  0  0  0  0  0  0  0  0  0  0
   -6.5000    1.3418    2.5707 C   0  0  0  0  0  0  0  0  0  0  0  0
   -7.6067    2.2389    2.6149 N   0  0  0  0  0  0  0  0  0  0  0  0
   -8.8252    1.6821    2.0590 C   0  0  0  0  0  0  0  0  0  0  0  0
   -8.8402    0.2114    2.4011 C   0  0  0  0  0  0  0  0  0  0  0  0
   -7.7825   -0.4537    1.5580 C   0  0  0  0  0  0  0  0  0  0  0  0
   -4.1646    1.4824   -0.3802 H   0  0  0  0  0  0  0  0  0  0  0  0
   -2.7020    1.4075    0.5896 H   0  0  0  0  0  0  0  0  0  0  0  0
   -3.6510   -0.8943   -1.1995 H   0  0  0  0  0  0  0  0  0  0  0  0
   -1.5670    1.2396   -1.7404 H   0  0  0  0  0  0  0  0  0  0  0  0
   -2.4537   -1.0680   -2.9978 H   0  0  0  0  0  0  0  0  0  0  0  0
   -3.2351    2.5675   -2.3356 H   0  0  0  0  0  0  0  0  0  0  0  0
   -5.1353    3.4613   -3.0235 H   0  0  0  0  0  0  0  0  0  0  0  0
   -6.5523    2.4088   -3.2627 H   0  0  0  0  0  0  0  0  0  0  0  0
   -5.9001    2.5406   -1.6117 H   0  0  0  0  0  0  0  0  0  0  0  0
   -3.8179    2.0507   -4.7853 H   0  0  0  0  0  0  0  0  0  0  0  0
   -5.5484    1.6454   -4.9361 H   0  0  0  0  0  0  0  0  0  0  0  0
   -4.3858    0.2935   -4.8169 H   0  0  0  0  0  0  0  0  0  0  0  0
   -6.5392    0.1574   -3.0848 H   0  0  0  0  0  0  0  0  0  0  0  0
   -5.0871   -0.8078   -2.9454 H   0  0  0  0  0  0  0  0  0  0  0  0
   -5.7979    0.0741   -1.4983 H   0  0  0  0  0  0  0  0  0  0  0  0
   -1.2209    0.2183    1.4710 H   0  0  0  0  0  0  0  0  0  0  0  0
   -1.2649   -1.5450    1.7156 H   0  0  0  0  0  0  0  0  0  0  0  0
   -3.4630   -1.7825    1.9976 H   0  0  0  0  0  0  0  0  0  0  0  0
   -3.0070   -0.3556    2.9818 H   0  0  0  0  0  0  0  0  0  0  0  0
   -0.8220   -2.6608    0.2964 H   0  0  0  0  0  0  0  0  0  0  0  0
   -1.4012   -2.6040   -1.3559 H   0  0  0  0  0  0  0  0  0  0  0  0
    0.8199   -2.6775   -1.2439 H   0  0  0  0  0  0  0  0  0  0  0  0
    0.3040    0.0507   -1.9775 H   0  0  0  0  0  0  0  0  0  0  0  0
    0.7993    0.0102    0.1981 H   0  0  0  0  0  0  0  0  0  0  0  0
    0.9363   -1.5411    1.0244 H   0  0  0  0  0  0  0  0  0  0  0  0
    2.9844   -0.4281    0.9947 H   0  0  0  0  0  0  0  0  0  0  0  0
    4.6267   -1.5719   -0.3120 H   0  0  0  0  0  0  0  0  0  0  0  0
    3.4687   -2.3797   -1.3579 H   0  0  0  0  0  0  0  0  0  0  0  0
    3.9941   -2.8074    1.5958 H   0  0  0  0  0  0  0  0  0  0  0  0
    1.9789   -4.4002   -0.1123 H   0  0  0  0  0  0  0  0  0  0  0  0
    1.6851   -3.5190    1.3966 H   0  0  0  0  0  0  0  0  0  0  0  0
    1.9673   -5.7651    2.0411 H   0  0  0  0  0  0  0  0  0  0  0  0
    3.3655   -4.7714    2.5798 H   0  0  0  0  0  0  0  0  0  0  0  0
    4.1070   -6.9913    1.4462 H   0  0  0  0  0  0  0  0  0  0  0  0
    3.5646   -6.1944   -0.0768 H   0  0  0  0  0  0  0  0  0  0  0  0
    5.9369   -5.7638    0.4774 H   0  0  0  0  0  0  0  0  0  0  0  0
    5.4557   -4.9333    1.9660 H   0  0  0  0  0  0  0  0  0  0  0  0
    5.7024   -3.2772    0.1244 H   0  0  0  0  0  0  0  0  0  0  0  0
    4.6532   -4.3064   -0.9505 H   0  0  0  0  0  0  0  0  0  0  0  0
    2.4393    1.1804   -0.6965 H   0  0  0  0  0  0  0  0  0  0  0  0
    3.5552    0.1391   -2.9183 H   0  0  0  0  0  0  0  0  0  0  0  0
    5.1476    0.0516   -1.2806 H   0  0  0  0  0  0  0  0  0  0  0  0
    4.6727    0.5761    1.2111 H   0  0  0  0  0  0  0  0  0  0  0  0
    3.1366    2.3404    1.0398 H   0  0  0  0  0  0  0  0  0  0  0  0
    3.5614    3.9988   -0.7381 H   0  0  0  0  0  0  0  0  0  0  0  0
    4.5322    3.6432    2.3635 H   0  0  0  0  0  0  0  0  0  0  0  0
    5.0746    4.5069    0.9285 H   0  0  0  0  0  0  0  0  0  0  0  0
    6.3011    2.2044    2.4160 H   0  0  0  0  0  0  0  0  0  0  0  0
    8.0445    3.6128    2.3768 H   0  0  0  0  0  0  0  0  0  0  0  0
    7.1676    4.7150    1.3005 H   0  0  0  0  0  0  0  0  0  0  0  0
    9.2243    4.1348    0.2827 H   0  0  0  0  0  0  0  0  0  0  0  0
    9.0031    2.3485    0.5341 H   0  0  0  0  0  0  0  0  0  0  0  0
    7.4673    4.2176   -1.3517 H   0  0  0  0  0  0  0  0  0  0  0  0
    8.5839    2.9168   -1.7599 H   0  0  0  0  0  0  0  0  0  0  0  0
    7.1100    1.2741   -1.5383 H   0  0  0  0  0  0  0  0  0  0  0  0
    5.8720    2.5254   -1.6288 H   0  0  0  0  0  0  0  0  0  0  0  0
    6.8838    0.8399    0.7182 H   0  0  0  0  0  0  0  0  0  0  0  0
   -5.6283   -1.2375    0.4787 H   0  0  0  0  0  0  0  0  0  0  0  0
   -5.4583   -1.0951    2.2182 H   0  0  0  0  0  0  0  0  0  0  0  0
   -6.7602    1.0554    0.4613 H   0  0  0  0  0  0  0  0  0  0  0  0
   -5.5781    1.9547    2.4843 H   0  0  0  0  0  0  0  0  0  0  0  0
   -6.3801    0.7173    3.4848 H   0  0  0  0  0  0  0  0  0  0  0  0
   -7.8224    2.4111    3.6406 H   0  0  0  0  0  0  0  0  0  0  0  0
   -9.7390    2.1469    2.4434 H   0  0  0  0  0  0  0  0  0  0  0  0
   -8.8091    1.7538    0.9590 H   0  0  0  0  0  0  0  0  0  0  0  0
   -9.8125   -0.2017    2.1284 H   0  0  0  0  0  0  0  0  0  0  0  0
   -8.7055    0.0420    3.4890 H   0  0  0  0  0  0  0  0  0  0  0  0
   -8.2531   -0.7640    0.6058 H   0  0  0  0  0  0  0  0  0  0  0  0
   -7.4788   -1.3938    2.0735 H   0  0  0  0  0  0  0  0  0  0  0  0
  1  2  1  0
  2  3  1  0
  3  4  1  0
  4  5  1  0
  4  6  1  0
  7  6  1  0
  7  8  1  0
  7  9  1  0
  7 10  1  0
  3 11  1  0
 11 12  1  0
  1 13  1  0
 12 13  1  0
 11 14  1  0
 14 15  1  0
 15 16  1  0
 15 17  1  0
 17 18  1  0
 18 19  1  0
 19 20  1  0
 20 21  1  0
 21 22  1  0
 22 23  1  0
 23 24  1  0
 20 25  1  0
 24 25  1  0
 18 26  1  0
 26 27  1  0
 26 28  1  0
 28 29  1  0
 29 30  1  0
 30 31  1  0
 30 32  1  0
 32 33  1  0
 33 34  1  0
 34 35  1  0
 35 36  1  0
 36 37  1  0
 29 38  1  0
 33 38  1  0
 37 38  1  0
  1 39  1  0
 39 40  1  0
 40 41  1  0
 41 42  1  0
 42 43  1  0
 43 44  1  0
 40 45  1  0
 44 45  1  0
  2 46  1  0
  2 47  1  0
  3 48  1  6
  4 49  1  0
  5 50  1  0
  6 51  1  0
  8 52  1  0
  8 53  1  0
  8 54  1  0
  9 55  1  0
  9 56  1  0
  9 57  1  0
 10 58  1  0
 10 59  1  0
 10 60  1  0
 12 61  1  0
 12 62  1  0
 13 63  1  0
 13 64  1  0
 14 65  1  0
 14 66  1  0
 15 67  1  6
 16 68  1  0
 17 69  1  0
 17 70  1  0
 18 71  1  1
 19 72  1  0
 19 73  1  0
 20 74  1  0
 21 75  1  0
 21 76  1  0
 22 77  1  0
 22 78  1  0
 23 79  1  0
 23 80  1  0
 24 81  1  0
 24 82  1  0
 25 83  1  0
 25 84  1  0
 26 85  1  1
 27 86  1  0
 28 87  1  0
 29 88  1  1
 30 89  1  1
 31 90  1  0
 32 91  1  0
 32 92  1  0
 33 93  1  0
 34 94  1  0
 34 95  1  0
 35 96  1  0
 35 97  1  0
 36 98  1  0
 36 99  1  0
 37100  1  0
 37101  1  0
 38102  1  0
 39103  1  0
 39104  1  0
 40105  1  0
 41106  1  0
 41107  1  0
 42108  1  0
 43109  1  0
 43110  1  0
 44111  1  0
 44112  1  0
 45113  1  0
 45114  1  0
M  END
>  <PDBID>  (1) 
1HSG

>  <PDB ID>  (1) 
1HSG

>  <Generic Name>  (1) 
Indinavir

>  <Brand Name>  (1) 
Crixivan

>  <DrugBank ID>  (1) 
DB00224

>  <ATC Codes>  (1) 
J05AE02

>  <Ligand ID>  (1) 
MK1

>  <Target Name>  (1) 
Pol polyprotein

>  <UniProt ID>  (1) 
Q72874

>  <PDB ID.1>  (1) 
1HSG

>  <Seq. Identity>  (1) 
99%

$$$$
