PDB_DB00282_00
     RDKit          3D

 28 27  0  0  0  0  0  0  0  0999 V2000
   -0.6100    1.5370    0.0817 P   0  0  0  0  0  0  0  0  0  0  0  0
    0.1238    1.9089   -1.1940 O   0  0  0  0  0  0  0  0  0  0  0  0
    0.1847    2.7534    0.8844 O   0  0  0  0  0  0  0  0  0  0  0  0
   -2.0899    1.9247   -0.5916 O   0  0  0  0  0  0  0  0  0  0  0  0
   -0.0761   -0.1217    0.2352 C   0  0  0  0  0  0  0  0  0  0  0  0
   -1.3582   -1.3292    0.2316 P   0  0  0  0  0  0  0  0  0  0  0  0
   -2.5635   -0.4370   -0.0358 O   0  0  0  0  0  0  0  0  0  0  0  0
   -2.1036   -1.7207    1.7076 O   0  0  0  0  0  0  0  0  0  0  0  0
   -1.6067   -2.2799   -1.0664 O   0  0  0  0  0  0  0  0  0  0  0  0
    0.7017   -0.1543    1.4441 O   0  0  0  0  0  0  0  0  0  0  0  0
    0.9654   -0.6302   -0.7489 C   0  0  0  0  0  0  0  0  0  0  0  0
    2.2591    0.0894   -0.7221 C   0  0  0  0  0  0  0  0  0  0  0  0
    2.8119   -0.0536    0.6355 N   0  0  0  0  0  0  0  0  0  0  0  0
   -1.3252    1.4047    1.1555 H   0  0  0  0  0  0  0  0  0  0  0  0
   -0.0419    1.2923   -1.9618 H   0  0  0  0  0  0  0  0  0  0  0  0
    0.8801    2.3476    1.4154 H   0  0  0  0  0  0  0  0  0  0  0  0
   -2.3418    1.4549   -1.3796 H   0  0  0  0  0  0  0  0  0  0  0  0
   -0.5572   -2.2792    0.6239 H   0  0  0  0  0  0  0  0  0  0  0  0
   -3.4509   -0.7790   -0.2126 H   0  0  0  0  0  0  0  0  0  0  0  0
   -1.7734   -1.0537    2.3217 H   0  0  0  0  0  0  0  0  0  0  0  0
   -1.8953   -1.9487   -1.9062 H   0  0  0  0  0  0  0  0  0  0  0  0
    0.1716    0.1496    2.1983 H   0  0  0  0  0  0  0  0  0  0  0  0
    1.1796   -1.6865   -0.4042 H   0  0  0  0  0  0  0  0  0  0  0  0
    0.5375   -0.7605   -1.7648 H   0  0  0  0  0  0  0  0  0  0  0  0
    2.9334   -0.4542   -1.4501 H   0  0  0  0  0  0  0  0  0  0  0  0
    2.2694    1.1474   -0.9478 H   0  0  0  0  0  0  0  0  0  0  0  0
    3.2368   -1.0063    0.6983 H   0  0  0  0  0  0  0  0  0  0  0  0
    3.5388    0.6848    0.7530 H   0  0  0  0  0  0  0  0  0  0  0  0
  1  2  1  0
  1  3  1  0
  1  4  1  0
  1  5  1  0
  5  6  1  0
  6  7  1  0
  6  8  1  0
  6  9  1  0
  5 10  1  0
  5 11  1  0
 11 12  1  0
 12 13  1  0
  1 14  1  0
  2 15  1  0
  3 16  1  0
  4 17  1  0
  6 18  1  0
  7 19  1  0
  8 20  1  0
  9 21  1  0
 10 22  1  0
 11 23  1  0
 11 24  1  0
 12 25  1  0
 12 26  1  0
 13 27  1  0
 13 28  1  0
M  END
>  <PDBID>  (1) 
2F89

>  <PDB ID>  (1) 
2F89

>  <Generic Name>  (1) 
Pamidronate

>  <Brand Name>  (1) 
Aredia#Aredia 30mg#Aredia 90mg#Aredia Liq Inj 3mg/ml#PMS-pamidronate#Pamidronate Disodium#Pamidronate Disodium Omega 3 mg/ml#Pamidronate Disodium Omega 6 mg/ml#Pamidronate Disodium Omega 9 mg/ml#Pamidronate Disodium for Injection#Val-pamidronate Disodium#Aminomux#Pamimed

>  <DrugBank ID>  (1) 
DB00282

>  <ATC Codes>  (1) 
M05BA03

>  <Ligand ID>  (1) 
210

>  <Target Name>  (1) 
Farnesyl pyrophosphate synthase

>  <UniProt ID>  (1) 
P14324

>  <PDB ID.1>  (1) 
2F89

>  <Seq. Identity>  (1) 
100%

$$$$
