PDB_DB00951_06
     RDKit          3D

 25 25  0  0  0  0  0  0  0  0999 V2000
    1.4903   -0.0176   -0.1773 C   0  0  2  0  0  0  0  0  0  0  0  0
    0.0572    0.3787    0.0737 C   0  0  0  0  0  0  0  0  0  0  0  0
   -2.7597    0.2037   -0.1133 N   0  0  0  0  0  0  0  0  0  0  0  0
    1.5123   -1.2588   -0.8242 O   0  0  0  0  0  0  0  0  0  0  0  0
   -0.6855    0.4796   -1.2418 C   0  0  0  0  0  0  0  0  0  0  0  0
    2.2601   -0.0666    1.0272 N   0  0  0  0  0  0  0  0  0  0  0  0
   -2.0068    1.1755   -0.8897 C   0  0  0  0  0  0  0  0  0  0  0  0
    3.5710   -0.4402    0.7058 N   0  0  0  0  0  0  0  0  0  0  0  0
   -2.0882   -0.0589    1.1329 C   0  0  0  0  0  0  0  0  0  0  0  0
   -0.6831   -0.5930    0.9345 C   0  0  0  0  0  0  0  0  0  0  0  0
    1.9048    0.7184   -0.8977 H   0  0  0  0  0  0  0  0  0  0  0  0
    0.0658    1.3618    0.5878 H   0  0  0  0  0  0  0  0  0  0  0  0
   -2.8624   -0.6704   -0.6589 H   0  0  0  0  0  0  0  0  0  0  0  0
    1.2051   -1.9366   -0.1926 H   0  0  0  0  0  0  0  0  0  0  0  0
   -0.9414   -0.5793   -1.5263 H   0  0  0  0  0  0  0  0  0  0  0  0
   -0.1363    1.0143   -2.0178 H   0  0  0  0  0  0  0  0  0  0  0  0
    1.8460   -0.7490    1.6870 H   0  0  0  0  0  0  0  0  0  0  0  0
   -2.5325    1.5194   -1.7738 H   0  0  0  0  0  0  0  0  0  0  0  0
   -1.7356    2.0256   -0.1988 H   0  0  0  0  0  0  0  0  0  0  0  0
    4.2147   -0.2976    1.5215 H   0  0  0  0  0  0  0  0  0  0  0  0
    3.9290    0.0148   -0.1422 H   0  0  0  0  0  0  0  0  0  0  0  0
   -1.9939    0.8722    1.7222 H   0  0  0  0  0  0  0  0  0  0  0  0
   -2.6940   -0.7889    1.7172 H   0  0  0  0  0  0  0  0  0  0  0  0
   -0.7063   -1.5764    0.4227 H   0  0  0  0  0  0  0  0  0  0  0  0
   -0.2306   -0.7307    1.9280 H   0  0  0  0  0  0  0  0  0  0  0  0
  1  2  1  0
  1  4  1  0
  2  5  1  0
  1  6  1  0
  3  7  1  0
  5  7  1  0
  6  8  1  0
  3  9  1  0
  2 10  1  0
  9 10  1  0
  1 11  1  6
  2 12  1  0
  3 13  1  0
  4 14  1  0
  5 15  1  0
  5 16  1  0
  6 17  1  0
  7 18  1  0
  7 19  1  0
  8 20  1  0
  8 21  1  0
  9 22  1  0
  9 23  1  0
 10 24  1  0
 10 25  1  0
M  END
>  <PDBID>  (1) 
5KSG

>  <PDB ID>  (1) 
5KSG

>  <Generic Name>  (1) 
Isoniazid

>  <Brand Name>  (1) 
Dom-isoniazid 300mg Tablets#Isonarif#Isoniazid#Isoniazid Syrup 50mg/5ml#Isoniazid Tab 100mg#Isoniazid Tab 300mg#Isoniazid Tab 50mg#Isoniazide 100mg Tablets#Isotamine B 300#Isotamine Powder#Isotamine Syr Pediatric 50mg/5ml#Isotamine-100#Isotamine-300#Pdp-isoniazid#Rifamate#Rifater#Nicozid#Nidrazid#Nydrazid#Rimicid#Rimifon#Servizid#Tibinide

>  <DrugBank ID>  (1) 
DB00951

>  <ATC Codes>  (1) 
J04AM04#J04AM02#J04AM06#J04AM03#J04AM05#J04AM01#J04AC51#J04AC01

>  <Ligand ID>  (1) 
NIZ

>  <Target Name>  (1) 
Catalase-peroxidase

>  <UniProt ID>  (1) 
Q08129

>  <PDB ID.1>  (1) 
5KSG

>  <Seq. Identity>  (1) 
66%

$$$$
