PDB_DB00215_06
     RDKit          3D

 61 63  0  0  0  0  0  0  0  0999 V2000
   -0.0914    1.6440   -0.0347 C   0  0  0  0  0  0  0  0  0  0  0  0
   -2.0818   -0.5662    1.6272 C   0  0  0  0  0  0  0  0  0  0  0  0
   -0.7373    1.8051   -1.3839 C   0  0  0  0  0  0  0  0  0  0  0  0
   -3.1436   -1.6350    1.4252 C   0  0  0  0  0  0  0  0  0  0  0  0
    0.7333    3.9005   -0.3731 C   0  0  0  0  0  0  0  0  0  0  0  0
    0.8924    3.6652   -1.8700 C   0  0  0  0  0  0  0  0  0  0  0  0
    4.6980    0.9574    0.4938 C   0  0  0  0  0  0  0  0  0  0  0  0
   -4.5929   -2.8929   -0.0585 C   0  0  0  0  0  0  0  0  0  0  0  0
    0.8388    4.8412   -2.5757 F   0  0  0  0  0  0  0  0  0  0  0  0
    0.6350   -0.4356   -0.7379 O   0  0  0  0  0  0  0  0  0  0  0  0
    4.4268   -0.4326    0.7583 N   0  0  0  0  0  0  0  0  0  0  0  0
   -5.7259   -2.6316    0.8033 N   0  0  0  0  0  0  0  0  0  0  0  0
   -0.0120    0.1930    0.3576 C   0  0  1  0  0  0  0  0  0  0  0  0
    0.7661   -0.1866    1.5382 C   0  0  0  0  0  0  0  0  0  0  0  0
   -1.3952   -0.3998    0.3294 C   0  0  0  0  0  0  0  0  0  0  0  0
   -1.1806   -1.7948   -0.2208 C   0  0  0  0  0  0  0  0  0  0  0  0
    2.2302    0.0528    1.6362 C   0  0  0  0  0  0  0  0  0  0  0  0
    0.0087   -1.5796   -1.0693 C   0  0  0  0  0  0  0  0  0  0  0  0
    3.0004   -0.6609    0.5415 C   0  0  0  0  0  0  0  0  0  0  0  0
   -2.4502   -2.1651   -0.9399 C   0  0  0  0  0  0  0  0  0  0  0  0
    1.0774    2.5069    0.2298 C   0  0  0  0  0  0  0  0  0  0  0  0
   -3.5944   -1.7469   -0.0086 C   0  0  0  0  0  0  0  0  0  0  0  0
   -0.1074    2.6780   -2.3733 C   0  0  0  0  0  0  0  0  0  0  0  0
    5.2339   -1.2969   -0.0596 C   0  0  0  0  0  0  0  0  0  0  0  0
   -0.8966    2.0865    0.6821 H   0  0  0  0  0  0  0  0  0  0  0  0
   -1.4667   -0.9062    2.4597 H   0  0  0  0  0  0  0  0  0  0  0  0
   -2.6082    0.3643    1.9791 H   0  0  0  0  0  0  0  0  0  0  0  0
   -1.7954    2.0972   -1.2534 H   0  0  0  0  0  0  0  0  0  0  0  0
   -0.8201    0.7504   -1.8131 H   0  0  0  0  0  0  0  0  0  0  0  0
   -2.7810   -2.6433    1.7257 H   0  0  0  0  0  0  0  0  0  0  0  0
   -4.0420   -1.4387    2.0293 H   0  0  0  0  0  0  0  0  0  0  0  0
    1.4727    4.6402   -0.0671 H   0  0  0  0  0  0  0  0  0  0  0  0
   -0.3070    4.1581   -0.1591 H   0  0  0  0  0  0  0  0  0  0  0  0
    1.9117    3.2480   -2.0002 H   0  0  0  0  0  0  0  0  0  0  0  0
    4.1418    1.2354   -0.4443 H   0  0  0  0  0  0  0  0  0  0  0  0
    5.7703    1.0457    0.1990 H   0  0  0  0  0  0  0  0  0  0  0  0
    4.4472    1.6161    1.3307 H   0  0  0  0  0  0  0  0  0  0  0  0
   -4.0963   -3.8455    0.2427 H   0  0  0  0  0  0  0  0  0  0  0  0
   -4.9504   -2.9735   -1.1033 H   0  0  0  0  0  0  0  0  0  0  0  0
   -5.9211   -1.6039    0.8926 H   0  0  0  0  0  0  0  0  0  0  0  0
   -6.6046   -3.0414    0.3749 H   0  0  0  0  0  0  0  0  0  0  0  0
    0.6512   -1.2883    1.7948 H   0  0  0  0  0  0  0  0  0  0  0  0
    0.3478    0.2622    2.5019 H   0  0  0  0  0  0  0  0  0  0  0  0
   -2.0282    0.2223   -0.3219 H   0  0  0  0  0  0  0  0  0  0  0  0
   -0.9737   -2.5187    0.6216 H   0  0  0  0  0  0  0  0  0  0  0  0
    2.6140   -0.4471    2.6020 H   0  0  0  0  0  0  0  0  0  0  0  0
    2.5505    1.0996    1.7234 H   0  0  0  0  0  0  0  0  0  0  0  0
    0.7250   -2.4318   -0.8670 H   0  0  0  0  0  0  0  0  0  0  0  0
   -0.2562   -1.6982   -2.1378 H   0  0  0  0  0  0  0  0  0  0  0  0
    2.7933   -0.2495   -0.4728 H   0  0  0  0  0  0  0  0  0  0  0  0
    2.7828   -1.7412    0.6237 H   0  0  0  0  0  0  0  0  0  0  0  0
   -2.4727   -3.2346   -1.1723 H   0  0  0  0  0  0  0  0  0  0  0  0
   -2.5299   -1.5177   -1.8346 H   0  0  0  0  0  0  0  0  0  0  0  0
    2.0137    2.2608   -0.2552 H   0  0  0  0  0  0  0  0  0  0  0  0
    1.1332    2.7650    1.3157 H   0  0  0  0  0  0  0  0  0  0  0  0
   -4.1222   -0.8555   -0.3796 H   0  0  0  0  0  0  0  0  0  0  0  0
   -0.8819    3.2736   -2.9455 H   0  0  0  0  0  0  0  0  0  0  0  0
    0.3918    2.0667   -3.1629 H   0  0  0  0  0  0  0  0  0  0  0  0
    5.9086   -0.6689   -0.6670 H   0  0  0  0  0  0  0  0  0  0  0  0
    5.8461   -1.9320    0.6336 H   0  0  0  0  0  0  0  0  0  0  0  0
    4.6240   -1.9755   -0.7109 H   0  0  0  0  0  0  0  0  0  0  0  0
  1  3  1  0
  2  4  1  0
  5  6  1  0
  6  9  1  0
  7 11  1  0
  8 12  1  0
  1 13  1  0
 10 13  1  0
 13 14  1  1
  2 15  1  0
 13 15  1  0
 15 16  1  0
 14 17  1  0
 10 18  1  0
 16 18  1  0
 11 19  1  0
 17 19  1  0
 16 20  1  0
  1 21  1  0
  5 21  1  0
  4 22  1  0
  8 22  1  0
 20 22  1  0
  3 23  1  0
  6 23  1  0
 11 24  1  0
  1 25  1  0
  2 26  1  0
  2 27  1  0
  3 28  1  0
  3 29  1  0
  4 30  1  0
  4 31  1  0
  5 32  1  0
  5 33  1  0
  6 34  1  0
  7 35  1  0
  7 36  1  0
  7 37  1  0
  8 38  1  0
  8 39  1  0
 12 40  1  0
 12 41  1  0
 14 42  1  0
 14 43  1  0
 15 44  1  0
 16 45  1  0
 17 46  1  0
 17 47  1  0
 18 48  1  0
 18 49  1  0
 19 50  1  0
 19 51  1  0
 20 52  1  0
 20 53  1  0
 21 54  1  0
 21 55  1  0
 22 56  1  0
 23 57  1  0
 23 58  1  0
 24 59  1  0
 24 60  1  0
 24 61  1  0
M  END
>  <PDBID>  (1) 
5I71

>  <PDB ID>  (1) 
5I71

>  <Generic Name>  (1) 
Citalopram

>  <Brand Name>  (1) 
Abbott-citalopram#Accel-citalopram Tablets#Act Citalopram#Ag-citalopram#Apo-citalopram#Auro-citalopram#Ava-citalopram#Bio-citalopram#Celexa#Celexa 10 mg#Celexa 20 mg#Celexa 40 mg#Citalopram#Citalopram Hydrobromide#Citalopram Tablets#Citalopram Tablets USP#Citalopram-10#Citalopram-20#Citalopram-40#Citalopram-odan#Ctp 30#Dom-citalopram#Ecl-citalopram#Ipg-citalopram#Jamp-citalopram#Manda-citalopram#Mar-citalopram#Mint-citalopram#Mylan-citalopram#Nat-citalopram#Nat-citalopram Tablets#Ng Citalopram#Novo-citalopram#Ntp-citalopram#Nu-citalopram#PHL-citalopram#PMS-citalopram#Pendo-citalopram#Perrigo Citalopram#Priva-citalopram#Q-citalopram#Ran-citalo#Ran-citalopram#Ratio-citalopram#Riva-citalopram#Sandoz Citalopram#Sentralopram Am-10#Septa-citalopram#Teva-citalopram#Van-citalopram#Akarin#Celapram#Ciazil#Cilift#Cipram#Cipramil#Ciprapine#Citabax#Citalec#Citol#Citopam#Citox#Citrol#Dalsan#Elopram#Humorup#Oropram#Pramcit#Recital#Seropram#Talam#Talohexal#Temperax#Vodelax#Zentius#Zetalo

>  <DrugBank ID>  (1) 
DB00215

>  <ATC Codes>  (1) 
N06AB04

>  <Ligand ID>  (1) 
68P

>  <Target Name>  (1) 
Sodium-dependent serotonin transporter

>  <UniProt ID>  (1) 
P31645

>  <PDB ID.1>  (1) 
5I71

>  <Seq. Identity>  (1) 
99%

$$$$
