PDB_DB01261_09
     RDKit          3D

110114  0  0  0  0  0  0  0  0999 V2000
    5.1066    0.6267    1.8408 C   0  0  0  0  0  0  0  0  0  0  0  0
    3.7564    0.1728    1.3123 C   0  0  0  0  0  0  0  0  0  0  0  0
    3.8514   -0.6433    0.0865 C   0  0  0  0  0  0  0  0  0  0  0  0
    5.1645   -0.5322   -0.6409 C   0  0  0  0  0  0  0  0  0  0  0  0
    5.8067    0.8120   -0.5448 C   0  0  0  0  0  0  0  0  0  0  0  0
    5.7291    1.4900    0.7695 C   0  0  0  0  0  0  0  0  0  0  0  0
    5.3330    1.6829   -1.5363 F   0  0  0  0  0  0  0  0  0  0  0  0
    3.1462   -0.4696    2.3863 F   0  0  0  0  0  0  0  0  0  0  0  0
    2.6856   -0.5048   -0.8534 C   0  0  0  0  0  0  0  0  0  0  0  0
    1.3724   -0.9154   -0.2327 C   0  0  2  0  0  0  0  0  0  0  0  0
    0.3048   -0.7483   -1.3040 C   0  0  0  0  0  0  0  0  0  0  0  0
   -1.0555   -1.1263   -0.8471 C   0  0  1  0  0  0  0  0  0  0  0  0
   -1.6148   -0.4080    0.2341 N   0  0  0  0  0  0  0  0  0  0  0  0
    1.0520   -0.0871    0.8974 N   0  0  0  0  0  0  0  0  0  0  0  0
   -1.9520   -1.2401   -1.9369 O   0  0  0  0  0  0  0  0  0  0  0  0
   -1.8768    0.9727    0.0527 C   0  0  0  0  0  0  0  0  0  0  0  0
   -3.1939    1.2716   -0.6412 C   0  0  0  0  0  0  0  0  0  0  0  0
   -4.0739    0.2130   -0.4328 N   0  0  0  0  0  0  0  0  0  0  0  0
   -3.9929   -0.4680    0.8170 C   0  0  0  0  0  0  0  0  0  0  0  0
   -2.6453   -1.1555    0.8678 C   0  0  0  0  0  0  0  0  0  0  0  0
   -5.4506    0.3848   -0.6464 C   0  0  0  0  0  0  0  0  0  0  0  0
   -5.9617   -0.9287   -0.2470 N   0  0  0  0  0  0  0  0  0  0  0  0
   -5.0921   -1.3951    0.7461 N   0  0  0  0  0  0  0  0  0  0  0  0
   -6.1539    1.3799    0.2055 C   0  0  0  0  0  0  0  0  0  0  0  0
   -7.5011    1.3752   -0.1870 F   0  0  0  0  0  0  0  0  0  0  0  0
   -5.7201    2.6582    0.0959 F   0  0  0  0  0  0  0  0  0  0  0  0
   -6.1763    1.0121    1.5495 F   0  0  0  0  0  0  0  0  0  0  0  0
    6.9890    1.8360    1.2190 F   0  0  0  0  0  0  0  0  0  0  0  0
    5.4610    0.9159    1.5529 C   0  0  0  0  0  0  0  0  0  0  0  0
    3.9625    0.6183    1.3495 C   0  0  0  0  0  0  0  0  0  0  0  0
    3.7741   -0.6497    0.5767 C   0  0  0  0  0  0  0  0  0  0  0  0
    5.0876   -1.1410   -0.0188 C   0  0  0  0  0  0  0  0  0  0  0  0
    5.8679   -0.0441   -0.7101 C   0  0  0  0  0  0  0  0  0  0  0  0
    6.0547    1.1699    0.1812 C   0  0  0  0  0  0  0  0  0  0  0  0
    5.3298    0.3306   -1.9030 F   0  0  0  0  0  0  0  0  0  0  0  0
    3.3611    0.5989    2.5890 F   0  0  0  0  0  0  0  0  0  0  0  0
    2.7588   -0.5823   -0.5186 C   0  0  0  0  0  0  0  0  0  0  0  0
    1.3703   -0.2101   -0.0570 C   0  0  2  0  0  0  0  0  0  0  0  0
    0.4424   -0.2105   -1.2357 C   0  0  0  0  0  0  0  0  0  0  0  0
   -0.9662    0.1681   -0.9657 C   0  0  0  0  0  0  0  0  0  0  0  0
   -1.6823   -0.5740   -0.0065 N   0  0  0  0  0  0  0  0  0  0  0  0
    1.3083    0.9277    0.7894 N   0  0  0  0  0  0  0  0  0  0  0  0
   -1.6382    0.1804   -2.2180 O   0  0  0  0  0  0  0  0  0  0  0  0
   -2.2328    0.3443    1.0166 C   0  0  0  0  0  0  0  0  0  0  0  0
   -3.4354    1.0819    0.3725 C   0  0  0  0  0  0  0  0  0  0  0  0
   -4.1682    0.1125   -0.3363 N   0  0  0  0  0  0  0  0  0  0  0  0
   -3.9475   -1.2254    0.1374 C   0  0  0  0  0  0  0  0  0  0  0  0
   -2.5593   -1.6079   -0.3905 C   0  0  0  0  0  0  0  0  0  0  0  0
   -5.5203    0.2581   -0.6188 C   0  0  0  0  0  0  0  0  0  0  0  0
   -6.0952   -1.0656   -0.3892 N   0  0  0  0  0  0  0  0  0  0  0  0
   -5.0127   -1.9785   -0.4645 N   0  0  0  0  0  0  0  0  0  0  0  0
   -6.3040    1.2727    0.1324 C   0  0  0  0  0  0  0  0  0  0  0  0
   -7.6073    1.2020   -0.3437 F   0  0  0  0  0  0  0  0  0  0  0  0
   -5.8693    2.5653   -0.1263 F   0  0  0  0  0  0  0  0  0  0  0  0
   -6.3776    1.0202    1.4854 F   0  0  0  0  0  0  0  0  0  0  0  0
    7.3649    1.5394    0.3419 F   0  0  0  0  0  0  0  0  0  0  0  0
    5.7348   -0.1972    2.1752 H   0  0  0  0  0  0  0  0  0  0  0  0
    4.9029    1.2824    2.7121 H   0  0  0  0  0  0  0  0  0  0  0  0
    3.1896    1.1057    1.1312 H   0  0  0  0  0  0  0  0  0  0  0  0
    3.7957   -1.7257    0.4344 H   0  0  0  0  0  0  0  0  0  0  0  0
    4.9457   -0.7186   -1.7222 H   0  0  0  0  0  0  0  0  0  0  0  0
    5.8556   -1.3405   -0.3273 H   0  0  0  0  0  0  0  0  0  0  0  0
    6.8918    0.6660   -0.8103 H   0  0  0  0  0  0  0  0  0  0  0  0
    5.1473    2.4431    0.7494 H   0  0  0  0  0  0  0  0  0  0  0  0
    2.6141    0.5477   -1.2379 H   0  0  0  0  0  0  0  0  0  0  0  0
    2.9091   -1.1383   -1.7607 H   0  0  0  0  0  0  0  0  0  0  0  0
    1.4641   -1.9618    0.0995 H   0  0  0  0  0  0  0  0  0  0  0  0
    0.4044    0.2737   -1.6900 H   0  0  0  0  0  0  0  0  0  0  0  0
    0.5876   -1.4337   -2.1332 H   0  0  0  0  0  0  0  0  0  0  0  0
   -0.9759   -2.2021   -0.4929 H   0  0  0  0  0  0  0  0  0  0  0  0
    0.3739   -0.4904    1.5580 H   0  0  0  0  0  0  0  0  0  0  0  0
    0.9070    0.9102    0.6587 H   0  0  0  0  0  0  0  0  0  0  0  0
   -1.4245   -1.1836   -2.7629 H   0  0  0  0  0  0  0  0  0  0  0  0
   -1.8914    1.4721    1.0449 H   0  0  0  0  0  0  0  0  0  0  0  0
   -1.0817    1.4546   -0.5363 H   0  0  0  0  0  0  0  0  0  0  0  0
   -3.5011    2.2743   -0.3373 H   0  0  0  0  0  0  0  0  0  0  0  0
   -2.9693    1.3435   -1.7467 H   0  0  0  0  0  0  0  0  0  0  0  0
   -4.0347    0.2056    1.6930 H   0  0  0  0  0  0  0  0  0  0  0  0
   -2.7913   -2.1758    0.4269 H   0  0  0  0  0  0  0  0  0  0  0  0
   -2.4330   -1.3591    1.9559 H   0  0  0  0  0  0  0  0  0  0  0  0
   -5.7156    0.5628   -1.7098 H   0  0  0  0  0  0  0  0  0  0  0  0
   -6.0342   -1.5573   -1.0518 H   0  0  0  0  0  0  0  0  0  0  0  0
   -4.7076   -2.3230    0.4054 H   0  0  0  0  0  0  0  0  0  0  0  0
    5.9587    0.1155    2.0898 H   0  0  0  0  0  0  0  0  0  0  0  0
    5.5107    1.8583    2.1238 H   0  0  0  0  0  0  0  0  0  0  0  0
    3.6098    1.4841    0.7131 H   0  0  0  0  0  0  0  0  0  0  0  0
    3.4413   -1.4583    1.2931 H   0  0  0  0  0  0  0  0  0  0  0  0
    4.7917   -1.8529   -0.8470 H   0  0  0  0  0  0  0  0  0  0  0  0
    5.6874   -1.7032    0.6999 H   0  0  0  0  0  0  0  0  0  0  0  0
    6.8826   -0.4397   -0.9071 H   0  0  0  0  0  0  0  0  0  0  0  0
    5.4839    2.0484   -0.2178 H   0  0  0  0  0  0  0  0  0  0  0  0
    3.0972   -0.0092   -1.4024 H   0  0  0  0  0  0  0  0  0  0  0  0
    2.6596   -1.6440   -0.9106 H   0  0  0  0  0  0  0  0  0  0  0  0
    1.0556   -1.1030    0.5848 H   0  0  0  0  0  0  0  0  0  0  0  0
    0.8327    0.5386   -1.9897 H   0  0  0  0  0  0  0  0  0  0  0  0
    0.4798   -1.1713   -1.7712 H   0  0  0  0  0  0  0  0  0  0  0  0
   -1.0398    1.2670   -0.6598 H   0  0  0  0  0  0  0  0  0  0  0  0
    0.8214    0.7947    1.6917 H   0  0  0  0  0  0  0  0  0  0  0  0
    1.0807    1.8341    0.3246 H   0  0  0  0  0  0  0  0  0  0  0  0
   -1.5791   -0.6866   -2.6816 H   0  0  0  0  0  0  0  0  0  0  0  0
   -2.4956   -0.1570    1.9332 H   0  0  0  0  0  0  0  0  0  0  0  0
   -1.4889    1.1194    1.1882 H   0  0  0  0  0  0  0  0  0  0  0  0
   -3.9138    1.6358    1.1698 H   0  0  0  0  0  0  0  0  0  0  0  0
   -2.9796    1.8310   -0.3436 H   0  0  0  0  0  0  0  0  0  0  0  0
   -3.9802   -1.3219    1.2511 H   0  0  0  0  0  0  0  0  0  0  0  0
   -2.6201   -1.8859   -1.4336 H   0  0  0  0  0  0  0  0  0  0  0  0
   -2.2470   -2.5474    0.1533 H   0  0  0  0  0  0  0  0  0  0  0  0
   -5.6545    0.4775   -1.7046 H   0  0  0  0  0  0  0  0  0  0  0  0
   -6.8427   -1.3063   -1.0528 H   0  0  0  0  0  0  0  0  0  0  0  0
   -5.2785   -2.7351    0.2382 H   0  0  0  0  0  0  0  0  0  0  0  0
  1  2  1  0
  2  3  1  0
  3  4  1  0
  4  5  1  0
  1  6  1  0
  5  6  1  0
  5  7  1  0
  2  8  1  0
  3  9  1  0
  9 10  1  0
 10 11  1  0
 11 12  1  0
 12 13  1  0
 10 14  1  0
 12 15  1  0
 13 16  1  0
 16 17  1  0
 17 18  1  0
 18 19  1  0
 13 20  1  0
 19 20  1  0
 18 21  1  0
 21 22  1  0
 19 23  1  0
 22 23  1  0
 21 24  1  0
 24 25  1  0
 24 26  1  0
 24 27  1  0
  6 28  1  0
 29 30  1  0
 30 31  1  0
 31 32  1  0
 32 33  1  0
 29 34  1  0
 33 34  1  0
 33 35  1  0
 30 36  1  0
 31 37  1  0
 37 38  1  0
 38 39  1  0
 39 40  1  0
 40 41  1  0
 38 42  1  0
 40 43  1  0
 41 44  1  0
 44 45  1  0
 45 46  1  0
 46 47  1  0
 41 48  1  0
 47 48  1  0
 46 49  1  0
 49 50  1  0
 47 51  1  0
 50 51  1  0
 49 52  1  0
 52 53  1  0
 52 54  1  0
 52 55  1  0
 34 56  1  0
  1 57  1  0
  1 58  1  0
  2 59  1  0
  3 60  1  0
  4 61  1  0
  4 62  1  0
  5 63  1  0
  6 64  1  0
  9 65  1  0
  9 66  1  0
 10 67  1  1
 11 68  1  0
 11 69  1  0
 12 70  1  1
 14 71  1  0
 14 72  1  0
 15 73  1  0
 16 74  1  0
 16 75  1  0
 17 76  1  0
 17 77  1  0
 19 78  1  0
 20 79  1  0
 20 80  1  0
 21 81  1  0
 22 82  1  0
 23 83  1  0
 29 84  1  0
 29 85  1  0
 30 86  1  0
 31 87  1  0
 32 88  1  0
 32 89  1  0
 33 90  1  0
 34 91  1  0
 37 92  1  0
 37 93  1  0
 38 94  1  1
 39 95  1  0
 39 96  1  0
 40 97  1  0
 42 98  1  0
 42 99  1  0
 43100  1  0
 44101  1  0
 44102  1  0
 45103  1  0
 45104  1  0
 47105  1  0
 48106  1  0
 48107  1  0
 49108  1  0
 50109  1  0
 51110  1  0
M  END
>  <PDBID>  (1) 
1X70

>  <PDB ID>  (1) 
1X70

>  <Generic Name>  (1) 
Sitagliptin

>  <Brand Name>  (1) 
Janumet#Janumet XR#Januvia#Xelevia

>  <DrugBank ID>  (1) 
DB01261

>  <ATC Codes>  (1) 
A10BD12#A10BH51#A10BH01#A10BD07

>  <Ligand ID>  (1) 
715

>  <Target Name>  (1) 
Dipeptidyl peptidase 4

>  <UniProt ID>  (1) 
P27487

>  <PDB ID.1>  (1) 
1X70

>  <Seq. Identity>  (1) 
100%

$$$$
