PDB_DB01577_08
     RDKit          3D

 32 32  0  0  0  0  0  0  0  0999 V2000
   -1.8920    0.9229    0.3793 N   0  0  0  0  0  0  0  0  0  0  0  0
   -1.8197   -0.4210   -0.1038 C   0  0  1  0  0  0  0  0  0  0  0  0
   -2.8954   -0.5822   -1.1674 C   0  0  0  0  0  0  0  0  0  0  0  0
   -0.5278   -0.8253   -0.7162 C   0  0  0  0  0  0  0  0  0  0  0  0
    0.6714   -0.7434    0.2017 C   0  0  0  0  0  0  0  0  0  0  0  0
    0.8215    0.6696    0.6542 C   0  0  0  0  0  0  0  0  0  0  0  0
    1.8415   -1.2637   -0.6027 C   0  0  0  0  0  0  0  0  0  0  0  0
    2.2057    1.0709    1.0620 C   0  0  0  0  0  0  0  0  0  0  0  0
    3.1750   -0.8298   -0.0669 C   0  0  0  0  0  0  0  0  0  0  0  0
    3.1594    0.7053   -0.0525 C   0  0  0  0  0  0  0  0  0  0  0  0
   -3.1993    1.1071    0.9945 C   0  0  0  0  0  0  0  0  0  0  0  0
   -1.8589    1.5574   -0.4640 H   0  0  0  0  0  0  0  0  0  0  0  0
   -2.1007   -1.0934    0.7443 H   0  0  0  0  0  0  0  0  0  0  0  0
   -2.4996   -1.0051   -2.0966 H   0  0  0  0  0  0  0  0  0  0  0  0
   -3.7212   -1.2267   -0.8135 H   0  0  0  0  0  0  0  0  0  0  0  0
   -3.3272    0.4129   -1.4445 H   0  0  0  0  0  0  0  0  0  0  0  0
   -0.3477   -0.2137   -1.6358 H   0  0  0  0  0  0  0  0  0  0  0  0
   -0.6585   -1.8723   -1.0980 H   0  0  0  0  0  0  0  0  0  0  0  0
    0.5300   -1.3767    1.1109 H   0  0  0  0  0  0  0  0  0  0  0  0
    0.1460    0.8309    1.5267 H   0  0  0  0  0  0  0  0  0  0  0  0
    0.5198    1.3245   -0.1902 H   0  0  0  0  0  0  0  0  0  0  0  0
    1.7777   -2.3475   -0.6727 H   0  0  0  0  0  0  0  0  0  0  0  0
    1.7441   -0.8438   -1.6241 H   0  0  0  0  0  0  0  0  0  0  0  0
    2.5426    0.5553    1.9790 H   0  0  0  0  0  0  0  0  0  0  0  0
    2.1939    2.1839    1.1861 H   0  0  0  0  0  0  0  0  0  0  0  0
    3.3438   -1.1514    0.9838 H   0  0  0  0  0  0  0  0  0  0  0  0
    3.9555   -1.1431   -0.7606 H   0  0  0  0  0  0  0  0  0  0  0  0
    4.1921    1.0538    0.1590 H   0  0  0  0  0  0  0  0  0  0  0  0
    2.7388    1.1057   -0.9942 H   0  0  0  0  0  0  0  0  0  0  0  0
   -3.7331    1.9890    0.5935 H   0  0  0  0  0  0  0  0  0  0  0  0
   -3.8624    0.2307    0.8320 H   0  0  0  0  0  0  0  0  0  0  0  0
   -3.1152    1.2191    2.0966 H   0  0  0  0  0  0  0  0  0  0  0  0
  1  2  1  0
  2  3  1  0
  2  4  1  0
  4  5  1  0
  5  6  1  0
  5  7  1  0
  6  8  1  0
  7  9  1  0
  8 10  1  0
  9 10  1  0
  1 11  1  0
  1 12  1  0
  2 13  1  1
  3 14  1  0
  3 15  1  0
  3 16  1  0
  4 17  1  0
  4 18  1  0
  5 19  1  0
  6 20  1  0
  6 21  1  0
  7 22  1  0
  7 23  1  0
  8 24  1  0
  8 25  1  0
  9 26  1  0
  9 27  1  0
 10 28  1  0
 10 29  1  0
 11 30  1  0
 11 31  1  0
 11 32  1  0
M  END
>  <PDBID>  (1) 
4XP6

>  <PDB ID>  (1) 
4XP6

>  <Generic Name>  (1) 
Methamphetamine

>  <Brand Name>  (1) 
Desoxyn#Methamphetamine Hydrochloride

>  <DrugBank ID>  (1) 
DB01577

>  <ATC Codes>  (1) 
N06BA03

>  <Ligand ID>  (1) 
B40

>  <Target Name>  (1) 
Sodium-dependent noradrenaline transporter

>  <UniProt ID>  (1) 
P23975

>  <PDB ID.1>  (1) 
4XP6

>  <Seq. Identity>  (1) 
59%

$$$$
