PDB_DB00877_06
     RDKit          3D

162165  0  0  0  0  0  0  0  0999 V2000
    2.4844   -1.5990   -0.8206 C   0  0  0  0  0  0  0  0  0  0  0  0
    3.2723   -1.0087    0.1694 O   0  0  0  0  0  0  0  0  0  0  0  0
    2.5096   -0.9298   -2.0145 O   0  0  0  0  0  0  0  0  0  0  0  0
    2.7896   -3.0683   -0.9141 C   0  0  2  0  0  0  0  0  0  0  0  0
    3.1430   -3.3892   -2.3602 C   0  0  0  0  0  0  0  0  0  0  0  0
    3.2294   -4.9094   -2.5736 C   0  0  0  0  0  0  0  0  0  0  0  0
    3.5381   -5.4800   -1.2182 C   0  0  0  0  0  0  0  0  0  0  0  0
    2.3058   -5.2744   -0.3659 C   0  0  0  0  0  0  0  0  0  0  0  0
    1.7117   -3.9413   -0.5555 N   0  0  0  0  0  0  0  0  0  0  0  0
    0.9461   -3.5521    0.5956 C   0  0  2  0  0  0  0  0  0  0  0  0
    0.9274   -4.6438    1.4820 O   0  0  0  0  0  0  0  0  0  0  0  0
   -0.4268   -3.0968    0.2608 C   0  0  0  0  0  0  0  0  0  0  0  0
   -0.5647   -3.2022   -1.1470 O   0  0  0  0  0  0  0  0  0  0  0  0
   -1.5542   -3.9250    0.8195 C   0  0  1  0  0  0  0  0  0  0  0  0
   -2.7367   -3.3726    0.2926 O   0  0  0  0  0  0  0  0  0  0  0  0
   -1.4624   -5.1959    0.2538 O   0  0  0  0  0  0  0  0  0  0  0  0
   -1.6007   -4.0178    2.3090 C   0  0  1  0  0  0  0  0  0  0  0  0
   -2.7814   -3.3261    2.9320 C   0  0  0  0  0  0  0  0  0  0  0  0
   -4.0759   -3.4818    2.1784 C   0  0  0  0  0  0  0  0  0  0  0  0
   -3.8292   -4.0795    0.8381 C   0  0  1  0  0  0  0  0  0  0  0  0
   -4.9296   -4.0943   -0.1414 C   0  0  0  0  0  0  0  0  0  0  0  0
   -6.0616   -3.1469    0.0337 C   0  0  2  0  0  0  0  0  0  0  0  0
   -7.1446   -3.7378    0.6926 O   0  0  0  0  0  0  0  0  0  0  0  0
   -6.5960   -2.6719   -1.2950 C   0  0  0  0  0  0  0  0  0  0  0  0
   -7.0240   -1.2257   -1.1182 C   0  0  0  0  0  0  0  0  0  0  0  0
   -6.1285   -0.2690   -1.8908 C   0  0  0  0  0  0  0  0  0  0  0  0
   -6.5985    1.1378   -1.5411 C   0  0  0  0  0  0  0  0  0  0  0  0
   -6.2008    1.5501   -0.1559 C   0  0  0  0  0  0  0  0  0  0  0  0
   -5.1287    2.6324   -0.2257 C   0  0  0  0  0  0  0  0  0  0  0  0
   -5.6779    3.9589   -0.6529 C   0  0  2  0  0  0  0  0  0  0  0  0
   -4.6592    4.8687   -1.2905 C   0  0  0  0  0  0  0  0  0  0  0  0
   -3.2342    4.5392   -0.8897 C   0  0  2  0  0  0  0  0  0  0  0  0
   -2.4692    5.7710   -0.4821 C   0  0  0  0  0  0  0  0  0  0  0  0
   -1.5976    6.1129   -1.4978 O   0  0  0  0  0  0  0  0  0  0  0  0
   -1.6701    5.4325    0.7813 C   0  0  2  0  0  0  0  0  0  0  0  0
   -2.1273    6.2746    1.8047 O   0  0  0  0  0  0  0  0  0  0  0  0
   -0.2025    5.5884    0.5515 C   0  0  2  0  0  0  0  0  0  0  0  0
    0.1129    5.0444   -0.7148 O   0  0  0  0  0  0  0  0  0  0  0  0
    0.6389    4.9025    1.5975 C   0  0  0  0  0  0  0  0  0  0  0  0
    1.1994    3.6080    0.9934 C   0  0  0  0  0  0  0  0  0  0  0  0
    1.6591    2.6293    2.0159 C   0  0  2  0  0  0  0  0  0  0  0  0
    1.6895    1.2278    1.4176 C   0  0  0  0  0  0  0  0  0  0  0  0
    2.1755    0.2852    2.3180 O   0  0  0  0  0  0  0  0  0  0  0  0
    2.2185    1.1163    0.0580 C   0  0  0  0  0  0  0  0  0  0  0  0
    3.5474    0.3537   -0.1030 C   0  0  1  0  0  0  0  0  0  0  0  0
    4.6094    0.9008    0.7418 C   0  0  1  0  0  0  0  0  0  0  0  0
    5.9375    0.2423    0.7530 C   0  0  0  0  0  0  0  0  0  0  0  0
    6.7674    0.1085   -0.4477 C   0  0  1  0  0  0  0  0  0  0  0  0
    8.1422   -0.5451    0.0181 C   0  0  0  0  0  0  0  0  0  0  0  0
    9.0408   -0.3867   -1.1677 C   0  0  1  0  0  0  0  0  0  0  0  0
   10.3648   -0.5445   -0.8306 O   0  0  0  0  0  0  0  0  0  0  0  0
    8.5729   -1.3901   -2.2207 C   0  0  2  0  0  0  0  0  0  0  0  0
    9.4902   -1.4567   -3.2410 O   0  0  0  0  0  0  0  0  0  0  0  0
    7.2122   -0.8927   -2.6688 C   0  0  0  0  0  0  0  0  0  0  0  0
    6.3018   -0.9359   -1.4407 C   0  0  0  0  0  0  0  0  0  0  0  0
   -1.6151   -5.4557    2.7818 C   0  0  0  0  0  0  0  0  0  0  0  0
   -5.6891   -2.8513   -2.4629 C   0  0  0  0  0  0  0  0  0  0  0  0
   -6.3108    4.6981    0.5136 C   0  0  0  0  0  0  0  0  0  0  0  0
   -2.4894    3.8560   -2.0063 C   0  0  0  0  0  0  0  0  0  0  0  0
    1.8433    5.7893    1.8766 C   0  0  0  0  0  0  0  0  0  0  0  0
    0.6591    2.6483    3.1720 C   0  0  0  0  0  0  0  0  0  0  0  0
    4.8069    2.3904    0.3267 C   0  0  0  0  0  0  0  0  0  0  0  0
   -7.5689   -3.1137    1.8250 C   0  0  0  0  0  0  0  0  0  0  0  0
   -2.7594    5.5306    2.7669 C   0  0  0  0  0  0  0  0  0  0  0  0
   11.0115    0.6606   -1.1443 C   0  0  0  0  0  0  0  0  0  0  0  0
   -1.7448   -5.1837   -0.7110 H   0  0  0  0  0  0  0  0  0  0  0  0
    0.7949    5.5685   -1.1788 H   0  0  0  0  0  0  0  0  0  0  0  0
   10.1769   -2.1463   -3.0021 H   0  0  0  0  0  0  0  0  0  0  0  0
    1.4283   -1.4832   -0.4094 H   0  0  0  0  0  0  0  0  0  0  0  0
    3.1332   -1.2035   -2.6917 H   0  0  0  0  0  0  0  0  0  0  0  0
    3.6832   -3.2755   -0.3025 H   0  0  0  0  0  0  0  0  0  0  0  0
    4.1335   -2.9440   -2.6378 H   0  0  0  0  0  0  0  0  0  0  0  0
    2.4109   -3.0479   -3.0886 H   0  0  0  0  0  0  0  0  0  0  0  0
    2.2195   -5.2953   -2.8684 H   0  0  0  0  0  0  0  0  0  0  0  0
    3.9642   -5.1805   -3.3493 H   0  0  0  0  0  0  0  0  0  0  0  0
    4.4654   -5.0982   -0.7687 H   0  0  0  0  0  0  0  0  0  0  0  0
    3.6778   -6.5742   -1.3504 H   0  0  0  0  0  0  0  0  0  0  0  0
    1.6021   -6.0876   -0.6277 H   0  0  0  0  0  0  0  0  0  0  0  0
    2.6584   -5.3254    0.7011 H   0  0  0  0  0  0  0  0  0  0  0  0
    1.5222   -2.7627    1.1745 H   0  0  0  0  0  0  0  0  0  0  0  0
    0.6896   -5.4874    1.0705 H   0  0  0  0  0  0  0  0  0  0  0  0
   -0.6573   -2.0485    0.5518 H   0  0  0  0  0  0  0  0  0  0  0  0
   -0.1372   -4.0828   -1.3604 H   0  0  0  0  0  0  0  0  0  0  0  0
   -0.6901   -3.5436    2.7222 H   0  0  0  0  0  0  0  0  0  0  0  0
   -2.5701   -2.2441    3.0618 H   0  0  0  0  0  0  0  0  0  0  0  0
   -2.9552   -3.7082    3.9601 H   0  0  0  0  0  0  0  0  0  0  0  0
   -4.5120   -2.4760    2.0556 H   0  0  0  0  0  0  0  0  0  0  0  0
   -4.7742   -4.1658    2.7357 H   0  0  0  0  0  0  0  0  0  0  0  0
   -3.4392   -5.1358    0.9189 H   0  0  0  0  0  0  0  0  0  0  0  0
   -5.2895   -5.1570   -0.2634 H   0  0  0  0  0  0  0  0  0  0  0  0
   -4.4615   -3.8763   -1.1519 H   0  0  0  0  0  0  0  0  0  0  0  0
   -5.7716   -2.2762    0.6113 H   0  0  0  0  0  0  0  0  0  0  0  0
   -7.5234   -3.2616   -1.5180 H   0  0  0  0  0  0  0  0  0  0  0  0
   -8.0420   -1.0920   -1.5328 H   0  0  0  0  0  0  0  0  0  0  0  0
   -6.9521   -0.8973   -0.0631 H   0  0  0  0  0  0  0  0  0  0  0  0
   -6.1845   -0.3885   -2.9715 H   0  0  0  0  0  0  0  0  0  0  0  0
   -5.0860   -0.3504   -1.4767 H   0  0  0  0  0  0  0  0  0  0  0  0
   -6.3486    1.8773   -2.3155 H   0  0  0  0  0  0  0  0  0  0  0  0
   -7.7305    1.1008   -1.5308 H   0  0  0  0  0  0  0  0  0  0  0  0
   -7.0404    1.9646    0.4329 H   0  0  0  0  0  0  0  0  0  0  0  0
   -5.7997    0.6844    0.4160 H   0  0  0  0  0  0  0  0  0  0  0  0
   -4.3354    2.2523   -0.8884 H   0  0  0  0  0  0  0  0  0  0  0  0
   -4.7649    2.7464    0.8360 H   0  0  0  0  0  0  0  0  0  0  0  0
   -6.5116    3.7659   -1.3919 H   0  0  0  0  0  0  0  0  0  0  0  0
   -4.7190    4.7076   -2.3837 H   0  0  0  0  0  0  0  0  0  0  0  0
   -4.9172    5.9263   -1.0441 H   0  0  0  0  0  0  0  0  0  0  0  0
   -3.3163    3.8840    0.0133 H   0  0  0  0  0  0  0  0  0  0  0  0
   -3.1773    6.6038   -0.2803 H   0  0  0  0  0  0  0  0  0  0  0  0
   -2.0040    6.6533   -2.1900 H   0  0  0  0  0  0  0  0  0  0  0  0
   -1.8931    4.3789    1.0172 H   0  0  0  0  0  0  0  0  0  0  0  0
    0.0924    6.6716    0.4666 H   0  0  0  0  0  0  0  0  0  0  0  0
    0.0479    4.7075    2.4869 H   0  0  0  0  0  0  0  0  0  0  0  0
    2.0489    3.9430    0.3501 H   0  0  0  0  0  0  0  0  0  0  0  0
    0.3975    3.1277    0.3966 H   0  0  0  0  0  0  0  0  0  0  0  0
    2.6080    2.9411    2.4319 H   0  0  0  0  0  0  0  0  0  0  0  0
    0.5776    0.9745    1.3821 H   0  0  0  0  0  0  0  0  0  0  0  0
    2.3697    0.6418    3.1976 H   0  0  0  0  0  0  0  0  0  0  0  0
    1.4954    0.5251   -0.5842 H   0  0  0  0  0  0  0  0  0  0  0  0
    2.2773    2.0882   -0.4395 H   0  0  0  0  0  0  0  0  0  0  0  0
    3.7617    0.4452   -1.1496 H   0  0  0  0  0  0  0  0  0  0  0  0
    4.3288    1.0007    1.8259 H   0  0  0  0  0  0  0  0  0  0  0  0
    6.6192    0.7353    1.5426 H   0  0  0  0  0  0  0  0  0  0  0  0
    5.8567   -0.7987    1.2018 H   0  0  0  0  0  0  0  0  0  0  0  0
    7.0853    1.0216   -0.9465 H   0  0  0  0  0  0  0  0  0  0  0  0
    8.4142    0.0355    0.8987 H   0  0  0  0  0  0  0  0  0  0  0  0
    7.9073   -1.5753    0.2913 H   0  0  0  0  0  0  0  0  0  0  0  0
    8.8184    0.6366   -1.5955 H   0  0  0  0  0  0  0  0  0  0  0  0
    8.4912   -2.3618   -1.6952 H   0  0  0  0  0  0  0  0  0  0  0  0
    6.7599   -1.5908   -3.3987 H   0  0  0  0  0  0  0  0  0  0  0  0
    7.2858    0.1475   -3.0041 H   0  0  0  0  0  0  0  0  0  0  0  0
    5.2696   -0.9715   -1.6915 H   0  0  0  0  0  0  0  0  0  0  0  0
    6.5522   -1.9408   -0.9681 H   0  0  0  0  0  0  0  0  0  0  0  0
   -1.4836   -6.1715    1.9437 H   0  0  0  0  0  0  0  0  0  0  0  0
   -2.6201   -5.7268    3.2192 H   0  0  0  0  0  0  0  0  0  0  0  0
   -0.8690   -5.6797    3.5402 H   0  0  0  0  0  0  0  0  0  0  0  0
   -4.7071   -2.3588   -2.3945 H   0  0  0  0  0  0  0  0  0  0  0  0
   -6.2547   -2.3928   -3.3451 H   0  0  0  0  0  0  0  0  0  0  0  0
   -5.6465   -3.9243   -2.7337 H   0  0  0  0  0  0  0  0  0  0  0  0
   -7.1733    5.2919    0.1180 H   0  0  0  0  0  0  0  0  0  0  0  0
   -5.5475    5.4316    0.8822 H   0  0  0  0  0  0  0  0  0  0  0  0
   -6.6063    4.0466    1.3354 H   0  0  0  0  0  0  0  0  0  0  0  0
   -3.1836    3.3925   -2.7376 H   0  0  0  0  0  0  0  0  0  0  0  0
   -1.8440    4.5523   -2.5847 H   0  0  0  0  0  0  0  0  0  0  0  0
   -1.8083    3.0996   -1.5451 H   0  0  0  0  0  0  0  0  0  0  0  0
    2.1129    6.4049    0.9827 H   0  0  0  0  0  0  0  0  0  0  0  0
    1.7110    6.4611    2.7300 H   0  0  0  0  0  0  0  0  0  0  0  0
    2.7594    5.1843    2.1026 H   0  0  0  0  0  0  0  0  0  0  0  0
   -0.3856    2.6877    2.8414 H   0  0  0  0  0  0  0  0  0  0  0  0
    0.9611    3.5008    3.8267 H   0  0  0  0  0  0  0  0  0  0  0  0
    0.7555    1.7406    3.8157 H   0  0  0  0  0  0  0  0  0  0  0  0
    4.5514    3.0816    1.1140 H   0  0  0  0  0  0  0  0  0  0  0  0
    4.1687    2.5537   -0.5480 H   0  0  0  0  0  0  0  0  0  0  0  0
    5.8537    2.5093   -0.0536 H   0  0  0  0  0  0  0  0  0  0  0  0
   -8.4304   -3.7376    2.2188 H   0  0  0  0  0  0  0  0  0  0  0  0
   -6.8717   -3.0348    2.6570 H   0  0  0  0  0  0  0  0  0  0  0  0
   -8.0210   -2.1149    1.6447 H   0  0  0  0  0  0  0  0  0  0  0  0
   -3.1412    6.1659    3.6132 H   0  0  0  0  0  0  0  0  0  0  0  0
   -3.6934    5.0463    2.3470 H   0  0  0  0  0  0  0  0  0  0  0  0
   -2.1841    4.6902    3.1887 H   0  0  0  0  0  0  0  0  0  0  0  0
   10.8845    0.8336   -2.2364 H   0  0  0  0  0  0  0  0  0  0  0  0
   10.4373    1.4591   -0.6041 H   0  0  0  0  0  0  0  0  0  0  0  0
   12.0560    0.6424   -0.8394 H   0  0  0  0  0  0  0  0  0  0  0  0
  1  2  1  0
  1  3  1  0
  1  4  1  0
  4  5  1  0
  5  6  1  0
  6  7  1  0
  7  8  1  0
  4  9  1  0
  8  9  1  0
  9 10  1  0
 10 11  1  0
 10 12  1  0
 12 13  1  0
 12 14  1  0
 14 15  1  0
 14 16  1  6
 14 17  1  0
 17 18  1  0
 18 19  1  0
 15 20  1  0
 19 20  1  0
 20 21  1  0
 21 22  1  0
 22 23  1  0
 22 24  1  0
 24 25  1  0
 25 26  1  0
 26 27  1  0
 27 28  1  0
 28 29  1  0
 29 30  1  0
 30 31  1  0
 31 32  1  0
 32 33  1  0
 33 34  1  0
 33 35  1  0
 35 36  1  0
 35 37  1  0
 37 38  1  0
 37 39  1  0
 39 40  1  0
 40 41  1  0
 41 42  1  0
 42 43  1  0
 42 44  1  0
  2 45  1  0
 44 45  1  0
 45 46  1  0
 46 47  1  0
 47 48  1  0
 48 49  1  0
 49 50  1  0
 50 51  1  0
 50 52  1  0
 52 53  1  0
 52 54  1  0
 48 55  1  0
 54 55  1  0
 17 56  1  0
 24 57  1  0
 30 58  1  0
 32 59  1  0
 39 60  1  0
 41 61  1  0
 46 62  1  0
 23 63  1  0
 36 64  1  0
 51 65  1  0
 16 66  1  0
 38 67  1  0
 53 68  1  0
  1 69  1  0
  3 70  1  0
  4 71  1  1
  5 72  1  0
  5 73  1  0
  6 74  1  0
  6 75  1  0
  7 76  1  0
  7 77  1  0
  8 78  1  0
  8 79  1  0
 10 80  1  1
 11 81  1  0
 12 82  1  0
 13 83  1  0
 17 84  1  1
 18 85  1  0
 18 86  1  0
 19 87  1  0
 19 88  1  0
 20 89  1  1
 21 90  1  0
 21 91  1  0
 22 92  1  1
 24 93  1  0
 25 94  1  0
 25 95  1  0
 26 96  1  0
 26 97  1  0
 27 98  1  0
 27 99  1  0
 28100  1  0
 28101  1  0
 29102  1  0
 29103  1  0
 30104  1  6
 31105  1  0
 31106  1  0
 32107  1  1
 33108  1  0
 34109  1  0
 35110  1  1
 37111  1  6
 39112  1  0
 40113  1  0
 40114  1  0
 41115  1  1
 42116  1  0
 43117  1  0
 44118  1  0
 44119  1  0
 45120  1  6
 46121  1  1
 47122  1  0
 47123  1  0
 48124  1  6
 49125  1  0
 49126  1  0
 50127  1  6
 52128  1  1
 54129  1  0
 54130  1  0
 55131  1  0
 55132  1  0
 56133  1  0
 56134  1  0
 56135  1  0
 57136  1  0
 57137  1  0
 57138  1  0
 58139  1  0
 58140  1  0
 58141  1  0
 59142  1  0
 59143  1  0
 59144  1  0
 60145  1  0
 60146  1  0
 60147  1  0
 61148  1  0
 61149  1  0
 61150  1  0
 62151  1  0
 62152  1  0
 62153  1  0
 63154  1  0
 63155  1  0
 63156  1  0
 64157  1  0
 64158  1  0
 64159  1  0
 65160  1  0
 65161  1  0
 65162  1  0
M  END
>  <PDBID>  (1) 
1FKB

>  <PDB ID>  (1) 
1FKB

>  <Generic Name>  (1) 
Sirolimus

>  <Brand Name>  (1) 
Gd-sirolimus#Rapamune#Rapamune Oral Solution#Sirolimus

>  <DrugBank ID>  (1) 
DB00877

>  <ATC Codes>  (1) 
S01XA23#L04AA10

>  <Ligand ID>  (1) 
RAP

>  <Target Name>  (1) 
Peptidyl-prolyl cis-trans isomerase FKBP1A

>  <UniProt ID>  (1) 
P62942

>  <PDB ID.1>  (1) 
1FKB

>  <Seq. Identity>  (1) 
100%

$$$$
