PDB_DB08906_04
     RDKit          3D

160168  0  0  0  0  0  0  0  0999 V2000
   -1.8891   -1.1276   -2.1363 C   0  0  0  0  0  0  0  0  0  0  0  0
   -1.8358    0.3535   -2.0762 C   0  0  2  0  0  0  0  0  0  0  0  0
   -0.3894    0.8155   -2.4663 C   0  0  0  0  0  0  0  0  0  0  0  0
    0.1977    0.5939   -1.1408 C   0  0  1  0  0  0  0  0  0  0  0  0
    1.6238    0.7327   -0.8813 C   0  0  2  0  0  0  0  0  0  0  0  0
    2.5039    0.1107   -1.9215 C   0  0  0  0  0  0  0  0  0  0  0  0
    3.9131    0.5502   -1.5495 C   0  0  2  0  0  0  0  0  0  0  0  0
    4.7402    0.1683   -2.5650 F   0  0  0  0  0  0  0  0  0  0  0  0
    4.3363    0.0432   -0.1927 C   0  0  0  0  0  0  0  0  0  0  0  0
    5.4335   -0.9403   -0.4574 C   0  0  0  0  0  0  0  0  0  0  0  0
    5.7954   -1.8910    0.6043 C   0  0  0  0  0  0  0  0  0  0  0  0
    6.8816   -1.4658    1.4069 O   0  0  0  0  0  0  0  0  0  0  0  0
    4.6369   -2.3839    1.4316 C   0  0  0  0  0  0  0  0  0  0  0  0
    3.3787   -1.9518    0.7512 C   0  0  0  0  0  0  0  0  0  0  0  0
    3.2459   -0.4162    0.7063 C   0  0  1  0  0  0  0  0  0  0  0  0
    3.5791    0.0121    2.1455 C   0  0  0  0  0  0  0  0  0  0  0  0
    1.8683   -0.0726    0.4086 C   0  0  2  0  0  0  0  0  0  0  0  0
    1.1094   -1.2529    0.2761 F   0  0  0  0  0  0  0  0  0  0  0  0
    1.0877    0.7017    1.4558 C   0  0  1  0  0  0  0  0  0  0  0  0
    1.4879    2.0358    1.5167 O   0  0  0  0  0  0  0  0  0  0  0  0
   -0.4012    0.7144    1.1536 C   0  0  0  0  0  0  0  0  0  0  0  0
   -0.6769    1.3960   -0.2143 C   0  0  1  0  0  0  0  0  0  0  0  0
   -0.4074    2.8180   -0.0731 C   0  0  0  0  0  0  0  0  0  0  0  0
   -2.0546    0.9961   -0.7490 C   0  0  2  0  0  0  0  0  0  0  0  0
   -2.6162    0.2619    0.2356 O   0  0  0  0  0  0  0  0  0  0  0  0
   -3.8595   -0.2257    0.1418 C   0  0  0  0  0  0  0  0  0  0  0  0
   -4.6196    0.7095    1.0163 O   0  0  0  0  0  0  0  0  0  0  0  0
   -4.1964   -1.5041    0.7417 C   0  0  0  0  0  0  0  0  0  0  0  0
   -3.6004   -2.7689    0.2819 C   0  0  0  0  0  0  0  0  0  0  0  0
   -4.2901   -3.7490    1.2571 C   0  0  0  0  0  0  0  0  0  0  0  0
   -4.6413   -2.8062    2.3941 C   0  0  0  0  0  0  0  0  0  0  0  0
   -4.0063   -1.5879    2.1271 O   0  0  0  0  0  0  0  0  0  0  0  0
   -2.9055    2.2277   -1.0876 C   0  0  0  0  0  0  0  0  0  0  0  0
   -2.3505    2.9155   -2.1574 O   0  0  0  0  0  0  0  0  0  0  0  0
   -3.3620    3.2086    0.3183 S   0  0  0  0  0  0  0  0  0  0  0  0
   -4.3590    4.6067   -0.2718 C   0  0  0  0  0  0  0  0  0  0  0  0
   -3.5860    5.4664   -1.0617 F   0  0  0  0  0  0  0  0  0  0  0  0
   -1.8891   -1.1276   -2.1363 C   0  0  0  0  0  0  0  0  0  0  0  0
   -1.8358    0.3535   -2.0762 C   0  0  2  0  0  0  0  0  0  0  0  0
   -0.3894    0.8155   -2.4663 C   0  0  0  0  0  0  0  0  0  0  0  0
    0.1977    0.5939   -1.1408 C   0  0  1  0  0  0  0  0  0  0  0  0
    1.6238    0.7327   -0.8813 C   0  0  2  0  0  0  0  0  0  0  0  0
    2.5039    0.1107   -1.9215 C   0  0  0  0  0  0  0  0  0  0  0  0
    3.9131    0.5502   -1.5495 C   0  0  2  0  0  0  0  0  0  0  0  0
    4.7402    0.1683   -2.5650 F   0  0  0  0  0  0  0  0  0  0  0  0
    4.3363    0.0432   -0.1927 C   0  0  0  0  0  0  0  0  0  0  0  0
    5.4335   -0.9403   -0.4574 C   0  0  0  0  0  0  0  0  0  0  0  0
    5.7954   -1.8910    0.6043 C   0  0  0  0  0  0  0  0  0  0  0  0
    6.8816   -1.4658    1.4069 O   0  0  0  0  0  0  0  0  0  0  0  0
    4.6369   -2.3839    1.4316 C   0  0  0  0  0  0  0  0  0  0  0  0
    3.3787   -1.9518    0.7512 C   0  0  0  0  0  0  0  0  0  0  0  0
    3.2459   -0.4162    0.7063 C   0  0  1  0  0  0  0  0  0  0  0  0
    3.5791    0.0121    2.1455 C   0  0  0  0  0  0  0  0  0  0  0  0
    1.8683   -0.0726    0.4086 C   0  0  2  0  0  0  0  0  0  0  0  0
    1.1094   -1.2529    0.2761 F   0  0  0  0  0  0  0  0  0  0  0  0
    1.0877    0.7017    1.4558 C   0  0  1  0  0  0  0  0  0  0  0  0
    1.4879    2.0358    1.5167 O   0  0  0  0  0  0  0  0  0  0  0  0
   -0.4012    0.7144    1.1536 C   0  0  0  0  0  0  0  0  0  0  0  0
   -0.6769    1.3960   -0.2143 C   0  0  1  0  0  0  0  0  0  0  0  0
   -0.4074    2.8180   -0.0731 C   0  0  0  0  0  0  0  0  0  0  0  0
   -2.0546    0.9961   -0.7490 C   0  0  2  0  0  0  0  0  0  0  0  0
   -2.6162    0.2619    0.2356 O   0  0  0  0  0  0  0  0  0  0  0  0
   -3.8595   -0.2257    0.1418 C   0  0  0  0  0  0  0  0  0  0  0  0
   -4.6196    0.7095    1.0163 O   0  0  0  0  0  0  0  0  0  0  0  0
   -4.1964   -1.5041    0.7417 C   0  0  0  0  0  0  0  0  0  0  0  0
   -3.6004   -2.7689    0.2819 C   0  0  0  0  0  0  0  0  0  0  0  0
   -4.2901   -3.7490    1.2571 C   0  0  0  0  0  0  0  0  0  0  0  0
   -4.6413   -2.8062    2.3941 C   0  0  0  0  0  0  0  0  0  0  0  0
   -4.0063   -1.5879    2.1271 O   0  0  0  0  0  0  0  0  0  0  0  0
   -2.9055    2.2277   -1.0876 C   0  0  0  0  0  0  0  0  0  0  0  0
   -2.3505    2.9155   -2.1574 O   0  0  0  0  0  0  0  0  0  0  0  0
   -3.3620    3.2086    0.3183 S   0  0  0  0  0  0  0  0  0  0  0  0
   -4.3590    4.6067   -0.2718 C   0  0  0  0  0  0  0  0  0  0  0  0
   -3.5860    5.4664   -1.0617 F   0  0  0  0  0  0  0  0  0  0  0  0
   -2.9716   -1.4352   -2.2590 H   0  0  0  0  0  0  0  0  0  0  0  0
   -1.3086   -1.4871   -3.0292 H   0  0  0  0  0  0  0  0  0  0  0  0
   -1.5390   -1.6444   -1.2332 H   0  0  0  0  0  0  0  0  0  0  0  0
   -2.4989    0.7511   -2.8821 H   0  0  0  0  0  0  0  0  0  0  0  0
   -0.0626    0.0959   -3.2359 H   0  0  0  0  0  0  0  0  0  0  0  0
   -0.3994    1.8474   -2.8125 H   0  0  0  0  0  0  0  0  0  0  0  0
   -0.0696   -0.4888   -0.8878 H   0  0  0  0  0  0  0  0  0  0  0  0
    2.0282    1.7317   -0.6596 H   0  0  0  0  0  0  0  0  0  0  0  0
    2.2800    0.6118   -2.8914 H   0  0  0  0  0  0  0  0  0  0  0  0
    2.4004   -0.9671   -2.0258 H   0  0  0  0  0  0  0  0  0  0  0  0
    3.8790    1.6797   -1.5864 H   0  0  0  0  0  0  0  0  0  0  0  0
    4.8320    0.9292    0.3078 H   0  0  0  0  0  0  0  0  0  0  0  0
    6.3472   -0.3574   -0.7508 H   0  0  0  0  0  0  0  0  0  0  0  0
    5.1668   -1.5045   -1.4000 H   0  0  0  0  0  0  0  0  0  0  0  0
    6.2173   -2.8130    0.0953 H   0  0  0  0  0  0  0  0  0  0  0  0
    6.9413   -0.4813    1.3993 H   0  0  0  0  0  0  0  0  0  0  0  0
    4.7028   -2.1171    2.5030 H   0  0  0  0  0  0  0  0  0  0  0  0
    4.5840   -3.5163    1.4519 H   0  0  0  0  0  0  0  0  0  0  0  0
    3.4051   -2.3533   -0.2821 H   0  0  0  0  0  0  0  0  0  0  0  0
    2.4635   -2.3785    1.2254 H   0  0  0  0  0  0  0  0  0  0  0  0
    3.0115   -0.6475    2.8186 H   0  0  0  0  0  0  0  0  0  0  0  0
    4.6904   -0.1071    2.3228 H   0  0  0  0  0  0  0  0  0  0  0  0
    3.4079    1.0767    2.3262 H   0  0  0  0  0  0  0  0  0  0  0  0
    1.1772    0.2227    2.4577 H   0  0  0  0  0  0  0  0  0  0  0  0
    1.3706    2.3654    2.4466 H   0  0  0  0  0  0  0  0  0  0  0  0
   -0.8657    1.3365    1.9514 H   0  0  0  0  0  0  0  0  0  0  0  0
   -0.7789   -0.3082    1.0997 H   0  0  0  0  0  0  0  0  0  0  0  0
   -0.4805    3.0965    1.0304 H   0  0  0  0  0  0  0  0  0  0  0  0
   -1.0151    3.5648   -0.5668 H   0  0  0  0  0  0  0  0  0  0  0  0
    0.6464    3.1356   -0.3365 H   0  0  0  0  0  0  0  0  0  0  0  0
   -4.3800   -0.1242   -0.8453 H   0  0  0  0  0  0  0  0  0  0  0  0
   -5.5336    0.3422    1.0036 H   0  0  0  0  0  0  0  0  0  0  0  0
   -5.3312   -1.6395    0.6375 H   0  0  0  0  0  0  0  0  0  0  0  0
   -3.8356   -3.0549   -0.7424 H   0  0  0  0  0  0  0  0  0  0  0  0
   -2.5224   -2.8786    0.5299 H   0  0  0  0  0  0  0  0  0  0  0  0
   -3.6191   -4.5542    1.5638 H   0  0  0  0  0  0  0  0  0  0  0  0
   -5.2106   -4.1288    0.7475 H   0  0  0  0  0  0  0  0  0  0  0  0
   -4.3687   -3.2214    3.3819 H   0  0  0  0  0  0  0  0  0  0  0  0
   -5.7474   -2.5957    2.3136 H   0  0  0  0  0  0  0  0  0  0  0  0
   -3.8545    1.7988   -1.5207 H   0  0  0  0  0  0  0  0  0  0  0  0
   -3.0042    3.4168   -2.6817 H   0  0  0  0  0  0  0  0  0  0  0  0
   -5.1990    4.2764   -0.9219 H   0  0  0  0  0  0  0  0  0  0  0  0
   -4.7272    5.2304    0.5685 H   0  0  0  0  0  0  0  0  0  0  0  0
   -2.9716   -1.4352   -2.2590 H   0  0  0  0  0  0  0  0  0  0  0  0
   -1.3086   -1.4871   -3.0292 H   0  0  0  0  0  0  0  0  0  0  0  0
   -1.5390   -1.6444   -1.2332 H   0  0  0  0  0  0  0  0  0  0  0  0
   -2.4989    0.7511   -2.8821 H   0  0  0  0  0  0  0  0  0  0  0  0
   -0.0626    0.0959   -3.2359 H   0  0  0  0  0  0  0  0  0  0  0  0
   -0.3994    1.8474   -2.8125 H   0  0  0  0  0  0  0  0  0  0  0  0
   -0.0696   -0.4888   -0.8878 H   0  0  0  0  0  0  0  0  0  0  0  0
    2.0282    1.7317   -0.6596 H   0  0  0  0  0  0  0  0  0  0  0  0
    2.2800    0.6118   -2.8914 H   0  0  0  0  0  0  0  0  0  0  0  0
    2.4004   -0.9671   -2.0258 H   0  0  0  0  0  0  0  0  0  0  0  0
    3.8790    1.6797   -1.5864 H   0  0  0  0  0  0  0  0  0  0  0  0
    4.8320    0.9292    0.3078 H   0  0  0  0  0  0  0  0  0  0  0  0
    6.3472   -0.3574   -0.7508 H   0  0  0  0  0  0  0  0  0  0  0  0
    5.1668   -1.5045   -1.4000 H   0  0  0  0  0  0  0  0  0  0  0  0
    6.2173   -2.8130    0.0953 H   0  0  0  0  0  0  0  0  0  0  0  0
    6.9413   -0.4813    1.3993 H   0  0  0  0  0  0  0  0  0  0  0  0
    4.7028   -2.1171    2.5030 H   0  0  0  0  0  0  0  0  0  0  0  0
    4.5840   -3.5163    1.4519 H   0  0  0  0  0  0  0  0  0  0  0  0
    3.4051   -2.3533   -0.2821 H   0  0  0  0  0  0  0  0  0  0  0  0
    2.4635   -2.3785    1.2254 H   0  0  0  0  0  0  0  0  0  0  0  0
    3.0115   -0.6475    2.8186 H   0  0  0  0  0  0  0  0  0  0  0  0
    4.6904   -0.1071    2.3228 H   0  0  0  0  0  0  0  0  0  0  0  0
    3.4079    1.0767    2.3262 H   0  0  0  0  0  0  0  0  0  0  0  0
    1.1772    0.2227    2.4577 H   0  0  0  0  0  0  0  0  0  0  0  0
    1.3706    2.3654    2.4466 H   0  0  0  0  0  0  0  0  0  0  0  0
   -0.8657    1.3365    1.9514 H   0  0  0  0  0  0  0  0  0  0  0  0
   -0.7789   -0.3082    1.0997 H   0  0  0  0  0  0  0  0  0  0  0  0
   -0.4805    3.0965    1.0304 H   0  0  0  0  0  0  0  0  0  0  0  0
   -1.0151    3.5648   -0.5668 H   0  0  0  0  0  0  0  0  0  0  0  0
    0.6464    3.1356   -0.3365 H   0  0  0  0  0  0  0  0  0  0  0  0
   -4.3800   -0.1242   -0.8453 H   0  0  0  0  0  0  0  0  0  0  0  0
   -5.5336    0.3422    1.0036 H   0  0  0  0  0  0  0  0  0  0  0  0
   -5.3312   -1.6395    0.6375 H   0  0  0  0  0  0  0  0  0  0  0  0
   -3.8356   -3.0549   -0.7424 H   0  0  0  0  0  0  0  0  0  0  0  0
   -2.5224   -2.8786    0.5299 H   0  0  0  0  0  0  0  0  0  0  0  0
   -3.6191   -4.5542    1.5638 H   0  0  0  0  0  0  0  0  0  0  0  0
   -5.2106   -4.1288    0.7475 H   0  0  0  0  0  0  0  0  0  0  0  0
   -4.3687   -3.2214    3.3819 H   0  0  0  0  0  0  0  0  0  0  0  0
   -5.7474   -2.5957    2.3136 H   0  0  0  0  0  0  0  0  0  0  0  0
   -3.8545    1.7988   -1.5207 H   0  0  0  0  0  0  0  0  0  0  0  0
   -3.0042    3.4168   -2.6817 H   0  0  0  0  0  0  0  0  0  0  0  0
   -5.1990    4.2764   -0.9219 H   0  0  0  0  0  0  0  0  0  0  0  0
   -4.7272    5.2304    0.5685 H   0  0  0  0  0  0  0  0  0  0  0  0
  1  2  1  0
  2  3  1  0
  3  4  1  0
  4  5  1  0
  5  6  1  0
  6  7  1  0
  7  8  1  0
  7  9  1  0
  9 10  1  0
 10 11  1  0
 11 12  1  0
 11 13  1  0
 13 14  1  0
  9 15  1  0
 14 15  1  0
 15 16  1  1
  5 17  1  0
 15 17  1  0
 17 18  1  6
 17 19  1  0
 19 20  1  0
 19 21  1  0
  4 22  1  0
 21 22  1  0
 22 23  1  1
  2 24  1  0
 22 24  1  0
 24 25  1  1
 25 26  1  0
 26 27  1  0
 26 28  1  0
 28 29  1  0
 29 30  1  0
 30 31  1  0
 28 32  1  0
 31 32  1  0
 24 33  1  0
 33 34  1  0
 33 35  1  0
 35 36  1  0
 36 37  1  0
 38 39  1  0
 39 40  1  0
 40 41  1  0
 41 42  1  0
 42 43  1  0
 43 44  1  0
 44 45  1  0
 44 46  1  0
 46 47  1  0
 47 48  1  0
 48 49  1  0
 48 50  1  0
 50 51  1  0
 46 52  1  0
 51 52  1  0
 52 53  1  1
 42 54  1  0
 52 54  1  0
 54 55  1  6
 54 56  1  0
 56 57  1  0
 56 58  1  0
 41 59  1  0
 58 59  1  0
 59 60  1  1
 39 61  1  0
 59 61  1  0
 61 62  1  1
 62 63  1  0
 63 64  1  0
 63 65  1  0
 65 66  1  0
 66 67  1  0
 67 68  1  0
 65 69  1  0
 68 69  1  0
 61 70  1  0
 70 71  1  0
 70 72  1  0
 72 73  1  0
 73 74  1  0
  1 75  1  0
  1 76  1  0
  1 77  1  0
  2 78  1  6
  3 79  1  0
  3 80  1  0
  4 81  1  1
  5 82  1  1
  6 83  1  0
  6 84  1  0
  7 85  1  1
  9 86  1  0
 10 87  1  0
 10 88  1  0
 11 89  1  0
 12 90  1  0
 13 91  1  0
 13 92  1  0
 14 93  1  0
 14 94  1  0
 16 95  1  0
 16 96  1  0
 16 97  1  0
 19 98  1  1
 20 99  1  0
 21100  1  0
 21101  1  0
 23102  1  0
 23103  1  0
 23104  1  0
 26105  1  0
 27106  1  0
 28107  1  0
 29108  1  0
 29109  1  0
 30110  1  0
 30111  1  0
 31112  1  0
 31113  1  0
 33114  1  0
 34115  1  0
 36116  1  0
 36117  1  0
 38118  1  0
 38119  1  0
 38120  1  0
 39121  1  6
 40122  1  0
 40123  1  0
 41124  1  1
 42125  1  1
 43126  1  0
 43127  1  0
 44128  1  1
 46129  1  0
 47130  1  0
 47131  1  0
 48132  1  0
 49133  1  0
 50134  1  0
 50135  1  0
 51136  1  0
 51137  1  0
 53138  1  0
 53139  1  0
 53140  1  0
 56141  1  1
 57142  1  0
 58143  1  0
 58144  1  0
 60145  1  0
 60146  1  0
 60147  1  0
 63148  1  0
 64149  1  0
 65150  1  0
 66151  1  0
 66152  1  0
 67153  1  0
 67154  1  0
 68155  1  0
 68156  1  0
 70157  1  0
 71158  1  0
 73159  1  0
 73160  1  0
M  END
>  <PDBID>  (1) 
3CLD

>  <PDB ID>  (1) 
3CLD

>  <Generic Name>  (1) 
Fluticasone furoate

>  <Brand Name>  (1) 
Arnuity Ellipta#Avamys#Breo Ellipta#Flonase Sensimist Allergy Relief#Veramyst

>  <DrugBank ID>  (1) 
DB08906

>  <ATC Codes>  (1) 
R03AK10#R01AD12#R03BA09

>  <Ligand ID>  (1) 
GW6

>  <Target Name>  (1) 
Glucocorticoid receptor

>  <UniProt ID>  (1) 
P04150

>  <PDB ID.1>  (1) 
3CLD

>  <Seq. Identity>  (1) 
99%

$$$$
