PDB_DB01030_04
     RDKit          3D

 72 76  0  0  0  0  0  0  0  0999 V2000
   -5.0563    0.3586   -2.2773 C   0  0  0  0  0  0  0  0  0  0  0  0
   -5.2552   -1.1265   -2.3655 C   0  0  0  0  0  0  0  0  0  0  0  0
   -4.7969    0.8212   -0.8622 C   0  0  2  0  0  0  0  0  0  0  0  0
   -4.6224    2.2043   -0.8600 O   0  0  0  0  0  0  0  0  0  0  0  0
   -3.6103    0.1672   -0.2395 C   0  0  0  0  0  0  0  0  0  0  0  0
   -5.9959    0.5450    0.0332 C   0  0  0  0  0  0  0  0  0  0  0  0
   -3.4230    0.7769    1.1433 C   0  0  0  0  0  0  0  0  0  0  0  0
   -2.3242    0.4189   -0.9847 C   0  0  0  0  0  0  0  0  0  0  0  0
   -6.0965   -0.8142    0.2462 O   0  0  0  0  0  0  0  0  0  0  0  0
   -5.7360    1.1533    1.2588 O   0  0  0  0  0  0  0  0  0  0  0  0
   -2.2824    0.1221    1.8824 C   0  0  0  0  0  0  0  0  0  0  0  0
   -4.6926    0.5038    1.9208 C   0  0  0  0  0  0  0  0  0  0  0  0
   -1.2304   -0.3371   -0.2487 C   0  0  0  0  0  0  0  0  0  0  0  0
   -2.0597    0.8642    3.0405 O   0  0  0  0  0  0  0  0  0  0  0  0
   -1.0711    0.0776    1.1033 N   0  0  0  0  0  0  0  0  0  0  0  0
    0.1404   -0.0066   -0.8580 C   0  0  0  0  0  0  0  0  0  0  0  0
   -0.4336    1.3741    0.9989 C   0  0  0  0  0  0  0  0  0  0  0  0
    0.6162    1.1471   -0.0835 C   0  0  0  0  0  0  0  0  0  0  0  0
    0.9105   -1.1732   -0.8963 N   0  0  0  0  0  0  0  0  0  0  0  0
    1.9858    1.1052    0.4526 C   0  0  0  0  0  0  0  0  0  0  0  0
    2.1025   -1.2552   -0.1427 C   0  0  0  0  0  0  0  0  0  0  0  0
    2.8690    0.0352   -0.1428 C   0  0  0  0  0  0  0  0  0  0  0  0
    1.9211   -1.7255    1.2729 C   0  0  0  0  0  0  0  0  0  0  0  0
    4.1536   -0.0349    0.5816 C   0  0  0  0  0  0  0  0  0  0  0  0
    3.3020   -2.0460    1.8066 C   0  0  0  0  0  0  0  0  0  0  0  0
    4.0217   -0.7002    1.9463 C   0  0  0  0  0  0  0  0  0  0  0  0
    5.3221   -0.6364   -0.0910 C   0  0  0  0  0  0  0  0  0  0  0  0
    5.8234   -0.0904   -1.2769 N   0  0  0  0  0  0  0  0  0  0  0  0
    5.0952   -0.1921   -2.4809 C   0  0  0  0  0  0  0  0  0  0  0  0
    6.4418    1.1995   -1.1735 C   0  0  0  0  0  0  0  0  0  0  0  0
    5.2772   -0.9842    2.4506 O   0  0  0  0  0  0  0  0  0  0  0  0
   -4.2808    0.6524   -2.9785 H   0  0  0  0  0  0  0  0  0  0  0  0
   -6.0053    0.8363   -2.6204 H   0  0  0  0  0  0  0  0  0  0  0  0
   -6.2519   -1.4618   -2.0252 H   0  0  0  0  0  0  0  0  0  0  0  0
   -5.2120   -1.3927   -3.4567 H   0  0  0  0  0  0  0  0  0  0  0  0
   -4.4258   -1.7021   -1.9017 H   0  0  0  0  0  0  0  0  0  0  0  0
   -5.2224    2.6816   -0.2577 H   0  0  0  0  0  0  0  0  0  0  0  0
   -3.7608   -0.9123   -0.1428 H   0  0  0  0  0  0  0  0  0  0  0  0
   -6.9166    1.0090   -0.3602 H   0  0  0  0  0  0  0  0  0  0  0  0
   -3.3280    1.8796    1.0792 H   0  0  0  0  0  0  0  0  0  0  0  0
   -2.0990    1.4933   -1.0762 H   0  0  0  0  0  0  0  0  0  0  0  0
   -2.3448   -0.0021   -2.0136 H   0  0  0  0  0  0  0  0  0  0  0  0
   -6.6236   -1.0167    1.0536 H   0  0  0  0  0  0  0  0  0  0  0  0
   -2.5829   -0.8911    2.1477 H   0  0  0  0  0  0  0  0  0  0  0  0
   -4.5925    0.9773    2.9133 H   0  0  0  0  0  0  0  0  0  0  0  0
   -4.8319   -0.5885    1.9833 H   0  0  0  0  0  0  0  0  0  0  0  0
   -1.4531   -1.4220   -0.3749 H   0  0  0  0  0  0  0  0  0  0  0  0
   -1.1912    0.5795    3.4477 H   0  0  0  0  0  0  0  0  0  0  0  0
   -0.1060    0.2764   -1.9263 H   0  0  0  0  0  0  0  0  0  0  0  0
    0.0079    1.7286    1.9354 H   0  0  0  0  0  0  0  0  0  0  0  0
   -1.2130    2.0847    0.6811 H   0  0  0  0  0  0  0  0  0  0  0  0
    0.5374    2.0685   -0.7375 H   0  0  0  0  0  0  0  0  0  0  0  0
    1.0692   -1.5414   -1.8609 H   0  0  0  0  0  0  0  0  0  0  0  0
    1.9667    0.9789    1.5503 H   0  0  0  0  0  0  0  0  0  0  0  0
    2.5415    2.0759    0.2869 H   0  0  0  0  0  0  0  0  0  0  0  0
    2.7788   -2.0189   -0.6311 H   0  0  0  0  0  0  0  0  0  0  0  0
    3.0339    0.3233   -1.1951 H   0  0  0  0  0  0  0  0  0  0  0  0
    1.5100   -0.9438    1.9588 H   0  0  0  0  0  0  0  0  0  0  0  0
    1.2514   -2.6225    1.3301 H   0  0  0  0  0  0  0  0  0  0  0  0
    4.4394    1.0344    0.8276 H   0  0  0  0  0  0  0  0  0  0  0  0
    3.1935   -2.4263    2.8526 H   0  0  0  0  0  0  0  0  0  0  0  0
    3.8679   -2.7321    1.1690 H   0  0  0  0  0  0  0  0  0  0  0  0
    3.4693   -0.0957    2.6696 H   0  0  0  0  0  0  0  0  0  0  0  0
    6.1635   -0.8202    0.6569 H   0  0  0  0  0  0  0  0  0  0  0  0
    5.0211   -1.7132   -0.3338 H   0  0  0  0  0  0  0  0  0  0  0  0
    4.3693   -1.0187   -2.5598 H   0  0  0  0  0  0  0  0  0  0  0  0
    5.8545   -0.3927   -3.3153 H   0  0  0  0  0  0  0  0  0  0  0  0
    4.6581    0.7935   -2.8075 H   0  0  0  0  0  0  0  0  0  0  0  0
    5.8699    1.9451   -1.7948 H   0  0  0  0  0  0  0  0  0  0  0  0
    6.6181    1.5460   -0.1524 H   0  0  0  0  0  0  0  0  0  0  0  0
    7.4450    1.1257   -1.6611 H   0  0  0  0  0  0  0  0  0  0  0  0
    5.4789   -1.9520    2.4859 H   0  0  0  0  0  0  0  0  0  0  0  0
  1  2  1  0
  1  3  1  0
  3  4  1  6
  3  5  1  0
  3  6  1  0
  5  7  1  0
  5  8  1  0
  6  9  1  0
  6 10  1  0
  7 11  1  0
  7 12  1  0
 10 12  1  0
  8 13  1  0
 11 14  1  0
 11 15  1  0
 13 15  1  0
 13 16  1  0
 15 17  1  0
 16 18  1  0
 17 18  1  0
 16 19  1  0
 18 20  1  0
 19 21  1  0
 20 22  1  0
 21 22  1  0
 21 23  1  0
 22 24  1  0
 23 25  1  0
 24 26  1  0
 25 26  1  0
 24 27  1  0
 27 28  1  0
 28 29  1  0
 28 30  1  0
 26 31  1  0
  1 32  1  0
  1 33  1  0
  2 34  1  0
  2 35  1  0
  2 36  1  0
  4 37  1  0
  5 38  1  0
  6 39  1  0
  7 40  1  0
  8 41  1  0
  8 42  1  0
  9 43  1  0
 11 44  1  0
 12 45  1  0
 12 46  1  0
 13 47  1  0
 14 48  1  0
 16 49  1  0
 17 50  1  0
 17 51  1  0
 18 52  1  0
 19 53  1  0
 20 54  1  0
 20 55  1  0
 21 56  1  0
 22 57  1  0
 23 58  1  0
 23 59  1  0
 24 60  1  0
 25 61  1  0
 25 62  1  0
 26 63  1  0
 27 64  1  0
 27 65  1  0
 29 66  1  0
 29 67  1  0
 29 68  1  0
 30 69  1  0
 30 70  1  0
 30 71  1  0
 31 72  1  0
M  END
>  <PDBID>  (1) 
1K4T

>  <PDB ID>  (1) 
1K4T

>  <Generic Name>  (1) 
Topotecan

>  <Brand Name>  (1) 
Act Topotecan#Hycamtin#Mylan-topotecan Hydrochloride for Injection#PMS-topotecan#Topotecan#Topotecan Hydrochloride#Topotecan Hydrochloride for Injection#Topotecan Injection#Topotecan for Injection

>  <DrugBank ID>  (1) 
DB01030

>  <ATC Codes>  (1) 
L01XX17

>  <Ligand ID>  (1) 
TTC

>  <Target Name>  (1) 
DNA topoisomerase 1

>  <UniProt ID>  (1) 
P11387

>  <PDB ID.1>  (1) 
1K4T

>  <Seq. Identity>  (1) 
92%

$$$$
