PDB_DB00184_08
     RDKit          3D

 64 66  0  0  0  0  0  0  0  0999 V2000
    2.5226   -0.3901    1.1879 N   0  0  0  0  0  0  0  0  0  0  0  0
    1.0931   -0.1639    1.1057 C   0  0  0  0  0  0  0  0  0  0  0  0
    0.5970   -0.6769   -0.2006 C   0  0  0  0  0  0  0  0  0  0  0  0
    1.5042   -0.3837   -1.3586 C   0  0  0  0  0  0  0  0  0  0  0  0
    2.5941    0.5810   -1.0730 C   0  0  0  0  0  0  0  0  0  0  0  0
    3.1762    0.5115    0.2899 C   0  0  0  0  0  0  0  0  0  0  0  0
   -1.6697   -0.7363    0.5729 N   0  0  0  0  0  0  0  0  0  0  0  0
   -0.8386   -0.2371   -0.4764 C   0  0  1  0  0  0  0  0  0  0  0  0
   -1.0124    1.2377   -0.5625 C   0  0  0  0  0  0  0  0  0  0  0  0
   -2.3413    1.4967    0.1595 C   0  0  0  0  0  0  0  0  0  0  0  0
   -2.4074    0.3630    1.1241 C   0  0  0  0  0  0  0  0  0  0  0  0
   -2.4621   -1.8731    0.2276 C   0  0  0  0  0  0  0  0  0  0  0  0
    2.5226   -0.3901    1.1879 N   0  0  0  0  0  0  0  0  0  0  0  0
    1.0931   -0.1639    1.1057 C   0  0  0  0  0  0  0  0  0  0  0  0
    0.5970   -0.6769   -0.2006 C   0  0  0  0  0  0  0  0  0  0  0  0
    1.5042   -0.3837   -1.3586 C   0  0  0  0  0  0  0  0  0  0  0  0
    2.5941    0.5810   -1.0730 C   0  0  0  0  0  0  0  0  0  0  0  0
    3.1762    0.5115    0.2899 C   0  0  0  0  0  0  0  0  0  0  0  0
   -1.6697   -0.7363    0.5729 N   0  0  0  0  0  0  0  0  0  0  0  0
   -0.8386   -0.2371   -0.4764 C   0  0  1  0  0  0  0  0  0  0  0  0
   -1.0124    1.2377   -0.5625 C   0  0  0  0  0  0  0  0  0  0  0  0
   -2.3413    1.4967    0.1595 C   0  0  0  0  0  0  0  0  0  0  0  0
   -2.4074    0.3630    1.1241 C   0  0  0  0  0  0  0  0  0  0  0  0
   -2.4621   -1.8731    0.2276 C   0  0  0  0  0  0  0  0  0  0  0  0
    2.7288   -1.3695    0.8940 H   0  0  0  0  0  0  0  0  0  0  0  0
    0.8465    0.8646    1.3525 H   0  0  0  0  0  0  0  0  0  0  0  0
    0.6445   -0.7978    1.9266 H   0  0  0  0  0  0  0  0  0  0  0  0
    0.5369   -1.8007   -0.1126 H   0  0  0  0  0  0  0  0  0  0  0  0
    1.9431   -1.3023   -1.8028 H   0  0  0  0  0  0  0  0  0  0  0  0
    0.8605    0.0496   -2.1752 H   0  0  0  0  0  0  0  0  0  0  0  0
    3.4267    0.3958   -1.8104 H   0  0  0  0  0  0  0  0  0  0  0  0
    2.2980    1.6523   -1.2753 H   0  0  0  0  0  0  0  0  0  0  0  0
    4.2667    0.2162    0.2741 H   0  0  0  0  0  0  0  0  0  0  0  0
    3.1860    1.5213    0.7928 H   0  0  0  0  0  0  0  0  0  0  0  0
   -1.1800   -0.6610   -1.4676 H   0  0  0  0  0  0  0  0  0  0  0  0
   -0.2634    1.8319   -0.0429 H   0  0  0  0  0  0  0  0  0  0  0  0
   -1.1741    1.5836   -1.6061 H   0  0  0  0  0  0  0  0  0  0  0  0
   -2.2971    2.4713    0.6874 H   0  0  0  0  0  0  0  0  0  0  0  0
   -3.1858    1.5216   -0.5588 H   0  0  0  0  0  0  0  0  0  0  0  0
   -3.4675    0.1268    1.3321 H   0  0  0  0  0  0  0  0  0  0  0  0
   -1.9046    0.6654    2.0714 H   0  0  0  0  0  0  0  0  0  0  0  0
   -3.5198   -1.6683    0.0354 H   0  0  0  0  0  0  0  0  0  0  0  0
   -2.4360   -2.5707    1.1154 H   0  0  0  0  0  0  0  0  0  0  0  0
   -2.0651   -2.4588   -0.6267 H   0  0  0  0  0  0  0  0  0  0  0  0
    2.7288   -1.3695    0.8940 H   0  0  0  0  0  0  0  0  0  0  0  0
    0.8465    0.8646    1.3525 H   0  0  0  0  0  0  0  0  0  0  0  0
    0.6445   -0.7978    1.9266 H   0  0  0  0  0  0  0  0  0  0  0  0
    0.5369   -1.8007   -0.1126 H   0  0  0  0  0  0  0  0  0  0  0  0
    1.9431   -1.3023   -1.8028 H   0  0  0  0  0  0  0  0  0  0  0  0
    0.8605    0.0496   -2.1752 H   0  0  0  0  0  0  0  0  0  0  0  0
    3.4267    0.3958   -1.8104 H   0  0  0  0  0  0  0  0  0  0  0  0
    2.2980    1.6523   -1.2753 H   0  0  0  0  0  0  0  0  0  0  0  0
    4.2667    0.2162    0.2741 H   0  0  0  0  0  0  0  0  0  0  0  0
    3.1860    1.5213    0.7928 H   0  0  0  0  0  0  0  0  0  0  0  0
   -1.1800   -0.6610   -1.4676 H   0  0  0  0  0  0  0  0  0  0  0  0
   -0.2634    1.8319   -0.0429 H   0  0  0  0  0  0  0  0  0  0  0  0
   -1.1741    1.5836   -1.6061 H   0  0  0  0  0  0  0  0  0  0  0  0
   -2.2971    2.4713    0.6874 H   0  0  0  0  0  0  0  0  0  0  0  0
   -3.1858    1.5216   -0.5588 H   0  0  0  0  0  0  0  0  0  0  0  0
   -3.4675    0.1268    1.3321 H   0  0  0  0  0  0  0  0  0  0  0  0
   -1.9046    0.6654    2.0714 H   0  0  0  0  0  0  0  0  0  0  0  0
   -3.5198   -1.6683    0.0354 H   0  0  0  0  0  0  0  0  0  0  0  0
   -2.4360   -2.5707    1.1154 H   0  0  0  0  0  0  0  0  0  0  0  0
   -2.0651   -2.4588   -0.6267 H   0  0  0  0  0  0  0  0  0  0  0  0
  1  2  1  0
  2  3  1  0
  3  4  1  0
  4  5  1  0
  1  6  1  0
  5  6  1  0
  3  8  1  0
  7  8  1  0
  8  9  1  0
  9 10  1  0
  7 11  1  0
 10 11  1  0
  7 12  1  0
 13 14  1  0
 14 15  1  0
 15 16  1  0
 16 17  1  0
 13 18  1  0
 17 18  1  0
 15 20  1  0
 19 20  1  0
 20 21  1  0
 21 22  1  0
 19 23  1  0
 22 23  1  0
 19 24  1  0
  1 25  1  0
  2 26  1  0
  2 27  1  0
  3 28  1  0
  4 29  1  0
  4 30  1  0
  5 31  1  0
  5 32  1  0
  6 33  1  0
  6 34  1  0
  8 35  1  6
  9 36  1  0
  9 37  1  0
 10 38  1  0
 10 39  1  0
 11 40  1  0
 11 41  1  0
 12 42  1  0
 12 43  1  0
 12 44  1  0
 13 45  1  0
 14 46  1  0
 14 47  1  0
 15 48  1  0
 16 49  1  0
 16 50  1  0
 17 51  1  0
 17 52  1  0
 18 53  1  0
 18 54  1  0
 20 55  1  6
 21 56  1  0
 21 57  1  0
 22 58  1  0
 22 59  1  0
 23 60  1  0
 23 61  1  0
 24 62  1  0
 24 63  1  0
 24 64  1  0
M  END
>  <PDBID>  (1) 
5KXI

>  <PDB ID>  (1) 
5KXI

>  <Generic Name>  (1) 
Nicotine

>  <Brand Name>  (1) 
American Fare Nicotine Transdermal System#Berkley and Jensen Nicotine#Berkley and Jensen Nicotine Polacrilex#Care One Nicotine#Careone Mini Nicotine Polacrilex#Careone Nicotine#Careone Nicotine Polacrilex#Careone Nicotine Transdermal System Step 1#Careone Nicotine Transdermal System Step 2#Careone Nicotine Transdermal System Step 3#Equaline Nicotine#Equate Nicotine#Exchange Select Nicotine Transdermal System Step 3#Good Neighbor Pharmacy Nicotine#Good Neighbor Pharmacy Nicotine Mini#Good Sense Nicotine#Good Sense Nicotine Mint#Good Sense Nicotine Stop Smoking Aid#Habitrol Patch Nicotine Transdermal System, Step 1#Habitrol Patch Nicotine Transdermal System, Step 2#Habitrol Patch Nicotine Transdermal System, Step 3#Harris Teeter Nicotine#Health Mart Nicotine#Health Mart Nicotine Polacrilex#Healthmart Nicotine Transdermal System Step 1#Healthmart Nicotine Transdermal System Step 2#Healthmart Nicotine Transdermal System Step 3#Healthy Accents Nicotine#Humana Pharmacy Nicotine#In Control Nicotine#Kirkland Signature Quit 2#Kirkland Signature Quit 4#Kroger Nicotine Transdermal System Step 1#Kroger Nicotine Transdermal System Step 2#Kroger Nicotine Transdermal System Step 3#Leader Nicotine#Leader Nicotine Transdermal System Step 1#Leader Nicotine Transdermal System Step 2#Leader Nicotine Transdermal System Step 3#Meijer Nicotine Transdermal System Step 1#Meijer Nicotine Transdermal System Step 2#Meijer Nicotine Transdermal System Step 3#Members Mark Mini Nicotine#Members Mark Nicotine#Mini Nicotine#Nicoderm Cq#Nicoderm Trd 114mg Nicotine/21#Nicoderm Trd 36mg Nicotine/7 Sqcm Patch#Nicoderm Trd 78mg Nicotine/14#Nicorelief#Nicorette#Nicorette Cinnamon Surge#Nicorette Fresh Mint#Nicorette Fruit Chill#Nicorette Gum 2mg#Nicorette Invisipatch#Nicorette Mint#Nicorette Original#Nicorette Plus 4mg#Nicorette Spearmint Burst#Nicorette White Ice Mint#Nicotine#Nicotine Coated Mint#Nicotine Gum#Nicotine Mini#Nicotine Mint Flavor#Nicotine Original#Nicotine Polacrilex#Nicotine Polacrilex Stop Smoking Aid#Nicotine Polacrilex, Coated Fruit Flavor#Nicotine Polacrilex, Coated Mint Flavor#Nicotine Polacrilex, Original#Nicotine Stop Smoking Aid#Nicotine Transdermal System#Nicotine Transdermal System Patch Kit#Nicotine Transdermal System Step 1#Nicotine Transdermal System Step 2#Nicotine Transdermal System Step 3#Nicotine Un1654#Nicotrol#Nicotrol (professional Sample)#Nictoine Gum#Preferred Plus Nicotine#Preferred Plus Nicotine Polacrilex Gum, Original Flavor#Rexall Nicotine#Rite Aid Nicotine Transdermal System Step 1#Rite Aid Nicotine Transdermal System Step 2#Rite Aid Nicotine Transdermal System Step 3#Rugby Nicotine#Rugby Nicotine Polacrilex Gum, Coated Cinnamon Flavor#Rugby Nicotine Polacrilex Gum, Coated Fruit Flavor#Rugby Nicotine Polacrilex Gum, Coated Mint Flavor#Rugby Nicotine Polacrilex Gum, Mint Flavor#Rugby Nicotine Polacrilex Gum, Original Flavor#Safeway Nicotine Transdermal System Step 1#Safeway Nicotine Transdermal System Step 2#Safeway Nicotine Transdermal System Step 3#Signature Care Nicotine#Simply Right Nicotine#Smart Sense Nicotine#Smart Sense Nicotine Mint#Smart Sense Nicotine Polacrilex#Stop Smoking Aid#Stop Smoking Aid Nicotine#Sunmark Nicotine#Sunmark Nicotine Transdermal System Step 1#Sunmark Nicotine Transdermal System Step 2#Sunmark Nicotine Transdermal System Step 3#Topcare Nicotine#Topcare Nicotine Gum#Topcare Nicotine Polacrilex#Topcare Nicotine Stop Smoking Aid#Tru Relief Nicotine#Up and Up Nicotine#Up and Up Nicotine Polacrilex#Zonnic#Zonnic Nicotine#Zonnic Nicotine Mini#Zonnic Nicotine Polacrilex#Habitrol#Nicoderm

>  <DrugBank ID>  (1) 
DB00184

>  <ATC Codes>  (1) 
N07BA01

>  <Ligand ID>  (1) 
NCT

>  <Target Name>  (1) 
Neuronal acetylcholine receptor subunit alpha-4

>  <UniProt ID>  (1) 
P43681

>  <PDB ID.1>  (1) 
5KXI

>  <Seq. Identity>  (1) 
54%

$$$$
