PDB_DB08873_03
     RDKit          3D

 91 93  0  0  0  0  0  0  0  0999 V2000
    4.2243   -0.7986    0.2850 C   0  0  0  0  0  0  0  0  0  0  0  0
    3.8408   -2.1711    0.4144 O   0  0  0  0  0  0  0  0  0  0  0  0
    4.8658   -0.7309   -1.0062 N   0  0  0  0  0  0  0  0  0  0  0  0
    5.5104    0.4774   -1.3439 C   0  0  0  0  0  0  0  0  0  0  0  0
    6.1017    0.2918   -2.7461 C   0  0  0  0  0  0  0  0  0  0  0  0
    6.6570    0.7300   -0.3741 C   0  0  0  0  0  0  0  0  0  0  0  0
    4.5999    1.6764   -1.3285 C   0  0  0  0  0  0  0  0  0  0  0  0
    3.0552   -0.0644    0.2847 N   0  0  0  0  0  0  0  0  0  0  0  0
    2.1294    0.0471    1.2923 C   0  0  1  0  0  0  0  0  0  0  0  0
    2.5104    0.6607    2.5954 C   0  0  0  0  0  0  0  0  0  0  0  0
    2.9989    2.0679    2.5349 C   0  0  0  0  0  0  0  0  0  0  0  0
    3.5039   -0.2663    3.2967 C   0  0  0  0  0  0  0  0  0  0  0  0
    1.2888    0.6779    3.5285 C   0  0  0  0  0  0  0  0  0  0  0  0
    0.8405    0.6267    0.6958 C   0  0  1  0  0  0  0  0  0  0  0  0
    1.0922    1.8604    0.1001 O   0  0  0  0  0  0  0  0  0  0  0  0
    0.2969   -0.2431   -0.2661 N   0  0  0  0  0  0  0  0  0  0  0  0
   -0.1025   -1.5363    0.2191 C   0  0  0  0  0  0  0  0  0  0  0  0
   -0.8270    0.2333   -1.0150 C   0  0  1  0  0  0  0  0  0  0  0  0
   -1.2004   -0.9481   -1.8430 C   0  0  2  0  0  0  0  0  0  0  0  0
   -0.8766   -2.0843   -0.9619 C   0  0  1  0  0  0  0  0  0  0  0  0
   -0.1687   -1.9438   -2.2686 C   0  0  0  0  0  0  0  0  0  0  0  0
   -0.6154   -2.9198   -3.3443 C   0  0  0  0  0  0  0  0  0  0  0  0
    1.2837   -1.6029   -2.3639 C   0  0  0  0  0  0  0  0  0  0  0  0
   -1.9084    0.8733   -0.2120 C   0  0  0  0  0  0  0  0  0  0  0  0
   -1.4505    2.0272    0.3897 O   0  0  0  0  0  0  0  0  0  0  0  0
   -3.1936    1.0140   -0.7429 N   0  0  0  0  0  0  0  0  0  0  0  0
   -4.1258   -0.0348   -0.7745 C   0  0  1  0  0  0  0  0  0  0  0  0
   -4.8903   -0.3657    0.4523 C   0  0  0  0  0  0  0  0  0  0  0  0
   -4.2427   -0.7333    1.7089 C   0  0  0  0  0  0  0  0  0  0  0  0
   -5.3556   -1.0664    2.7429 C   0  0  0  0  0  0  0  0  0  0  0  0
   -3.9972    0.5022    2.6062 C   0  0  0  0  0  0  0  0  0  0  0  0
   -4.7612   -0.1387    3.7412 C   0  0  0  0  0  0  0  0  0  0  0  0
   -5.9765   -1.1072   -1.7752 O   0  0  0  0  0  0  0  0  0  0  0  0
   -5.1152    0.0085   -1.9217 C   0  0  0  0  0  0  0  0  0  0  0  0
   -4.9934    2.3453   -2.2214 O   0  0  0  0  0  0  0  0  0  0  0  0
   -6.8876    1.3350   -2.9532 N   0  0  0  0  0  0  0  0  0  0  0  0
   -5.8779    1.2958   -1.8854 C   0  0  0  0  0  0  0  0  0  0  0  0
    4.9966   -0.6485    1.0286 H   0  0  0  0  0  0  0  0  0  0  0  0
    4.6031   -2.7109    0.0444 H   0  0  0  0  0  0  0  0  0  0  0  0
    5.5109   -1.5287   -1.1932 H   0  0  0  0  0  0  0  0  0  0  0  0
    6.2960    1.3348   -3.1240 H   0  0  0  0  0  0  0  0  0  0  0  0
    5.4084   -0.2562   -3.4115 H   0  0  0  0  0  0  0  0  0  0  0  0
    7.0715   -0.2495   -2.5949 H   0  0  0  0  0  0  0  0  0  0  0  0
    7.2641    1.5782   -0.7507 H   0  0  0  0  0  0  0  0  0  0  0  0
    7.3326   -0.1697   -0.3757 H   0  0  0  0  0  0  0  0  0  0  0  0
    6.2776    0.9761    0.6164 H   0  0  0  0  0  0  0  0  0  0  0  0
    3.7926    1.6512   -2.0734 H   0  0  0  0  0  0  0  0  0  0  0  0
    4.2375    1.9095   -0.3073 H   0  0  0  0  0  0  0  0  0  0  0  0
    5.2790    2.5611   -1.5682 H   0  0  0  0  0  0  0  0  0  0  0  0
    2.6998    0.1447   -0.6419 H   0  0  0  0  0  0  0  0  0  0  0  0
    1.8659   -1.0298    1.5892 H   0  0  0  0  0  0  0  0  0  0  0  0
    2.5687    2.6435    1.6927 H   0  0  0  0  0  0  0  0  0  0  0  0
    2.7259    2.6625    3.4484 H   0  0  0  0  0  0  0  0  0  0  0  0
    4.1295    2.1247    2.5236 H   0  0  0  0  0  0  0  0  0  0  0  0
    3.3821   -1.3190    2.9791 H   0  0  0  0  0  0  0  0  0  0  0  0
    4.5408    0.1131    3.2426 H   0  0  0  0  0  0  0  0  0  0  0  0
    3.3043   -0.2985    4.4118 H   0  0  0  0  0  0  0  0  0  0  0  0
    1.7404    0.7829    4.5624 H   0  0  0  0  0  0  0  0  0  0  0  0
    0.7837   -0.3063    3.5629 H   0  0  0  0  0  0  0  0  0  0  0  0
    0.6467    1.5437    3.4012 H   0  0  0  0  0  0  0  0  0  0  0  0
    0.1278    0.8655    1.5319 H   0  0  0  0  0  0  0  0  0  0  0  0
    1.3574    1.7008   -0.8494 H   0  0  0  0  0  0  0  0  0  0  0  0
    0.7622   -2.2260    0.3610 H   0  0  0  0  0  0  0  0  0  0  0  0
   -0.6720   -1.5248    1.1422 H   0  0  0  0  0  0  0  0  0  0  0  0
   -0.4148    1.0669   -1.6865 H   0  0  0  0  0  0  0  0  0  0  0  0
   -2.0284   -0.8667   -2.5590 H   0  0  0  0  0  0  0  0  0  0  0  0
   -1.5859   -2.9186   -0.7934 H   0  0  0  0  0  0  0  0  0  0  0  0
   -0.2015   -3.9237   -3.1636 H   0  0  0  0  0  0  0  0  0  0  0  0
   -1.7156   -2.9240   -3.3948 H   0  0  0  0  0  0  0  0  0  0  0  0
   -0.2546   -2.5393   -4.3438 H   0  0  0  0  0  0  0  0  0  0  0  0
    1.4393   -0.4995   -2.5536 H   0  0  0  0  0  0  0  0  0  0  0  0
    1.8686   -1.9505   -1.4785 H   0  0  0  0  0  0  0  0  0  0  0  0
    1.8056   -2.1034   -3.2317 H   0  0  0  0  0  0  0  0  0  0  0  0
   -2.0718    0.1690    0.7096 H   0  0  0  0  0  0  0  0  0  0  0  0
   -1.5965    2.8419   -0.1674 H   0  0  0  0  0  0  0  0  0  0  0  0
   -3.6519    1.9383   -0.4632 H   0  0  0  0  0  0  0  0  0  0  0  0
   -3.4930   -0.9964   -0.9345 H   0  0  0  0  0  0  0  0  0  0  0  0
   -5.6180    0.4818    0.6633 H   0  0  0  0  0  0  0  0  0  0  0  0
   -5.5954   -1.2123    0.1642 H   0  0  0  0  0  0  0  0  0  0  0  0
   -3.4865   -1.5059    1.7623 H   0  0  0  0  0  0  0  0  0  0  0  0
   -6.3600   -0.7095    2.4405 H   0  0  0  0  0  0  0  0  0  0  0  0
   -5.3899   -2.1461    2.9959 H   0  0  0  0  0  0  0  0  0  0  0  0
   -2.9422    0.6965    2.8349 H   0  0  0  0  0  0  0  0  0  0  0  0
   -4.5748    1.3712    2.2395 H   0  0  0  0  0  0  0  0  0  0  0  0
   -5.4463    0.5494    4.2816 H   0  0  0  0  0  0  0  0  0  0  0  0
   -4.1263   -0.6747    4.4776 H   0  0  0  0  0  0  0  0  0  0  0  0
   -5.4150   -1.9146   -1.8134 H   0  0  0  0  0  0  0  0  0  0  0  0
   -5.3610    2.9574   -2.8790 H   0  0  0  0  0  0  0  0  0  0  0  0
   -7.0132    2.3254   -3.2222 H   0  0  0  0  0  0  0  0  0  0  0  0
   -6.6262    0.6912   -3.7318 H   0  0  0  0  0  0  0  0  0  0  0  0
   -6.4114    1.4765   -0.9410 H   0  0  0  0  0  0  0  0  0  0  0  0
  1  2  1  0
  1  3  1  0
  4  3  1  0
  4  5  1  0
  4  6  1  0
  4  7  1  0
  1  8  1  0
  8  9  1  0
  9 10  1  0
 10 11  1  0
 10 12  1  0
 10 13  1  0
  9 14  1  0
 14 15  1  0
 14 16  1  0
 16 17  1  0
 16 18  1  0
 18 19  1  0
 17 20  1  0
 19 20  1  0
 19 21  1  0
 20 21  1  0
 21 22  1  0
 21 23  1  0
 18 24  1  0
 24 25  1  0
 24 26  1  0
 26 27  1  0
 27 28  1  0
 28 29  1  0
 29 30  1  0
 29 31  1  0
 30 32  1  0
 31 32  1  0
 27 34  1  0
 34 33  1  0
 34 37  1  0
 35 37  1  0
 36 37  1  0
  1 38  1  0
  2 39  1  0
  3 40  1  0
  5 41  1  0
  5 42  1  0
  5 43  1  0
  6 44  1  0
  6 45  1  0
  6 46  1  0
  7 47  1  0
  7 48  1  0
  7 49  1  0
  8 50  1  0
  9 51  1  1
 11 52  1  0
 11 53  1  0
 11 54  1  0
 12 55  1  0
 12 56  1  0
 12 57  1  0
 13 58  1  0
 13 59  1  0
 13 60  1  0
 14 61  1  1
 15 62  1  0
 17 63  1  0
 17 64  1  0
 18 65  1  6
 19 66  1  6
 20 67  1  1
 22 68  1  0
 22 69  1  0
 22 70  1  0
 23 71  1  0
 23 72  1  0
 23 73  1  0
 24 74  1  0
 25 75  1  0
 26 76  1  0
 27 77  1  6
 28 78  1  0
 28 79  1  0
 29 80  1  0
 30 81  1  0
 30 82  1  0
 31 83  1  0
 31 84  1  0
 32 85  1  0
 32 86  1  0
 33 87  1  0
 35 88  1  0
 36 89  1  0
 36 90  1  0
 37 91  1  0
M  END
>  <PDBID>  (1) 
2OC8

>  <PDB ID>  (1) 
2OC8

>  <Generic Name>  (1) 
Boceprevir

>  <Brand Name>  (1) 
Victrelis#Victrelis Triple

>  <DrugBank ID>  (1) 
DB08873

>  <ATC Codes>  (1) 
J05AE12

>  <Ligand ID>  (1) 
HU5

>  <Target Name>  (1) 
Genome polyprotein

>  <UniProt ID>  (1) 
B0B3C9

>  <PDB ID.1>  (1) 
2OC8

>  <Seq. Identity>  (1) 
69%

$$$$
