PDB_DB00862_06
     RDKit          3D

164170  0  0  0  0  0  0  0  0999 V2000
   -2.0419   -2.8672   -3.5144 C   0  0  0  0  0  0  0  0  0  0  0  0
   -1.9163   -3.9008   -2.4173 C   0  0  0  0  0  0  0  0  0  0  0  0
   -1.5285   -3.4007   -1.2181 O   0  0  0  0  0  0  0  0  0  0  0  0
   -0.3354   -2.7648   -1.1231 C   0  0  0  0  0  0  0  0  0  0  0  0
    0.6811   -3.4514   -0.2441 C   0  0  0  0  0  0  0  0  0  0  0  0
    2.0409   -2.9651   -0.7039 C   0  0  0  0  0  0  0  0  0  0  0  0
    2.0338   -1.4431   -0.5668 C   0  0  0  0  0  0  0  0  0  0  0  0
    0.8157   -0.9329    0.1442 C   0  0  0  0  0  0  0  0  0  0  0  0
   -0.4174   -1.3276   -0.6552 C   0  0  0  0  0  0  0  0  0  0  0  0
    3.5104   -0.9388    0.1523 S   0  0  0  0  0  0  0  0  0  0  0  0
    3.6565   -1.4702    1.6471 O   0  0  0  0  0  0  0  0  0  0  0  0
    4.7295   -1.9310   -0.7323 O   0  0  0  0  0  0  0  0  0  0  0  0
    6.7657    2.6243    2.3974 C   0  0  0  0  0  0  0  0  0  0  0  0
    3.9467    0.5088   -0.0937 N   0  0  0  0  0  0  0  0  0  0  0  0
    3.7924    1.5402    0.9113 C   0  0  0  0  0  0  0  0  0  0  0  0
    4.4425    2.7981    0.4402 C   0  0  0  0  0  0  0  0  0  0  0  0
    5.8124    2.5468    0.1272 N   0  0  0  0  0  0  0  0  0  0  0  0
    5.8459    1.7361   -1.0809 C   0  0  0  0  0  0  0  0  0  0  0  0
    4.5984    0.9431   -1.2856 C   0  0  0  0  0  0  0  0  0  0  0  0
    6.5433    1.8471    1.1437 C   0  0  0  0  0  0  0  0  0  0  0  0
   -1.6786   -1.1527    0.1695 C   0  0  0  0  0  0  0  0  0  0  0  0
   -2.8058   -1.4646   -0.6391 N   0  0  0  0  0  0  0  0  0  0  0  0
   -3.4540   -0.3692   -1.2866 C   0  0  0  0  0  0  0  0  0  0  0  0
   -2.9189    0.9845   -0.9591 C   0  0  0  0  0  0  0  0  0  0  0  0
   -2.3926    1.1195    0.3517 N   0  0  0  0  0  0  0  0  0  0  0  0
   -1.7179    0.0822    0.8749 N   0  0  0  0  0  0  0  0  0  0  0  0
   -4.8267   -0.4922   -1.0275 O   0  0  0  0  0  0  0  0  0  0  0  0
   -3.9232    2.0902   -1.0415 C   0  0  0  0  0  0  0  0  0  0  0  0
   -4.3039    2.4193    0.3276 N   0  0  0  0  0  0  0  0  0  0  0  0
   -3.3196    1.7968    1.1860 C   0  0  0  0  0  0  0  0  0  0  0  0
   -5.1060    1.7930   -1.8993 C   0  0  0  0  0  0  0  0  0  0  0  0
   -4.0243    0.9136    2.1833 C   0  0  0  0  0  0  0  0  0  0  0  0
   -4.9756    1.7927    2.9928 C   0  0  0  0  0  0  0  0  0  0  0  0
   -5.7346    1.0158    4.0218 C   0  0  0  0  0  0  0  0  0  0  0  0
   -2.0419   -2.8672   -3.5144 C   0  0  0  0  0  0  0  0  0  0  0  0
   -1.9163   -3.9008   -2.4173 C   0  0  0  0  0  0  0  0  0  0  0  0
   -1.5285   -3.4007   -1.2181 O   0  0  0  0  0  0  0  0  0  0  0  0
   -0.3354   -2.7648   -1.1231 C   0  0  0  0  0  0  0  0  0  0  0  0
    0.6811   -3.4514   -0.2441 C   0  0  0  0  0  0  0  0  0  0  0  0
    2.0409   -2.9651   -0.7039 C   0  0  0  0  0  0  0  0  0  0  0  0
    2.0338   -1.4431   -0.5668 C   0  0  0  0  0  0  0  0  0  0  0  0
    0.8157   -0.9329    0.1442 C   0  0  0  0  0  0  0  0  0  0  0  0
   -0.4174   -1.3276   -0.6552 C   0  0  0  0  0  0  0  0  0  0  0  0
    3.5104   -0.9388    0.1523 S   0  0  0  0  0  0  0  0  0  0  0  0
    3.6565   -1.4702    1.6471 O   0  0  0  0  0  0  0  0  0  0  0  0
    4.7295   -1.9310   -0.7323 O   0  0  0  0  0  0  0  0  0  0  0  0
    6.7657    2.6243    2.3974 C   0  0  0  0  0  0  0  0  0  0  0  0
    3.9467    0.5088   -0.0937 N   0  0  0  0  0  0  0  0  0  0  0  0
    3.7924    1.5402    0.9113 C   0  0  0  0  0  0  0  0  0  0  0  0
    4.4425    2.7981    0.4402 C   0  0  0  0  0  0  0  0  0  0  0  0
    5.8124    2.5468    0.1272 N   0  0  0  0  0  0  0  0  0  0  0  0
    5.8459    1.7361   -1.0809 C   0  0  0  0  0  0  0  0  0  0  0  0
    4.5984    0.9431   -1.2856 C   0  0  0  0  0  0  0  0  0  0  0  0
    6.5433    1.8471    1.1437 C   0  0  0  0  0  0  0  0  0  0  0  0
   -1.6786   -1.1527    0.1695 C   0  0  0  0  0  0  0  0  0  0  0  0
   -2.8058   -1.4646   -0.6391 N   0  0  0  0  0  0  0  0  0  0  0  0
   -3.4540   -0.3692   -1.2866 C   0  0  0  0  0  0  0  0  0  0  0  0
   -2.9189    0.9845   -0.9591 C   0  0  0  0  0  0  0  0  0  0  0  0
   -2.3926    1.1195    0.3517 N   0  0  0  0  0  0  0  0  0  0  0  0
   -1.7179    0.0822    0.8749 N   0  0  0  0  0  0  0  0  0  0  0  0
   -4.8267   -0.4922   -1.0275 O   0  0  0  0  0  0  0  0  0  0  0  0
   -3.9232    2.0902   -1.0415 C   0  0  0  0  0  0  0  0  0  0  0  0
   -4.3039    2.4193    0.3276 N   0  0  0  0  0  0  0  0  0  0  0  0
   -3.3196    1.7968    1.1860 C   0  0  0  0  0  0  0  0  0  0  0  0
   -5.1060    1.7930   -1.8993 C   0  0  0  0  0  0  0  0  0  0  0  0
   -4.0243    0.9136    2.1833 C   0  0  0  0  0  0  0  0  0  0  0  0
   -4.9756    1.7927    2.9928 C   0  0  0  0  0  0  0  0  0  0  0  0
   -5.7346    1.0158    4.0218 C   0  0  0  0  0  0  0  0  0  0  0  0
   -3.1155   -2.5503   -3.6568 H   0  0  0  0  0  0  0  0  0  0  0  0
   -1.3884   -2.0056   -3.2799 H   0  0  0  0  0  0  0  0  0  0  0  0
   -1.7084   -3.3749   -4.4677 H   0  0  0  0  0  0  0  0  0  0  0  0
   -2.9632   -4.3067   -2.2658 H   0  0  0  0  0  0  0  0  0  0  0  0
   -1.3458   -4.7885   -2.7600 H   0  0  0  0  0  0  0  0  0  0  0  0
    0.1288   -2.7594   -2.1449 H   0  0  0  0  0  0  0  0  0  0  0  0
    0.5905   -3.2216    0.8147 H   0  0  0  0  0  0  0  0  0  0  0  0
    0.5966   -4.5565   -0.3868 H   0  0  0  0  0  0  0  0  0  0  0  0
    2.8310   -3.4286   -0.0745 H   0  0  0  0  0  0  0  0  0  0  0  0
    2.1283   -3.2772   -1.7739 H   0  0  0  0  0  0  0  0  0  0  0  0
    1.9951   -1.0423   -1.6037 H   0  0  0  0  0  0  0  0  0  0  0  0
    0.8675    0.1685    0.1278 H   0  0  0  0  0  0  0  0  0  0  0  0
    0.7528   -1.2310    1.2030 H   0  0  0  0  0  0  0  0  0  0  0  0
   -0.4773   -0.6098   -1.4982 H   0  0  0  0  0  0  0  0  0  0  0  0
    2.7822   -1.4768    2.1271 H   0  0  0  0  0  0  0  0  0  0  0  0
    4.7841   -2.7601   -0.2227 H   0  0  0  0  0  0  0  0  0  0  0  0
    7.8291    2.9000    2.5596 H   0  0  0  0  0  0  0  0  0  0  0  0
    6.1569    3.5339    2.4888 H   0  0  0  0  0  0  0  0  0  0  0  0
    6.4898    1.9670    3.2639 H   0  0  0  0  0  0  0  0  0  0  0  0
    2.6887    1.7313    1.0010 H   0  0  0  0  0  0  0  0  0  0  0  0
    4.2014    1.1871    1.8749 H   0  0  0  0  0  0  0  0  0  0  0  0
    4.2818    3.6611    1.1142 H   0  0  0  0  0  0  0  0  0  0  0  0
    3.9329    3.0836   -0.5263 H   0  0  0  0  0  0  0  0  0  0  0  0
    5.9715    2.4446   -1.9473 H   0  0  0  0  0  0  0  0  0  0  0  0
    6.7553    1.0901   -1.0999 H   0  0  0  0  0  0  0  0  0  0  0  0
    3.9031    1.4675   -2.0025 H   0  0  0  0  0  0  0  0  0  0  0  0
    4.9015    0.0102   -1.8464 H   0  0  0  0  0  0  0  0  0  0  0  0
    6.1302    0.8156    1.3283 H   0  0  0  0  0  0  0  0  0  0  0  0
    7.5653    1.6427    0.7052 H   0  0  0  0  0  0  0  0  0  0  0  0
   -1.6104   -1.9512    0.9725 H   0  0  0  0  0  0  0  0  0  0  0  0
   -3.4268   -2.1204   -0.1641 H   0  0  0  0  0  0  0  0  0  0  0  0
   -3.3554   -0.5241   -2.3958 H   0  0  0  0  0  0  0  0  0  0  0  0
   -2.0741    1.1945   -1.6788 H   0  0  0  0  0  0  0  0  0  0  0  0
   -0.8025    0.2632    1.2950 H   0  0  0  0  0  0  0  0  0  0  0  0
   -5.1751   -1.2507   -1.5613 H   0  0  0  0  0  0  0  0  0  0  0  0
   -3.3894    3.0041   -1.4285 H   0  0  0  0  0  0  0  0  0  0  0  0
   -4.3110    3.4478    0.4989 H   0  0  0  0  0  0  0  0  0  0  0  0
   -2.7619    2.5614    1.7924 H   0  0  0  0  0  0  0  0  0  0  0  0
   -4.9048    1.1051   -2.7300 H   0  0  0  0  0  0  0  0  0  0  0  0
   -6.0011    1.5073   -1.2883 H   0  0  0  0  0  0  0  0  0  0  0  0
   -5.4151    2.7644   -2.3888 H   0  0  0  0  0  0  0  0  0  0  0  0
   -3.3192    0.4719    2.9180 H   0  0  0  0  0  0  0  0  0  0  0  0
   -4.5942    0.0942    1.7448 H   0  0  0  0  0  0  0  0  0  0  0  0
   -4.3413    2.5369    3.5120 H   0  0  0  0  0  0  0  0  0  0  0  0
   -5.7162    2.2864    2.3318 H   0  0  0  0  0  0  0  0  0  0  0  0
   -6.1176    0.0547    3.6706 H   0  0  0  0  0  0  0  0  0  0  0  0
   -5.1247    0.9267    4.9525 H   0  0  0  0  0  0  0  0  0  0  0  0
   -6.6192    1.6340    4.3137 H   0  0  0  0  0  0  0  0  0  0  0  0
   -3.1155   -2.5503   -3.6568 H   0  0  0  0  0  0  0  0  0  0  0  0
   -1.3884   -2.0056   -3.2799 H   0  0  0  0  0  0  0  0  0  0  0  0
   -1.7084   -3.3749   -4.4677 H   0  0  0  0  0  0  0  0  0  0  0  0
   -2.9632   -4.3067   -2.2658 H   0  0  0  0  0  0  0  0  0  0  0  0
   -1.3458   -4.7885   -2.7600 H   0  0  0  0  0  0  0  0  0  0  0  0
    0.1288   -2.7594   -2.1449 H   0  0  0  0  0  0  0  0  0  0  0  0
    0.5905   -3.2216    0.8147 H   0  0  0  0  0  0  0  0  0  0  0  0
    0.5966   -4.5565   -0.3868 H   0  0  0  0  0  0  0  0  0  0  0  0
    2.8310   -3.4286   -0.0745 H   0  0  0  0  0  0  0  0  0  0  0  0
    2.1283   -3.2772   -1.7739 H   0  0  0  0  0  0  0  0  0  0  0  0
    1.9951   -1.0423   -1.6037 H   0  0  0  0  0  0  0  0  0  0  0  0
    0.8675    0.1685    0.1278 H   0  0  0  0  0  0  0  0  0  0  0  0
    0.7528   -1.2310    1.2030 H   0  0  0  0  0  0  0  0  0  0  0  0
   -0.4773   -0.6098   -1.4982 H   0  0  0  0  0  0  0  0  0  0  0  0
    2.7822   -1.4768    2.1271 H   0  0  0  0  0  0  0  0  0  0  0  0
    4.7841   -2.7601   -0.2227 H   0  0  0  0  0  0  0  0  0  0  0  0
    7.8291    2.9000    2.5596 H   0  0  0  0  0  0  0  0  0  0  0  0
    6.1569    3.5339    2.4888 H   0  0  0  0  0  0  0  0  0  0  0  0
    6.4898    1.9670    3.2639 H   0  0  0  0  0  0  0  0  0  0  0  0
    2.6887    1.7313    1.0010 H   0  0  0  0  0  0  0  0  0  0  0  0
    4.2014    1.1871    1.8749 H   0  0  0  0  0  0  0  0  0  0  0  0
    4.2818    3.6611    1.1142 H   0  0  0  0  0  0  0  0  0  0  0  0
    3.9329    3.0836   -0.5263 H   0  0  0  0  0  0  0  0  0  0  0  0
    5.9715    2.4446   -1.9473 H   0  0  0  0  0  0  0  0  0  0  0  0
    6.7553    1.0901   -1.0999 H   0  0  0  0  0  0  0  0  0  0  0  0
    3.9031    1.4675   -2.0025 H   0  0  0  0  0  0  0  0  0  0  0  0
    4.9015    0.0102   -1.8464 H   0  0  0  0  0  0  0  0  0  0  0  0
    6.1302    0.8156    1.3283 H   0  0  0  0  0  0  0  0  0  0  0  0
    7.5653    1.6427    0.7052 H   0  0  0  0  0  0  0  0  0  0  0  0
   -1.6104   -1.9512    0.9725 H   0  0  0  0  0  0  0  0  0  0  0  0
   -3.4268   -2.1204   -0.1641 H   0  0  0  0  0  0  0  0  0  0  0  0
   -3.3554   -0.5241   -2.3958 H   0  0  0  0  0  0  0  0  0  0  0  0
   -2.0741    1.1945   -1.6788 H   0  0  0  0  0  0  0  0  0  0  0  0
   -0.8025    0.2632    1.2950 H   0  0  0  0  0  0  0  0  0  0  0  0
   -5.1751   -1.2507   -1.5613 H   0  0  0  0  0  0  0  0  0  0  0  0
   -3.3894    3.0041   -1.4285 H   0  0  0  0  0  0  0  0  0  0  0  0
   -4.3110    3.4478    0.4989 H   0  0  0  0  0  0  0  0  0  0  0  0
   -2.7619    2.5614    1.7924 H   0  0  0  0  0  0  0  0  0  0  0  0
   -4.9048    1.1051   -2.7300 H   0  0  0  0  0  0  0  0  0  0  0  0
   -6.0011    1.5073   -1.2883 H   0  0  0  0  0  0  0  0  0  0  0  0
   -5.4151    2.7644   -2.3888 H   0  0  0  0  0  0  0  0  0  0  0  0
   -3.3192    0.4719    2.9180 H   0  0  0  0  0  0  0  0  0  0  0  0
   -4.5942    0.0942    1.7448 H   0  0  0  0  0  0  0  0  0  0  0  0
   -4.3413    2.5369    3.5120 H   0  0  0  0  0  0  0  0  0  0  0  0
   -5.7162    2.2864    2.3318 H   0  0  0  0  0  0  0  0  0  0  0  0
   -6.1176    0.0547    3.6706 H   0  0  0  0  0  0  0  0  0  0  0  0
   -5.1247    0.9267    4.9525 H   0  0  0  0  0  0  0  0  0  0  0  0
   -6.6192    1.6340    4.3137 H   0  0  0  0  0  0  0  0  0  0  0  0
  1  2  1  0
  2  3  1  0
  3  4  1  0
  4  5  1  0
  5  6  1  0
  6  7  1  0
  7  8  1  0
  4  9  1  0
  8  9  1  0
  7 10  1  0
 10 11  1  0
 10 12  1  0
 10 14  1  0
 14 15  1  0
 15 16  1  0
 16 17  1  0
 17 18  1  0
 14 19  1  0
 18 19  1  0
 13 20  1  0
 17 20  1  0
  9 21  1  0
 21 22  1  0
 22 23  1  0
 23 24  1  0
 24 25  1  0
 21 26  1  0
 25 26  1  0
 23 27  1  0
 24 28  1  0
 28 29  1  0
 25 30  1  0
 29 30  1  0
 28 31  1  0
 30 32  1  0
 32 33  1  0
 33 34  1  0
 35 36  1  0
 36 37  1  0
 37 38  1  0
 38 39  1  0
 39 40  1  0
 40 41  1  0
 41 42  1  0
 38 43  1  0
 42 43  1  0
 41 44  1  0
 44 45  1  0
 44 46  1  0
 44 48  1  0
 48 49  1  0
 49 50  1  0
 50 51  1  0
 51 52  1  0
 48 53  1  0
 52 53  1  0
 47 54  1  0
 51 54  1  0
 43 55  1  0
 55 56  1  0
 56 57  1  0
 57 58  1  0
 58 59  1  0
 55 60  1  0
 59 60  1  0
 57 61  1  0
 58 62  1  0
 62 63  1  0
 59 64  1  0
 63 64  1  0
 62 65  1  0
 64 66  1  0
 66 67  1  0
 67 68  1  0
  1 69  1  0
  1 70  1  0
  1 71  1  0
  2 72  1  0
  2 73  1  0
  4 74  1  0
  5 75  1  0
  5 76  1  0
  6 77  1  0
  6 78  1  0
  7 79  1  0
  8 80  1  0
  8 81  1  0
  9 82  1  0
 11 83  1  0
 12 84  1  0
 13 85  1  0
 13 86  1  0
 13 87  1  0
 15 88  1  0
 15 89  1  0
 16 90  1  0
 16 91  1  0
 18 92  1  0
 18 93  1  0
 19 94  1  0
 19 95  1  0
 20 96  1  0
 20 97  1  0
 21 98  1  0
 22 99  1  0
 23100  1  0
 24101  1  0
 26102  1  0
 27103  1  0
 28104  1  0
 29105  1  0
 30106  1  0
 31107  1  0
 31108  1  0
 31109  1  0
 32110  1  0
 32111  1  0
 33112  1  0
 33113  1  0
 34114  1  0
 34115  1  0
 34116  1  0
 35117  1  0
 35118  1  0
 35119  1  0
 36120  1  0
 36121  1  0
 38122  1  0
 39123  1  0
 39124  1  0
 40125  1  0
 40126  1  0
 41127  1  0
 42128  1  0
 42129  1  0
 43130  1  0
 45131  1  0
 46132  1  0
 47133  1  0
 47134  1  0
 47135  1  0
 49136  1  0
 49137  1  0
 50138  1  0
 50139  1  0
 52140  1  0
 52141  1  0
 53142  1  0
 53143  1  0
 54144  1  0
 54145  1  0
 55146  1  0
 56147  1  0
 57148  1  0
 58149  1  0
 60150  1  0
 61151  1  0
 62152  1  0
 63153  1  0
 64154  1  0
 65155  1  0
 65156  1  0
 65157  1  0
 66158  1  0
 66159  1  0
 67160  1  0
 67161  1  0
 68162  1  0
 68163  1  0
 68164  1  0
M  END
>  <PDBID>  (1) 
3B2R

>  <PDB ID>  (1) 
3B2R

>  <Generic Name>  (1) 
Vardenafil

>  <Brand Name>  (1) 
Levitra#Staxyn#Vivanza

>  <DrugBank ID>  (1) 
DB00862

>  <ATC Codes>  (1) 
G04BE09

>  <Ligand ID>  (1) 
VDN

>  <Target Name>  (1) 
cGMP-specific 3',5'-cyclic phosphodiesterase

>  <UniProt ID>  (1) 
O76074

>  <PDB ID.1>  (1) 
3B2R

>  <Seq. Identity>  (1) 
94%

$$$$
