PDB_DB00205_08
     RDKit          3D

 84 86  0  0  0  0  0  0  0  0999 V2000
   -1.9057    1.3362   -1.5656 N   0  0  0  0  0  0  0  0  0  0  0  0
   -2.9117    0.7171   -0.7621 C   0  0  0  0  0  0  0  0  0  0  0  0
   -0.6953    1.5394   -0.7535 C   0  0  0  0  0  0  0  0  0  0  0  0
   -0.1772    0.1408   -0.4902 C   0  0  0  0  0  0  0  0  0  0  0  0
   -1.1996   -0.5687    0.3497 C   0  0  0  0  0  0  0  0  0  0  0  0
   -2.4345    0.1617    0.4716 N   0  0  0  0  0  0  0  0  0  0  0  0
    1.1696    0.2365    0.1326 C   0  0  0  0  0  0  0  0  0  0  0  0
    2.0877    0.9633   -0.8216 C   0  0  0  0  0  0  0  0  0  0  0  0
    3.3951    0.2334   -1.0283 C   0  0  0  0  0  0  0  0  0  0  0  0
    4.0740   -0.1429    0.2473 C   0  0  0  0  0  0  0  0  0  0  0  0
    3.1012   -0.7820    1.2046 C   0  0  0  0  0  0  0  0  0  0  0  0
    1.7872   -1.0781    0.4757 C   0  0  0  0  0  0  0  0  0  0  0  0
   -1.0309    2.2230    0.4870 N   0  0  0  0  0  0  0  0  0  0  0  0
   -3.9266    1.7073   -0.4505 N   0  0  0  0  0  0  0  0  0  0  0  0
   -1.4421   -1.9304   -0.2397 C   0  0  0  0  0  0  0  0  0  0  0  0
   -2.4649   -2.7202    0.5476 C   0  0  0  0  0  0  0  0  0  0  0  0
    5.4213   -1.2423   -0.1274 Cl  0  0  0  0  0  0  0  0  0  0  0  0
   -1.9057    1.3362   -1.5656 N   0  0  0  0  0  0  0  0  0  0  0  0
   -2.9117    0.7171   -0.7621 C   0  0  0  0  0  0  0  0  0  0  0  0
   -0.6953    1.5394   -0.7535 C   0  0  0  0  0  0  0  0  0  0  0  0
   -0.1772    0.1408   -0.4902 C   0  0  0  0  0  0  0  0  0  0  0  0
   -1.1996   -0.5687    0.3497 C   0  0  0  0  0  0  0  0  0  0  0  0
   -2.4345    0.1617    0.4716 N   0  0  0  0  0  0  0  0  0  0  0  0
    1.1696    0.2365    0.1326 C   0  0  0  0  0  0  0  0  0  0  0  0
    2.0877    0.9633   -0.8216 C   0  0  0  0  0  0  0  0  0  0  0  0
    3.3951    0.2334   -1.0283 C   0  0  0  0  0  0  0  0  0  0  0  0
    4.0740   -0.1429    0.2473 C   0  0  0  0  0  0  0  0  0  0  0  0
    3.1012   -0.7820    1.2046 C   0  0  0  0  0  0  0  0  0  0  0  0
    1.7872   -1.0781    0.4757 C   0  0  0  0  0  0  0  0  0  0  0  0
   -1.0309    2.2230    0.4870 N   0  0  0  0  0  0  0  0  0  0  0  0
   -3.9266    1.7073   -0.4505 N   0  0  0  0  0  0  0  0  0  0  0  0
   -1.4421   -1.9304   -0.2397 C   0  0  0  0  0  0  0  0  0  0  0  0
   -2.4649   -2.7202    0.5476 C   0  0  0  0  0  0  0  0  0  0  0  0
    5.4213   -1.2423   -0.1274 Cl  0  0  0  0  0  0  0  0  0  0  0  0
   -2.1724    2.2243   -1.9994 H   0  0  0  0  0  0  0  0  0  0  0  0
   -3.4254   -0.0652   -1.3838 H   0  0  0  0  0  0  0  0  0  0  0  0
    0.0020    2.1721   -1.3031 H   0  0  0  0  0  0  0  0  0  0  0  0
   -0.0975   -0.3520   -1.4873 H   0  0  0  0  0  0  0  0  0  0  0  0
   -0.7913   -0.7105    1.3718 H   0  0  0  0  0  0  0  0  0  0  0  0
   -3.1794   -0.5164    0.8073 H   0  0  0  0  0  0  0  0  0  0  0  0
    1.0670    0.8638    1.0600 H   0  0  0  0  0  0  0  0  0  0  0  0
    1.6264    1.0614   -1.8405 H   0  0  0  0  0  0  0  0  0  0  0  0
    2.2958    1.9822   -0.4760 H   0  0  0  0  0  0  0  0  0  0  0  0
    4.0702    0.9580   -1.5606 H   0  0  0  0  0  0  0  0  0  0  0  0
    3.2919   -0.6265   -1.7383 H   0  0  0  0  0  0  0  0  0  0  0  0
    4.5197    0.8045    0.6700 H   0  0  0  0  0  0  0  0  0  0  0  0
    2.8393    0.0148    1.9603 H   0  0  0  0  0  0  0  0  0  0  0  0
    3.4991   -1.6729    1.7110 H   0  0  0  0  0  0  0  0  0  0  0  0
    1.1486   -1.6626    1.1824 H   0  0  0  0  0  0  0  0  0  0  0  0
    2.0476   -1.6471   -0.4200 H   0  0  0  0  0  0  0  0  0  0  0  0
   -0.7869    1.6706    1.3318 H   0  0  0  0  0  0  0  0  0  0  0  0
   -0.5411    3.1407    0.5762 H   0  0  0  0  0  0  0  0  0  0  0  0
   -4.0125    1.8751    0.5759 H   0  0  0  0  0  0  0  0  0  0  0  0
   -3.7207    2.6419   -0.8797 H   0  0  0  0  0  0  0  0  0  0  0  0
   -1.8080   -1.7709   -1.2890 H   0  0  0  0  0  0  0  0  0  0  0  0
   -0.5293   -2.5215   -0.3033 H   0  0  0  0  0  0  0  0  0  0  0  0
   -2.5545   -2.3030    1.5932 H   0  0  0  0  0  0  0  0  0  0  0  0
   -2.1872   -3.7932    0.5987 H   0  0  0  0  0  0  0  0  0  0  0  0
   -3.4490   -2.5618    0.0398 H   0  0  0  0  0  0  0  0  0  0  0  0
   -2.1724    2.2243   -1.9994 H   0  0  0  0  0  0  0  0  0  0  0  0
   -3.4254   -0.0652   -1.3838 H   0  0  0  0  0  0  0  0  0  0  0  0
    0.0020    2.1721   -1.3031 H   0  0  0  0  0  0  0  0  0  0  0  0
   -0.0975   -0.3520   -1.4873 H   0  0  0  0  0  0  0  0  0  0  0  0
   -0.7913   -0.7105    1.3718 H   0  0  0  0  0  0  0  0  0  0  0  0
   -3.1794   -0.5164    0.8073 H   0  0  0  0  0  0  0  0  0  0  0  0
    1.0670    0.8638    1.0600 H   0  0  0  0  0  0  0  0  0  0  0  0
    1.6264    1.0614   -1.8405 H   0  0  0  0  0  0  0  0  0  0  0  0
    2.2958    1.9822   -0.4760 H   0  0  0  0  0  0  0  0  0  0  0  0
    4.0702    0.9580   -1.5606 H   0  0  0  0  0  0  0  0  0  0  0  0
    3.2919   -0.6265   -1.7383 H   0  0  0  0  0  0  0  0  0  0  0  0
    4.5197    0.8045    0.6700 H   0  0  0  0  0  0  0  0  0  0  0  0
    2.8393    0.0148    1.9603 H   0  0  0  0  0  0  0  0  0  0  0  0
    3.4991   -1.6729    1.7110 H   0  0  0  0  0  0  0  0  0  0  0  0
    1.1486   -1.6626    1.1824 H   0  0  0  0  0  0  0  0  0  0  0  0
    2.0476   -1.6471   -0.4200 H   0  0  0  0  0  0  0  0  0  0  0  0
   -0.7869    1.6706    1.3318 H   0  0  0  0  0  0  0  0  0  0  0  0
   -0.5411    3.1407    0.5762 H   0  0  0  0  0  0  0  0  0  0  0  0
   -4.0125    1.8751    0.5759 H   0  0  0  0  0  0  0  0  0  0  0  0
   -3.7207    2.6419   -0.8797 H   0  0  0  0  0  0  0  0  0  0  0  0
   -1.8080   -1.7709   -1.2890 H   0  0  0  0  0  0  0  0  0  0  0  0
   -0.5293   -2.5215   -0.3033 H   0  0  0  0  0  0  0  0  0  0  0  0
   -2.5545   -2.3030    1.5932 H   0  0  0  0  0  0  0  0  0  0  0  0
   -2.1872   -3.7932    0.5987 H   0  0  0  0  0  0  0  0  0  0  0  0
   -3.4490   -2.5618    0.0398 H   0  0  0  0  0  0  0  0  0  0  0  0
  1  2  1  0
  1  3  1  0
  3  4  1  0
  4  5  1  0
  2  6  1  0
  5  6  1  0
  4  7  1  0
  7  8  1  0
  8  9  1  0
  9 10  1  0
 10 11  1  0
  7 12  1  0
 11 12  1  0
  3 13  1  0
  2 14  1  0
  5 15  1  0
 15 16  1  0
 10 17  1  0
 18 19  1  0
 18 20  1  0
 20 21  1  0
 21 22  1  0
 19 23  1  0
 22 23  1  0
 21 24  1  0
 24 25  1  0
 25 26  1  0
 26 27  1  0
 27 28  1  0
 24 29  1  0
 28 29  1  0
 20 30  1  0
 19 31  1  0
 22 32  1  0
 32 33  1  0
 27 34  1  0
  1 35  1  0
  2 36  1  0
  3 37  1  0
  4 38  1  0
  5 39  1  0
  6 40  1  0
  7 41  1  0
  8 42  1  0
  8 43  1  0
  9 44  1  0
  9 45  1  0
 10 46  1  0
 11 47  1  0
 11 48  1  0
 12 49  1  0
 12 50  1  0
 13 51  1  0
 13 52  1  0
 14 53  1  0
 14 54  1  0
 15 55  1  0
 15 56  1  0
 16 57  1  0
 16 58  1  0
 16 59  1  0
 18 60  1  0
 19 61  1  0
 20 62  1  0
 21 63  1  0
 22 64  1  0
 23 65  1  0
 24 66  1  0
 25 67  1  0
 25 68  1  0
 26 69  1  0
 26 70  1  0
 27 71  1  0
 28 72  1  0
 28 73  1  0
 29 74  1  0
 29 75  1  0
 30 76  1  0
 30 77  1  0
 31 78  1  0
 31 79  1  0
 32 80  1  0
 32 81  1  0
 33 82  1  0
 33 83  1  0
 33 84  1  0
M  END
>  <PDBID>  (1) 
3QFX

>  <PDB ID>  (1) 
3QFX

>  <Generic Name>  (1) 
Pyrimethamine

>  <Brand Name>  (1) 
Daraprim#Fansidar Tablets#Pyrimethamine Leucovorin

>  <DrugBank ID>  (1) 
DB00205

>  <ATC Codes>  (1) 
P01BF04#P01BD01#P01BD51

>  <Ligand ID>  (1) 
CP6

>  <Target Name>  (1) 
Dihydrofolate reductase

>  <UniProt ID>  (1) 
P00374

>  <PDB ID.1>  (1) 
3QFX

>  <Seq. Identity>  (1) 
32%

$$$$
