PDB_DB05812_09
     RDKit          3D

268284  0  0  0  0  0  0  0  0999 V2000
   -3.6624   -1.7381    0.1156 C   0  0  0  0  0  0  0  0  0  0  0  0
   -5.1430   -1.6727   -0.0485 C   0  0  0  0  0  0  0  0  0  0  0  0
   -5.6572   -0.5196    0.7897 C   0  0  2  0  0  0  0  0  0  0  0  0
   -7.0390   -0.4113    0.7002 O   0  0  0  0  0  0  0  0  0  0  0  0
   -5.0591    0.7423    0.2396 C   0  0  0  0  0  0  0  0  0  0  0  0
   -3.5623    0.7678    0.2732 C   0  0  0  0  0  0  0  0  0  0  0  0
   -3.1120    1.0362    1.6706 C   0  0  0  0  0  0  0  0  0  0  0  0
   -1.6767    0.7221    1.9249 C   0  0  0  0  0  0  0  0  0  0  0  0
   -0.9515    0.6836    0.5709 C   0  0  2  0  0  0  0  0  0  0  0  0
   -1.4996   -0.5632   -0.1219 C   0  0  1  0  0  0  0  0  0  0  0  0
   -2.9777   -0.4717   -0.3350 C   0  0  1  0  0  0  0  0  0  0  0  0
   -0.7310   -0.9092   -1.3531 C   0  0  0  0  0  0  0  0  0  0  0  0
    0.7208   -1.1541   -0.9556 C   0  0  0  0  0  0  0  0  0  0  0  0
    1.3134    0.0803   -0.3792 C   0  0  1  0  0  0  0  0  0  0  0  0
    0.4637    0.4638    0.8470 C   0  0  1  0  0  0  0  0  0  0  0  0
    1.2598    1.6010    1.3812 C   0  0  0  0  0  0  0  0  0  0  0  0
    2.7187    1.1916    1.1070 C   0  0  0  0  0  0  0  0  0  0  0  0
    2.5841   -0.1210    0.3666 C   0  0  0  0  0  0  0  0  0  0  0  0
    1.2817    1.2645   -1.2943 C   0  0  0  0  0  0  0  0  0  0  0  0
   -3.2156   -0.3727   -1.8475 C   0  0  0  0  0  0  0  0  0  0  0  0
    3.7589   -0.6079   -0.3181 C   0  0  0  0  0  0  0  0  0  0  0  0
    4.3381    0.1465   -1.4394 C   0  0  0  0  0  0  0  0  0  0  0  0
    5.3119    1.1104   -0.9043 N   0  0  0  0  0  0  0  0  0  0  0  0
    6.5204    0.3672   -0.5975 C   0  0  0  0  0  0  0  0  0  0  0  0
    6.1492   -1.0069   -0.0348 C   0  0  0  0  0  0  0  0  0  0  0  0
    4.8617   -0.8095    0.7361 C   0  0  0  0  0  0  0  0  0  0  0  0
   -3.6624   -1.7381    0.1156 C   0  0  0  0  0  0  0  0  0  0  0  0
   -5.1430   -1.6727   -0.0485 C   0  0  0  0  0  0  0  0  0  0  0  0
   -5.6572   -0.5196    0.7897 C   0  0  2  0  0  0  0  0  0  0  0  0
   -7.0390   -0.4113    0.7002 O   0  0  0  0  0  0  0  0  0  0  0  0
   -5.0591    0.7423    0.2396 C   0  0  0  0  0  0  0  0  0  0  0  0
   -3.5623    0.7678    0.2732 C   0  0  0  0  0  0  0  0  0  0  0  0
   -3.1120    1.0362    1.6706 C   0  0  0  0  0  0  0  0  0  0  0  0
   -1.6767    0.7221    1.9249 C   0  0  0  0  0  0  0  0  0  0  0  0
   -0.9515    0.6836    0.5709 C   0  0  2  0  0  0  0  0  0  0  0  0
   -1.4996   -0.5632   -0.1219 C   0  0  1  0  0  0  0  0  0  0  0  0
   -2.9777   -0.4717   -0.3350 C   0  0  1  0  0  0  0  0  0  0  0  0
   -0.7310   -0.9092   -1.3531 C   0  0  0  0  0  0  0  0  0  0  0  0
    0.7208   -1.1541   -0.9556 C   0  0  0  0  0  0  0  0  0  0  0  0
    1.3134    0.0803   -0.3792 C   0  0  1  0  0  0  0  0  0  0  0  0
    0.4637    0.4638    0.8470 C   0  0  1  0  0  0  0  0  0  0  0  0
    1.2598    1.6010    1.3812 C   0  0  0  0  0  0  0  0  0  0  0  0
    2.7187    1.1916    1.1070 C   0  0  0  0  0  0  0  0  0  0  0  0
    2.5841   -0.1210    0.3666 C   0  0  0  0  0  0  0  0  0  0  0  0
    1.2817    1.2645   -1.2943 C   0  0  0  0  0  0  0  0  0  0  0  0
   -3.2156   -0.3727   -1.8475 C   0  0  0  0  0  0  0  0  0  0  0  0
    3.7589   -0.6079   -0.3181 C   0  0  0  0  0  0  0  0  0  0  0  0
    4.3381    0.1465   -1.4394 C   0  0  0  0  0  0  0  0  0  0  0  0
    5.3119    1.1104   -0.9043 N   0  0  0  0  0  0  0  0  0  0  0  0
    6.5204    0.3672   -0.5975 C   0  0  0  0  0  0  0  0  0  0  0  0
    6.1492   -1.0069   -0.0348 C   0  0  0  0  0  0  0  0  0  0  0  0
    4.8617   -0.8095    0.7361 C   0  0  0  0  0  0  0  0  0  0  0  0
   -3.2647   -1.8264    0.5356 C   0  0  0  0  0  0  0  0  0  0  0  0
   -4.7407   -1.8975    0.3657 C   0  0  0  0  0  0  0  0  0  0  0  0
   -5.4899   -0.6900    0.7976 C   0  0  2  0  0  0  0  0  0  0  0  0
   -6.6959   -0.6559    0.0588 O   0  0  0  0  0  0  0  0  0  0  0  0
   -4.7981    0.6062    0.5718 C   0  0  0  0  0  0  0  0  0  0  0  0
   -3.3220    0.5741    0.9243 C   0  0  0  0  0  0  0  0  0  0  0  0
   -2.7586    1.9391    0.6009 C   0  0  0  0  0  0  0  0  0  0  0  0
   -1.2743    1.9575    0.4806 C   0  0  0  0  0  0  0  0  0  0  0  0
   -0.7286    0.8265   -0.3781 C   0  0  2  0  0  0  0  0  0  0  0  0
   -1.2190   -0.4551    0.2357 C   0  0  1  0  0  0  0  0  0  0  0  0
   -2.7032   -0.5069    0.0620 C   0  0  1  0  0  0  0  0  0  0  0  0
   -0.6071   -1.6886   -0.2873 C   0  0  0  0  0  0  0  0  0  0  0  0
    0.8945   -1.6530   -0.4565 C   0  0  0  0  0  0  0  0  0  0  0  0
    1.3081   -0.3575   -0.9670 C   0  0  1  0  0  0  0  0  0  0  0  0
    0.7497    0.8566   -0.2780 C   0  0  1  0  0  0  0  0  0  0  0  0
    1.4269    1.9615   -1.0314 C   0  0  0  0  0  0  0  0  0  0  0  0
    2.6163    1.3282   -1.7704 C   0  0  0  0  0  0  0  0  0  0  0  0
    2.7497   -0.0266   -1.0296 C   0  0  1  0  0  0  0  0  0  0  0  0
    0.7897   -0.2785   -2.4189 C   0  0  0  0  0  0  0  0  0  0  0  0
   -3.0840   -0.2407   -1.3553 C   0  0  0  0  0  0  0  0  0  0  0  0
    3.4343    0.3378    0.2246 C   0  0  1  0  0  0  0  0  0  0  0  0
    3.4607   -0.6404    1.3239 C   0  0  0  0  0  0  0  0  0  0  0  0
    4.4689   -0.1877    2.3006 N   0  0  0  0  0  0  0  0  0  0  0  0
    5.7993   -0.3801    1.8527 C   0  0  0  0  0  0  0  0  0  0  0  0
    5.8155   -0.4591    0.3565 C   0  0  0  0  0  0  0  0  0  0  0  0
    4.8920    0.6600   -0.1387 C   0  0  0  0  0  0  0  0  0  0  0  0
   -3.6834   -1.7148    0.1566 C   0  0  0  0  0  0  0  0  0  0  0  0
   -5.1691   -1.5992   -0.0797 C   0  0  0  0  0  0  0  0  0  0  0  0
   -5.6743   -0.4513    0.7532 C   0  0  2  0  0  0  0  0  0  0  0  0
   -7.0494   -0.3109    0.6889 O   0  0  0  0  0  0  0  0  0  0  0  0
   -5.0331    0.8092    0.2419 C   0  0  0  0  0  0  0  0  0  0  0  0
   -3.5331    0.7563    0.2610 C   0  0  1  0  0  0  0  0  0  0  0  0
   -3.0953    0.9409    1.6762 C   0  0  0  0  0  0  0  0  0  0  0  0
   -1.6989    0.4570    1.9557 C   0  0  0  0  0  0  0  0  0  0  0  0
   -0.9454    0.5881    0.6202 C   0  0  2  0  0  0  0  0  0  0  0  0
   -1.5047   -0.5661   -0.2106 C   0  0  1  0  0  0  0  0  0  0  0  0
   -2.9762   -0.4716   -0.4027 C   0  0  1  0  0  0  0  0  0  0  0  0
   -0.7119   -0.7081   -1.4703 C   0  0  0  0  0  0  0  0  0  0  0  0
    0.7106   -1.1133   -1.0516 C   0  0  0  0  0  0  0  0  0  0  0  0
    1.3123    0.0521   -0.3667 C   0  0  1  0  0  0  0  0  0  0  0  0
    0.4648    0.3399    0.8858 C   0  0  1  0  0  0  0  0  0  0  0  0
    1.2607    1.4458    1.4879 C   0  0  0  0  0  0  0  0  0  0  0  0
    2.7210    1.0518    1.2026 C   0  0  0  0  0  0  0  0  0  0  0  0
    2.5902   -0.1898    0.3470 C   0  0  0  0  0  0  0  0  0  0  0  0
    1.2714    1.3005   -1.1931 C   0  0  0  0  0  0  0  0  0  0  0  0
   -3.3686   -0.4133   -1.8740 C   0  0  0  0  0  0  0  0  0  0  0  0
    3.7701   -0.6073   -0.3747 C   0  0  0  0  0  0  0  0  0  0  0  0
    4.3493    0.2164   -1.4353 C   0  0  0  0  0  0  0  0  0  0  0  0
    5.3328    1.1802   -0.9049 N   0  0  0  0  0  0  0  0  0  0  0  0
    6.5555    0.4350   -0.5663 C   0  0  0  0  0  0  0  0  0  0  0  0
    6.2109   -0.9488   -0.0364 C   0  0  0  0  0  0  0  0  0  0  0  0
    4.8807   -0.8426    0.6692 C   0  0  0  0  0  0  0  0  0  0  0  0
   -3.2834   -2.5616   -0.5254 H   0  0  0  0  0  0  0  0  0  0  0  0
   -3.4323   -1.8846    1.1831 H   0  0  0  0  0  0  0  0  0  0  0  0
   -5.4705   -1.5653   -1.0975 H   0  0  0  0  0  0  0  0  0  0  0  0
   -5.5951   -2.5931    0.3411 H   0  0  0  0  0  0  0  0  0  0  0  0
   -5.3909   -0.7149    1.8296 H   0  0  0  0  0  0  0  0  0  0  0  0
   -7.3513    0.1805    1.4256 H   0  0  0  0  0  0  0  0  0  0  0  0
   -5.4904    0.9332   -0.7627 H   0  0  0  0  0  0  0  0  0  0  0  0
   -5.4159    1.5784    0.9085 H   0  0  0  0  0  0  0  0  0  0  0  0
   -3.2421    1.6264   -0.3849 H   0  0  0  0  0  0  0  0  0  0  0  0
   -3.7663    0.5525    2.4392 H   0  0  0  0  0  0  0  0  0  0  0  0
   -3.2495    2.1432    1.8491 H   0  0  0  0  0  0  0  0  0  0  0  0
   -1.2185    1.4768    2.5982 H   0  0  0  0  0  0  0  0  0  0  0  0
   -1.6339   -0.3032    2.3965 H   0  0  0  0  0  0  0  0  0  0  0  0
   -1.2428    1.6011    0.0610 H   0  0  0  0  0  0  0  0  0  0  0  0
   -1.3198   -1.3983    0.6182 H   0  0  0  0  0  0  0  0  0  0  0  0
   -1.1101   -1.8851   -1.7201 H   0  0  0  0  0  0  0  0  0  0  0  0
   -0.7250   -0.1282   -2.1189 H   0  0  0  0  0  0  0  0  0  0  0  0
    0.7955   -1.9636   -0.2132 H   0  0  0  0  0  0  0  0  0  0  0  0
    1.2389   -1.4907   -1.8675 H   0  0  0  0  0  0  0  0  0  0  0  0
    0.5779   -0.3923    1.5449 H   0  0  0  0  0  0  0  0  0  0  0  0
    1.0252    2.5751    0.9254 H   0  0  0  0  0  0  0  0  0  0  0  0
    1.1412    1.6527    2.4694 H   0  0  0  0  0  0  0  0  0  0  0  0
    3.2575    0.9909    2.0571 H   0  0  0  0  0  0  0  0  0  0  0  0
    3.2725    1.9563    0.5727 H   0  0  0  0  0  0  0  0  0  0  0  0
    2.3378   -0.8710    1.1847 H   0  0  0  0  0  0  0  0  0  0  0  0
    2.0612    2.0193   -1.0642 H   0  0  0  0  0  0  0  0  0  0  0  0
    1.3012    0.9525   -2.3808 H   0  0  0  0  0  0  0  0  0  0  0  0
    0.3124    1.8442   -1.2239 H   0  0  0  0  0  0  0  0  0  0  0  0
   -2.9611   -1.3146   -2.3613 H   0  0  0  0  0  0  0  0  0  0  0  0
   -2.6723    0.5021   -2.2591 H   0  0  0  0  0  0  0  0  0  0  0  0
   -4.2951   -0.1811   -2.0393 H   0  0  0  0  0  0  0  0  0  0  0  0
    3.5463   -1.6581   -0.6794 H   0  0  0  0  0  0  0  0  0  0  0  0
    4.9721   -0.5571   -2.0618 H   0  0  0  0  0  0  0  0  0  0  0  0
    3.6582    0.6075   -2.1502 H   0  0  0  0  0  0  0  0  0  0  0  0
    5.5629    1.7463   -1.7112 H   0  0  0  0  0  0  0  0  0  0  0  0
    7.0948    0.1413   -1.5396 H   0  0  0  0  0  0  0  0  0  0  0  0
    7.1615    0.8532    0.1415 H   0  0  0  0  0  0  0  0  0  0  0  0
    6.9393   -1.3733    0.6541 H   0  0  0  0  0  0  0  0  0  0  0  0
    6.0341   -1.7659   -0.8139 H   0  0  0  0  0  0  0  0  0  0  0  0
    4.9514    0.1780    1.2626 H   0  0  0  0  0  0  0  0  0  0  0  0
    4.6294   -1.6261    1.4186 H   0  0  0  0  0  0  0  0  0  0  0  0
   -3.2834   -2.5616   -0.5254 H   0  0  0  0  0  0  0  0  0  0  0  0
   -3.4323   -1.8846    1.1831 H   0  0  0  0  0  0  0  0  0  0  0  0
   -5.4705   -1.5653   -1.0975 H   0  0  0  0  0  0  0  0  0  0  0  0
   -5.5951   -2.5931    0.3411 H   0  0  0  0  0  0  0  0  0  0  0  0
   -5.3909   -0.7149    1.8296 H   0  0  0  0  0  0  0  0  0  0  0  0
   -7.3513    0.1805    1.4256 H   0  0  0  0  0  0  0  0  0  0  0  0
   -5.4904    0.9332   -0.7627 H   0  0  0  0  0  0  0  0  0  0  0  0
   -5.4159    1.5784    0.9085 H   0  0  0  0  0  0  0  0  0  0  0  0
   -3.2421    1.6264   -0.3849 H   0  0  0  0  0  0  0  0  0  0  0  0
   -3.7663    0.5525    2.4392 H   0  0  0  0  0  0  0  0  0  0  0  0
   -3.2495    2.1432    1.8491 H   0  0  0  0  0  0  0  0  0  0  0  0
   -1.2185    1.4768    2.5982 H   0  0  0  0  0  0  0  0  0  0  0  0
   -1.6339   -0.3032    2.3965 H   0  0  0  0  0  0  0  0  0  0  0  0
   -1.2428    1.6011    0.0610 H   0  0  0  0  0  0  0  0  0  0  0  0
   -1.3198   -1.3983    0.6182 H   0  0  0  0  0  0  0  0  0  0  0  0
   -1.1101   -1.8851   -1.7201 H   0  0  0  0  0  0  0  0  0  0  0  0
   -0.7250   -0.1282   -2.1189 H   0  0  0  0  0  0  0  0  0  0  0  0
    0.7955   -1.9636   -0.2132 H   0  0  0  0  0  0  0  0  0  0  0  0
    1.2389   -1.4907   -1.8675 H   0  0  0  0  0  0  0  0  0  0  0  0
    0.5779   -0.3923    1.5449 H   0  0  0  0  0  0  0  0  0  0  0  0
    1.0252    2.5751    0.9254 H   0  0  0  0  0  0  0  0  0  0  0  0
    1.1412    1.6527    2.4694 H   0  0  0  0  0  0  0  0  0  0  0  0
    3.2575    0.9909    2.0571 H   0  0  0  0  0  0  0  0  0  0  0  0
    3.2725    1.9563    0.5727 H   0  0  0  0  0  0  0  0  0  0  0  0
    2.3378   -0.8710    1.1847 H   0  0  0  0  0  0  0  0  0  0  0  0
    2.0612    2.0193   -1.0642 H   0  0  0  0  0  0  0  0  0  0  0  0
    1.3012    0.9525   -2.3808 H   0  0  0  0  0  0  0  0  0  0  0  0
    0.3124    1.8442   -1.2239 H   0  0  0  0  0  0  0  0  0  0  0  0
   -2.9611   -1.3146   -2.3613 H   0  0  0  0  0  0  0  0  0  0  0  0
   -2.6723    0.5021   -2.2591 H   0  0  0  0  0  0  0  0  0  0  0  0
   -4.2951   -0.1811   -2.0393 H   0  0  0  0  0  0  0  0  0  0  0  0
    3.5463   -1.6581   -0.6794 H   0  0  0  0  0  0  0  0  0  0  0  0
    4.9721   -0.5571   -2.0618 H   0  0  0  0  0  0  0  0  0  0  0  0
    3.6582    0.6075   -2.1502 H   0  0  0  0  0  0  0  0  0  0  0  0
    5.5629    1.7463   -1.7112 H   0  0  0  0  0  0  0  0  0  0  0  0
    7.0948    0.1413   -1.5396 H   0  0  0  0  0  0  0  0  0  0  0  0
    7.1615    0.8532    0.1415 H   0  0  0  0  0  0  0  0  0  0  0  0
    6.9393   -1.3733    0.6541 H   0  0  0  0  0  0  0  0  0  0  0  0
    6.0341   -1.7659   -0.8139 H   0  0  0  0  0  0  0  0  0  0  0  0
    4.9514    0.1780    1.2626 H   0  0  0  0  0  0  0  0  0  0  0  0
    4.6294   -1.6261    1.4186 H   0  0  0  0  0  0  0  0  0  0  0  0
   -2.8062   -2.6204   -0.1096 H   0  0  0  0  0  0  0  0  0  0  0  0
   -2.9999   -2.0004    1.5825 H   0  0  0  0  0  0  0  0  0  0  0  0
   -5.0175   -2.2085   -0.6837 H   0  0  0  0  0  0  0  0  0  0  0  0
   -5.1054   -2.7602    0.9978 H   0  0  0  0  0  0  0  0  0  0  0  0
   -5.8135   -0.7273    1.8644 H   0  0  0  0  0  0  0  0  0  0  0  0
   -6.8305    0.1936   -0.3959 H   0  0  0  0  0  0  0  0  0  0  0  0
   -5.2555    1.3814    1.2540 H   0  0  0  0  0  0  0  0  0  0  0  0
   -4.9514    1.0146   -0.4604 H   0  0  0  0  0  0  0  0  0  0  0  0
   -3.2575    0.3287    2.0054 H   0  0  0  0  0  0  0  0  0  0  0  0
   -3.2868    2.3963   -0.2627 H   0  0  0  0  0  0  0  0  0  0  0  0
   -3.0251    2.5929    1.4787 H   0  0  0  0  0  0  0  0  0  0  0  0
   -0.9601    2.9380    0.1112 H   0  0  0  0  0  0  0  0  0  0  0  0
   -0.8580    1.7657    1.5126 H   0  0  0  0  0  0  0  0  0  0  0  0
   -1.1204    0.9958   -1.3987 H   0  0  0  0  0  0  0  0  0  0  0  0
   -0.9768   -0.3858    1.3365 H   0  0  0  0  0  0  0  0  0  0  0  0
   -0.8126   -2.5127    0.4599 H   0  0  0  0  0  0  0  0  0  0  0  0
   -1.1247   -2.0600   -1.2206 H   0  0  0  0  0  0  0  0  0  0  0  0
    1.3864   -2.0436    0.4411 H   0  0  0  0  0  0  0  0  0  0  0  0
    1.1104   -2.4280   -1.2566 H   0  0  0  0  0  0  0  0  0  0  0  0
    1.0287    0.9244    0.7908 H   0  0  0  0  0  0  0  0  0  0  0  0
    0.7612    2.5001   -1.7330 H   0  0  0  0  0  0  0  0  0  0  0  0
    1.8044    2.7269   -0.3190 H   0  0  0  0  0  0  0  0  0  0  0  0
    3.4881    1.9617   -1.6079 H   0  0  0  0  0  0  0  0  0  0  0  0
    2.4240    1.1897   -2.8300 H   0  0  0  0  0  0  0  0  0  0  0  0
    3.3428   -0.7108   -1.6646 H   0  0  0  0  0  0  0  0  0  0  0  0
    0.4457    0.7189   -2.6757 H   0  0  0  0  0  0  0  0  0  0  0  0
   -0.0568   -0.9776   -2.5759 H   0  0  0  0  0  0  0  0  0  0  0  0
    1.6106   -0.6630   -3.0824 H   0  0  0  0  0  0  0  0  0  0  0  0
   -2.3894   -0.6704   -2.1047 H   0  0  0  0  0  0  0  0  0  0  0  0
   -4.0894   -0.6434   -1.6060 H   0  0  0  0  0  0  0  0  0  0  0  0
   -3.1459    0.8602   -1.5975 H   0  0  0  0  0  0  0  0  0  0  0  0
    3.0245    1.3071    0.6243 H   0  0  0  0  0  0  0  0  0  0  0  0
    2.5167   -0.5636    1.9434 H   0  0  0  0  0  0  0  0  0  0  0  0
    3.6799   -1.6712    1.0246 H   0  0  0  0  0  0  0  0  0  0  0  0
    4.2161    0.7963    2.5191 H   0  0  0  0  0  0  0  0  0  0  0  0
    6.3195   -1.2257    2.3470 H   0  0  0  0  0  0  0  0  0  0  0  0
    6.3922    0.5411    2.1288 H   0  0  0  0  0  0  0  0  0  0  0  0
    6.8182   -0.2243   -0.0141 H   0  0  0  0  0  0  0  0  0  0  0  0
    5.5088   -1.4351   -0.0347 H   0  0  0  0  0  0  0  0  0  0  0  0
    5.2396    1.5866    0.3174 H   0  0  0  0  0  0  0  0  0  0  0  0
    5.0461    0.7090   -1.2237 H   0  0  0  0  0  0  0  0  0  0  0  0
   -3.3345   -2.5993   -0.4288 H   0  0  0  0  0  0  0  0  0  0  0  0
   -3.5141   -1.8312    1.2333 H   0  0  0  0  0  0  0  0  0  0  0  0
   -5.4279   -1.4533   -1.1443 H   0  0  0  0  0  0  0  0  0  0  0  0
   -5.6275   -2.5270    0.3517 H   0  0  0  0  0  0  0  0  0  0  0  0
   -5.4145   -0.6751    1.8084 H   0  0  0  0  0  0  0  0  0  0  0  0
   -7.3405    0.1169    1.5360 H   0  0  0  0  0  0  0  0  0  0  0  0
   -5.4742    1.0833   -0.7121 H   0  0  0  0  0  0  0  0  0  0  0  0
   -5.3269    1.6232    0.9681 H   0  0  0  0  0  0  0  0  0  0  0  0
   -3.1808    1.6327   -0.3591 H   0  0  0  0  0  0  0  0  0  0  0  0
   -3.0820    2.0547    1.8707 H   0  0  0  0  0  0  0  0  0  0  0  0
   -3.8212    0.5404    2.4174 H   0  0  0  0  0  0  0  0  0  0  0  0
   -1.1576    1.0819    2.6746 H   0  0  0  0  0  0  0  0  0  0  0  0
   -1.6537   -0.6021    2.2760 H   0  0  0  0  0  0  0  0  0  0  0  0
   -1.2284    1.5673    0.2268 H   0  0  0  0  0  0  0  0  0  0  0  0
   -1.2888   -1.4868    0.4082 H   0  0  0  0  0  0  0  0  0  0  0  0
   -0.5811    0.2490   -2.0251 H   0  0  0  0  0  0  0  0  0  0  0  0
   -1.0792   -1.5146   -2.1036 H   0  0  0  0  0  0  0  0  0  0  0  0
    0.7032   -2.0040   -0.4263 H   0  0  0  0  0  0  0  0  0  0  0  0
    1.2533   -1.2604   -2.0291 H   0  0  0  0  0  0  0  0  0  0  0  0
    0.5579   -0.5465    1.5759 H   0  0  0  0  0  0  0  0  0  0  0  0
    1.1162    1.4988    2.5885 H   0  0  0  0  0  0  0  0  0  0  0  0
    1.1119    2.4225    1.0133 H   0  0  0  0  0  0  0  0  0  0  0  0
    3.2220    0.7784    2.1773 H   0  0  0  0  0  0  0  0  0  0  0  0
    3.2781    1.8584    0.7345 H   0  0  0  0  0  0  0  0  0  0  0  0
    2.3588   -1.0085    1.1006 H   0  0  0  0  0  0  0  0  0  0  0  0
    1.3146    1.0606   -2.2953 H   0  0  0  0  0  0  0  0  0  0  0  0
    0.2856    1.8486   -1.1043 H   0  0  0  0  0  0  0  0  0  0  0  0
    2.0225    2.0597   -0.9015 H   0  0  0  0  0  0  0  0  0  0  0  0
   -3.7116   -1.4148   -2.2441 H   0  0  0  0  0  0  0  0  0  0  0  0
   -2.5216   -0.1324   -2.5237 H   0  0  0  0  0  0  0  0  0  0  0  0
   -4.1833    0.2852   -2.0737 H   0  0  0  0  0  0  0  0  0  0  0  0
    3.5833   -1.6431   -0.7903 H   0  0  0  0  0  0  0  0  0  0  0  0
    4.9664   -0.4225   -2.1383 H   0  0  0  0  0  0  0  0  0  0  0  0
    3.6849    0.7897   -2.0699 H   0  0  0  0  0  0  0  0  0  0  0  0
    5.5910    1.8110   -1.6957 H   0  0  0  0  0  0  0  0  0  0  0  0
    7.1885    0.3557   -1.4906 H   0  0  0  0  0  0  0  0  0  0  0  0
    7.0867    1.0246    0.1956 H   0  0  0  0  0  0  0  0  0  0  0  0
    6.9557   -1.2851    0.7073 H   0  0  0  0  0  0  0  0  0  0  0  0
    6.1163   -1.6890   -0.8785 H   0  0  0  0  0  0  0  0  0  0  0  0
    4.9138    0.0979    1.2645 H   0  0  0  0  0  0  0  0  0  0  0  0
    4.6518   -1.6785    1.3255 H   0  0  0  0  0  0  0  0  0  0  0  0
  1  2  1  0
  2  3  1  0
  3  4  1  0
  3  5  1  0
  5  6  1  0
  6  7  1  0
  7  8  1  0
  8  9  1  0
  9 10  1  0
  1 11  1  0
  6 11  1  0
 10 11  1  0
 10 12  1  0
 12 13  1  0
 13 14  1  0
  9 15  1  0
 14 15  1  0
 15 16  1  0
 16 17  1  0
 14 18  1  0
 17 18  1  0
 14 19  1  6
 11 20  1  6
 18 21  1  0
 21 22  1  0
 22 23  1  0
 24 23  1  0
 24 25  1  0
 21 26  1  0
 25 26  1  0
 27 28  1  0
 28 29  1  0
 29 30  1  0
 29 31  1  0
 31 32  1  0
 32 33  1  0
 33 34  1  0
 34 35  1  0
 35 36  1  0
 27 37  1  0
 32 37  1  0
 36 37  1  0
 36 38  1  0
 38 39  1  0
 39 40  1  0
 35 41  1  0
 40 41  1  0
 41 42  1  0
 42 43  1  0
 40 44  1  0
 43 44  1  0
 40 45  1  6
 37 46  1  6
 44 47  1  0
 47 48  1  0
 48 49  1  0
 50 49  1  0
 50 51  1  0
 47 52  1  0
 51 52  1  0
 53 54  1  0
 54 55  1  0
 55 56  1  0
 55 57  1  0
 57 58  1  0
 58 59  1  0
 59 60  1  0
 60 61  1  0
 61 62  1  0
 53 63  1  0
 58 63  1  0
 62 63  1  0
 62 64  1  0
 64 65  1  0
 65 66  1  0
 61 67  1  0
 66 67  1  0
 67 68  1  0
 68 69  1  0
 66 70  1  0
 69 70  1  0
 66 71  1  6
 63 72  1  6
 70 73  1  0
 73 74  1  0
 74 75  1  0
 76 75  1  0
 76 77  1  0
 73 78  1  0
 77 78  1  0
 79 80  1  0
 80 81  1  0
 81 82  1  0
 81 83  1  0
 83 84  1  0
 84 85  1  0
 85 86  1  0
 86 87  1  0
 87 88  1  0
 79 89  1  0
 84 89  1  0
 88 89  1  0
 88 90  1  0
 90 91  1  0
 91 92  1  0
 87 93  1  0
 92 93  1  0
 93 94  1  0
 94 95  1  0
 92 96  1  0
 95 96  1  0
 92 97  1  6
 89 98  1  6
 96 99  1  0
 99100  1  0
100101  1  0
102101  1  0
102103  1  0
 99104  1  0
103104  1  0
  1105  1  0
  1106  1  0
  2107  1  0
  2108  1  0
  3109  1  1
  4110  1  0
  5111  1  0
  5112  1  0
  6113  1  0
  7114  1  0
  7115  1  0
  8116  1  0
  8117  1  0
  9118  1  6
 10119  1  1
 12120  1  0
 12121  1  0
 13122  1  0
 13123  1  0
 15124  1  1
 16125  1  0
 16126  1  0
 17127  1  0
 17128  1  0
 18129  1  0
 19130  1  0
 19131  1  0
 19132  1  0
 20133  1  0
 20134  1  0
 20135  1  0
 21136  1  0
 22137  1  0
 22138  1  0
 23139  1  0
 24140  1  0
 24141  1  0
 25142  1  0
 25143  1  0
 26144  1  0
 26145  1  0
 27146  1  0
 27147  1  0
 28148  1  0
 28149  1  0
 29150  1  1
 30151  1  0
 31152  1  0
 31153  1  0
 32154  1  0
 33155  1  0
 33156  1  0
 34157  1  0
 34158  1  0
 35159  1  6
 36160  1  1
 38161  1  0
 38162  1  0
 39163  1  0
 39164  1  0
 41165  1  1
 42166  1  0
 42167  1  0
 43168  1  0
 43169  1  0
 44170  1  0
 45171  1  0
 45172  1  0
 45173  1  0
 46174  1  0
 46175  1  0
 46176  1  0
 47177  1  0
 48178  1  0
 48179  1  0
 49180  1  0
 50181  1  0
 50182  1  0
 51183  1  0
 51184  1  0
 52185  1  0
 52186  1  0
 53187  1  0
 53188  1  0
 54189  1  0
 54190  1  0
 55191  1  1
 56192  1  0
 57193  1  0
 57194  1  0
 58195  1  0
 59196  1  0
 59197  1  0
 60198  1  0
 60199  1  0
 61200  1  6
 62201  1  1
 64202  1  0
 64203  1  0
 65204  1  0
 65205  1  0
 67206  1  1
 68207  1  0
 68208  1  0
 69209  1  0
 69210  1  0
 70211  1  6
 71212  1  0
 71213  1  0
 71214  1  0
 72215  1  0
 72216  1  0
 72217  1  0
 73218  1  1
 74219  1  0
 74220  1  0
 75221  1  0
 76222  1  0
 76223  1  0
 77224  1  0
 77225  1  0
 78226  1  0
 78227  1  0
 79228  1  0
 79229  1  0
 80230  1  0
 80231  1  0
 81232  1  1
 82233  1  0
 83234  1  0
 83235  1  0
 84236  1  6
 85237  1  0
 85238  1  0
 86239  1  0
 86240  1  0
 87241  1  6
 88242  1  1
 90243  1  0
 90244  1  0
 91245  1  0
 91246  1  0
 93247  1  1
 94248  1  0
 94249  1  0
 95250  1  0
 95251  1  0
 96252  1  0
 97253  1  0
 97254  1  0
 97255  1  0
 98256  1  0
 98257  1  0
 98258  1  0
 99259  1  0
100260  1  0
100261  1  0
101262  1  0
102263  1  0
102264  1  0
103265  1  0
103266  1  0
104267  1  0
104268  1  0
M  END
>  <PDBID>  (1) 
3RUK

>  <PDB ID>  (1) 
3RUK

>  <Generic Name>  (1) 
Abiraterone

>  <Brand Name>  (1) 
Zytiga

>  <DrugBank ID>  (1) 
DB05812

>  <ATC Codes>  (1) 
L02BX03

>  <Ligand ID>  (1) 
AER

>  <Target Name>  (1) 
Steroid 17-alpha-hydroxylase/17,20 lyase

>  <UniProt ID>  (1) 
P05093

>  <PDB ID.1>  (1) 
3RUK

>  <Seq. Identity>  (1) 
97%

$$$$
