PDB_DB01127_05
     RDKit          3D

110114  0  0  0  0  0  0  0  0999 V2000
    2.1708   -0.0367    0.0096 C   0  0  0  0  0  0  0  0  0  0  0  0
    2.4808    1.3251   -0.4970 C   0  0  0  0  0  0  0  0  0  0  0  0
   -4.0623    0.8584   -0.8536 Cl  0  0  0  0  0  0  0  0  0  0  0  0
   -2.8452   -3.8799    1.3446 C   0  0  0  0  0  0  0  0  0  0  0  0
   -2.5470   -3.5930   -0.1068 C   0  0  0  0  0  0  0  0  0  0  0  0
    4.3919   -0.8291   -0.7756 C   0  0  0  0  0  0  0  0  0  0  0  0
    3.3562   -0.9089    0.3115 C   0  0  0  0  0  0  0  0  0  0  0  0
    4.9012    0.6186   -0.7180 C   0  0  0  0  0  0  0  0  0  0  0  0
    5.4268    1.0043    0.9160 Cl  0  0  0  0  0  0  0  0  0  0  0  0
   -2.3604    1.4009   -1.0766 C   0  0  0  0  0  0  0  0  0  0  0  0
   -2.4343    2.9057   -1.2464 C   0  0  0  0  0  0  0  0  0  0  0  0
   -2.6311    3.6126    0.0648 C   0  0  0  0  0  0  0  0  0  0  0  0
   -1.4894    3.3747    1.0070 C   0  0  0  0  0  0  0  0  0  0  0  0
   -2.8349    5.3554   -0.3096 Cl  0  0  0  0  0  0  0  0  0  0  0  0
   -1.4879   -4.1273    1.8417 N   0  0  0  0  0  0  0  0  0  0  0  0
   -2.0071   -1.3496    0.0083 C   0  0  0  0  0  0  0  0  0  0  0  0
   -0.9002   -0.2613    0.1105 C   0  0  1  0  0  0  0  0  0  0  0  0
   -0.0623   -0.3735   -0.9571 O   0  0  0  0  0  0  0  0  0  0  0  0
   -1.5435    1.0800    0.1548 C   0  0  0  0  0  0  0  0  0  0  0  0
   -1.4057   -2.6703    0.0129 N   0  0  0  0  0  0  0  0  0  0  0  0
   -0.8063   -2.9482    1.3014 C   0  0  0  0  0  0  0  0  0  0  0  0
    1.1945   -0.8164   -0.7966 C   0  0  0  0  0  0  0  0  0  0  0  0
    3.7946    1.4748   -1.2184 C   0  0  0  0  0  0  0  0  0  0  0  0
   -0.6469    2.2427    0.4409 C   0  0  0  0  0  0  0  0  0  0  0  0
    2.1708   -0.0367    0.0096 C   0  0  0  0  0  0  0  0  0  0  0  0
    2.4808    1.3251   -0.4970 C   0  0  0  0  0  0  0  0  0  0  0  0
   -4.0623    0.8584   -0.8536 Cl  0  0  0  0  0  0  0  0  0  0  0  0
   -2.8452   -3.8799    1.3446 C   0  0  0  0  0  0  0  0  0  0  0  0
   -2.5470   -3.5930   -0.1068 C   0  0  0  0  0  0  0  0  0  0  0  0
    4.3919   -0.8291   -0.7756 C   0  0  0  0  0  0  0  0  0  0  0  0
    3.3562   -0.9089    0.3115 C   0  0  0  0  0  0  0  0  0  0  0  0
    4.9012    0.6186   -0.7180 C   0  0  0  0  0  0  0  0  0  0  0  0
    5.4268    1.0043    0.9160 Cl  0  0  0  0  0  0  0  0  0  0  0  0
   -2.3604    1.4009   -1.0766 C   0  0  0  0  0  0  0  0  0  0  0  0
   -2.4343    2.9057   -1.2464 C   0  0  0  0  0  0  0  0  0  0  0  0
   -2.6311    3.6126    0.0648 C   0  0  0  0  0  0  0  0  0  0  0  0
   -1.4894    3.3747    1.0070 C   0  0  0  0  0  0  0  0  0  0  0  0
   -2.8349    5.3554   -0.3096 Cl  0  0  0  0  0  0  0  0  0  0  0  0
   -1.4879   -4.1273    1.8417 N   0  0  0  0  0  0  0  0  0  0  0  0
   -2.0071   -1.3496    0.0083 C   0  0  0  0  0  0  0  0  0  0  0  0
   -0.9002   -0.2613    0.1105 C   0  0  1  0  0  0  0  0  0  0  0  0
   -0.0623   -0.3735   -0.9571 O   0  0  0  0  0  0  0  0  0  0  0  0
   -1.5435    1.0800    0.1548 C   0  0  0  0  0  0  0  0  0  0  0  0
   -1.4057   -2.6703    0.0129 N   0  0  0  0  0  0  0  0  0  0  0  0
   -0.8063   -2.9482    1.3014 C   0  0  0  0  0  0  0  0  0  0  0  0
    1.1945   -0.8164   -0.7966 C   0  0  0  0  0  0  0  0  0  0  0  0
    3.7946    1.4748   -1.2184 C   0  0  0  0  0  0  0  0  0  0  0  0
   -0.6469    2.2427    0.4409 C   0  0  0  0  0  0  0  0  0  0  0  0
    1.6794    0.1270    1.0273 H   0  0  0  0  0  0  0  0  0  0  0  0
    1.7027    1.5588   -1.2870 H   0  0  0  0  0  0  0  0  0  0  0  0
    2.3887    2.1303    0.2566 H   0  0  0  0  0  0  0  0  0  0  0  0
   -3.2610   -3.0046    1.8717 H   0  0  0  0  0  0  0  0  0  0  0  0
   -3.5077   -4.7302    1.4903 H   0  0  0  0  0  0  0  0  0  0  0  0
   -3.4183   -3.1165   -0.5591 H   0  0  0  0  0  0  0  0  0  0  0  0
   -2.2358   -4.5413   -0.5873 H   0  0  0  0  0  0  0  0  0  0  0  0
    3.9601   -0.9497   -1.7916 H   0  0  0  0  0  0  0  0  0  0  0  0
    5.1925   -1.5576   -0.6663 H   0  0  0  0  0  0  0  0  0  0  0  0
    3.0006   -1.9548    0.3822 H   0  0  0  0  0  0  0  0  0  0  0  0
    3.8751   -0.6047    1.2632 H   0  0  0  0  0  0  0  0  0  0  0  0
    5.7504    0.7037   -1.3931 H   0  0  0  0  0  0  0  0  0  0  0  0
   -1.9288    0.9994   -2.0013 H   0  0  0  0  0  0  0  0  0  0  0  0
   -3.3462    3.1596   -1.8663 H   0  0  0  0  0  0  0  0  0  0  0  0
   -1.5889    3.3148   -1.8369 H   0  0  0  0  0  0  0  0  0  0  0  0
   -3.6035    3.2458    0.4845 H   0  0  0  0  0  0  0  0  0  0  0  0
   -0.9173    4.3187    1.0999 H   0  0  0  0  0  0  0  0  0  0  0  0
   -1.9114    3.0288    1.9791 H   0  0  0  0  0  0  0  0  0  0  0  0
   -1.5339   -4.0798    2.8850 H   0  0  0  0  0  0  0  0  0  0  0  0
   -2.5923   -1.2203   -0.9074 H   0  0  0  0  0  0  0  0  0  0  0  0
   -2.5858   -1.2897    0.9517 H   0  0  0  0  0  0  0  0  0  0  0  0
   -0.3842   -0.4849    1.0515 H   0  0  0  0  0  0  0  0  0  0  0  0
   -2.3211    1.1152    1.0067 H   0  0  0  0  0  0  0  0  0  0  0  0
    0.2618   -3.1966    1.2525 H   0  0  0  0  0  0  0  0  0  0  0  0
   -1.0289   -2.1353    2.0532 H   0  0  0  0  0  0  0  0  0  0  0  0
    1.2818   -1.8809   -0.4662 H   0  0  0  0  0  0  0  0  0  0  0  0
    1.6468   -0.8615   -1.8436 H   0  0  0  0  0  0  0  0  0  0  0  0
    3.6952    1.2942   -2.3119 H   0  0  0  0  0  0  0  0  0  0  0  0
    4.1066    2.5357   -1.1242 H   0  0  0  0  0  0  0  0  0  0  0  0
    0.1917    1.9898    1.1175 H   0  0  0  0  0  0  0  0  0  0  0  0
   -0.2207    2.6282   -0.4988 H   0  0  0  0  0  0  0  0  0  0  0  0
    1.6794    0.1270    1.0273 H   0  0  0  0  0  0  0  0  0  0  0  0
    1.7027    1.5588   -1.2870 H   0  0  0  0  0  0  0  0  0  0  0  0
    2.3887    2.1303    0.2566 H   0  0  0  0  0  0  0  0  0  0  0  0
   -3.2610   -3.0046    1.8717 H   0  0  0  0  0  0  0  0  0  0  0  0
   -3.5077   -4.7302    1.4903 H   0  0  0  0  0  0  0  0  0  0  0  0
   -3.4183   -3.1165   -0.5591 H   0  0  0  0  0  0  0  0  0  0  0  0
   -2.2358   -4.5413   -0.5873 H   0  0  0  0  0  0  0  0  0  0  0  0
    3.9601   -0.9497   -1.7916 H   0  0  0  0  0  0  0  0  0  0  0  0
    5.1925   -1.5576   -0.6663 H   0  0  0  0  0  0  0  0  0  0  0  0
    3.0006   -1.9548    0.3822 H   0  0  0  0  0  0  0  0  0  0  0  0
    3.8751   -0.6047    1.2632 H   0  0  0  0  0  0  0  0  0  0  0  0
    5.7504    0.7037   -1.3931 H   0  0  0  0  0  0  0  0  0  0  0  0
   -1.9288    0.9994   -2.0013 H   0  0  0  0  0  0  0  0  0  0  0  0
   -3.3462    3.1596   -1.8663 H   0  0  0  0  0  0  0  0  0  0  0  0
   -1.5889    3.3148   -1.8369 H   0  0  0  0  0  0  0  0  0  0  0  0
   -3.6035    3.2458    0.4845 H   0  0  0  0  0  0  0  0  0  0  0  0
   -0.9173    4.3187    1.0999 H   0  0  0  0  0  0  0  0  0  0  0  0
   -1.9114    3.0288    1.9791 H   0  0  0  0  0  0  0  0  0  0  0  0
   -1.5339   -4.0798    2.8850 H   0  0  0  0  0  0  0  0  0  0  0  0
   -2.5923   -1.2203   -0.9074 H   0  0  0  0  0  0  0  0  0  0  0  0
   -2.5858   -1.2897    0.9517 H   0  0  0  0  0  0  0  0  0  0  0  0
   -0.3842   -0.4849    1.0515 H   0  0  0  0  0  0  0  0  0  0  0  0
   -2.3211    1.1152    1.0067 H   0  0  0  0  0  0  0  0  0  0  0  0
    0.2618   -3.1966    1.2525 H   0  0  0  0  0  0  0  0  0  0  0  0
   -1.0289   -2.1353    2.0532 H   0  0  0  0  0  0  0  0  0  0  0  0
    1.2818   -1.8809   -0.4662 H   0  0  0  0  0  0  0  0  0  0  0  0
    1.6468   -0.8615   -1.8436 H   0  0  0  0  0  0  0  0  0  0  0  0
    3.6952    1.2942   -2.3119 H   0  0  0  0  0  0  0  0  0  0  0  0
    4.1066    2.5357   -1.1242 H   0  0  0  0  0  0  0  0  0  0  0  0
    0.1917    1.9898    1.1175 H   0  0  0  0  0  0  0  0  0  0  0  0
   -0.2207    2.6282   -0.4988 H   0  0  0  0  0  0  0  0  0  0  0  0
  1  2  1  0
  4  5  1  0
  1  7  1  0
  6  7  1  0
  6  8  1  0
  8  9  1  0
  3 10  1  0
 10 11  1  0
 11 12  1  0
 12 13  1  0
 12 14  1  0
  4 15  1  0
 16 17  1  0
 17 18  1  0
 10 19  1  0
 17 19  1  0
  5 20  1  0
 16 20  1  0
 20 21  1  0
 21 15  1  0
  1 22  1  0
 18 22  1  0
  2 23  1  0
  8 23  1  0
 13 24  1  0
 19 24  1  0
 25 26  1  0
 28 29  1  0
 25 31  1  0
 30 31  1  0
 30 32  1  0
 32 33  1  0
 27 34  1  0
 34 35  1  0
 35 36  1  0
 36 37  1  0
 36 38  1  0
 28 39  1  0
 40 41  1  0
 41 42  1  0
 34 43  1  0
 41 43  1  0
 29 44  1  0
 40 44  1  0
 44 45  1  0
 45 39  1  0
 25 46  1  0
 42 46  1  0
 26 47  1  0
 32 47  1  0
 37 48  1  0
 43 48  1  0
  1 49  1  0
  2 50  1  0
  2 51  1  0
  4 52  1  0
  4 53  1  0
  5 54  1  0
  5 55  1  0
  6 56  1  0
  6 57  1  0
  7 58  1  0
  7 59  1  0
  8 60  1  0
 10 61  1  0
 11 62  1  0
 11 63  1  0
 12 64  1  0
 13 65  1  0
 13 66  1  0
 15 67  1  0
 16 68  1  0
 16 69  1  0
 17 70  1  1
 19 71  1  0
 21 72  1  0
 21 73  1  0
 22 74  1  0
 22 75  1  0
 23 76  1  0
 23 77  1  0
 24 78  1  0
 24 79  1  0
 25 80  1  0
 26 81  1  0
 26 82  1  0
 28 83  1  0
 28 84  1  0
 29 85  1  0
 29 86  1  0
 30 87  1  0
 30 88  1  0
 31 89  1  0
 31 90  1  0
 32 91  1  0
 34 92  1  0
 35 93  1  0
 35 94  1  0
 36 95  1  0
 37 96  1  0
 37 97  1  0
 39 98  1  0
 40 99  1  0
 40100  1  0
 41101  1  1
 43102  1  0
 45103  1  0
 45104  1  0
 46105  1  0
 46106  1  0
 47107  1  0
 47108  1  0
 48109  1  0
 48110  1  0
M  END
>  <PDBID>  (1) 
3JUS

>  <PDB ID>  (1) 
3JUS

>  <Generic Name>  (1) 
Econazole

>  <Brand Name>  (1) 
Econazole Nitrate#Econazole Nitrate Cream#Econazole Nitrate Topical Foam, 1%#Ecostatin Cream 1%#Ecostatin Vaginal Ovule 150mg#Ecoza#Ecostatin#Gyno-Pevaryl#Ifenec#Palavale#Pevaryl#Spectazole

>  <DrugBank ID>  (1) 
DB01127

>  <ATC Codes>  (1) 
G01AF05#D01AC03

>  <Ligand ID>  (1) 
ECL,ECN

>  <Target Name>  (1) 
Lanosterol 14-alpha demethylase

>  <UniProt ID>  (1) 
P10613

>  <PDB ID.1>  (1) 
3JUS

>  <Seq. Identity>  (1) 
40%

$$$$
