PDB_DB04743_01
     RDKit          3D

 96 98  0  0  0  0  0  0  0  0999 V2000
   -3.4558    3.4998   -2.5380 O   0  0  0  0  0  0  0  0  0  0  0  0
   -2.3733    3.2528   -1.8059 N   0  0  0  0  0  0  0  0  0  0  0  0
   -2.4570    3.5660   -0.5179 O   0  0  0  0  0  0  0  0  0  0  0  0
   -1.7622    1.9636   -2.0703 C   0  0  0  0  0  0  0  0  0  0  0  0
   -2.7683    0.9065   -1.7759 C   0  0  0  0  0  0  0  0  0  0  0  0
   -2.6153    0.5187   -0.3207 C   0  0  0  0  0  0  0  0  0  0  0  0
   -1.3243   -0.2788   -0.2413 C   0  0  0  0  0  0  0  0  0  0  0  0
   -1.1296   -0.5638    1.1871 N   0  0  0  0  0  0  0  0  0  0  0  0
   -2.0496   -1.3147    2.0520 S   0  0  0  0  0  0  0  0  0  0  0  0
   -2.9263   -0.3766    3.1758 O   0  0  0  0  0  0  0  0  0  0  0  0
   -1.0974   -2.3394    3.1363 O   0  0  0  0  0  0  0  0  0  0  0  0
   -3.1561   -2.3294    1.3198 C   0  0  0  0  0  0  0  0  0  0  0  0
   -0.5162    1.8795   -1.2444 C   0  0  0  0  0  0  0  0  0  0  0  0
   -0.1578    0.4742   -0.8236 C   0  0  0  0  0  0  0  0  0  0  0  0
    0.8099    0.5569    0.1296 O   0  0  0  0  0  0  0  0  0  0  0  0
    2.0188    0.0117   -0.1270 C   0  0  0  0  0  0  0  0  0  0  0  0
    3.1953    0.9336   -0.0754 C   0  0  0  0  0  0  0  0  0  0  0  0
    4.4076    0.1613   -0.5589 C   0  0  0  0  0  0  0  0  0  0  0  0
    4.6453   -1.0815    0.2665 C   0  0  0  0  0  0  0  0  0  0  0  0
    3.4176   -1.9460    0.2300 C   0  0  0  0  0  0  0  0  0  0  0  0
    2.2777   -1.1254    0.8394 C   0  0  0  0  0  0  0  0  0  0  0  0
   -3.4558    3.4998   -2.5380 O   0  0  0  0  0  0  0  0  0  0  0  0
   -2.3733    3.2528   -1.8059 N   0  0  0  0  0  0  0  0  0  0  0  0
   -2.4570    3.5660   -0.5179 O   0  0  0  0  0  0  0  0  0  0  0  0
   -1.7622    1.9636   -2.0703 C   0  0  0  0  0  0  0  0  0  0  0  0
   -2.7683    0.9065   -1.7759 C   0  0  0  0  0  0  0  0  0  0  0  0
   -2.6153    0.5187   -0.3207 C   0  0  0  0  0  0  0  0  0  0  0  0
   -1.3243   -0.2788   -0.2413 C   0  0  0  0  0  0  0  0  0  0  0  0
   -1.1296   -0.5638    1.1871 N   0  0  0  0  0  0  0  0  0  0  0  0
   -2.0496   -1.3147    2.0520 S   0  0  0  0  0  0  0  0  0  0  0  0
   -2.9263   -0.3766    3.1758 O   0  0  0  0  0  0  0  0  0  0  0  0
   -1.0974   -2.3394    3.1363 O   0  0  0  0  0  0  0  0  0  0  0  0
   -3.1561   -2.3294    1.3198 C   0  0  0  0  0  0  0  0  0  0  0  0
   -0.5162    1.8795   -1.2444 C   0  0  0  0  0  0  0  0  0  0  0  0
   -0.1578    0.4742   -0.8236 C   0  0  0  0  0  0  0  0  0  0  0  0
    0.8099    0.5569    0.1296 O   0  0  0  0  0  0  0  0  0  0  0  0
    2.0188    0.0117   -0.1270 C   0  0  0  0  0  0  0  0  0  0  0  0
    3.1953    0.9336   -0.0754 C   0  0  0  0  0  0  0  0  0  0  0  0
    4.4076    0.1613   -0.5589 C   0  0  0  0  0  0  0  0  0  0  0  0
    4.6453   -1.0815    0.2665 C   0  0  0  0  0  0  0  0  0  0  0  0
    3.4176   -1.9460    0.2300 C   0  0  0  0  0  0  0  0  0  0  0  0
    2.2777   -1.1254    0.8394 C   0  0  0  0  0  0  0  0  0  0  0  0
   -1.8392    4.2734   -0.2710 H   0  0  0  0  0  0  0  0  0  0  0  0
   -1.5488    1.9424   -3.1749 H   0  0  0  0  0  0  0  0  0  0  0  0
   -3.8062    1.2635   -1.9232 H   0  0  0  0  0  0  0  0  0  0  0  0
   -2.6374    0.0108   -2.4151 H   0  0  0  0  0  0  0  0  0  0  0  0
   -2.4869    1.3909    0.3311 H   0  0  0  0  0  0  0  0  0  0  0  0
   -3.4204   -0.1674    0.0139 H   0  0  0  0  0  0  0  0  0  0  0  0
   -1.5267   -1.2423   -0.7719 H   0  0  0  0  0  0  0  0  0  0  0  0
   -0.4673    0.1625    1.5267 H   0  0  0  0  0  0  0  0  0  0  0  0
   -3.3437   -1.0520    3.7778 H   0  0  0  0  0  0  0  0  0  0  0  0
   -0.8086   -3.1088    2.5865 H   0  0  0  0  0  0  0  0  0  0  0  0
   -4.1939   -1.9635    1.4046 H   0  0  0  0  0  0  0  0  0  0  0  0
   -3.1458   -3.3440    1.7762 H   0  0  0  0  0  0  0  0  0  0  0  0
   -2.8979   -2.4991    0.2376 H   0  0  0  0  0  0  0  0  0  0  0  0
   -0.5334    2.5327   -0.3456 H   0  0  0  0  0  0  0  0  0  0  0  0
    0.3233    2.2393   -1.8776 H   0  0  0  0  0  0  0  0  0  0  0  0
    0.1473   -0.0540   -1.7495 H   0  0  0  0  0  0  0  0  0  0  0  0
    2.0008   -0.4408   -1.1495 H   0  0  0  0  0  0  0  0  0  0  0  0
    3.1101    1.8072   -0.7494 H   0  0  0  0  0  0  0  0  0  0  0  0
    3.3989    1.2226    0.9791 H   0  0  0  0  0  0  0  0  0  0  0  0
    5.3071    0.7872   -0.6262 H   0  0  0  0  0  0  0  0  0  0  0  0
    4.1806   -0.1848   -1.5988 H   0  0  0  0  0  0  0  0  0  0  0  0
    5.4623   -1.6444   -0.2365 H   0  0  0  0  0  0  0  0  0  0  0  0
    4.9197   -0.8283    1.2984 H   0  0  0  0  0  0  0  0  0  0  0  0
    3.1565   -2.1705   -0.8312 H   0  0  0  0  0  0  0  0  0  0  0  0
    3.5471   -2.9037    0.7456 H   0  0  0  0  0  0  0  0  0  0  0  0
    1.4023   -1.7404    1.0476 H   0  0  0  0  0  0  0  0  0  0  0  0
    2.7173   -0.6577    1.7581 H   0  0  0  0  0  0  0  0  0  0  0  0
   -1.8392    4.2734   -0.2710 H   0  0  0  0  0  0  0  0  0  0  0  0
   -1.5488    1.9424   -3.1749 H   0  0  0  0  0  0  0  0  0  0  0  0
   -3.8062    1.2635   -1.9232 H   0  0  0  0  0  0  0  0  0  0  0  0
   -2.6374    0.0108   -2.4151 H   0  0  0  0  0  0  0  0  0  0  0  0
   -2.4869    1.3909    0.3311 H   0  0  0  0  0  0  0  0  0  0  0  0
   -3.4204   -0.1674    0.0139 H   0  0  0  0  0  0  0  0  0  0  0  0
   -1.5267   -1.2423   -0.7719 H   0  0  0  0  0  0  0  0  0  0  0  0
   -0.4673    0.1625    1.5267 H   0  0  0  0  0  0  0  0  0  0  0  0
   -3.3437   -1.0520    3.7778 H   0  0  0  0  0  0  0  0  0  0  0  0
   -0.8086   -3.1088    2.5865 H   0  0  0  0  0  0  0  0  0  0  0  0
   -4.1939   -1.9635    1.4046 H   0  0  0  0  0  0  0  0  0  0  0  0
   -3.1458   -3.3440    1.7762 H   0  0  0  0  0  0  0  0  0  0  0  0
   -2.8979   -2.4991    0.2376 H   0  0  0  0  0  0  0  0  0  0  0  0
   -0.5334    2.5327   -0.3456 H   0  0  0  0  0  0  0  0  0  0  0  0
    0.3233    2.2393   -1.8776 H   0  0  0  0  0  0  0  0  0  0  0  0
    0.1473   -0.0540   -1.7495 H   0  0  0  0  0  0  0  0  0  0  0  0
    2.0008   -0.4408   -1.1495 H   0  0  0  0  0  0  0  0  0  0  0  0
    3.1101    1.8072   -0.7494 H   0  0  0  0  0  0  0  0  0  0  0  0
    3.3989    1.2226    0.9791 H   0  0  0  0  0  0  0  0  0  0  0  0
    5.3071    0.7872   -0.6262 H   0  0  0  0  0  0  0  0  0  0  0  0
    4.1806   -0.1848   -1.5988 H   0  0  0  0  0  0  0  0  0  0  0  0
    5.4623   -1.6444   -0.2365 H   0  0  0  0  0  0  0  0  0  0  0  0
    4.9197   -0.8283    1.2984 H   0  0  0  0  0  0  0  0  0  0  0  0
    3.1565   -2.1705   -0.8312 H   0  0  0  0  0  0  0  0  0  0  0  0
    3.5471   -2.9037    0.7456 H   0  0  0  0  0  0  0  0  0  0  0  0
    1.4023   -1.7404    1.0476 H   0  0  0  0  0  0  0  0  0  0  0  0
    2.7173   -0.6577    1.7581 H   0  0  0  0  0  0  0  0  0  0  0  0
  1  2  1  0
  2  3  1  0
  2  4  1  0
  4  5  1  0
  5  6  1  0
  6  7  1  0
  7  8  1  0
  8  9  1  0
  9 10  1  0
  9 11  1  0
  9 12  1  0
  4 13  1  0
  7 14  1  0
 13 14  1  0
 14 15  1  0
 15 16  1  0
 16 17  1  0
 17 18  1  0
 18 19  1  0
 19 20  1  0
 16 21  1  0
 20 21  1  0
 22 23  1  0
 23 24  1  0
 23 25  1  0
 25 26  1  0
 26 27  1  0
 27 28  1  0
 28 29  1  0
 29 30  1  0
 30 31  1  0
 30 32  1  0
 30 33  1  0
 25 34  1  0
 28 35  1  0
 34 35  1  0
 35 36  1  0
 36 37  1  0
 37 38  1  0
 38 39  1  0
 39 40  1  0
 40 41  1  0
 37 42  1  0
 41 42  1  0
  3 43  1  0
  4 44  1  0
  5 45  1  0
  5 46  1  0
  6 47  1  0
  6 48  1  0
  7 49  1  0
  8 50  1  0
 10 51  1  0
 11 52  1  0
 12 53  1  0
 12 54  1  0
 12 55  1  0
 13 56  1  0
 13 57  1  0
 14 58  1  0
 16 59  1  0
 17 60  1  0
 17 61  1  0
 18 62  1  0
 18 63  1  0
 19 64  1  0
 19 65  1  0
 20 66  1  0
 20 67  1  0
 21 68  1  0
 21 69  1  0
 24 70  1  0
 25 71  1  0
 26 72  1  0
 26 73  1  0
 27 74  1  0
 27 75  1  0
 28 76  1  0
 29 77  1  0
 31 78  1  0
 32 79  1  0
 33 80  1  0
 33 81  1  0
 33 82  1  0
 34 83  1  0
 34 84  1  0
 35 85  1  0
 37 86  1  0
 38 87  1  0
 38 88  1  0
 39 89  1  0
 39 90  1  0
 40 91  1  0
 40 92  1  0
 41 93  1  0
 41 94  1  0
 42 95  1  0
 42 96  1  0
M  CHG  2   1  -1  22  -1
M  END
>  <PDBID>  (1) 
3N8X

>  <PDB ID>  (1) 
3N8X

>  <Generic Name>  (1) 
Nimesulide

>  <Brand Name>  (1) 
Ainex#Aulin#Coxtal#Eskaflam#Mesulid#Nilsid#Nimalox#Nimside#Nise#Octaprin#Sintalgin#Sulide

>  <DrugBank ID>  (1) 
DB04743

>  <ATC Codes>  (1) 
M02AA26#M01AX17

>  <Ligand ID>  (1) 
NIM

>  <Target Name>  (1) 
Prostaglandin G/H synthase 2

>  <UniProt ID>  (1) 
P35354

>  <PDB ID.1>  (1) 
3N8X

>  <Seq. Identity>  (1) 
61%

$$$$
