PDB_DB00540_02
     RDKit          3D

 55 57  0  0  0  0  0  0  0  0999 V2000
    5.1214    0.4713    0.2726 C   0  0  0  0  0  0  0  0  0  0  0  0
    4.7475   -0.8563   -0.1193 N   0  0  0  0  0  0  0  0  0  0  0  0
    3.6059   -0.9126   -1.0019 C   0  0  0  0  0  0  0  0  0  0  0  0
    2.3303   -0.4833   -0.2565 C   0  0  0  0  0  0  0  0  0  0  0  0
    1.1588   -0.5547   -1.1730 C   0  0  0  0  0  0  0  0  0  0  0  0
   -0.1712   -0.1794   -0.5586 C   0  0  0  0  0  0  0  0  0  0  0  0
   -0.0592    1.2179   -0.1234 C   0  0  0  0  0  0  0  0  0  0  0  0
   -0.4288    2.0585   -1.3626 C   0  0  0  0  0  0  0  0  0  0  0  0
   -1.1570    3.3081   -1.0501 C   0  0  0  0  0  0  0  0  0  0  0  0
   -0.5448    3.9351    0.1835 C   0  0  0  0  0  0  0  0  0  0  0  0
   -0.5229   -1.2400    0.4074 C   0  0  0  0  0  0  0  0  0  0  0  0
   -0.3100   -2.5532   -0.3724 C   0  0  0  0  0  0  0  0  0  0  0  0
   -1.2414   -3.6359    0.0925 C   0  0  0  0  0  0  0  0  0  0  0  0
   -2.6260   -3.2612   -0.3612 C   0  0  0  0  0  0  0  0  0  0  0  0
   -2.9474   -1.8835    0.1542 C   0  0  0  0  0  0  0  0  0  0  0  0
   -1.8331   -1.3293    1.0232 C   0  0  0  0  0  0  0  0  0  0  0  0
   -2.3678   -0.1562    1.7647 C   0  0  0  0  0  0  0  0  0  0  0  0
   -2.2783    1.0573    0.8789 C   0  0  0  0  0  0  0  0  0  0  0  0
   -0.8918    1.6014    1.0627 C   0  0  0  0  0  0  0  0  0  0  0  0
   -0.9814    3.0550    1.3395 C   0  0  0  0  0  0  0  0  0  0  0  0
    4.3709    0.8348    1.0207 H   0  0  0  0  0  0  0  0  0  0  0  0
    5.2081    1.1975   -0.5414 H   0  0  0  0  0  0  0  0  0  0  0  0
    6.0732    0.3954    0.8501 H   0  0  0  0  0  0  0  0  0  0  0  0
    5.5247   -1.4695   -0.3955 H   0  0  0  0  0  0  0  0  0  0  0  0
    3.8151   -0.2262   -1.8395 H   0  0  0  0  0  0  0  0  0  0  0  0
    3.5008   -1.9543   -1.3865 H   0  0  0  0  0  0  0  0  0  0  0  0
    2.2345   -1.2216    0.5837 H   0  0  0  0  0  0  0  0  0  0  0  0
    2.5384    0.4764    0.2146 H   0  0  0  0  0  0  0  0  0  0  0  0
    1.3514    0.2399   -1.9613 H   0  0  0  0  0  0  0  0  0  0  0  0
    1.1289   -1.4894   -1.7553 H   0  0  0  0  0  0  0  0  0  0  0  0
   -0.9075   -0.2902   -1.4161 H   0  0  0  0  0  0  0  0  0  0  0  0
    0.9536    1.5885    0.1262 H   0  0  0  0  0  0  0  0  0  0  0  0
    0.4959    2.3434   -1.9381 H   0  0  0  0  0  0  0  0  0  0  0  0
   -1.0435    1.4737   -2.0821 H   0  0  0  0  0  0  0  0  0  0  0  0
   -2.2256    3.0571   -0.8338 H   0  0  0  0  0  0  0  0  0  0  0  0
   -1.0743    3.9809   -1.9267 H   0  0  0  0  0  0  0  0  0  0  0  0
   -0.9803    4.9490    0.3091 H   0  0  0  0  0  0  0  0  0  0  0  0
    0.5415    3.9309    0.1411 H   0  0  0  0  0  0  0  0  0  0  0  0
    0.2727   -1.2587    1.2049 H   0  0  0  0  0  0  0  0  0  0  0  0
    0.7174   -2.9030   -0.3238 H   0  0  0  0  0  0  0  0  0  0  0  0
   -0.6620   -2.3738   -1.4342 H   0  0  0  0  0  0  0  0  0  0  0  0
   -0.9533   -4.5386   -0.5252 H   0  0  0  0  0  0  0  0  0  0  0  0
   -1.1473   -3.9375    1.1183 H   0  0  0  0  0  0  0  0  0  0  0  0
   -3.3896   -4.0153   -0.1094 H   0  0  0  0  0  0  0  0  0  0  0  0
   -2.5918   -3.1904   -1.4689 H   0  0  0  0  0  0  0  0  0  0  0  0
   -3.8149   -2.0305    0.8666 H   0  0  0  0  0  0  0  0  0  0  0  0
   -3.2962   -1.1887   -0.6058 H   0  0  0  0  0  0  0  0  0  0  0  0
   -1.7375   -2.1243    1.8349 H   0  0  0  0  0  0  0  0  0  0  0  0
   -3.4083   -0.3756    2.0752 H   0  0  0  0  0  0  0  0  0  0  0  0
   -1.7939    0.0257    2.7204 H   0  0  0  0  0  0  0  0  0  0  0  0
   -3.0611    1.8063    1.1012 H   0  0  0  0  0  0  0  0  0  0  0  0
   -2.4344    0.7184   -0.1574 H   0  0  0  0  0  0  0  0  0  0  0  0
   -0.3547    1.1424    1.9474 H   0  0  0  0  0  0  0  0  0  0  0  0
   -2.0465    3.3727    1.5577 H   0  0  0  0  0  0  0  0  0  0  0  0
   -0.4070    3.3957    2.2290 H   0  0  0  0  0  0  0  0  0  0  0  0
  1  2  1  0
  2  3  1  0
  3  4  1  0
  4  5  1  0
  5  6  1  0
  6  7  1  0
  7  8  1  0
  8  9  1  0
  9 10  1  0
  6 11  1  0
 11 12  1  0
 12 13  1  0
 13 14  1  0
 14 15  1  0
 11 16  1  0
 15 16  1  0
 16 17  1  0
 17 18  1  0
  7 19  1  0
 18 19  1  0
 10 20  1  0
 19 20  1  0
  1 21  1  0
  1 22  1  0
  1 23  1  0
  2 24  1  0
  3 25  1  0
  3 26  1  0
  4 27  1  0
  4 28  1  0
  5 29  1  0
  5 30  1  0
  6 31  1  0
  7 32  1  0
  8 33  1  0
  8 34  1  0
  9 35  1  0
  9 36  1  0
 10 37  1  0
 10 38  1  0
 11 39  1  0
 12 40  1  0
 12 41  1  0
 13 42  1  0
 13 43  1  0
 14 44  1  0
 14 45  1  0
 15 46  1  0
 15 47  1  0
 16 48  1  0
 17 49  1  0
 17 50  1  0
 18 51  1  0
 18 52  1  0
 19 53  1  0
 20 54  1  0
 20 55  1  0
M  END
>  <PDBID>  (1) 
4M48

>  <PDB ID>  (1) 
4M48

>  <Generic Name>  (1) 
Nortriptyline

>  <Brand Name>  (1) 
Apo-nortriptyline - Cap 10mg#Apo-nortriptyline - Cap 25mg#Ava-nortriptyline#Aventyl#Dom-nortriptyline 10mg Capsules#Dom-nortriptyline 25mg Capsules#Gen-nortriptyline Capsules 10mg#Gen-nortriptyline Capsules 25mg#Nortriptyline#Nortriptyline Hydrochloride#Nortriptyline-10#Nortriptyline-25#Norventyl#Nu-nortriptyline - Cap 10mg#Nu-nortriptyline - Cap 25mg#PMS-nortriptyline#Pamelor#Ratio-nortriptyline#Teva-nortriptyline#Allegron#Noritren#Norpress#Nortrilen#Sensoval

>  <DrugBank ID>  (1) 
DB00540

>  <ATC Codes>  (1) 
N06AA10

>  <Ligand ID>  (1) 
21B

>  <Target Name>  (1) 
Sodium-dependent noradrenaline transporter

>  <UniProt ID>  (1) 
P23975

>  <PDB ID.1>  (1) 
4M48

>  <Seq. Identity>  (1) 
57%

$$$$
