PDB_DB00862_07
     RDKit          3D

164170  0  0  0  0  0  0  0  0999 V2000
   -2.0533   -4.5333    0.0017 C   0  0  0  0  0  0  0  0  0  0  0  0
   -1.4597   -4.2297    1.3278 C   0  0  0  0  0  0  0  0  0  0  0  0
   -1.0755   -2.9511    1.5781 O   0  0  0  0  0  0  0  0  0  0  0  0
   -0.1403   -2.3953    0.7410 C   0  0  0  0  0  0  0  0  0  0  0  0
    1.1876   -2.2931    1.5651 C   0  0  0  0  0  0  0  0  0  0  0  0
    2.2420   -1.7138    0.6855 C   0  0  0  0  0  0  0  0  0  0  0  0
    1.8323   -0.3859    0.0803 C   0  0  0  0  0  0  0  0  0  0  0  0
    0.5044   -0.5213   -0.6497 C   0  0  0  0  0  0  0  0  0  0  0  0
   -0.4862   -0.9921    0.4047 C   0  0  0  0  0  0  0  0  0  0  0  0
    3.1268    0.1482   -0.9332 S   0  0  0  0  0  0  0  0  0  0  0  0
    3.4582   -0.7683   -2.1034 O   0  0  0  0  0  0  0  0  0  0  0  0
    2.4380    1.6230   -1.6879 O   0  0  0  0  0  0  0  0  0  0  0  0
    8.9273    2.0314    0.5406 C   0  0  0  0  0  0  0  0  0  0  0  0
    4.3025    0.6687   -0.0726 N   0  0  0  0  0  0  0  0  0  0  0  0
    5.5472   -0.0662    0.0166 C   0  0  0  0  0  0  0  0  0  0  0  0
    6.6492    0.5870   -0.7822 C   0  0  0  0  0  0  0  0  0  0  0  0
    6.7324    2.0059   -0.5603 N   0  0  0  0  0  0  0  0  0  0  0  0
    5.4714    2.6741   -0.6458 C   0  0  0  0  0  0  0  0  0  0  0  0
    4.4844    2.0413    0.2809 C   0  0  0  0  0  0  0  0  0  0  0  0
    7.4529    2.3540    0.6365 C   0  0  0  0  0  0  0  0  0  0  0  0
   -1.8968   -0.8530   -0.0303 C   0  0  0  0  0  0  0  0  0  0  0  0
   -2.2837   -1.5452   -1.2090 N   0  0  0  0  0  0  0  0  0  0  0  0
   -3.6517   -1.2015   -1.5350 C   0  0  0  0  0  0  0  0  0  0  0  0
   -4.3751   -0.5424   -0.3949 C   0  0  0  0  0  0  0  0  0  0  0  0
   -3.6700    0.6157    0.1024 N   0  0  0  0  0  0  0  0  0  0  0  0
   -2.2986    0.5413   -0.1629 N   0  0  0  0  0  0  0  0  0  0  0  0
   -4.3209   -2.3824   -1.8461 O   0  0  0  0  0  0  0  0  0  0  0  0
   -5.7087   -0.0312   -0.7968 C   0  0  0  0  0  0  0  0  0  0  0  0
   -5.5666    1.3909   -0.9407 N   0  0  0  0  0  0  0  0  0  0  0  0
   -4.2705    1.7813   -0.5101 C   0  0  0  0  0  0  0  0  0  0  0  0
   -6.2534   -0.5897   -2.0912 C   0  0  0  0  0  0  0  0  0  0  0  0
   -4.2181    2.9233    0.4506 C   0  0  0  0  0  0  0  0  0  0  0  0
   -4.9373    2.6758    1.7382 C   0  0  0  0  0  0  0  0  0  0  0  0
   -6.3988    2.3937    1.5930 C   0  0  0  0  0  0  0  0  0  0  0  0
   -2.0533   -4.5333    0.0017 C   0  0  0  0  0  0  0  0  0  0  0  0
   -1.4597   -4.2297    1.3278 C   0  0  0  0  0  0  0  0  0  0  0  0
   -1.0755   -2.9511    1.5781 O   0  0  0  0  0  0  0  0  0  0  0  0
   -0.1403   -2.3953    0.7410 C   0  0  0  0  0  0  0  0  0  0  0  0
    1.1876   -2.2931    1.5651 C   0  0  0  0  0  0  0  0  0  0  0  0
    2.2420   -1.7138    0.6855 C   0  0  0  0  0  0  0  0  0  0  0  0
    1.8323   -0.3859    0.0803 C   0  0  0  0  0  0  0  0  0  0  0  0
    0.5044   -0.5213   -0.6497 C   0  0  0  0  0  0  0  0  0  0  0  0
   -0.4862   -0.9921    0.4047 C   0  0  0  0  0  0  0  0  0  0  0  0
    3.1268    0.1482   -0.9332 S   0  0  0  0  0  0  0  0  0  0  0  0
    3.4582   -0.7683   -2.1034 O   0  0  0  0  0  0  0  0  0  0  0  0
    2.4380    1.6230   -1.6879 O   0  0  0  0  0  0  0  0  0  0  0  0
    8.9273    2.0314    0.5406 C   0  0  0  0  0  0  0  0  0  0  0  0
    4.3025    0.6687   -0.0726 N   0  0  0  0  0  0  0  0  0  0  0  0
    5.5472   -0.0662    0.0166 C   0  0  0  0  0  0  0  0  0  0  0  0
    6.6492    0.5870   -0.7822 C   0  0  0  0  0  0  0  0  0  0  0  0
    6.7324    2.0059   -0.5603 N   0  0  0  0  0  0  0  0  0  0  0  0
    5.4714    2.6741   -0.6458 C   0  0  0  0  0  0  0  0  0  0  0  0
    4.4844    2.0413    0.2809 C   0  0  0  0  0  0  0  0  0  0  0  0
    7.4529    2.3540    0.6365 C   0  0  0  0  0  0  0  0  0  0  0  0
   -1.8968   -0.8530   -0.0303 C   0  0  0  0  0  0  0  0  0  0  0  0
   -2.2837   -1.5452   -1.2090 N   0  0  0  0  0  0  0  0  0  0  0  0
   -3.6517   -1.2015   -1.5350 C   0  0  0  0  0  0  0  0  0  0  0  0
   -4.3751   -0.5424   -0.3949 C   0  0  0  0  0  0  0  0  0  0  0  0
   -3.6700    0.6157    0.1024 N   0  0  0  0  0  0  0  0  0  0  0  0
   -2.2986    0.5413   -0.1629 N   0  0  0  0  0  0  0  0  0  0  0  0
   -4.3209   -2.3824   -1.8461 O   0  0  0  0  0  0  0  0  0  0  0  0
   -5.7087   -0.0312   -0.7968 C   0  0  0  0  0  0  0  0  0  0  0  0
   -5.5666    1.3909   -0.9407 N   0  0  0  0  0  0  0  0  0  0  0  0
   -4.2705    1.7813   -0.5101 C   0  0  0  0  0  0  0  0  0  0  0  0
   -6.2534   -0.5897   -2.0912 C   0  0  0  0  0  0  0  0  0  0  0  0
   -4.2181    2.9233    0.4506 C   0  0  0  0  0  0  0  0  0  0  0  0
   -4.9373    2.6758    1.7382 C   0  0  0  0  0  0  0  0  0  0  0  0
   -6.3988    2.3937    1.5930 C   0  0  0  0  0  0  0  0  0  0  0  0
   -1.4406   -4.1679   -0.8556 H   0  0  0  0  0  0  0  0  0  0  0  0
   -2.2720   -5.6339   -0.1183 H   0  0  0  0  0  0  0  0  0  0  0  0
   -3.0408   -4.0437   -0.0711 H   0  0  0  0  0  0  0  0  0  0  0  0
   -0.6537   -4.9820    1.5068 H   0  0  0  0  0  0  0  0  0  0  0  0
   -2.2445   -4.4842    2.1053 H   0  0  0  0  0  0  0  0  0  0  0  0
    0.1367   -2.9744   -0.1376 H   0  0  0  0  0  0  0  0  0  0  0  0
    0.9999   -1.7004    2.4575 H   0  0  0  0  0  0  0  0  0  0  0  0
    1.4372   -3.3323    1.8142 H   0  0  0  0  0  0  0  0  0  0  0  0
    2.5323   -2.3833   -0.1335 H   0  0  0  0  0  0  0  0  0  0  0  0
    3.1353   -1.5152    1.3148 H   0  0  0  0  0  0  0  0  0  0  0  0
    1.6911    0.3755    0.8939 H   0  0  0  0  0  0  0  0  0  0  0  0
    0.5951   -1.3083   -1.4177 H   0  0  0  0  0  0  0  0  0  0  0  0
    0.2625    0.4693   -1.0629 H   0  0  0  0  0  0  0  0  0  0  0  0
   -0.3523   -0.3098    1.2871 H   0  0  0  0  0  0  0  0  0  0  0  0
    3.0061   -0.7575   -2.9619 H   0  0  0  0  0  0  0  0  0  0  0  0
    1.8608    1.9959   -0.9950 H   0  0  0  0  0  0  0  0  0  0  0  0
    9.1129    0.9441    0.5061 H   0  0  0  0  0  0  0  0  0  0  0  0
    9.4154    2.5824   -0.2933 H   0  0  0  0  0  0  0  0  0  0  0  0
    9.4000    2.4070    1.4750 H   0  0  0  0  0  0  0  0  0  0  0  0
    5.8599   -0.1765    1.0631 H   0  0  0  0  0  0  0  0  0  0  0  0
    5.3854   -1.0762   -0.4125 H   0  0  0  0  0  0  0  0  0  0  0  0
    6.4359    0.4141   -1.8724 H   0  0  0  0  0  0  0  0  0  0  0  0
    7.5882    0.0918   -0.5449 H   0  0  0  0  0  0  0  0  0  0  0  0
    5.6273    3.7206   -0.2955 H   0  0  0  0  0  0  0  0  0  0  0  0
    5.0568    2.6549   -1.6647 H   0  0  0  0  0  0  0  0  0  0  0  0
    3.5097    2.5671    0.2703 H   0  0  0  0  0  0  0  0  0  0  0  0
    4.8522    2.0650    1.3440 H   0  0  0  0  0  0  0  0  0  0  0  0
    7.0699    1.8830    1.5547 H   0  0  0  0  0  0  0  0  0  0  0  0
    7.3656    3.4530    0.7609 H   0  0  0  0  0  0  0  0  0  0  0  0
   -2.5269   -1.2600    0.8154 H   0  0  0  0  0  0  0  0  0  0  0  0
   -1.6425   -1.4333   -2.0074 H   0  0  0  0  0  0  0  0  0  0  0  0
   -3.6681   -0.5662   -2.4446 H   0  0  0  0  0  0  0  0  0  0  0  0
   -4.5208   -1.2489    0.4591 H   0  0  0  0  0  0  0  0  0  0  0  0
   -1.8087    1.0495    0.6073 H   0  0  0  0  0  0  0  0  0  0  0  0
   -4.7803   -2.7738   -1.0641 H   0  0  0  0  0  0  0  0  0  0  0  0
   -6.4870   -0.2898   -0.0225 H   0  0  0  0  0  0  0  0  0  0  0  0
   -5.6578    1.6412   -1.9480 H   0  0  0  0  0  0  0  0  0  0  0  0
   -3.5955    2.0470   -1.3720 H   0  0  0  0  0  0  0  0  0  0  0  0
   -7.1861    0.0202   -2.3106 H   0  0  0  0  0  0  0  0  0  0  0  0
   -6.6188   -1.6211   -2.0216 H   0  0  0  0  0  0  0  0  0  0  0  0
   -5.6054   -0.3822   -2.9660 H   0  0  0  0  0  0  0  0  0  0  0  0
   -4.6851    3.8444    0.0041 H   0  0  0  0  0  0  0  0  0  0  0  0
   -3.1816    3.2236    0.6902 H   0  0  0  0  0  0  0  0  0  0  0  0
   -4.4563    1.8801    2.3526 H   0  0  0  0  0  0  0  0  0  0  0  0
   -4.8307    3.6162    2.3456 H   0  0  0  0  0  0  0  0  0  0  0  0
   -6.9758    2.9526    2.3645 H   0  0  0  0  0  0  0  0  0  0  0  0
   -6.6494    1.3149    1.7789 H   0  0  0  0  0  0  0  0  0  0  0  0
   -6.7471    2.7478    0.6164 H   0  0  0  0  0  0  0  0  0  0  0  0
   -1.4406   -4.1679   -0.8556 H   0  0  0  0  0  0  0  0  0  0  0  0
   -2.2720   -5.6339   -0.1183 H   0  0  0  0  0  0  0  0  0  0  0  0
   -3.0408   -4.0437   -0.0711 H   0  0  0  0  0  0  0  0  0  0  0  0
   -0.6537   -4.9820    1.5068 H   0  0  0  0  0  0  0  0  0  0  0  0
   -2.2445   -4.4842    2.1053 H   0  0  0  0  0  0  0  0  0  0  0  0
    0.1367   -2.9744   -0.1376 H   0  0  0  0  0  0  0  0  0  0  0  0
    0.9999   -1.7004    2.4575 H   0  0  0  0  0  0  0  0  0  0  0  0
    1.4372   -3.3323    1.8142 H   0  0  0  0  0  0  0  0  0  0  0  0
    2.5323   -2.3833   -0.1335 H   0  0  0  0  0  0  0  0  0  0  0  0
    3.1353   -1.5152    1.3148 H   0  0  0  0  0  0  0  0  0  0  0  0
    1.6911    0.3755    0.8939 H   0  0  0  0  0  0  0  0  0  0  0  0
    0.5951   -1.3083   -1.4177 H   0  0  0  0  0  0  0  0  0  0  0  0
    0.2625    0.4693   -1.0629 H   0  0  0  0  0  0  0  0  0  0  0  0
   -0.3523   -0.3098    1.2871 H   0  0  0  0  0  0  0  0  0  0  0  0
    3.0061   -0.7575   -2.9619 H   0  0  0  0  0  0  0  0  0  0  0  0
    1.8608    1.9959   -0.9950 H   0  0  0  0  0  0  0  0  0  0  0  0
    9.1129    0.9441    0.5061 H   0  0  0  0  0  0  0  0  0  0  0  0
    9.4154    2.5824   -0.2933 H   0  0  0  0  0  0  0  0  0  0  0  0
    9.4000    2.4070    1.4750 H   0  0  0  0  0  0  0  0  0  0  0  0
    5.8599   -0.1765    1.0631 H   0  0  0  0  0  0  0  0  0  0  0  0
    5.3854   -1.0762   -0.4125 H   0  0  0  0  0  0  0  0  0  0  0  0
    6.4359    0.4141   -1.8724 H   0  0  0  0  0  0  0  0  0  0  0  0
    7.5882    0.0918   -0.5449 H   0  0  0  0  0  0  0  0  0  0  0  0
    5.6273    3.7206   -0.2955 H   0  0  0  0  0  0  0  0  0  0  0  0
    5.0568    2.6549   -1.6647 H   0  0  0  0  0  0  0  0  0  0  0  0
    3.5097    2.5671    0.2703 H   0  0  0  0  0  0  0  0  0  0  0  0
    4.8522    2.0650    1.3440 H   0  0  0  0  0  0  0  0  0  0  0  0
    7.0699    1.8830    1.5547 H   0  0  0  0  0  0  0  0  0  0  0  0
    7.3656    3.4530    0.7609 H   0  0  0  0  0  0  0  0  0  0  0  0
   -2.5269   -1.2600    0.8154 H   0  0  0  0  0  0  0  0  0  0  0  0
   -1.6425   -1.4333   -2.0074 H   0  0  0  0  0  0  0  0  0  0  0  0
   -3.6681   -0.5662   -2.4446 H   0  0  0  0  0  0  0  0  0  0  0  0
   -4.5208   -1.2489    0.4591 H   0  0  0  0  0  0  0  0  0  0  0  0
   -1.8087    1.0495    0.6073 H   0  0  0  0  0  0  0  0  0  0  0  0
   -4.7803   -2.7738   -1.0641 H   0  0  0  0  0  0  0  0  0  0  0  0
   -6.4870   -0.2898   -0.0225 H   0  0  0  0  0  0  0  0  0  0  0  0
   -5.6578    1.6412   -1.9480 H   0  0  0  0  0  0  0  0  0  0  0  0
   -3.5955    2.0470   -1.3720 H   0  0  0  0  0  0  0  0  0  0  0  0
   -7.1861    0.0202   -2.3106 H   0  0  0  0  0  0  0  0  0  0  0  0
   -6.6188   -1.6211   -2.0216 H   0  0  0  0  0  0  0  0  0  0  0  0
   -5.6054   -0.3822   -2.9660 H   0  0  0  0  0  0  0  0  0  0  0  0
   -4.6851    3.8444    0.0041 H   0  0  0  0  0  0  0  0  0  0  0  0
   -3.1816    3.2236    0.6902 H   0  0  0  0  0  0  0  0  0  0  0  0
   -4.4563    1.8801    2.3526 H   0  0  0  0  0  0  0  0  0  0  0  0
   -4.8307    3.6162    2.3456 H   0  0  0  0  0  0  0  0  0  0  0  0
   -6.9758    2.9526    2.3645 H   0  0  0  0  0  0  0  0  0  0  0  0
   -6.6494    1.3149    1.7789 H   0  0  0  0  0  0  0  0  0  0  0  0
   -6.7471    2.7478    0.6164 H   0  0  0  0  0  0  0  0  0  0  0  0
  1  2  1  0
  2  3  1  0
  3  4  1  0
  4  5  1  0
  5  6  1  0
  6  7  1  0
  7  8  1  0
  4  9  1  0
  8  9  1  0
  7 10  1  0
 10 11  1  0
 10 12  1  0
 10 14  1  0
 14 15  1  0
 15 16  1  0
 16 17  1  0
 17 18  1  0
 14 19  1  0
 18 19  1  0
 13 20  1  0
 17 20  1  0
  9 21  1  0
 21 22  1  0
 22 23  1  0
 23 24  1  0
 24 25  1  0
 21 26  1  0
 25 26  1  0
 23 27  1  0
 24 28  1  0
 28 29  1  0
 25 30  1  0
 29 30  1  0
 28 31  1  0
 30 32  1  0
 32 33  1  0
 33 34  1  0
 35 36  1  0
 36 37  1  0
 37 38  1  0
 38 39  1  0
 39 40  1  0
 40 41  1  0
 41 42  1  0
 38 43  1  0
 42 43  1  0
 41 44  1  0
 44 45  1  0
 44 46  1  0
 44 48  1  0
 48 49  1  0
 49 50  1  0
 50 51  1  0
 51 52  1  0
 48 53  1  0
 52 53  1  0
 47 54  1  0
 51 54  1  0
 43 55  1  0
 55 56  1  0
 56 57  1  0
 57 58  1  0
 58 59  1  0
 55 60  1  0
 59 60  1  0
 57 61  1  0
 58 62  1  0
 62 63  1  0
 59 64  1  0
 63 64  1  0
 62 65  1  0
 64 66  1  0
 66 67  1  0
 67 68  1  0
  1 69  1  0
  1 70  1  0
  1 71  1  0
  2 72  1  0
  2 73  1  0
  4 74  1  0
  5 75  1  0
  5 76  1  0
  6 77  1  0
  6 78  1  0
  7 79  1  0
  8 80  1  0
  8 81  1  0
  9 82  1  0
 11 83  1  0
 12 84  1  0
 13 85  1  0
 13 86  1  0
 13 87  1  0
 15 88  1  0
 15 89  1  0
 16 90  1  0
 16 91  1  0
 18 92  1  0
 18 93  1  0
 19 94  1  0
 19 95  1  0
 20 96  1  0
 20 97  1  0
 21 98  1  0
 22 99  1  0
 23100  1  0
 24101  1  0
 26102  1  0
 27103  1  0
 28104  1  0
 29105  1  0
 30106  1  0
 31107  1  0
 31108  1  0
 31109  1  0
 32110  1  0
 32111  1  0
 33112  1  0
 33113  1  0
 34114  1  0
 34115  1  0
 34116  1  0
 35117  1  0
 35118  1  0
 35119  1  0
 36120  1  0
 36121  1  0
 38122  1  0
 39123  1  0
 39124  1  0
 40125  1  0
 40126  1  0
 41127  1  0
 42128  1  0
 42129  1  0
 43130  1  0
 45131  1  0
 46132  1  0
 47133  1  0
 47134  1  0
 47135  1  0
 49136  1  0
 49137  1  0
 50138  1  0
 50139  1  0
 52140  1  0
 52141  1  0
 53142  1  0
 53143  1  0
 54144  1  0
 54145  1  0
 55146  1  0
 56147  1  0
 57148  1  0
 58149  1  0
 60150  1  0
 61151  1  0
 62152  1  0
 63153  1  0
 64154  1  0
 65155  1  0
 65156  1  0
 65157  1  0
 66158  1  0
 66159  1  0
 67160  1  0
 67161  1  0
 68162  1  0
 68163  1  0
 68164  1  0
M  END
>  <PDBID>  (1) 
3B2R

>  <PDB ID>  (1) 
3B2R

>  <Generic Name>  (1) 
Vardenafil

>  <Brand Name>  (1) 
Levitra#Staxyn#Vivanza

>  <DrugBank ID>  (1) 
DB00862

>  <ATC Codes>  (1) 
G04BE09

>  <Ligand ID>  (1) 
VDN

>  <Target Name>  (1) 
cGMP-specific 3',5'-cyclic phosphodiesterase

>  <UniProt ID>  (1) 
O76074

>  <PDB ID.1>  (1) 
3B2R

>  <Seq. Identity>  (1) 
94%

$$$$
