PDB_DB00190_05
     RDKit          3D

 74 74  0  0  0  0  0  0  0  0999 V2000
   -2.2111   -0.0439   -1.6244 N   0  0  0  0  0  0  0  0  0  0  0  0
   -2.5914    1.2829   -1.8322 N   0  0  0  0  0  0  0  0  0  0  0  0
   -2.0004   -0.3401   -0.2202 C   0  0  2  0  0  0  0  0  0  0  0  0
   -0.9292    0.5068    0.3921 C   0  0  0  0  0  0  0  0  0  0  0  0
   -1.8786   -1.8120   -0.0074 C   0  0  0  0  0  0  0  0  0  0  0  0
    0.4236    0.4228   -0.2160 C   0  0  0  0  0  0  0  0  0  0  0  0
    1.4273    1.3177    0.4630 C   0  0  0  0  0  0  0  0  0  0  0  0
    2.6699    0.6553    0.9136 C   0  0  0  0  0  0  0  0  0  0  0  0
    0.9563   -0.9744   -0.4092 C   0  0  0  0  0  0  0  0  0  0  0  0
    2.3179   -0.7420   -1.1085 C   0  0  0  0  0  0  0  0  0  0  0  0
    3.2451   -0.3692    0.0210 C   0  0  0  0  0  0  0  0  0  0  0  0
    4.4754   -0.0177   -0.5298 O   0  0  0  0  0  0  0  0  0  0  0  0
    3.6523    1.6507    1.1166 O   0  0  0  0  0  0  0  0  0  0  0  0
   -3.3524    0.0662    0.4388 C   0  0  0  0  0  0  0  0  0  0  0  0
   -3.5921    1.4208    0.2100 O   0  0  0  0  0  0  0  0  0  0  0  0
   -3.3572   -0.2568    1.7761 O   0  0  0  0  0  0  0  0  0  0  0  0
   -2.2111   -0.0439   -1.6244 N   0  0  0  0  0  0  0  0  0  0  0  0
   -2.5914    1.2829   -1.8322 N   0  0  0  0  0  0  0  0  0  0  0  0
   -2.0004   -0.3401   -0.2202 C   0  0  2  0  0  0  0  0  0  0  0  0
   -0.9292    0.5068    0.3921 C   0  0  0  0  0  0  0  0  0  0  0  0
   -1.8786   -1.8120   -0.0074 C   0  0  0  0  0  0  0  0  0  0  0  0
    0.4236    0.4228   -0.2160 C   0  0  0  0  0  0  0  0  0  0  0  0
    1.4273    1.3177    0.4630 C   0  0  0  0  0  0  0  0  0  0  0  0
    2.6699    0.6553    0.9136 C   0  0  0  0  0  0  0  0  0  0  0  0
    0.9563   -0.9744   -0.4092 C   0  0  0  0  0  0  0  0  0  0  0  0
    2.3179   -0.7420   -1.1085 C   0  0  0  0  0  0  0  0  0  0  0  0
    3.2451   -0.3692    0.0210 C   0  0  0  0  0  0  0  0  0  0  0  0
    4.4754   -0.0177   -0.5298 O   0  0  0  0  0  0  0  0  0  0  0  0
    3.6523    1.6507    1.1166 O   0  0  0  0  0  0  0  0  0  0  0  0
   -3.3524    0.0662    0.4388 C   0  0  0  0  0  0  0  0  0  0  0  0
   -3.5921    1.4208    0.2100 O   0  0  0  0  0  0  0  0  0  0  0  0
   -3.3572   -0.2568    1.7761 O   0  0  0  0  0  0  0  0  0  0  0  0
   -1.4539   -0.3648   -2.2378 H   0  0  0  0  0  0  0  0  0  0  0  0
   -1.8307    1.9189   -1.4530 H   0  0  0  0  0  0  0  0  0  0  0  0
   -1.2843    1.5707    0.4967 H   0  0  0  0  0  0  0  0  0  0  0  0
   -0.8303    0.1387    1.4617 H   0  0  0  0  0  0  0  0  0  0  0  0
   -1.0863   -2.1404    0.6682 H   0  0  0  0  0  0  0  0  0  0  0  0
   -2.8260   -2.2491    0.4532 H   0  0  0  0  0  0  0  0  0  0  0  0
   -1.8079   -2.3853   -0.9705 H   0  0  0  0  0  0  0  0  0  0  0  0
    0.3171    0.8333   -1.2670 H   0  0  0  0  0  0  0  0  0  0  0  0
    1.6961    2.2065   -0.1441 H   0  0  0  0  0  0  0  0  0  0  0  0
    0.9099    1.7325    1.3704 H   0  0  0  0  0  0  0  0  0  0  0  0
    2.5030    0.2177    1.9378 H   0  0  0  0  0  0  0  0  0  0  0  0
    1.1560   -1.4329    0.5826 H   0  0  0  0  0  0  0  0  0  0  0  0
    0.3998   -1.5858   -1.1102 H   0  0  0  0  0  0  0  0  0  0  0  0
    2.6340   -1.6507   -1.6364 H   0  0  0  0  0  0  0  0  0  0  0  0
    2.2442    0.1353   -1.7826 H   0  0  0  0  0  0  0  0  0  0  0  0
    3.4372   -1.3275    0.5877 H   0  0  0  0  0  0  0  0  0  0  0  0
    4.8654   -0.8732   -0.8823 H   0  0  0  0  0  0  0  0  0  0  0  0
    3.7033    2.2740    0.3521 H   0  0  0  0  0  0  0  0  0  0  0  0
   -4.1815   -0.4847   -0.0527 H   0  0  0  0  0  0  0  0  0  0  0  0
   -4.0872    1.8535    0.9241 H   0  0  0  0  0  0  0  0  0  0  0  0
   -3.7335   -1.1539    1.9207 H   0  0  0  0  0  0  0  0  0  0  0  0
   -1.4539   -0.3648   -2.2378 H   0  0  0  0  0  0  0  0  0  0  0  0
   -1.8307    1.9189   -1.4530 H   0  0  0  0  0  0  0  0  0  0  0  0
   -1.2843    1.5707    0.4967 H   0  0  0  0  0  0  0  0  0  0  0  0
   -0.8303    0.1387    1.4617 H   0  0  0  0  0  0  0  0  0  0  0  0
   -1.0863   -2.1404    0.6682 H   0  0  0  0  0  0  0  0  0  0  0  0
   -2.8260   -2.2491    0.4532 H   0  0  0  0  0  0  0  0  0  0  0  0
   -1.8079   -2.3853   -0.9705 H   0  0  0  0  0  0  0  0  0  0  0  0
    0.3171    0.8333   -1.2670 H   0  0  0  0  0  0  0  0  0  0  0  0
    1.6961    2.2065   -0.1441 H   0  0  0  0  0  0  0  0  0  0  0  0
    0.9099    1.7325    1.3704 H   0  0  0  0  0  0  0  0  0  0  0  0
    2.5030    0.2177    1.9378 H   0  0  0  0  0  0  0  0  0  0  0  0
    1.1560   -1.4329    0.5826 H   0  0  0  0  0  0  0  0  0  0  0  0
    0.3998   -1.5858   -1.1102 H   0  0  0  0  0  0  0  0  0  0  0  0
    2.6340   -1.6507   -1.6364 H   0  0  0  0  0  0  0  0  0  0  0  0
    2.2442    0.1353   -1.7826 H   0  0  0  0  0  0  0  0  0  0  0  0
    3.4372   -1.3275    0.5877 H   0  0  0  0  0  0  0  0  0  0  0  0
    4.8654   -0.8732   -0.8823 H   0  0  0  0  0  0  0  0  0  0  0  0
    3.7033    2.2740    0.3521 H   0  0  0  0  0  0  0  0  0  0  0  0
   -4.1815   -0.4847   -0.0527 H   0  0  0  0  0  0  0  0  0  0  0  0
   -4.0872    1.8535    0.9241 H   0  0  0  0  0  0  0  0  0  0  0  0
   -3.7335   -1.1539    1.9207 H   0  0  0  0  0  0  0  0  0  0  0  0
  1  2  1  0
  3  1  1  6
  3  4  1  0
  3  5  1  0
  4  6  1  0
  6  7  1  0
  7  8  1  0
  6  9  1  0
  9 10  1  0
  8 11  1  0
 10 11  1  0
 11 12  1  0
  8 13  1  0
  3 14  1  0
 14 15  1  0
 14 16  1  0
 17 18  1  0
 19 17  1  6
 19 20  1  0
 19 21  1  0
 20 22  1  0
 22 23  1  0
 23 24  1  0
 22 25  1  0
 25 26  1  0
 24 27  1  0
 26 27  1  0
 27 28  1  0
 24 29  1  0
 19 30  1  0
 30 31  1  0
 30 32  1  0
  1 33  1  0
  2 34  1  0
  4 35  1  0
  4 36  1  0
  5 37  1  0
  5 38  1  0
  5 39  1  0
  6 40  1  0
  7 41  1  0
  7 42  1  0
  8 43  1  0
  9 44  1  0
  9 45  1  0
 10 46  1  0
 10 47  1  0
 11 48  1  0
 12 49  1  0
 13 50  1  0
 14 51  1  0
 15 52  1  0
 16 53  1  0
 17 54  1  0
 18 55  1  0
 20 56  1  0
 20 57  1  0
 21 58  1  0
 21 59  1  0
 21 60  1  0
 22 61  1  0
 23 62  1  0
 23 63  1  0
 24 64  1  0
 25 65  1  0
 25 66  1  0
 26 67  1  0
 26 68  1  0
 27 69  1  0
 28 70  1  0
 29 71  1  0
 30 72  1  0
 31 73  1  0
 32 74  1  0
M  END
>  <PDBID>  (1) 
1JS3

>  <PDB ID>  (1) 
1JS3

>  <Generic Name>  (1) 
Carbidopa

>  <Brand Name>  (1) 
Apo-levocarb - Tab 10mg/100mg#Apo-levocarb - Tab 25mg/250mg#Apo-levocarb CR#Apo-levocarb-tab 25mg/100mg#Carbidopa#Carbidopa Tablets, 25 mg#Carbidopa and Levodopa#Carbidopa, Levodopa and Entacapone#Carbidopa, Levodopa, and Entacapone#Dom-levo-carbidopa#Duodopa#Duopa#Lodosyn#Mint-levocarb#Nu-levocarb - Tab 10mg/100mg#Nu-levocarb - Tab 25 Mg/100 mg#Nu-levocarb - Tablets 25 Mg/250 mg#PMS-levocarb CR#Parcopa#Pro-lecarb-100/10 - Tab#Pro-lecarb-100/25 - Tab#Pro-levocarb - 100/25#Ratio-levodopa/carbidopa#Rytary#Sinemet#Sinemet 100/10#Sinemet 100/25#Sinemet 250/25#Sinemet CR#Sinemet CR 100/25#Sinemet CR 200/50#Stalevo#Teva-levocarbidopa

>  <DrugBank ID>  (1) 
DB00190

>  <ATC Codes>  (1) 
nan

>  <Ligand ID>  (1) 
142

>  <Target Name>  (1) 
Aromatic-L-amino-acid decarboxylase

>  <UniProt ID>  (1) 
P20711

>  <PDB ID.1>  (1) 
1JS3

>  <Seq. Identity>  (1) 
90%

$$$$
