PDB_DB00300_00
     RDKit          3D

 41 42  0  0  0  0  0  0  0  0999 V2000
    5.0655    0.8867   -0.6948 P   0  0  0  0  0  0  0  0  0  0  0  0
    5.0852    2.2918   -1.6168 O   0  0  0  0  0  0  0  0  0  0  0  0
    5.0987   -0.4274   -1.7093 O   0  0  0  0  0  0  0  0  0  0  0  0
    3.5943    0.8635    0.3073 C   0  0  0  0  0  0  0  0  0  0  0  0
    2.9214   -0.3554    0.0644 O   0  0  0  0  0  0  0  0  0  0  0  0
    1.9027   -1.5693    1.8040 C   0  0  0  0  0  0  0  0  0  0  0  0
    1.7478   -0.3949    0.8482 C   0  0  2  0  0  0  0  0  0  0  0  0
    0.5705   -0.6047   -0.0720 C   0  0  0  0  0  0  0  0  0  0  0  0
   -0.6607   -0.6333    0.6979 N   0  0  0  0  0  0  0  0  0  0  0  0
   -1.7751   -1.0377   -0.1297 C   0  0  1  0  0  0  0  0  0  0  0  0
   -2.9237   -1.3276    0.6573 N   0  0  0  0  0  0  0  0  0  0  0  0
   -3.9801   -0.3991    0.6986 C   0  0  0  0  0  0  0  0  0  0  0  0
   -4.2464    0.3448   -0.4775 N   0  0  0  0  0  0  0  0  0  0  0  0
   -3.3742   -0.0021   -1.5752 C   0  0  0  0  0  0  0  0  0  0  0  0
   -3.5476    0.7922   -2.7368 N   0  0  0  0  0  0  0  0  0  0  0  0
   -1.9624    0.1267   -1.0346 C   0  0  0  0  0  0  0  0  0  0  0  0
   -1.8484    1.2287   -0.1005 N   0  0  0  0  0  0  0  0  0  0  0  0
   -1.0096    0.7517    0.9944 C   0  0  0  0  0  0  0  0  0  0  0  0
    6.1928    0.8890    0.1275 H   0  0  0  0  0  0  0  0  0  0  0  0
    5.6684    2.9361   -1.1443 H   0  0  0  0  0  0  0  0  0  0  0  0
    5.8198   -1.0534   -1.4704 H   0  0  0  0  0  0  0  0  0  0  0  0
    2.9204    1.7285    0.1949 H   0  0  0  0  0  0  0  0  0  0  0  0
    3.8852    0.8576    1.3918 H   0  0  0  0  0  0  0  0  0  0  0  0
    1.4108   -1.2936    2.7440 H   0  0  0  0  0  0  0  0  0  0  0  0
    2.9758   -1.8172    1.9004 H   0  0  0  0  0  0  0  0  0  0  0  0
    1.4045   -2.4770    1.4168 H   0  0  0  0  0  0  0  0  0  0  0  0
    1.6615    0.5443    1.4143 H   0  0  0  0  0  0  0  0  0  0  0  0
    0.7294   -1.5440   -0.6558 H   0  0  0  0  0  0  0  0  0  0  0  0
    0.5688    0.2669   -0.7909 H   0  0  0  0  0  0  0  0  0  0  0  0
   -1.4982   -1.9265   -0.7715 H   0  0  0  0  0  0  0  0  0  0  0  0
   -2.7633   -1.8861    1.4940 H   0  0  0  0  0  0  0  0  0  0  0  0
   -3.8305    0.2874    1.5559 H   0  0  0  0  0  0  0  0  0  0  0  0
   -4.9204   -0.9671    0.9587 H   0  0  0  0  0  0  0  0  0  0  0  0
   -5.2276    0.4583   -0.7460 H   0  0  0  0  0  0  0  0  0  0  0  0
   -3.5205   -1.0967   -1.8025 H   0  0  0  0  0  0  0  0  0  0  0  0
   -4.5631    0.9087   -2.9694 H   0  0  0  0  0  0  0  0  0  0  0  0
   -3.1788    0.2170   -3.5554 H   0  0  0  0  0  0  0  0  0  0  0  0
   -1.2906    0.1939   -1.8874 H   0  0  0  0  0  0  0  0  0  0  0  0
   -1.4716    2.0628   -0.5626 H   0  0  0  0  0  0  0  0  0  0  0  0
   -0.0959    1.3561    1.0931 H   0  0  0  0  0  0  0  0  0  0  0  0
   -1.5347    0.8206    1.9761 H   0  0  0  0  0  0  0  0  0  0  0  0
  1  2  1  0
  1  3  1  0
  1  4  1  0
  4  5  1  0
  5  7  1  0
  6  7  1  0
  7  8  1  0
  8  9  1  0
  9 10  1  0
 10 11  1  0
 11 12  1  0
 12 13  1  0
 13 14  1  0
 14 15  1  0
 10 16  1  0
 14 16  1  0
 16 17  1  0
  9 18  1  0
 17 18  1  0
  1 19  1  0
  2 20  1  0
  3 21  1  0
  4 22  1  0
  4 23  1  0
  6 24  1  0
  6 25  1  0
  6 26  1  0
  7 27  1  1
  8 28  1  0
  8 29  1  0
 10 30  1  6
 11 31  1  0
 12 32  1  0
 12 33  1  0
 13 34  1  0
 14 35  1  0
 15 36  1  0
 15 37  1  0
 16 38  1  0
 17 39  1  0
 18 40  1  0
 18 41  1  0
M  END
>  <PDBID>  (1) 
1T03

>  <PDB ID>  (1) 
1T03

>  <Generic Name>  (1) 
Tenofovir

>  <Brand Name>  (1) 
Atripla#Complera#Stribild#Truvada#Viread

>  <DrugBank ID>  (1) 
DB00300

>  <ATC Codes>  (1) 
nan

>  <Ligand ID>  (1) 
TFO

>  <Target Name>  (1) 
Reverse transcriptase/RNaseH

>  <UniProt ID>  (1) 
Q72547

>  <PDB ID.1>  (1) 
1T03

>  <Seq. Identity>  (1) 
95%

$$$$
