PDB_DB01064_09
     RDKit          3D

 76 76  0  0  0  0  0  0  0  0999 V2000
   -4.4728    0.5778    1.4449 C   0  0  0  0  0  0  0  0  0  0  0  0
   -3.3262    0.0931    0.5397 C   0  0  0  0  0  0  0  0  0  0  0  0
   -3.9723   -0.2870   -0.7578 C   0  0  0  0  0  0  0  0  0  0  0  0
   -2.3730    1.1516    0.4572 N   0  0  0  0  0  0  0  0  0  0  0  0
   -1.2133    0.8474   -0.3094 C   0  0  0  0  0  0  0  0  0  0  0  0
   -0.2996   -0.1832    0.2812 C   0  0  2  0  0  0  0  0  0  0  0  0
    0.1584    0.2443    1.5287 O   0  0  0  0  0  0  0  0  0  0  0  0
    0.8865   -0.3365   -0.6852 C   0  0  0  0  0  0  0  0  0  0  0  0
    1.5756    0.9911   -0.8026 C   0  0  0  0  0  0  0  0  0  0  0  0
    1.7635   -1.4827   -0.3234 C   0  0  0  0  0  0  0  0  0  0  0  0
    2.8838   -1.1640    0.6012 C   0  0  0  0  0  0  0  0  0  0  0  0
    3.6089    0.1060    0.3011 C   0  0  0  0  0  0  0  0  0  0  0  0
    4.9883   -0.0975    0.0644 O   0  0  0  0  0  0  0  0  0  0  0  0
    3.0843    0.8517   -0.8925 C   0  0  0  0  0  0  0  0  0  0  0  0
    3.6143    2.1460   -0.8307 O   0  0  0  0  0  0  0  0  0  0  0  0
   -4.4728    0.5778    1.4449 C   0  0  0  0  0  0  0  0  0  0  0  0
   -3.3262    0.0931    0.5397 C   0  0  0  0  0  0  0  0  0  0  0  0
   -3.9723   -0.2870   -0.7578 C   0  0  0  0  0  0  0  0  0  0  0  0
   -2.3730    1.1516    0.4572 N   0  0  0  0  0  0  0  0  0  0  0  0
   -1.2133    0.8474   -0.3094 C   0  0  0  0  0  0  0  0  0  0  0  0
   -0.2996   -0.1832    0.2812 C   0  0  2  0  0  0  0  0  0  0  0  0
    0.1584    0.2443    1.5287 O   0  0  0  0  0  0  0  0  0  0  0  0
    0.8865   -0.3365   -0.6852 C   0  0  0  0  0  0  0  0  0  0  0  0
    1.5756    0.9911   -0.8026 C   0  0  0  0  0  0  0  0  0  0  0  0
    1.7635   -1.4827   -0.3234 C   0  0  0  0  0  0  0  0  0  0  0  0
    2.8838   -1.1640    0.6012 C   0  0  0  0  0  0  0  0  0  0  0  0
    3.6089    0.1060    0.3011 C   0  0  0  0  0  0  0  0  0  0  0  0
    4.9883   -0.0975    0.0644 O   0  0  0  0  0  0  0  0  0  0  0  0
    3.0843    0.8517   -0.8925 C   0  0  0  0  0  0  0  0  0  0  0  0
    3.6143    2.1460   -0.8307 O   0  0  0  0  0  0  0  0  0  0  0  0
   -5.1780   -0.2792    1.5276 H   0  0  0  0  0  0  0  0  0  0  0  0
   -5.0101    1.4270    0.9632 H   0  0  0  0  0  0  0  0  0  0  0  0
   -4.0855    0.8375    2.4465 H   0  0  0  0  0  0  0  0  0  0  0  0
   -2.8606   -0.7657    1.0632 H   0  0  0  0  0  0  0  0  0  0  0  0
   -3.3320   -0.2610   -1.6351 H   0  0  0  0  0  0  0  0  0  0  0  0
   -4.8480    0.3716   -0.9764 H   0  0  0  0  0  0  0  0  0  0  0  0
   -4.3693   -1.3360   -0.6314 H   0  0  0  0  0  0  0  0  0  0  0  0
   -2.1974    1.5806    1.3701 H   0  0  0  0  0  0  0  0  0  0  0  0
   -1.4753    0.4928   -1.3292 H   0  0  0  0  0  0  0  0  0  0  0  0
   -0.6313    1.8020   -0.4391 H   0  0  0  0  0  0  0  0  0  0  0  0
   -0.8365   -1.1461    0.4013 H   0  0  0  0  0  0  0  0  0  0  0  0
   -0.6376    0.4667    2.0690 H   0  0  0  0  0  0  0  0  0  0  0  0
    0.4658   -0.5669   -1.7097 H   0  0  0  0  0  0  0  0  0  0  0  0
    1.3257    1.6651    0.0694 H   0  0  0  0  0  0  0  0  0  0  0  0
    1.2608    1.5612   -1.7078 H   0  0  0  0  0  0  0  0  0  0  0  0
    1.1567   -2.2871    0.1457 H   0  0  0  0  0  0  0  0  0  0  0  0
    2.2013   -1.9428   -1.2414 H   0  0  0  0  0  0  0  0  0  0  0  0
    3.6414   -1.9956    0.5026 H   0  0  0  0  0  0  0  0  0  0  0  0
    2.5800   -1.2095    1.6870 H   0  0  0  0  0  0  0  0  0  0  0  0
    3.5067    0.7824    1.1762 H   0  0  0  0  0  0  0  0  0  0  0  0
    5.0911   -0.4858   -0.8409 H   0  0  0  0  0  0  0  0  0  0  0  0
    3.3134    0.3421   -1.8398 H   0  0  0  0  0  0  0  0  0  0  0  0
    4.0124    2.3776   -1.6879 H   0  0  0  0  0  0  0  0  0  0  0  0
   -5.1780   -0.2792    1.5276 H   0  0  0  0  0  0  0  0  0  0  0  0
   -5.0101    1.4270    0.9632 H   0  0  0  0  0  0  0  0  0  0  0  0
   -4.0855    0.8375    2.4465 H   0  0  0  0  0  0  0  0  0  0  0  0
   -2.8606   -0.7657    1.0632 H   0  0  0  0  0  0  0  0  0  0  0  0
   -3.3320   -0.2610   -1.6351 H   0  0  0  0  0  0  0  0  0  0  0  0
   -4.8480    0.3716   -0.9764 H   0  0  0  0  0  0  0  0  0  0  0  0
   -4.3693   -1.3360   -0.6314 H   0  0  0  0  0  0  0  0  0  0  0  0
   -2.1974    1.5806    1.3701 H   0  0  0  0  0  0  0  0  0  0  0  0
   -1.4753    0.4928   -1.3292 H   0  0  0  0  0  0  0  0  0  0  0  0
   -0.6313    1.8020   -0.4391 H   0  0  0  0  0  0  0  0  0  0  0  0
   -0.8365   -1.1461    0.4013 H   0  0  0  0  0  0  0  0  0  0  0  0
   -0.6376    0.4667    2.0690 H   0  0  0  0  0  0  0  0  0  0  0  0
    0.4658   -0.5669   -1.7097 H   0  0  0  0  0  0  0  0  0  0  0  0
    1.3257    1.6651    0.0694 H   0  0  0  0  0  0  0  0  0  0  0  0
    1.2608    1.5612   -1.7078 H   0  0  0  0  0  0  0  0  0  0  0  0
    1.1567   -2.2871    0.1457 H   0  0  0  0  0  0  0  0  0  0  0  0
    2.2013   -1.9428   -1.2414 H   0  0  0  0  0  0  0  0  0  0  0  0
    3.6414   -1.9956    0.5026 H   0  0  0  0  0  0  0  0  0  0  0  0
    2.5800   -1.2095    1.6870 H   0  0  0  0  0  0  0  0  0  0  0  0
    3.5067    0.7824    1.1762 H   0  0  0  0  0  0  0  0  0  0  0  0
    5.0911   -0.4858   -0.8409 H   0  0  0  0  0  0  0  0  0  0  0  0
    3.3134    0.3421   -1.8398 H   0  0  0  0  0  0  0  0  0  0  0  0
    4.0124    2.3776   -1.6879 H   0  0  0  0  0  0  0  0  0  0  0  0
  1  2  1  0
  2  3  1  0
  2  4  1  0
  4  5  1  0
  5  6  1  0
  6  7  1  0
  6  8  1  0
  8  9  1  0
  8 10  1  0
 10 11  1  0
 11 12  1  0
 12 13  1  0
  9 14  1  0
 12 14  1  0
 14 15  1  0
 16 17  1  0
 17 18  1  0
 17 19  1  0
 19 20  1  0
 20 21  1  0
 21 22  1  0
 21 23  1  0
 23 24  1  0
 23 25  1  0
 25 26  1  0
 26 27  1  0
 27 28  1  0
 24 29  1  0
 27 29  1  0
 29 30  1  0
  1 31  1  0
  1 32  1  0
  1 33  1  0
  2 34  1  0
  3 35  1  0
  3 36  1  0
  3 37  1  0
  4 38  1  0
  5 39  1  0
  5 40  1  0
  6 41  1  1
  7 42  1  0
  8 43  1  0
  9 44  1  0
  9 45  1  0
 10 46  1  0
 10 47  1  0
 11 48  1  0
 11 49  1  0
 12 50  1  0
 13 51  1  0
 14 52  1  0
 15 53  1  0
 16 54  1  0
 16 55  1  0
 16 56  1  0
 17 57  1  0
 18 58  1  0
 18 59  1  0
 18 60  1  0
 19 61  1  0
 20 62  1  0
 20 63  1  0
 21 64  1  1
 22 65  1  0
 23 66  1  0
 24 67  1  0
 24 68  1  0
 25 69  1  0
 25 70  1  0
 26 71  1  0
 26 72  1  0
 27 73  1  0
 28 74  1  0
 29 75  1  0
 30 76  1  0
M  END
>  <PDBID>  (1) 
2Y03

>  <PDB ID>  (1) 
2Y03

>  <Generic Name>  (1) 
Isoprenaline

>  <Brand Name>  (1) 
Isoproterenol HCl Inj 1:5000#Isoproterenol Hydrochloride Injection USP#Isuprel#Isuprel Inj 0.2mg/ml#Isuprel Liq 0.2mg/ml#Isuprel Liq 0.5%#Isuprel Liq Inh 0.5%#Isuprel Mistometer 125mcg/aem#Isuprel Mistometer Aem 0.25%#Medihaler-Iso#Proternol L#Saventrine

>  <DrugBank ID>  (1) 
DB01064

>  <ATC Codes>  (1) 
R03AK02#R03CB01#R03CB51#R03AB02#C01CA02

>  <Ligand ID>  (1) 
5FW

>  <Target Name>  (1) 
Beta-1 adrenergic receptor

>  <UniProt ID>  (1) 
P08588

>  <PDB ID.1>  (1) 
2Y03

>  <Seq. Identity>  (1) 
63%

$$$$
