PDB_DB00382_01
     RDKit          3D

 39 41  0  0  0  0  0  0  0  0999 V2000
   -3.5482    1.0230    0.3043 C   0  0  0  0  0  0  0  0  0  0  0  0
   -2.2906    1.5338   -0.2504 C   0  0  0  0  0  0  0  0  0  0  0  0
   -1.0240    0.9080    0.3438 C   0  0  0  0  0  0  0  0  0  0  0  0
   -1.1583   -0.5313    0.6209 C   0  0  0  0  0  0  0  0  0  0  0  0
   -2.4414   -1.1124    0.0063 C   0  0  0  0  0  0  0  0  0  0  0  0
   -3.5504   -0.3911    0.7639 C   0  0  0  0  0  0  0  0  0  0  0  0
    0.0178    1.3293   -0.5131 N   0  0  0  0  0  0  0  0  0  0  0  0
    1.0959    0.4744   -0.7618 C   0  0  2  0  0  0  0  0  0  0  0  0
    1.2390   -0.5320    0.3460 C   0  0  1  0  0  0  0  0  0  0  0  0
   -0.0157   -1.3963    0.2064 C   0  0  0  0  0  0  0  0  0  0  0  0
    2.3599    1.2694   -0.9673 C   0  0  0  0  0  0  0  0  0  0  0  0
    3.2292    1.0445    0.2608 C   0  0  0  0  0  0  0  0  0  0  0  0
    3.6654   -0.4099    0.2276 C   0  0  0  0  0  0  0  0  0  0  0  0
    2.4921   -1.3481    0.2469 C   0  0  0  0  0  0  0  0  0  0  0  0
   -0.1668   -1.6750   -1.2200 N   0  0  0  0  0  0  0  0  0  0  0  0
   -4.3502    1.1112   -0.4888 H   0  0  0  0  0  0  0  0  0  0  0  0
   -3.9401    1.6664    1.1448 H   0  0  0  0  0  0  0  0  0  0  0  0
   -2.2307    2.6344   -0.0934 H   0  0  0  0  0  0  0  0  0  0  0  0
   -2.2366    1.4061   -1.3706 H   0  0  0  0  0  0  0  0  0  0  0  0
   -0.8810    1.4570    1.3234 H   0  0  0  0  0  0  0  0  0  0  0  0
   -1.2952   -0.7206    1.7267 H   0  0  0  0  0  0  0  0  0  0  0  0
   -2.4825   -2.1842    0.2283 H   0  0  0  0  0  0  0  0  0  0  0  0
   -2.5156   -0.8596   -1.0565 H   0  0  0  0  0  0  0  0  0  0  0  0
   -4.5263   -0.8605    0.6125 H   0  0  0  0  0  0  0  0  0  0  0  0
   -3.2672   -0.3891    1.8572 H   0  0  0  0  0  0  0  0  0  0  0  0
    0.3601    2.2885   -0.2794 H   0  0  0  0  0  0  0  0  0  0  0  0
    0.9055   -0.0763   -1.7298 H   0  0  0  0  0  0  0  0  0  0  0  0
    1.1957   -0.0384    1.3161 H   0  0  0  0  0  0  0  0  0  0  0  0
    0.0803   -2.3093    0.7935 H   0  0  0  0  0  0  0  0  0  0  0  0
    2.9400    0.8899   -1.8312 H   0  0  0  0  0  0  0  0  0  0  0  0
    2.1491    2.3482   -1.1136 H   0  0  0  0  0  0  0  0  0  0  0  0
    2.7085    1.3232    1.1758 H   0  0  0  0  0  0  0  0  0  0  0  0
    4.1495    1.6537    0.1903 H   0  0  0  0  0  0  0  0  0  0  0  0
    4.2274   -0.5488   -0.7142 H   0  0  0  0  0  0  0  0  0  0  0  0
    4.3506   -0.5549    1.0798 H   0  0  0  0  0  0  0  0  0  0  0  0
    2.5001   -2.0564   -0.6014 H   0  0  0  0  0  0  0  0  0  0  0  0
    2.5653   -1.9607    1.1689 H   0  0  0  0  0  0  0  0  0  0  0  0
   -1.0057   -2.2552   -1.3961 H   0  0  0  0  0  0  0  0  0  0  0  0
    0.6948   -2.1508   -1.5567 H   0  0  0  0  0  0  0  0  0  0  0  0
  1  2  1  0
  2  3  1  0
  3  4  1  0
  4  5  1  0
  1  6  1  0
  5  6  1  0
  3  7  1  0
  7  8  1  0
  8  9  1  0
  4 10  1  0
  9 10  1  0
  8 11  1  0
 11 12  1  0
 12 13  1  0
  9 14  1  0
 13 14  1  0
 10 15  1  0
  1 16  1  0
  1 17  1  0
  2 18  1  0
  2 19  1  0
  3 20  1  0
  4 21  1  0
  5 22  1  0
  5 23  1  0
  6 24  1  0
  6 25  1  0
  7 26  1  0
  8 27  1  6
  9 28  1  1
 10 29  1  0
 11 30  1  0
 11 31  1  0
 12 32  1  0
 12 33  1  0
 13 34  1  0
 13 35  1  0
 14 36  1  0
 14 37  1  0
 15 38  1  0
 15 39  1  0
M  END
>  <PDBID>  (1) 
1ACJ

>  <PDB ID>  (1) 
1ACJ

>  <Generic Name>  (1) 
Tacrine

>  <Brand Name>  (1) 
Cognex#Talem

>  <DrugBank ID>  (1) 
DB00382

>  <ATC Codes>  (1) 
N06DA01

>  <Ligand ID>  (1) 
THA

>  <Target Name>  (1) 
Acetylcholinesterase

>  <UniProt ID>  (1) 
P22303

>  <PDB ID.1>  (1) 
1ACJ

>  <Seq. Identity>  (1) 
57%

$$$$
