PDB_DB00988_03
     RDKit          3D

 28 28  0  0  0  0  0  0  0  0999 V2000
    1.7086    0.4447   -0.4069 C   0  0  0  0  0  0  0  0  0  0  0  0
    0.3514    0.1480    0.1572 C   0  0  0  0  0  0  0  0  0  0  0  0
   -2.4618   -0.3837   -0.0280 C   0  0  0  0  0  0  0  0  0  0  0  0
   -0.5837    1.2423   -0.3651 C   0  0  0  0  0  0  0  0  0  0  0  0
   -0.1537   -1.2185   -0.1739 C   0  0  0  0  0  0  0  0  0  0  0  0
   -1.4958   -1.1627   -0.8678 C   0  0  0  0  0  0  0  0  0  0  0  0
   -1.9911    1.0360    0.1247 C   0  0  0  0  0  0  0  0  0  0  0  0
   -2.0726    1.5009    1.4323 O   0  0  0  0  0  0  0  0  0  0  0  0
   -2.6631   -0.9760    1.2067 O   0  0  0  0  0  0  0  0  0  0  0  0
    2.7620   -0.5364    0.0049 C   0  0  0  0  0  0  0  0  0  0  0  0
    4.0139   -0.1041   -0.6265 N   0  0  0  0  0  0  0  0  0  0  0  0
    1.6709    0.4812   -1.5020 H   0  0  0  0  0  0  0  0  0  0  0  0
    2.0031    1.4561   -0.0405 H   0  0  0  0  0  0  0  0  0  0  0  0
   -0.4830    1.2488   -1.4489 H   0  0  0  0  0  0  0  0  0  0  0  0
   -0.3002   -1.8611    0.7314 H   0  0  0  0  0  0  0  0  0  0  0  0
   -1.4114   -0.6629   -1.8619 H   0  0  0  0  0  0  0  0  0  0  0  0
   -2.1079    2.4962    1.4180 H   0  0  0  0  0  0  0  0  0  0  0  0
   -3.1322   -1.8416    1.0343 H   0  0  0  0  0  0  0  0  0  0  0  0
    2.9057   -0.6264    1.0825 H   0  0  0  0  0  0  0  0  0  0  0  0
    2.5340   -1.5307   -0.4589 H   0  0  0  0  0  0  0  0  0  0  0  0
    3.8012    0.4860   -1.4837 H   0  0  0  0  0  0  0  0  0  0  0  0
    4.4346    0.5862    0.0587 H   0  0  0  0  0  0  0  0  0  0  0  0
    0.3470    0.2620    1.2621 H   0  0  0  0  0  0  0  0  0  0  0  0
   -3.4559   -0.4225   -0.5592 H   0  0  0  0  0  0  0  0  0  0  0  0
   -0.1985    2.2019    0.0206 H   0  0  0  0  0  0  0  0  0  0  0  0
    0.5295   -1.7715   -0.8478 H   0  0  0  0  0  0  0  0  0  0  0  0
   -1.8963   -2.1767   -0.9998 H   0  0  0  0  0  0  0  0  0  0  0  0
   -2.6548    1.6845   -0.4837 H   0  0  0  0  0  0  0  0  0  0  0  0
  1  2  1  0
  2  4  1  0
  2  5  1  0
  3  6  1  0
  5  6  1  0
  3  7  1  0
  4  7  1  0
  7  8  1  0
  3  9  1  0
  1 10  1  0
 10 11  1  0
  1 12  1  0
  1 13  1  0
  4 14  1  0
  5 15  1  0
  6 16  1  0
  8 17  1  0
  9 18  1  0
 10 19  1  0
 10 20  1  0
 11 21  1  0
 11 22  1  0
  2 23  1  0
  3 24  1  0
  4 25  1  0
  5 26  1  0
  6 27  1  0
  7 28  1  0
M  END
>  <PDBID>  (1) 
4XP1

>  <PDB ID>  (1) 
4XP1

>  <Generic Name>  (1) 
Dopamine

>  <Brand Name>  (1) 
Dopamine#Dopamine HCl#Dopamine HCl Inj 4%#Dopamine Hydrochloride#Dopamine Hydrochloride and Dextrose#Intropin Injection 40mg/ml#Intropin#Revimine

>  <DrugBank ID>  (1) 
DB00988

>  <ATC Codes>  (1) 
C01CA04

>  <Ligand ID>  (1) 
LDP

>  <Target Name>  (1) 
Sodium-dependent dopamine transporter

>  <UniProt ID>  (1) 
Q01959

>  <PDB ID.1>  (1) 
4XP1

>  <Seq. Identity>  (1) 
52%

$$$$
