PDB_DB06616_06
     RDKit          3D

170176  0  0  0  0  0  0  0  0999 V2000
    1.6000   -1.4763    2.5367 C   0  0  0  0  0  0  0  0  0  0  0  0
   -7.7823   -0.5430   -1.8422 O   0  0  0  0  0  0  0  0  0  0  0  0
    5.3107   -1.8061   -0.6999 C   0  0  0  0  0  0  0  0  0  0  0  0
   -4.4285    2.5866    1.7370 N   0  0  0  0  0  0  0  0  0  0  0  0
   -9.2309   -1.4292    0.6369 Cl  0  0  0  0  0  0  0  0  0  0  0  0
   -4.8278   -3.0436    0.3074 Cl  0  0  0  0  0  0  0  0  0  0  0  0
   -3.9381    2.9830    0.4364 C   0  0  0  0  0  0  0  0  0  0  0  0
   -2.4077    2.8184   -1.4101 C   0  0  0  0  0  0  0  0  0  0  0  0
   -6.7301   -1.6161    1.5351 C   0  0  0  0  0  0  0  0  0  0  0  0
   -5.5702   -0.6494   -0.9039 C   0  0  0  0  0  0  0  0  0  0  0  0
    0.6413    0.7233   -1.5824 C   0  0  0  0  0  0  0  0  0  0  0  0
   -0.7153    0.0906    0.9157 C   0  0  0  0  0  0  0  0  0  0  0  0
    3.9748   -1.3589   -0.1030 C   0  0  0  0  0  0  0  0  0  0  0  0
    3.6828    0.0110   -0.6437 C   0  0  0  0  0  0  0  0  0  0  0  0
    9.3460    0.6521    0.8361 C   0  0  0  0  0  0  0  0  0  0  0  0
    6.7348   -0.9079    1.0120 C   0  0  0  0  0  0  0  0  0  0  0  0
    7.2325   -0.4484   -1.3198 C   0  0  0  0  0  0  0  0  0  0  0  0
    8.1590   -1.4185    1.1803 C   0  0  0  0  0  0  0  0  0  0  0  0
    8.6854   -0.6795   -1.0405 C   0  0  0  0  0  0  0  0  0  0  0  0
   -1.4075    1.9937   -2.0533 N   0  0  0  0  0  0  0  0  0  0  0  0
   -3.5679   -0.1918    0.4354 N   0  0  0  0  0  0  0  0  0  0  0  0
    1.3775   -0.3192    1.8145 O   0  0  0  0  0  0  0  0  0  0  0  0
    2.5181    0.5544   -0.2182 O   0  0  0  0  0  0  0  0  0  0  0  0
   -7.0692   -0.5875   -0.6600 C   0  0  0  0  0  0  0  0  0  0  0  0
   -7.5162   -1.7087    0.2550 C   0  0  0  0  0  0  0  0  0  0  0  0
   -5.2388   -1.6272    1.2748 C   0  0  0  0  0  0  0  0  0  0  0  0
   -2.8063    2.1817   -0.0417 C   0  0  0  0  0  0  0  0  0  0  0  0
   -4.9527   -0.3224    0.4794 C   0  0  0  0  0  0  0  0  0  0  0  0
    0.6306   -0.5339    0.6390 C   0  0  0  0  0  0  0  0  0  0  0  0
    1.3489   -0.1147   -0.5641 C   0  0  0  0  0  0  0  0  0  0  0  0
   -2.8635    0.7509   -0.2758 C   0  0  0  0  0  0  0  0  0  0  0  0
   -0.5867    1.4159   -1.0497 C   0  0  0  0  0  0  0  0  0  0  0  0
   -1.3978    0.2856   -0.3840 C   0  0  0  0  0  0  0  0  0  0  0  0
    6.3406   -0.9209   -0.3386 N   0  0  0  0  0  0  0  0  0  0  0  0
    9.0400   -0.6611    0.3411 N   0  0  0  0  0  0  0  0  0  0  0  0
   -8.4678    0.6807   -1.9513 C   0  0  0  0  0  0  0  0  0  0  0  0
    1.6000   -1.4763    2.5367 C   0  0  0  0  0  0  0  0  0  0  0  0
   -7.7823   -0.5430   -1.8422 O   0  0  0  0  0  0  0  0  0  0  0  0
    5.3107   -1.8061   -0.6999 C   0  0  0  0  0  0  0  0  0  0  0  0
   -4.4285    2.5866    1.7370 N   0  0  0  0  0  0  0  0  0  0  0  0
   -9.2309   -1.4292    0.6369 Cl  0  0  0  0  0  0  0  0  0  0  0  0
   -4.8278   -3.0436    0.3074 Cl  0  0  0  0  0  0  0  0  0  0  0  0
   -3.9381    2.9830    0.4364 C   0  0  0  0  0  0  0  0  0  0  0  0
   -2.4077    2.8184   -1.4101 C   0  0  0  0  0  0  0  0  0  0  0  0
   -6.7301   -1.6161    1.5351 C   0  0  0  0  0  0  0  0  0  0  0  0
   -5.5702   -0.6494   -0.9039 C   0  0  0  0  0  0  0  0  0  0  0  0
    0.6413    0.7233   -1.5824 C   0  0  0  0  0  0  0  0  0  0  0  0
   -0.7153    0.0906    0.9157 C   0  0  0  0  0  0  0  0  0  0  0  0
    3.9748   -1.3589   -0.1030 C   0  0  0  0  0  0  0  0  0  0  0  0
    3.6828    0.0110   -0.6437 C   0  0  0  0  0  0  0  0  0  0  0  0
    9.3460    0.6521    0.8361 C   0  0  0  0  0  0  0  0  0  0  0  0
    6.7348   -0.9079    1.0120 C   0  0  0  0  0  0  0  0  0  0  0  0
    7.2325   -0.4484   -1.3198 C   0  0  0  0  0  0  0  0  0  0  0  0
    8.1590   -1.4185    1.1803 C   0  0  0  0  0  0  0  0  0  0  0  0
    8.6854   -0.6795   -1.0405 C   0  0  0  0  0  0  0  0  0  0  0  0
   -1.4075    1.9937   -2.0533 N   0  0  0  0  0  0  0  0  0  0  0  0
   -3.5679   -0.1918    0.4354 N   0  0  0  0  0  0  0  0  0  0  0  0
    1.3775   -0.3192    1.8145 O   0  0  0  0  0  0  0  0  0  0  0  0
    2.5181    0.5544   -0.2182 O   0  0  0  0  0  0  0  0  0  0  0  0
   -7.0692   -0.5875   -0.6600 C   0  0  0  0  0  0  0  0  0  0  0  0
   -7.5162   -1.7087    0.2550 C   0  0  0  0  0  0  0  0  0  0  0  0
   -5.2388   -1.6272    1.2748 C   0  0  0  0  0  0  0  0  0  0  0  0
   -2.8063    2.1817   -0.0417 C   0  0  0  0  0  0  0  0  0  0  0  0
   -4.9527   -0.3224    0.4794 C   0  0  0  0  0  0  0  0  0  0  0  0
    0.6306   -0.5339    0.6390 C   0  0  0  0  0  0  0  0  0  0  0  0
    1.3489   -0.1147   -0.5641 C   0  0  0  0  0  0  0  0  0  0  0  0
   -2.8635    0.7509   -0.2758 C   0  0  0  0  0  0  0  0  0  0  0  0
   -0.5867    1.4159   -1.0497 C   0  0  0  0  0  0  0  0  0  0  0  0
   -1.3978    0.2856   -0.3840 C   0  0  0  0  0  0  0  0  0  0  0  0
    6.3406   -0.9209   -0.3386 N   0  0  0  0  0  0  0  0  0  0  0  0
    9.0400   -0.6611    0.3411 N   0  0  0  0  0  0  0  0  0  0  0  0
   -8.4678    0.6807   -1.9513 C   0  0  0  0  0  0  0  0  0  0  0  0
    2.1904   -1.1911    3.4359 H   0  0  0  0  0  0  0  0  0  0  0  0
    0.6680   -1.9362    2.9323 H   0  0  0  0  0  0  0  0  0  0  0  0
    2.1557   -2.2560    2.0024 H   0  0  0  0  0  0  0  0  0  0  0  0
    5.5086   -2.8556   -0.3664 H   0  0  0  0  0  0  0  0  0  0  0  0
    5.1745   -1.8084   -1.7923 H   0  0  0  0  0  0  0  0  0  0  0  0
   -4.6863    3.3674    2.3442 H   0  0  0  0  0  0  0  0  0  0  0  0
   -3.7882    1.9455    2.2438 H   0  0  0  0  0  0  0  0  0  0  0  0
   -3.5974    4.0571    0.5903 H   0  0  0  0  0  0  0  0  0  0  0  0
   -4.7659    3.1063   -0.3011 H   0  0  0  0  0  0  0  0  0  0  0  0
   -3.3139    2.9759   -2.0015 H   0  0  0  0  0  0  0  0  0  0  0  0
   -1.9730    3.7940   -1.1663 H   0  0  0  0  0  0  0  0  0  0  0  0
   -7.0556   -2.3310    2.2857 H   0  0  0  0  0  0  0  0  0  0  0  0
   -6.9426   -0.5792    1.9402 H   0  0  0  0  0  0  0  0  0  0  0  0
   -5.3392    0.1253   -1.6347 H   0  0  0  0  0  0  0  0  0  0  0  0
   -5.2636   -1.6608   -1.1963 H   0  0  0  0  0  0  0  0  0  0  0  0
    1.3058    1.5138   -1.9889 H   0  0  0  0  0  0  0  0  0  0  0  0
    0.3014    0.1277   -2.4565 H   0  0  0  0  0  0  0  0  0  0  0  0
   -0.6157    1.0712    1.4273 H   0  0  0  0  0  0  0  0  0  0  0  0
   -1.2432   -0.5611    1.6307 H   0  0  0  0  0  0  0  0  0  0  0  0
    3.2163   -2.0588   -0.4353 H   0  0  0  0  0  0  0  0  0  0  0  0
    4.1004   -1.2954    1.0141 H   0  0  0  0  0  0  0  0  0  0  0  0
    4.5076    0.7034   -0.2844 H   0  0  0  0  0  0  0  0  0  0  0  0
    3.6955   -0.0336   -1.7572 H   0  0  0  0  0  0  0  0  0  0  0  0
    9.3362    0.6006    1.9538 H   0  0  0  0  0  0  0  0  0  0  0  0
    8.5743    1.3624    0.5360 H   0  0  0  0  0  0  0  0  0  0  0  0
   10.3643    0.9967    0.4897 H   0  0  0  0  0  0  0  0  0  0  0  0
    6.7241    0.1383    1.4106 H   0  0  0  0  0  0  0  0  0  0  0  0
    6.0662   -1.5528    1.6084 H   0  0  0  0  0  0  0  0  0  0  0  0
    7.0059   -0.9759   -2.2925 H   0  0  0  0  0  0  0  0  0  0  0  0
    7.0060    0.6359   -1.4976 H   0  0  0  0  0  0  0  0  0  0  0  0
    8.1588   -2.4613    0.7905 H   0  0  0  0  0  0  0  0  0  0  0  0
    8.4752   -1.3599    2.2189 H   0  0  0  0  0  0  0  0  0  0  0  0
    9.2690    0.1000   -1.5742 H   0  0  0  0  0  0  0  0  0  0  0  0
    8.9534   -1.6932   -1.4525 H   0  0  0  0  0  0  0  0  0  0  0  0
   -0.8184    2.5704   -2.6915 H   0  0  0  0  0  0  0  0  0  0  0  0
   -3.1406   -1.1385    0.3192 H   0  0  0  0  0  0  0  0  0  0  0  0
   -7.2309    0.3677   -0.0936 H   0  0  0  0  0  0  0  0  0  0  0  0
   -7.3491   -2.7006   -0.1783 H   0  0  0  0  0  0  0  0  0  0  0  0
   -4.7038   -1.5884    2.2338 H   0  0  0  0  0  0  0  0  0  0  0  0
   -1.9498    2.3842    0.6790 H   0  0  0  0  0  0  0  0  0  0  0  0
   -5.5829    0.3967    0.9782 H   0  0  0  0  0  0  0  0  0  0  0  0
    0.4392   -1.6500    0.6365 H   0  0  0  0  0  0  0  0  0  0  0  0
    1.6960   -1.0250   -1.1422 H   0  0  0  0  0  0  0  0  0  0  0  0
   -3.1553    0.6598   -1.4270 H   0  0  0  0  0  0  0  0  0  0  0  0
   -0.2382    2.1577   -0.3228 H   0  0  0  0  0  0  0  0  0  0  0  0
   -1.3317   -0.5901   -1.0597 H   0  0  0  0  0  0  0  0  0  0  0  0
   -7.7252    1.5195   -1.9348 H   0  0  0  0  0  0  0  0  0  0  0  0
   -9.1297    0.8483   -1.0753 H   0  0  0  0  0  0  0  0  0  0  0  0
   -9.0708    0.7207   -2.8694 H   0  0  0  0  0  0  0  0  0  0  0  0
    2.1904   -1.1911    3.4359 H   0  0  0  0  0  0  0  0  0  0  0  0
    0.6680   -1.9362    2.9323 H   0  0  0  0  0  0  0  0  0  0  0  0
    2.1557   -2.2560    2.0024 H   0  0  0  0  0  0  0  0  0  0  0  0
    5.5086   -2.8556   -0.3664 H   0  0  0  0  0  0  0  0  0  0  0  0
    5.1745   -1.8084   -1.7923 H   0  0  0  0  0  0  0  0  0  0  0  0
   -4.6863    3.3674    2.3442 H   0  0  0  0  0  0  0  0  0  0  0  0
   -3.7882    1.9455    2.2438 H   0  0  0  0  0  0  0  0  0  0  0  0
   -3.5974    4.0571    0.5903 H   0  0  0  0  0  0  0  0  0  0  0  0
   -4.7659    3.1063   -0.3011 H   0  0  0  0  0  0  0  0  0  0  0  0
   -3.3139    2.9759   -2.0015 H   0  0  0  0  0  0  0  0  0  0  0  0
   -1.9730    3.7940   -1.1663 H   0  0  0  0  0  0  0  0  0  0  0  0
   -7.0556   -2.3310    2.2857 H   0  0  0  0  0  0  0  0  0  0  0  0
   -6.9426   -0.5792    1.9402 H   0  0  0  0  0  0  0  0  0  0  0  0
   -5.3392    0.1253   -1.6347 H   0  0  0  0  0  0  0  0  0  0  0  0
   -5.2636   -1.6608   -1.1963 H   0  0  0  0  0  0  0  0  0  0  0  0
    1.3058    1.5138   -1.9889 H   0  0  0  0  0  0  0  0  0  0  0  0
    0.3014    0.1277   -2.4565 H   0  0  0  0  0  0  0  0  0  0  0  0
   -0.6157    1.0712    1.4273 H   0  0  0  0  0  0  0  0  0  0  0  0
   -1.2432   -0.5611    1.6307 H   0  0  0  0  0  0  0  0  0  0  0  0
    3.2163   -2.0588   -0.4353 H   0  0  0  0  0  0  0  0  0  0  0  0
    4.1004   -1.2954    1.0141 H   0  0  0  0  0  0  0  0  0  0  0  0
    4.5076    0.7034   -0.2844 H   0  0  0  0  0  0  0  0  0  0  0  0
    3.6955   -0.0336   -1.7572 H   0  0  0  0  0  0  0  0  0  0  0  0
    9.3362    0.6006    1.9538 H   0  0  0  0  0  0  0  0  0  0  0  0
    8.5743    1.3624    0.5360 H   0  0  0  0  0  0  0  0  0  0  0  0
   10.3643    0.9967    0.4897 H   0  0  0  0  0  0  0  0  0  0  0  0
    6.7241    0.1383    1.4106 H   0  0  0  0  0  0  0  0  0  0  0  0
    6.0662   -1.5528    1.6084 H   0  0  0  0  0  0  0  0  0  0  0  0
    7.0059   -0.9759   -2.2925 H   0  0  0  0  0  0  0  0  0  0  0  0
    7.0060    0.6359   -1.4976 H   0  0  0  0  0  0  0  0  0  0  0  0
    8.1588   -2.4613    0.7905 H   0  0  0  0  0  0  0  0  0  0  0  0
    8.4752   -1.3599    2.2189 H   0  0  0  0  0  0  0  0  0  0  0  0
    9.2690    0.1000   -1.5742 H   0  0  0  0  0  0  0  0  0  0  0  0
    8.9534   -1.6932   -1.4525 H   0  0  0  0  0  0  0  0  0  0  0  0
   -0.8184    2.5704   -2.6915 H   0  0  0  0  0  0  0  0  0  0  0  0
   -3.1406   -1.1385    0.3192 H   0  0  0  0  0  0  0  0  0  0  0  0
   -7.2309    0.3677   -0.0936 H   0  0  0  0  0  0  0  0  0  0  0  0
   -7.3491   -2.7006   -0.1783 H   0  0  0  0  0  0  0  0  0  0  0  0
   -4.7038   -1.5884    2.2338 H   0  0  0  0  0  0  0  0  0  0  0  0
   -1.9498    2.3842    0.6790 H   0  0  0  0  0  0  0  0  0  0  0  0
   -5.5829    0.3967    0.9782 H   0  0  0  0  0  0  0  0  0  0  0  0
    0.4392   -1.6500    0.6365 H   0  0  0  0  0  0  0  0  0  0  0  0
    1.6960   -1.0250   -1.1422 H   0  0  0  0  0  0  0  0  0  0  0  0
   -3.1553    0.6598   -1.4270 H   0  0  0  0  0  0  0  0  0  0  0  0
   -0.2382    2.1577   -0.3228 H   0  0  0  0  0  0  0  0  0  0  0  0
   -1.3317   -0.5901   -1.0597 H   0  0  0  0  0  0  0  0  0  0  0  0
   -7.7252    1.5195   -1.9348 H   0  0  0  0  0  0  0  0  0  0  0  0
   -9.1297    0.8483   -1.0753 H   0  0  0  0  0  0  0  0  0  0  0  0
   -9.0708    0.7207   -2.8694 H   0  0  0  0  0  0  0  0  0  0  0  0
  4  7  1  0
  3 13  1  0
 13 14  1  0
 16 18  1  0
 17 19  1  0
  8 20  1  0
  1 22  1  0
 14 23  1  0
  2 24  1  0
 10 24  1  0
  5 25  1  0
  9 25  1  0
 24 25  1  0
  6 26  1  0
  9 26  1  0
  7 27  1  0
  8 27  1  0
 10 28  1  0
 21 28  1  0
 26 28  1  0
 12 29  1  0
 22 29  1  0
 11 30  1  0
 23 30  1  0
 29 30  1  0
 21 31  1  0
 27 31  1  0
 11 32  1  0
 20 32  1  0
 12 33  1  0
 31 33  1  0
 32 33  1  0
  3 34  1  0
 16 34  1  0
 17 34  1  0
 15 35  1  0
 18 35  1  0
 19 35  1  0
  2 36  1  0
 40 43  1  0
 39 49  1  0
 49 50  1  0
 52 54  1  0
 53 55  1  0
 44 56  1  0
 37 58  1  0
 50 59  1  0
 38 60  1  0
 46 60  1  0
 41 61  1  0
 45 61  1  0
 60 61  1  0
 42 62  1  0
 45 62  1  0
 43 63  1  0
 44 63  1  0
 46 64  1  0
 57 64  1  0
 62 64  1  0
 48 65  1  0
 58 65  1  0
 47 66  1  0
 59 66  1  0
 65 66  1  0
 57 67  1  0
 63 67  1  0
 47 68  1  0
 56 68  1  0
 48 69  1  0
 67 69  1  0
 68 69  1  0
 39 70  1  0
 52 70  1  0
 53 70  1  0
 51 71  1  0
 54 71  1  0
 55 71  1  0
 38 72  1  0
  1 73  1  0
  1 74  1  0
  1 75  1  0
  3 76  1  0
  3 77  1  0
  4 78  1  0
  4 79  1  0
  7 80  1  0
  7 81  1  0
  8 82  1  0
  8 83  1  0
  9 84  1  0
  9 85  1  0
 10 86  1  0
 10 87  1  0
 11 88  1  0
 11 89  1  0
 12 90  1  0
 12 91  1  0
 13 92  1  0
 13 93  1  0
 14 94  1  0
 14 95  1  0
 15 96  1  0
 15 97  1  0
 15 98  1  0
 16 99  1  0
 16100  1  0
 17101  1  0
 17102  1  0
 18103  1  0
 18104  1  0
 19105  1  0
 19106  1  0
 20107  1  0
 21108  1  0
 24109  1  0
 25110  1  0
 26111  1  0
 27112  1  0
 28113  1  0
 29114  1  0
 30115  1  0
 31116  1  0
 32117  1  0
 33118  1  0
 36119  1  0
 36120  1  0
 36121  1  0
 37122  1  0
 37123  1  0
 37124  1  0
 39125  1  0
 39126  1  0
 40127  1  0
 40128  1  0
 43129  1  0
 43130  1  0
 44131  1  0
 44132  1  0
 45133  1  0
 45134  1  0
 46135  1  0
 46136  1  0
 47137  1  0
 47138  1  0
 48139  1  0
 48140  1  0
 49141  1  0
 49142  1  0
 50143  1  0
 50144  1  0
 51145  1  0
 51146  1  0
 51147  1  0
 52148  1  0
 52149  1  0
 53150  1  0
 53151  1  0
 54152  1  0
 54153  1  0
 55154  1  0
 55155  1  0
 56156  1  0
 57157  1  0
 60158  1  0
 61159  1  0
 62160  1  0
 63161  1  0
 64162  1  0
 65163  1  0
 66164  1  0
 67165  1  0
 68166  1  0
 69167  1  0
 72168  1  0
 72169  1  0
 72170  1  0
M  END
>  <PDBID>  (1) 
3UE4

>  <PDB ID>  (1) 
3UE4

>  <Generic Name>  (1) 
Bosutinib

>  <Brand Name>  (1) 
Bosulif

>  <DrugBank ID>  (1) 
DB06616

>  <ATC Codes>  (1) 
L01XE14

>  <Ligand ID>  (1) 
DB8

>  <Target Name>  (1) 
Tyrosine-protein kinase ABL1

>  <UniProt ID>  (1) 
P00519

>  <PDB ID.1>  (1) 
3UE4

>  <Seq. Identity>  (1) 
95%

$$$$
