PDB_DB01232_06
     RDKit          3D

123127  0  0  0  0  0  0  0  0999 V2000
    4.2088    0.9816    0.3060 C   0  0  0  0  0  0  0  0  0  0  0  0
    3.4947    1.9640   -0.3946 O   0  0  0  0  0  0  0  0  0  0  0  0
    6.0607    2.4825    0.3334 N   0  0  0  0  0  0  0  0  0  0  0  0
    5.1853    1.7004    1.2025 C   0  0  2  0  0  0  0  0  0  0  0  0
    6.0255    0.8251    2.0636 C   0  0  0  0  0  0  0  0  0  0  0  0
    7.3272    0.3974    1.4065 C   0  0  0  0  0  0  0  0  0  0  0  0
    8.8935    1.2949   -0.2241 C   0  0  0  0  0  0  0  0  0  0  0  0
    9.7488    2.4965   -0.5589 C   0  0  0  0  0  0  0  0  0  0  0  0
    8.7973    3.6288   -0.9140 C   0  0  0  0  0  0  0  0  0  0  0  0
    7.9614    3.9784    0.2796 C   0  0  0  0  0  0  0  0  0  0  0  0
    8.1829    1.5890    1.0664 C   0  0  0  0  0  0  0  0  0  0  0  0
    7.3245    2.8094    0.9664 C   0  0  0  0  0  0  0  0  0  0  0  0
    3.3546    0.0815    1.0038 N   0  0  0  0  0  0  0  0  0  0  0  0
    2.4374   -0.6454    0.1434 C   0  0  2  0  0  0  0  0  0  0  0  0
    1.5416   -1.5429    0.9570 C   0  0  0  0  0  0  0  0  0  0  0  0
    2.3983   -2.4081    1.6945 O   0  0  0  0  0  0  0  0  0  0  0  0
    3.0663   -1.2567   -1.0424 C   0  0  0  0  0  0  0  0  0  0  0  0
    4.1398   -2.2608   -0.8482 C   0  0  1  0  0  0  0  0  0  0  0  0
    3.7879   -3.3959   -0.1622 O   0  0  0  0  0  0  0  0  0  0  0  0
    4.6235   -2.6276   -2.1937 N   0  0  0  0  0  0  0  0  0  0  0  0
   -1.3059   -1.0368    0.3283 C   0  0  1  0  0  0  0  0  0  0  0  0
   -1.9257   -2.0122    1.0815 O   0  0  0  0  0  0  0  0  0  0  0  0
   -0.3028   -1.6213   -0.6479 C   0  0  1  0  0  0  0  0  0  0  0  0
    0.6737   -2.3425    0.1170 N   0  0  0  0  0  0  0  0  0  0  0  0
   -0.8665   -2.4276   -1.7464 C   0  0  0  0  0  0  0  0  0  0  0  0
   -1.6257   -3.6543   -1.4335 C   0  0  0  0  0  0  0  0  0  0  0  0
   -0.8763   -4.7356   -0.7198 C   0  0  0  0  0  0  0  0  0  0  0  0
   -2.0757   -4.2443   -2.7812 C   0  0  0  0  0  0  0  0  0  0  0  0
   -1.0852   -6.1166   -1.3739 C   0  0  0  0  0  0  0  0  0  0  0  0
   -3.1667   -5.2327   -2.4645 C   0  0  0  0  0  0  0  0  0  0  0  0
   -2.5352   -6.3502   -1.6513 C   0  0  0  0  0  0  0  0  0  0  0  0
   -3.1533    0.4820    0.5350 N   0  0  0  0  0  0  0  0  0  0  0  0
   -2.3287   -0.1779   -0.3820 C   0  0  0  0  0  0  0  0  0  0  0  0
   -4.1679    1.3726   -0.0231 C   0  0  2  0  0  0  0  0  0  0  0  0
   -3.7392    2.1077   -1.2371 C   0  0  0  0  0  0  0  0  0  0  0  0
   -2.5815    2.8487   -0.8226 O   0  0  0  0  0  0  0  0  0  0  0  0
   -4.3280    2.4363    1.0842 C   0  0  0  0  0  0  0  0  0  0  0  0
   -4.9955    1.7415    2.2196 C   0  0  2  0  0  0  0  0  0  0  0  0
   -4.3918    2.1178    3.5703 C   0  0  0  0  0  0  0  0  0  0  0  0
   -5.5099    1.9147    4.5905 C   0  0  0  0  0  0  0  0  0  0  0  0
   -6.1053    0.5648    4.3201 C   0  0  0  0  0  0  0  0  0  0  0  0
   -5.1638   -0.3035    3.5025 C   0  0  0  0  0  0  0  0  0  0  0  0
   -5.0269    0.2577    2.1039 C   0  0  2  0  0  0  0  0  0  0  0  0
   -3.7787   -0.3540    1.4943 C   0  0  0  0  0  0  0  0  0  0  0  0
   -4.6508    3.0510   -1.7106 N   0  0  0  0  0  0  0  0  0  0  0  0
   -5.9023    2.7756   -2.2347 C   0  0  0  0  0  0  0  0  0  0  0  0
   -6.9414    2.1398   -1.3589 C   0  0  0  0  0  0  0  0  0  0  0  0
   -6.5661    4.1150   -2.6854 C   0  0  0  0  0  0  0  0  0  0  0  0
   -5.8776    1.9557   -3.5232 C   0  0  0  0  0  0  0  0  0  0  0  0
    4.8549    0.4775   -0.4718 H   0  0  0  0  0  0  0  0  0  0  0  0
    3.1253    2.6496    0.2202 H   0  0  0  0  0  0  0  0  0  0  0  0
    5.5583    3.3551    0.0643 H   0  0  0  0  0  0  0  0  0  0  0  0
    4.5907    2.3830    1.8491 H   0  0  0  0  0  0  0  0  0  0  0  0
    6.2938    1.4343    2.9830 H   0  0  0  0  0  0  0  0  0  0  0  0
    5.5553   -0.0981    2.4338 H   0  0  0  0  0  0  0  0  0  0  0  0
    7.0675   -0.2144    0.5267 H   0  0  0  0  0  0  0  0  0  0  0  0
    7.8575   -0.2221    2.1637 H   0  0  0  0  0  0  0  0  0  0  0  0
    9.5669    0.4185   -0.0523 H   0  0  0  0  0  0  0  0  0  0  0  0
    8.1496    1.0976   -1.0026 H   0  0  0  0  0  0  0  0  0  0  0  0
   10.3169    2.8139    0.3456 H   0  0  0  0  0  0  0  0  0  0  0  0
   10.4005    2.2868   -1.4189 H   0  0  0  0  0  0  0  0  0  0  0  0
    9.4408    4.5119   -1.1428 H   0  0  0  0  0  0  0  0  0  0  0  0
    8.2300    3.4182   -1.8292 H   0  0  0  0  0  0  0  0  0  0  0  0
    7.1564    4.6780   -0.0467 H   0  0  0  0  0  0  0  0  0  0  0  0
    8.6350    4.4806    1.0072 H   0  0  0  0  0  0  0  0  0  0  0  0
    8.9209    1.7820    1.8848 H   0  0  0  0  0  0  0  0  0  0  0  0
    7.1282    3.1384    2.0306 H   0  0  0  0  0  0  0  0  0  0  0  0
    3.8498   -0.5977    1.5779 H   0  0  0  0  0  0  0  0  0  0  0  0
    1.7390    0.1652   -0.2540 H   0  0  0  0  0  0  0  0  0  0  0  0
    0.9932   -0.9907    1.7308 H   0  0  0  0  0  0  0  0  0  0  0  0
    2.0739   -2.5531    2.6029 H   0  0  0  0  0  0  0  0  0  0  0  0
    2.2533   -1.6507   -1.7065 H   0  0  0  0  0  0  0  0  0  0  0  0
    3.5024   -0.4164   -1.6600 H   0  0  0  0  0  0  0  0  0  0  0  0
    5.0391   -1.8493   -0.3271 H   0  0  0  0  0  0  0  0  0  0  0  0
    4.5971   -3.8904    0.0853 H   0  0  0  0  0  0  0  0  0  0  0  0
    4.0598   -3.4014   -2.5782 H   0  0  0  0  0  0  0  0  0  0  0  0
    4.5898   -1.7637   -2.7818 H   0  0  0  0  0  0  0  0  0  0  0  0
   -0.7362   -0.3749    1.0133 H   0  0  0  0  0  0  0  0  0  0  0  0
   -1.4791   -2.2503    1.9105 H   0  0  0  0  0  0  0  0  0  0  0  0
    0.1856   -0.7141   -1.1103 H   0  0  0  0  0  0  0  0  0  0  0  0
    0.1384   -2.9436    0.8438 H   0  0  0  0  0  0  0  0  0  0  0  0
   -1.4845   -1.8078   -2.4495 H   0  0  0  0  0  0  0  0  0  0  0  0
    0.0126   -2.7519   -2.3919 H   0  0  0  0  0  0  0  0  0  0  0  0
   -2.5451   -3.4264   -0.8441 H   0  0  0  0  0  0  0  0  0  0  0  0
   -1.1538   -4.8750    0.3402 H   0  0  0  0  0  0  0  0  0  0  0  0
    0.2287   -4.5921   -0.7655 H   0  0  0  0  0  0  0  0  0  0  0  0
   -1.2115   -4.6739   -3.2954 H   0  0  0  0  0  0  0  0  0  0  0  0
   -2.4321   -3.4030   -3.4100 H   0  0  0  0  0  0  0  0  0  0  0  0
   -0.7617   -6.8697   -0.6312 H   0  0  0  0  0  0  0  0  0  0  0  0
   -0.4186   -6.2273   -2.2514 H   0  0  0  0  0  0  0  0  0  0  0  0
   -3.5734   -5.6365   -3.4055 H   0  0  0  0  0  0  0  0  0  0  0  0
   -3.9380   -4.6788   -1.8771 H   0  0  0  0  0  0  0  0  0  0  0  0
   -2.6211   -7.3100   -2.2020 H   0  0  0  0  0  0  0  0  0  0  0  0
   -3.0556   -6.3790   -0.6728 H   0  0  0  0  0  0  0  0  0  0  0  0
   -1.8504    0.4648   -1.1487 H   0  0  0  0  0  0  0  0  0  0  0  0
   -2.9662   -0.9008   -0.9749 H   0  0  0  0  0  0  0  0  0  0  0  0
   -5.0769    0.7840   -0.0778 H   0  0  0  0  0  0  0  0  0  0  0  0
   -3.3375    1.4222   -2.0269 H   0  0  0  0  0  0  0  0  0  0  0  0
   -2.2246    3.2986   -1.6172 H   0  0  0  0  0  0  0  0  0  0  0  0
   -3.2934    2.7274    1.3467 H   0  0  0  0  0  0  0  0  0  0  0  0
   -4.8437    3.3248    0.7003 H   0  0  0  0  0  0  0  0  0  0  0  0
   -6.0572    2.1190    2.2483 H   0  0  0  0  0  0  0  0  0  0  0  0
   -4.0953    3.1710    3.5048 H   0  0  0  0  0  0  0  0  0  0  0  0
   -3.5014    1.5242    3.7995 H   0  0  0  0  0  0  0  0  0  0  0  0
   -6.2657    2.7206    4.3538 H   0  0  0  0  0  0  0  0  0  0  0  0
   -5.1922    2.0905    5.6156 H   0  0  0  0  0  0  0  0  0  0  0  0
   -6.3498    0.0043    5.2343 H   0  0  0  0  0  0  0  0  0  0  0  0
   -7.0368    0.6820    3.7033 H   0  0  0  0  0  0  0  0  0  0  0  0
   -5.6118   -1.3322    3.4701 H   0  0  0  0  0  0  0  0  0  0  0  0
   -4.1877   -0.4218    3.9961 H   0  0  0  0  0  0  0  0  0  0  0  0
   -5.9509   -0.0761    1.5499 H   0  0  0  0  0  0  0  0  0  0  0  0
   -4.1004   -1.3541    1.1277 H   0  0  0  0  0  0  0  0  0  0  0  0
   -3.0745   -0.4939    2.3412 H   0  0  0  0  0  0  0  0  0  0  0  0
   -4.2365    3.9448   -2.0670 H   0  0  0  0  0  0  0  0  0  0  0  0
   -6.8296    2.3394   -0.2921 H   0  0  0  0  0  0  0  0  0  0  0  0
   -7.9659    2.4347   -1.7281 H   0  0  0  0  0  0  0  0  0  0  0  0
   -6.8734    1.0235   -1.5037 H   0  0  0  0  0  0  0  0  0  0  0  0
   -7.6144    3.9336   -2.9303 H   0  0  0  0  0  0  0  0  0  0  0  0
   -6.0223    4.5588   -3.5172 H   0  0  0  0  0  0  0  0  0  0  0  0
   -6.5503    4.7558   -1.7764 H   0  0  0  0  0  0  0  0  0  0  0  0
   -5.7647    0.8803   -3.3543 H   0  0  0  0  0  0  0  0  0  0  0  0
   -6.9068    2.0942   -3.9742 H   0  0  0  0  0  0  0  0  0  0  0  0
   -5.1789    2.3890   -4.2740 H   0  0  0  0  0  0  0  0  0  0  0  0
  1  2  1  0
  1  4  1  0
  3  4  1  0
  4  5  1  0
  5  6  1  0
  7  8  1  0
  8  9  1  0
  9 10  1  0
  6 11  1  0
  7 11  1  0
  3 12  1  0
 10 12  1  0
 11 12  1  0
  1 13  1  0
 13 14  1  0
 14 15  1  0
 15 16  1  0
 14 17  1  0
 17 18  1  0
 18 19  1  0
 18 20  1  0
 21 22  1  0
 21 23  1  0
 15 24  1  0
 23 24  1  0
 23 25  1  0
 25 26  1  0
 26 27  1  0
 26 28  1  0
 27 29  1  0
 28 30  1  0
 29 31  1  0
 30 31  1  0
 21 33  1  0
 32 33  1  0
 32 34  1  0
 34 35  1  0
 35 36  1  0
 34 37  1  0
 37 38  1  0
 38 39  1  0
 39 40  1  0
 40 41  1  0
 41 42  1  0
 38 43  1  0
 42 43  1  0
 32 44  1  0
 43 44  1  0
 35 45  1  0
 46 45  1  0
 46 47  1  0
 46 48  1  0
 46 49  1  0
  1 50  1  0
  2 51  1  0
  3 52  1  0
  4 53  1  1
  5 54  1  0
  5 55  1  0
  6 56  1  0
  6 57  1  0
  7 58  1  0
  7 59  1  0
  8 60  1  0
  8 61  1  0
  9 62  1  0
  9 63  1  0
 10 64  1  0
 10 65  1  0
 11 66  1  0
 12 67  1  0
 13 68  1  0
 14 69  1  6
 15 70  1  0
 16 71  1  0
 17 72  1  0
 17 73  1  0
 18 74  1  1
 19 75  1  0
 20 76  1  0
 20 77  1  0
 21 78  1  1
 22 79  1  0
 23 80  1  6
 24 81  1  0
 25 82  1  0
 25 83  1  0
 26 84  1  0
 27 85  1  0
 27 86  1  0
 28 87  1  0
 28 88  1  0
 29 89  1  0
 29 90  1  0
 30 91  1  0
 30 92  1  0
 31 93  1  0
 31 94  1  0
 33 95  1  0
 33 96  1  0
 34 97  1  6
 35 98  1  0
 36 99  1  0
 37100  1  0
 37101  1  0
 38102  1  1
 39103  1  0
 39104  1  0
 40105  1  0
 40106  1  0
 41107  1  0
 41108  1  0
 42109  1  0
 42110  1  0
 43111  1  6
 44112  1  0
 44113  1  0
 45114  1  0
 47115  1  0
 47116  1  0
 47117  1  0
 48118  1  0
 48119  1  0
 48120  1  0
 49121  1  0
 49122  1  0
 49123  1  0
M  END
>  <PDBID>  (1) 
1HXB

>  <PDB ID>  (1) 
1HXB

>  <Generic Name>  (1) 
Saquinavir

>  <Brand Name>  (1) 
Fortovase Roche#Invirase#Invirase - Cap 200mg#Fortovase#ROC

>  <DrugBank ID>  (1) 
DB01232

>  <ATC Codes>  (1) 
J05AE01

>  <Ligand ID>  (1) 
ROC

>  <Target Name>  (1) 
Pol polyprotein

>  <UniProt ID>  (1) 
Q72874

>  <PDB ID.1>  (1) 
1HXB

>  <Seq. Identity>  (1) 
100%

$$$$
