PDB_DB01104_06
     RDKit          3D

 49 51  0  0  0  0  0  0  0  0999 V2000
    5.4836   -1.4628   -0.6832 Cl  0  0  0  0  0  0  0  0  0  0  0  0
    4.7608   -0.0633    0.1739 C   0  0  0  0  0  0  0  0  0  0  0  0
    3.9768    0.8183   -0.7545 C   0  0  0  0  0  0  0  0  0  0  0  0
    4.7846    2.3252   -1.1615 Cl  0  0  0  0  0  0  0  0  0  0  0  0
    3.8926   -0.5991    1.2660 C   0  0  0  0  0  0  0  0  0  0  0  0
    2.6639   -1.2417    0.6532 C   0  0  0  0  0  0  0  0  0  0  0  0
    1.8893   -0.2625   -0.1974 C   0  0  0  0  0  0  0  0  0  0  0  0
    2.5647    1.0565   -0.1912 C   0  0  0  0  0  0  0  0  0  0  0  0
    0.4624   -0.2978    0.2165 C   0  0  1  0  0  0  0  0  0  0  0  0
   -0.4290    0.6555   -0.5331 C   0  0  0  0  0  0  0  0  0  0  0  0
   -0.3798    2.0072    0.0837 C   0  0  0  0  0  0  0  0  0  0  0  0
   -1.6783    2.5001    0.6556 C   0  0  0  0  0  0  0  0  0  0  0  0
   -2.8450    2.3043   -0.2430 C   0  0  0  0  0  0  0  0  0  0  0  0
   -2.8596    1.0450   -1.0220 C   0  0  0  0  0  0  0  0  0  0  0  0
   -1.7882    0.0542   -0.6465 C   0  0  0  0  0  0  0  0  0  0  0  0
   -2.2018   -0.7765    0.5493 C   0  0  1  0  0  0  0  0  0  0  0  0
   -3.5866   -1.1005    0.4544 N   0  0  0  0  0  0  0  0  0  0  0  0
   -3.9820   -1.9015   -0.6573 C   0  0  0  0  0  0  0  0  0  0  0  0
   -1.3135   -2.0138    0.6485 C   0  0  0  0  0  0  0  0  0  0  0  0
   -0.0556   -1.7108   -0.0928 C   0  0  0  0  0  0  0  0  0  0  0  0
    5.6131    0.4699    0.6506 H   0  0  0  0  0  0  0  0  0  0  0  0
    3.7986    0.2206   -1.6966 H   0  0  0  0  0  0  0  0  0  0  0  0
    3.6061    0.1726    2.0152 H   0  0  0  0  0  0  0  0  0  0  0  0
    4.4144   -1.3977    1.8365 H   0  0  0  0  0  0  0  0  0  0  0  0
    2.0579   -1.5879    1.5428 H   0  0  0  0  0  0  0  0  0  0  0  0
    2.9503   -2.1502    0.1106 H   0  0  0  0  0  0  0  0  0  0  0  0
    1.9607   -0.6528   -1.2566 H   0  0  0  0  0  0  0  0  0  0  0  0
    2.7070    1.5277    0.7806 H   0  0  0  0  0  0  0  0  0  0  0  0
    2.1147    1.7881   -0.8900 H   0  0  0  0  0  0  0  0  0  0  0  0
    0.3267   -0.1337    1.3010 H   0  0  0  0  0  0  0  0  0  0  0  0
    0.0016    0.7381   -1.5634 H   0  0  0  0  0  0  0  0  0  0  0  0
   -0.0409    2.7955   -0.6520 H   0  0  0  0  0  0  0  0  0  0  0  0
    0.3561    2.0121    0.9306 H   0  0  0  0  0  0  0  0  0  0  0  0
   -1.8604    2.1397    1.7078 H   0  0  0  0  0  0  0  0  0  0  0  0
   -1.5559    3.6165    0.7958 H   0  0  0  0  0  0  0  0  0  0  0  0
   -2.8786    3.1625   -0.9716 H   0  0  0  0  0  0  0  0  0  0  0  0
   -3.7729    2.4460    0.3863 H   0  0  0  0  0  0  0  0  0  0  0  0
   -3.8398    0.5502   -0.8631 H   0  0  0  0  0  0  0  0  0  0  0  0
   -2.7997    1.2338   -2.1347 H   0  0  0  0  0  0  0  0  0  0  0  0
   -1.7421   -0.6774   -1.5080 H   0  0  0  0  0  0  0  0  0  0  0  0
   -2.0506   -0.2333    1.5041 H   0  0  0  0  0  0  0  0  0  0  0  0
   -3.9258   -1.5697    1.3301 H   0  0  0  0  0  0  0  0  0  0  0  0
   -5.0764   -1.6773   -0.8370 H   0  0  0  0  0  0  0  0  0  0  0  0
   -3.9932   -3.0043   -0.4119 H   0  0  0  0  0  0  0  0  0  0  0  0
   -3.4861   -1.6986   -1.6072 H   0  0  0  0  0  0  0  0  0  0  0  0
   -1.0566   -2.2414    1.7071 H   0  0  0  0  0  0  0  0  0  0  0  0
   -1.7836   -2.9034    0.2062 H   0  0  0  0  0  0  0  0  0  0  0  0
    0.7273   -2.4075    0.2589 H   0  0  0  0  0  0  0  0  0  0  0  0
   -0.1312   -1.8741   -1.1907 H   0  0  0  0  0  0  0  0  0  0  0  0
  1  2  1  0
  2  3  1  0
  3  4  1  0
  2  5  1  0
  5  6  1  0
  6  7  1  0
  3  8  1  0
  7  8  1  0
  7  9  1  0
  9 10  1  0
 10 11  1  0
 11 12  1  0
 12 13  1  0
 13 14  1  0
 10 15  1  0
 14 15  1  0
 15 16  1  0
 16 17  1  0
 17 18  1  0
 16 19  1  0
  9 20  1  0
 19 20  1  0
  2 21  1  0
  3 22  1  0
  5 23  1  0
  5 24  1  0
  6 25  1  0
  6 26  1  0
  7 27  1  0
  8 28  1  0
  8 29  1  0
  9 30  1  1
 10 31  1  0
 11 32  1  0
 11 33  1  0
 12 34  1  0
 12 35  1  0
 13 36  1  0
 13 37  1  0
 14 38  1  0
 14 39  1  0
 15 40  1  0
 16 41  1  1
 17 42  1  0
 18 43  1  0
 18 44  1  0
 18 45  1  0
 19 46  1  0
 19 47  1  0
 20 48  1  0
 20 49  1  0
M  END
>  <PDBID>  (1) 
6AWO

>  <PDB ID>  (1) 
6AWO

>  <Generic Name>  (1) 
Sertraline

>  <Brand Name>  (1) 
Act Sertraline#Apo-sertraline#Auro-sertraline#Bio-sertraline#Dom-sertraline#Gd-sertraline#Ipg-sertraline#Jamp-sertraline#Mar-sertraline#Mint-sertraline#Mylan-sertraline#Nu-sertraline Capsules#PHL-sertraline#PMS-sertraline#Priva-sertraline#Q-sertraline#Ran-sertraline#Ratio-sertraline#Riva-sertraline#Sandoz Sertraline#Sertraline#Sertraline Hydrochloride#Sertraline Hydrochloride Tablets#Sertraline-100#Sertraline-25#Sertraline-50#Teva-sertraline#Van-sertraline#Zoloft#Zoloft Cap 100mg#Zoloft Cap 50mg#Lustral

>  <DrugBank ID>  (1) 
DB01104

>  <ATC Codes>  (1) 
N06AB06

>  <Ligand ID>  (1) 
SRE

>  <Target Name>  (1) 
Sodium-dependent serotonin transporter

>  <UniProt ID>  (1) 
P31645

>  <PDB ID.1>  (1) 
6AWO

>  <Seq. Identity>  (1) 
99%

$$$$
