PDB_DB09324_02
     RDKit          3D

 32 33  0  0  0  0  0  0  0  0999 V2000
   -2.3504   -0.0774   -0.1133 C   0  0  0  0  0  0  0  0  0  0  0  0
   -0.9282   -0.3536    0.3007 C   0  0  0  0  0  0  0  0  0  0  0  0
   -0.9998   -1.2430    1.5382 C   0  0  0  0  0  0  0  0  0  0  0  0
   -0.0045   -1.1131   -0.9831 S   0  0  0  0  0  0  0  0  0  0  0  0
    0.5246   -2.8184   -0.6370 O   0  0  0  0  0  0  0  0  0  0  0  0
   -0.9121   -1.2772   -2.5668 O   0  0  0  0  0  0  0  0  0  0  0  0
    1.3220    0.0536   -1.0633 C   0  0  2  0  0  0  0  0  0  0  0  0
    2.6525   -0.4961   -0.5911 C   0  0  0  0  0  0  0  0  0  0  0  0
    2.0615   -0.2180    0.7919 C   0  0  0  0  0  0  0  0  0  0  0  0
    2.9382    0.4132    1.6601 O   0  0  0  0  0  0  0  0  0  0  0  0
    1.1988    0.7324    0.1654 N   0  0  0  0  0  0  0  0  0  0  0  0
   -0.1239    0.8694    0.5864 C   0  0  1  0  0  0  0  0  0  0  0  0
   -0.7103    2.1406    0.0232 C   0  0  0  0  0  0  0  0  0  0  0  0
   -2.0149    2.3671    0.3839 O   0  0  0  0  0  0  0  0  0  0  0  0
   -0.4987    2.2304   -1.3509 O   0  0  0  0  0  0  0  0  0  0  0  0
   -2.9262    0.2490    0.7526 H   0  0  0  0  0  0  0  0  0  0  0  0
   -2.7789   -1.0814   -0.4069 H   0  0  0  0  0  0  0  0  0  0  0  0
   -2.4411    0.5455   -1.0126 H   0  0  0  0  0  0  0  0  0  0  0  0
   -2.0321   -1.4528    1.8501 H   0  0  0  0  0  0  0  0  0  0  0  0
   -0.4896   -0.7234    2.3869 H   0  0  0  0  0  0  0  0  0  0  0  0
   -0.5124   -2.2254    1.3694 H   0  0  0  0  0  0  0  0  0  0  0  0
   -0.3385   -3.2717   -0.4602 H   0  0  0  0  0  0  0  0  0  0  0  0
   -0.2105   -1.6170   -3.1667 H   0  0  0  0  0  0  0  0  0  0  0  0
    1.3588    0.6433   -1.9900 H   0  0  0  0  0  0  0  0  0  0  0  0
    2.8065   -1.5690   -0.8108 H   0  0  0  0  0  0  0  0  0  0  0  0
    3.4627    0.1810   -0.8560 H   0  0  0  0  0  0  0  0  0  0  0  0
    1.5962   -1.0857    1.2573 H   0  0  0  0  0  0  0  0  0  0  0  0
    3.8687    0.1166    1.5719 H   0  0  0  0  0  0  0  0  0  0  0  0
   -0.1320    1.0078    1.7095 H   0  0  0  0  0  0  0  0  0  0  0  0
   -0.1011    2.9806    0.4716 H   0  0  0  0  0  0  0  0  0  0  0  0
   -2.1429    3.2040    0.8974 H   0  0  0  0  0  0  0  0  0  0  0  0
   -1.1423    2.8890   -1.7079 H   0  0  0  0  0  0  0  0  0  0  0  0
  2  1  1  0
  2  3  1  0
  2  4  1  0
  4  5  1  0
  4  6  1  0
  4  7  1  0
  7  8  1  0
  8  9  1  0
  9 10  1  0
  7 11  1  0
  9 11  1  0
  2 12  1  0
 11 12  1  0
 12 13  1  0
 13 14  1  0
 13 15  1  0
  1 16  1  0
  1 17  1  0
  1 18  1  0
  3 19  1  0
  3 20  1  0
  3 21  1  0
  5 22  1  0
  6 23  1  0
  7 24  1  6
  8 25  1  0
  8 26  1  0
  9 27  1  0
 10 28  1  0
 12 29  1  1
 13 30  1  0
 14 31  1  0
 15 32  1  0
M  END
>  <PDBID>  (1) 
4FH2

>  <PDB ID>  (1) 
4FH2

>  <Generic Name>  (1) 
Sulbactam

>  <Brand Name>  (1) 
Ampicillin Sodium and Sulbactam Sodium#Ampicillin and Sulbactam#Unasyn

>  <DrugBank ID>  (1) 
DB09324

>  <ATC Codes>  (1) 
J01CG01

>  <Ligand ID>  (1) 
0RN

>  <Target Name>  (1) 
Beta-lactamase

>  <UniProt ID>  (1) 
P00807

>  <PDB ID.1>  (1) 
4FH2

>  <Seq. Identity>  (1) 
31%

$$$$
