PDB_DB06605_00
     RDKit          3D

 81 85  0  0  0  0  0  0  0  0999 V2000
    5.9507   -0.1332   -2.1140 C   0  0  0  0  0  0  0  0  0  0  0  0
    6.2771    0.3475   -0.7342 C   0  0  0  0  0  0  0  0  0  0  0  0
    5.0408    0.8535   -0.0138 C   0  0  0  0  0  0  0  0  0  0  0  0
    7.0662    0.1298   -2.9129 O   0  0  0  0  0  0  0  0  0  0  0  0
    3.2531   -0.8699    1.4508 N   0  0  0  0  0  0  0  0  0  0  0  0
   -1.5689    0.4828    0.1008 C   0  0  0  0  0  0  0  0  0  0  0  0
    0.6967    1.2349    0.2635 C   0  0  0  0  0  0  0  0  0  0  0  0
    2.9643   -0.1909    2.6605 C   0  0  2  0  0  0  0  0  0  0  0  0
    2.7807   -1.1373    3.8093 C   0  0  0  0  0  0  0  0  0  0  0  0
    1.8441    0.7173    2.3490 C   0  0  0  0  0  0  0  0  0  0  0  0
    2.0590    0.9823    0.8535 C   0  0  0  0  0  0  0  0  0  0  0  0
   -3.4070    1.5752   -1.0422 C   0  0  0  0  0  0  0  0  0  0  0  0
    7.6083   -1.0341   -3.4074 C   0  0  0  0  0  0  0  0  0  0  0  0
   -4.0819    0.3017   -1.4724 C   0  0  0  0  0  0  0  0  0  0  0  0
   -5.8107    0.3062    0.2279 C   0  0  0  0  0  0  0  0  0  0  0  0
   -6.1255   -0.8821   -1.7309 C   0  0  0  0  0  0  0  0  0  0  0  0
   -7.6372   -0.6495   -1.6858 C   0  0  0  0  0  0  0  0  0  0  0  0
   -2.4619   -0.7381    0.1441 C   0  0  0  0  0  0  0  0  0  0  0  0
   -0.1301   -0.6158    1.5423 C   0  0  0  0  0  0  0  0  0  0  0  0
    3.8538    0.0670   -0.5360 C   0  0  0  0  0  0  0  0  0  0  0  0
    3.5507    0.6432   -1.8843 C   0  0  0  0  0  0  0  0  0  0  0  0
    4.7852    0.5522   -2.7550 C   0  0  0  0  0  0  0  0  0  0  0  0
    2.7863   -0.1020    0.3649 N   0  0  0  0  0  0  0  0  0  0  0  0
   -0.1899    0.1296    0.2938 N   0  0  0  0  0  0  0  0  0  0  0  0
   -1.8893    1.2998   -1.0991 C   0  0  0  0  0  0  0  0  0  0  0  0
   -5.4696    0.2558   -1.1512 N   0  0  0  0  0  0  0  0  0  0  0  0
   -3.3044   -0.9210   -1.0885 C   0  0  0  0  0  0  0  0  0  0  0  0
    0.7478    1.7343   -1.0157 O   0  0  0  0  0  0  0  0  0  0  0  0
   -8.0824   -0.4328   -0.2475 C   0  0  0  0  0  0  0  0  0  0  0  0
   -5.7831   -1.0082    0.7291 O   0  0  0  0  0  0  0  0  0  0  0  0
   -7.2830    0.7404    0.3065 C   0  0  0  0  0  0  0  0  0  0  0  0
    1.7592   -2.0610    3.6419 O   0  0  0  0  0  0  0  0  0  0  0  0
    2.7308   -0.4648    5.0960 N   0  0  0  0  0  0  0  0  0  0  0  0
    0.4701    0.2358    2.6376 C   0  0  0  0  0  0  0  0  0  0  0  0
    5.8288   -1.2473   -2.1003 H   0  0  0  0  0  0  0  0  0  0  0  0
    6.6818   -0.5072   -0.1538 H   0  0  0  0  0  0  0  0  0  0  0  0
    7.0553    1.1301   -0.7436 H   0  0  0  0  0  0  0  0  0  0  0  0
    5.1543    0.8536    1.0664 H   0  0  0  0  0  0  0  0  0  0  0  0
    4.9087    1.9095   -0.3721 H   0  0  0  0  0  0  0  0  0  0  0  0
    2.9964   -1.8589    1.3975 H   0  0  0  0  0  0  0  0  0  0  0  0
   -1.8552    1.1194    0.9942 H   0  0  0  0  0  0  0  0  0  0  0  0
    0.2375    2.0486    0.9002 H   0  0  0  0  0  0  0  0  0  0  0  0
    3.8370    0.4630    2.9656 H   0  0  0  0  0  0  0  0  0  0  0  0
    3.7302   -1.7538    3.8443 H   0  0  0  0  0  0  0  0  0  0  0  0
    1.9737    1.6807    2.9364 H   0  0  0  0  0  0  0  0  0  0  0  0
    2.6073    1.9444    0.8053 H   0  0  0  0  0  0  0  0  0  0  0  0
   -3.6625    2.4126   -1.7242 H   0  0  0  0  0  0  0  0  0  0  0  0
   -3.6212    1.8870   -0.0231 H   0  0  0  0  0  0  0  0  0  0  0  0
    7.9240   -1.6960   -2.5778 H   0  0  0  0  0  0  0  0  0  0  0  0
    6.7855   -1.5732   -3.9420 H   0  0  0  0  0  0  0  0  0  0  0  0
    8.4800   -0.8644   -4.0665 H   0  0  0  0  0  0  0  0  0  0  0  0
   -4.0401    0.3257   -2.6064 H   0  0  0  0  0  0  0  0  0  0  0  0
   -5.2372    1.0035    0.8527 H   0  0  0  0  0  0  0  0  0  0  0  0
   -5.8318   -1.0980   -2.7633 H   0  0  0  0  0  0  0  0  0  0  0  0
   -5.9685   -1.7611   -1.0423 H   0  0  0  0  0  0  0  0  0  0  0  0
   -7.9061    0.1782   -2.3412 H   0  0  0  0  0  0  0  0  0  0  0  0
   -8.1386   -1.6034   -2.0080 H   0  0  0  0  0  0  0  0  0  0  0  0
   -3.0323   -0.7928    1.0909 H   0  0  0  0  0  0  0  0  0  0  0  0
   -1.7715   -1.6343    0.1502 H   0  0  0  0  0  0  0  0  0  0  0  0
   -1.1464   -0.8731    1.9026 H   0  0  0  0  0  0  0  0  0  0  0  0
    0.3953   -1.5451    1.3316 H   0  0  0  0  0  0  0  0  0  0  0  0
    4.2606   -0.9743   -0.7522 H   0  0  0  0  0  0  0  0  0  0  0  0
    2.7354    0.1899   -2.4362 H   0  0  0  0  0  0  0  0  0  0  0  0
    3.3401    1.7510   -1.7922 H   0  0  0  0  0  0  0  0  0  0  0  0
    5.1470    1.5526   -3.1053 H   0  0  0  0  0  0  0  0  0  0  0  0
    4.5802   -0.0038   -3.7166 H   0  0  0  0  0  0  0  0  0  0  0  0
   -1.6999    0.7911   -2.0659 H   0  0  0  0  0  0  0  0  0  0  0  0
   -1.4491    2.3155   -1.0865 H   0  0  0  0  0  0  0  0  0  0  0  0
   -2.5948   -1.2472   -1.9042 H   0  0  0  0  0  0  0  0  0  0  0  0
   -3.9385   -1.8157   -0.9050 H   0  0  0  0  0  0  0  0  0  0  0  0
    0.6366    0.9984   -1.6447 H   0  0  0  0  0  0  0  0  0  0  0  0
   -9.1682   -0.2037   -0.2675 H   0  0  0  0  0  0  0  0  0  0  0  0
   -7.8229   -1.3093    0.3578 H   0  0  0  0  0  0  0  0  0  0  0  0
   -5.6580   -0.8952    1.7228 H   0  0  0  0  0  0  0  0  0  0  0  0
   -7.5847    1.0325    1.3114 H   0  0  0  0  0  0  0  0  0  0  0  0
   -7.3781    1.5593   -0.4531 H   0  0  0  0  0  0  0  0  0  0  0  0
    1.4160   -2.3074    4.5552 H   0  0  0  0  0  0  0  0  0  0  0  0
    2.0292    0.2792    5.1624 H   0  0  0  0  0  0  0  0  0  0  0  0
    3.6566   -0.0905    5.3817 H   0  0  0  0  0  0  0  0  0  0  0  0
   -0.2064    1.1419    2.6927 H   0  0  0  0  0  0  0  0  0  0  0  0
    0.3142   -0.2756    3.5918 H   0  0  0  0  0  0  0  0  0  0  0  0
  1  2  1  0
  2  3  1  0
  1  4  1  0
  5  8  1  0
  8  9  1  0
  8 10  1  0
  7 11  1  0
 10 11  1  0
  4 13  1  0
 12 14  1  0
 16 17  1  0
  6 18  1  0
  3 20  1  0
 20 21  1  0
  1 22  1  0
 21 22  1  0
  5 23  1  0
 11 23  1  0
 20 23  1  0
  6 24  1  0
  7 24  1  0
 19 24  1  0
  6 25  1  0
 12 25  1  0
 14 26  1  0
 15 26  1  0
 16 26  1  0
 14 27  1  0
 18 27  1  0
  7 28  1  0
 17 29  1  0
 15 30  1  0
 15 31  1  0
 29 31  1  0
  9 32  1  0
  9 33  1  0
 10 34  1  0
 19 34  1  0
  1 35  1  0
  2 36  1  0
  2 37  1  0
  3 38  1  0
  3 39  1  0
  5 40  1  0
  6 41  1  0
  7 42  1  0
  8 43  1  1
  9 44  1  0
 10 45  1  0
 11 46  1  0
 12 47  1  0
 12 48  1  0
 13 49  1  0
 13 50  1  0
 13 51  1  0
 14 52  1  0
 15 53  1  0
 16 54  1  0
 16 55  1  0
 17 56  1  0
 17 57  1  0
 18 58  1  0
 18 59  1  0
 19 60  1  0
 19 61  1  0
 20 62  1  0
 21 63  1  0
 21 64  1  0
 22 65  1  0
 22 66  1  0
 25 67  1  0
 25 68  1  0
 27 69  1  0
 27 70  1  0
 28 71  1  0
 29 72  1  0
 29 73  1  0
 30 74  1  0
 31 75  1  0
 31 76  1  0
 32 77  1  0
 33 78  1  0
 33 79  1  0
 34 80  1  0
 34 81  1  0
M  END
>  <PDBID>  (1) 
2P16

>  <PDB ID>  (1) 
2P16

>  <Generic Name>  (1) 
Apixaban

>  <Brand Name>  (1) 
Eliquis

>  <DrugBank ID>  (1) 
DB06605

>  <ATC Codes>  (1) 
B01AF02

>  <Ligand ID>  (1) 
GG2

>  <Target Name>  (1) 
Coagulation factor X

>  <UniProt ID>  (1) 
P00742

>  <PDB ID.1>  (1) 
2P16

>  <Seq. Identity>  (1) 
100%

$$$$
