PDB_DB01051_06
     RDKit          3D

408420  0  0  0  0  0  0  0  0999 V2000
  -10.2156   -1.3022   -1.0818 C   0  0  0  0  0  0  0  0  0  0  0  0
   -9.2566   -0.3714   -1.3349 O   0  0  0  0  0  0  0  0  0  0  0  0
  -10.6894    2.3660    0.2887 N   0  0  0  0  0  0  0  0  0  0  0  0
   -9.3401    2.3715    0.7399 C   0  0  0  0  0  0  0  0  0  0  0  0
   -9.1666    3.1601    1.8795 O   0  0  0  0  0  0  0  0  0  0  0  0
   -8.9157    1.0513    0.9436 O   0  0  0  0  0  0  0  0  0  0  0  0
   -8.0833   -0.4664   -0.6579 C   0  0  2  0  0  0  0  0  0  0  0  0
   -7.8057    0.7375    0.2417 C   0  0  2  0  0  0  0  0  0  0  0  0
   -6.5867    0.2983    1.0688 C   0  0  1  0  0  0  0  0  0  0  0  0
   -6.9388   -0.8657    1.7604 O   0  0  0  0  0  0  0  0  0  0  0  0
   -5.4620    0.0719    0.1145 C   0  0  1  0  0  0  0  0  0  0  0  0
   -5.9390    0.3196   -1.2029 O   0  0  0  0  0  0  0  0  0  0  0  0
   -6.8754   -0.6433   -1.5509 C   0  0  0  0  0  0  0  0  0  0  0  0
   -6.2402   -1.9990   -1.4050 C   0  0  0  0  0  0  0  0  0  0  0  0
   -7.2421   -0.4919   -3.0193 C   0  0  0  0  0  0  0  0  0  0  0  0
   -4.3425    0.8833    0.3321 O   0  0  0  0  0  0  0  0  0  0  0  0
   -3.1779    0.1487    0.3114 C   0  0  0  0  0  0  0  0  0  0  0  0
   -2.3066    0.1923    1.5249 C   0  0  1  0  0  0  0  0  0  0  0  0
   -2.5771   -0.8950    2.5319 C   0  0  0  0  0  0  0  0  0  0  0  0
   -0.8744   -0.0378    1.0024 C   0  0  0  0  0  0  0  0  0  0  0  0
   -0.4804    1.3012    0.4097 C   0  0  0  0  0  0  0  0  0  0  0  0
   -1.3492    1.5245   -0.7792 C   0  0  0  0  0  0  0  0  0  0  0  0
   -2.3873    0.4556   -0.9646 C   0  0  0  0  0  0  0  0  0  0  0  0
   -0.0595   -0.4128    2.0251 O   0  0  0  0  0  0  0  0  0  0  0  0
    1.2687   -0.5368    1.6752 C   0  0  0  0  0  0  0  0  0  0  0  0
    2.1142    0.2201    2.4983 O   0  0  0  0  0  0  0  0  0  0  0  0
    1.4739   -0.0870    0.2464 C   0  0  1  0  0  0  0  0  0  0  0  0
    1.0082    1.3443    0.1405 C   0  0  0  0  0  0  0  0  0  0  0  0
    1.1612    1.9053   -1.1167 O   0  0  0  0  0  0  0  0  0  0  0  0
    2.7364   -0.4059   -0.2743 N   0  0  0  0  0  0  0  0  0  0  0  0
    3.9279    0.1109    0.2276 C   0  0  0  0  0  0  0  0  0  0  0  0
    4.5963   -0.8354    0.9862 O   0  0  0  0  0  0  0  0  0  0  0  0
    4.8052    0.4987   -0.9754 C   0  0  1  0  0  0  0  0  0  0  0  0
    6.1169    1.0375   -0.5450 C   0  0  0  0  0  0  0  0  0  0  0  0
    7.3089    0.2514   -1.0005 C   0  0  0  0  0  0  0  0  0  0  0  0
    7.0829   -1.2082   -1.2055 C   0  0  1  0  0  0  0  0  0  0  0  0
    7.2509   -1.9219   -0.0044 O   0  0  0  0  0  0  0  0  0  0  0  0
    5.8292   -1.5997   -1.8966 C   0  0  0  0  0  0  0  0  0  0  0  0
    4.8046   -0.5409   -2.0268 C   0  0  0  0  0  0  0  0  0  0  0  0
    8.3651    0.3680    0.1071 C   0  0  0  0  0  0  0  0  0  0  0  0
    9.6233   -0.3769   -0.2125 C   0  0  0  0  0  0  0  0  0  0  0  0
   10.5639   -0.1750    0.9708 C   0  0  0  0  0  0  0  0  0  0  0  0
   10.8826    1.2733    1.1980 C   0  0  0  0  0  0  0  0  0  0  0  0
   11.7960   -1.0442    0.8050 C   0  0  0  0  0  0  0  0  0  0  0  0
   -9.2147   -0.8012   -1.8289 C   0  0  0  0  0  0  0  0  0  0  0  0
   -8.6936    0.4757   -1.9625 O   0  0  0  0  0  0  0  0  0  0  0  0
  -10.4675    1.9702    0.9579 N   0  0  0  0  0  0  0  0  0  0  0  0
   -9.0630    2.1921    1.1015 C   0  0  0  0  0  0  0  0  0  0  0  0
   -8.8119    2.3558    2.4758 O   0  0  0  0  0  0  0  0  0  0  0  0
   -8.2714    1.1663    0.6318 O   0  0  0  0  0  0  0  0  0  0  0  0
   -7.4176    0.6117   -1.4861 C   0  0  2  0  0  0  0  0  0  0  0  0
   -7.3149    1.5285   -0.2870 C   0  0  2  0  0  0  0  0  0  0  0  0
   -5.9610    1.2139    0.3628 C   0  0  1  0  0  0  0  0  0  0  0  0
   -6.1291    0.0745    1.1099 O   0  0  0  0  0  0  0  0  0  0  0  0
   -4.9562    1.0321   -0.7595 C   0  0  1  0  0  0  0  0  0  0  0  0
   -5.3933    1.7847   -1.8461 O   0  0  0  0  0  0  0  0  0  0  0  0
   -6.3951    1.0204   -2.4886 C   0  0  0  0  0  0  0  0  0  0  0  0
   -5.7737   -0.2400   -3.1019 C   0  0  0  0  0  0  0  0  0  0  0  0
   -6.9306    1.8372   -3.6309 C   0  0  0  0  0  0  0  0  0  0  0  0
   -3.6682    1.3056   -0.3589 O   0  0  0  0  0  0  0  0  0  0  0  0
   -2.7936    0.2202   -0.4660 C   0  0  0  0  0  0  0  0  0  0  0  0
   -2.3297   -0.2945    0.8622 C   0  0  0  0  0  0  0  0  0  0  0  0
   -3.1919   -1.3586    1.4475 C   0  0  0  0  0  0  0  0  0  0  0  0
   -0.9417   -0.9347    0.6067 C   0  0  0  0  0  0  0  0  0  0  0  0
   -0.0347    0.2362    0.4212 C   0  0  0  0  0  0  0  0  0  0  0  0
   -0.3770    0.8696   -0.8857 C   0  0  0  0  0  0  0  0  0  0  0  0
   -1.6921    0.4098   -1.4418 C   0  0  0  0  0  0  0  0  0  0  0  0
   -0.6832   -1.7565    1.6545 O   0  0  0  0  0  0  0  0  0  0  0  0
    0.6429   -2.0348    1.9289 C   0  0  0  0  0  0  0  0  0  0  0  0
    0.9723   -1.2646    3.0682 O   0  0  0  0  0  0  0  0  0  0  0  0
    1.4854   -1.6209    0.7441 C   0  0  1  0  0  0  0  0  0  0  0  0
    1.4240   -0.1316    0.5915 C   0  0  0  0  0  0  0  0  0  0  0  0
    2.1438    0.3079   -0.5422 O   0  0  0  0  0  0  0  0  0  0  0  0
    2.6667   -2.3080    0.5633 N   0  0  0  0  0  0  0  0  0  0  0  0
    3.7363   -2.4121    1.4201 C   0  0  0  0  0  0  0  0  0  0  0  0
    4.6892   -3.2871    0.8016 O   0  0  0  0  0  0  0  0  0  0  0  0
    4.5404   -1.1866    1.7844 C   0  0  0  0  0  0  0  0  0  0  0  0
    5.1580   -0.5416    0.6139 C   0  0  0  0  0  0  0  0  0  0  0  0
    6.6074   -0.6850    0.3777 C   0  0  0  0  0  0  0  0  0  0  0  0
    7.4502   -1.1197    1.5150 C   0  0  0  0  0  0  0  0  0  0  0  0
    7.7838    0.0404    2.2521 O   0  0  0  0  0  0  0  0  0  0  0  0
    6.7380   -2.0224    2.4860 C   0  0  0  0  0  0  0  0  0  0  0  0
    5.4408   -1.4932    2.9500 C   0  0  0  0  0  0  0  0  0  0  0  0
    7.2162    0.5665   -0.2739 C   0  0  0  0  0  0  0  0  0  0  0  0
    8.6991    0.3545   -0.4886 C   0  0  0  0  0  0  0  0  0  0  0  0
    9.2702    1.6068   -1.1378 C   0  0  0  0  0  0  0  0  0  0  0  0
    8.5377    1.7801   -2.4549 C   0  0  0  0  0  0  0  0  0  0  0  0
   10.7579    1.4824   -1.3565 C   0  0  0  0  0  0  0  0  0  0  0  0
   -9.8406   -1.2691   -0.9241 C   0  0  0  0  0  0  0  0  0  0  0  0
   -9.1979   -0.1091   -1.3099 O   0  0  0  0  0  0  0  0  0  0  0  0
  -10.6079    1.7300    1.2338 N   0  0  0  0  0  0  0  0  0  0  0  0
   -9.1930    2.0200    1.3756 C   0  0  0  0  0  0  0  0  0  0  0  0
   -9.0063    2.4735    2.6861 O   0  0  0  0  0  0  0  0  0  0  0  0
   -8.4404    0.9044    1.0973 O   0  0  0  0  0  0  0  0  0  0  0  0
   -7.8769   -0.0435   -0.9547 C   0  0  2  0  0  0  0  0  0  0  0  0
   -7.5667    1.0631    0.0235 C   0  0  2  0  0  0  0  0  0  0  0  0
   -6.1294    0.8752    0.4806 C   0  0  1  0  0  0  0  0  0  0  0  0
   -6.1487   -0.1587    1.4160 O   0  0  0  0  0  0  0  0  0  0  0  0
   -5.2490    0.5555   -0.7089 C   0  0  1  0  0  0  0  0  0  0  0  0
   -5.9365    0.9166   -1.8449 O   0  0  0  0  0  0  0  0  0  0  0  0
   -6.9344   -0.0022   -2.1240 C   0  0  0  0  0  0  0  0  0  0  0  0
   -6.2462   -1.3476   -2.3489 C   0  0  0  0  0  0  0  0  0  0  0  0
   -7.5909    0.3672   -3.4176 C   0  0  0  0  0  0  0  0  0  0  0  0
   -4.0292    1.2268   -0.6549 O   0  0  0  0  0  0  0  0  0  0  0  0
   -2.9578    0.3275   -0.5285 C   0  0  0  0  0  0  0  0  0  0  0  0
   -2.2227    0.5065    0.7840 C   0  0  0  0  0  0  0  0  0  0  0  0
   -2.9549   -0.0532    1.9628 C   0  0  0  0  0  0  0  0  0  0  0  0
   -0.9361   -0.3254    0.6482 C   0  0  0  0  0  0  0  0  0  0  0  0
    0.0048    0.4874   -0.1695 C   0  0  0  0  0  0  0  0  0  0  0  0
   -0.6721    0.9607   -1.4046 C   0  0  0  0  0  0  0  0  0  0  0  0
   -2.0111    0.3748   -1.6890 C   0  0  0  0  0  0  0  0  0  0  0  0
   -0.4920   -0.5608    1.9218 O   0  0  0  0  0  0  0  0  0  0  0  0
    0.8871   -0.7296    2.0080 C   0  0  0  0  0  0  0  0  0  0  0  0
    1.4433    0.5132    2.2897 O   0  0  0  0  0  0  0  0  0  0  0  0
    1.4233   -1.3018    0.7048 C   0  0  1  0  0  0  0  0  0  0  0  0
    1.2684   -0.3213   -0.4123 C   0  0  0  0  0  0  0  0  0  0  0  0
    1.0820   -1.0344   -1.6267 O   0  0  0  0  0  0  0  0  0  0  0  0
    2.5465   -2.0924    0.8189 N   0  0  0  0  0  0  0  0  0  0  0  0
    3.7727   -1.7186    1.3360 C   0  0  0  0  0  0  0  0  0  0  0  0
    4.6194   -2.8349    1.5261 O   0  0  0  0  0  0  0  0  0  0  0  0
    4.5321   -0.6439    0.6188 C   0  0  1  0  0  0  0  0  0  0  0  0
    5.8689   -0.3711    1.3283 C   0  0  0  0  0  0  0  0  0  0  0  0
    6.8510    0.0669    0.2495 C   0  0  2  0  0  0  0  0  0  0  0  0
    7.1931   -1.2082   -0.4898 C   0  0  0  0  0  0  0  0  0  0  0  0
    7.5280   -2.1426    0.5063 O   0  0  0  0  0  0  0  0  0  0  0  0
    5.9426   -1.6284   -1.2269 C   0  0  0  0  0  0  0  0  0  0  0  0
    4.7193   -0.8810   -0.8361 C   0  0  0  0  0  0  0  0  0  0  0  0
    8.0857    0.6588    0.8262 C   0  0  0  0  0  0  0  0  0  0  0  0
    9.0151    1.0926   -0.2761 C   0  0  0  0  0  0  0  0  0  0  0  0
   10.2843    1.7205    0.2922 C   0  0  0  0  0  0  0  0  0  0  0  0
   11.1420    2.1188   -0.8907 C   0  0  0  0  0  0  0  0  0  0  0  0
   11.0913    0.6587    1.0478 C   0  0  0  0  0  0  0  0  0  0  0  0
  -10.1630   -1.6114   -0.7100 C   0  0  0  0  0  0  0  0  0  0  0  0
   -9.4942   -0.5242   -1.2556 O   0  0  0  0  0  0  0  0  0  0  0  0
  -10.8697    2.0258    1.0120 N   0  0  0  0  0  0  0  0  0  0  0  0
   -9.4264    2.1011    1.2026 C   0  0  0  0  0  0  0  0  0  0  0  0
   -9.2036    2.7128    2.4175 O   0  0  0  0  0  0  0  0  0  0  0  0
   -8.8135    0.8836    1.0666 O   0  0  0  0  0  0  0  0  0  0  0  0
   -8.1880   -0.4208   -0.8336 C   0  0  2  0  0  0  0  0  0  0  0  0
   -7.9013    0.7979    0.0164 C   0  0  2  0  0  0  0  0  0  0  0  0
   -6.5166    0.5747    0.6326 C   0  0  1  0  0  0  0  0  0  0  0  0
   -6.6700   -0.4774    1.5439 O   0  0  0  0  0  0  0  0  0  0  0  0
   -5.5872    0.2124   -0.5002 C   0  0  1  0  0  0  0  0  0  0  0  0
   -6.1960    0.3984   -1.7360 O   0  0  0  0  0  0  0  0  0  0  0  0
   -7.1849   -0.5436   -1.9328 C   0  0  0  0  0  0  0  0  0  0  0  0
   -6.5481   -1.9416   -1.9107 C   0  0  0  0  0  0  0  0  0  0  0  0
   -7.7679   -0.3394   -3.3149 C   0  0  0  0  0  0  0  0  0  0  0  0
   -4.3907    0.9294   -0.4806 O   0  0  0  0  0  0  0  0  0  0  0  0
   -3.2910    0.0747   -0.3296 C   0  0  0  0  0  0  0  0  0  0  0  0
   -2.5378    0.3099    0.9656 C   0  0  1  0  0  0  0  0  0  0  0  0
   -3.0149   -0.6528    2.0282 C   0  0  0  0  0  0  0  0  0  0  0  0
   -1.0725   -0.0433    0.6746 C   0  0  0  0  0  0  0  0  0  0  0  0
   -0.5739    1.0958   -0.2068 C   0  0  0  0  0  0  0  0  0  0  0  0
   -1.2583    1.0069   -1.5333 C   0  0  0  0  0  0  0  0  0  0  0  0
   -2.4198    0.0728   -1.5500 C   0  0  0  0  0  0  0  0  0  0  0  0
   -0.3514   -0.1450    1.8214 O   0  0  0  0  0  0  0  0  0  0  0  0
    0.9856   -0.4605    1.6262 C   0  0  0  0  0  0  0  0  0  0  0  0
    1.7036    0.2999    2.5446 O   0  0  0  0  0  0  0  0  0  0  0  0
    1.3933   -0.2479    0.2061 C   0  0  1  0  0  0  0  0  0  0  0  0
    0.9392    1.0860   -0.2750 C   0  0  0  0  0  0  0  0  0  0  0  0
    1.4076    1.3137   -1.5511 O   0  0  0  0  0  0  0  0  0  0  0  0
    2.7198   -0.6341   -0.1004 N   0  0  0  0  0  0  0  0  0  0  0  0
    3.7998   -0.0021    0.5571 C   0  0  2  0  0  0  0  0  0  0  0  0
    3.5344    1.3049    0.9614 O   0  0  0  0  0  0  0  0  0  0  0  0
    4.9484    0.1076   -0.4562 C   0  0  1  0  0  0  0  0  0  0  0  0
    6.1756    0.7329    0.0939 C   0  0  0  0  0  0  0  0  0  0  0  0
    7.3965   -0.2070   -0.1851 C   0  0  0  0  0  0  0  0  0  0  0  0
    7.0273   -1.4852    0.4986 C   0  0  0  0  0  0  0  0  0  0  0  0
    8.0382   -2.3421    0.8203 O   0  0  0  0  0  0  0  0  0  0  0  0
    5.9738   -2.1671   -0.3727 C   0  0  0  0  0  0  0  0  0  0  0  0
    5.2124   -1.1691   -1.1831 C   0  0  0  0  0  0  0  0  0  0  0  0
    8.6124    0.4951    0.3488 C   0  0  0  0  0  0  0  0  0  0  0  0
    9.8847   -0.2604    0.1204 C   0  0  0  0  0  0  0  0  0  0  0  0
   11.0859    0.5104    0.6703 C   0  0  0  0  0  0  0  0  0  0  0  0
   11.2441    1.8595    0.0221 C   0  0  0  0  0  0  0  0  0  0  0  0
   12.3335   -0.2903    0.3878 C   0  0  0  0  0  0  0  0  0  0  0  0
  -11.1487   -1.1607   -1.6876 H   0  0  0  0  0  0  0  0  0  0  0  0
  -10.5549   -1.3538   -0.0296 H   0  0  0  0  0  0  0  0  0  0  0  0
   -9.8352   -2.3060   -1.3462 H   0  0  0  0  0  0  0  0  0  0  0  0
  -11.0492    1.3990    0.1994 H   0  0  0  0  0  0  0  0  0  0  0  0
  -10.7726    2.9405   -0.5810 H   0  0  0  0  0  0  0  0  0  0  0  0
   -8.6045    2.8048   -0.0022 H   0  0  0  0  0  0  0  0  0  0  0  0
   -9.8624    3.8686    1.8240 H   0  0  0  0  0  0  0  0  0  0  0  0
   -8.1294   -1.3412    0.0168 H   0  0  0  0  0  0  0  0  0  0  0  0
   -7.3951    1.5815   -0.3738 H   0  0  0  0  0  0  0  0  0  0  0  0
   -6.3993    1.0896    1.8130 H   0  0  0  0  0  0  0  0  0  0  0  0
   -7.6414   -0.6672    2.4223 H   0  0  0  0  0  0  0  0  0  0  0  0
   -5.1424   -0.9829    0.1350 H   0  0  0  0  0  0  0  0  0  0  0  0
   -6.4262   -2.4498   -0.4118 H   0  0  0  0  0  0  0  0  0  0  0  0
   -6.6615   -2.7362   -2.1437 H   0  0  0  0  0  0  0  0  0  0  0  0
   -5.1468   -1.9776   -1.6179 H   0  0  0  0  0  0  0  0  0  0  0  0
   -6.3659   -0.8665   -3.5876 H   0  0  0  0  0  0  0  0  0  0  0  0
   -7.3811    0.5679   -3.3072 H   0  0  0  0  0  0  0  0  0  0  0  0
   -8.0871   -1.1450   -3.2219 H   0  0  0  0  0  0  0  0  0  0  0  0
   -3.4817   -0.9348    0.1597 H   0  0  0  0  0  0  0  0  0  0  0  0
   -2.3452    1.2162    1.9847 H   0  0  0  0  0  0  0  0  0  0  0  0
   -2.8787   -1.7953    1.9650 H   0  0  0  0  0  0  0  0  0  0  0  0
   -1.6157   -1.1240    3.0348 H   0  0  0  0  0  0  0  0  0  0  0  0
   -3.3285   -0.6165    3.3029 H   0  0  0  0  0  0  0  0  0  0  0  0
   -0.9886   -0.7993    0.2176 H   0  0  0  0  0  0  0  0  0  0  0  0
   -0.7944    2.0560    1.1858 H   0  0  0  0  0  0  0  0  0  0  0  0
   -1.9321    2.4927   -0.6949 H   0  0  0  0  0  0  0  0  0  0  0  0
   -0.7942    1.6117   -1.7382 H   0  0  0  0  0  0  0  0  0  0  0  0
   -3.1480    0.8834   -1.6831 H   0  0  0  0  0  0  0  0  0  0  0  0
   -2.0203   -0.4456   -1.4531 H   0  0  0  0  0  0  0  0  0  0  0  0
    1.5800   -1.6184    1.7023 H   0  0  0  0  0  0  0  0  0  0  0  0
    2.0435   -0.1980    3.3911 H   0  0  0  0  0  0  0  0  0  0  0  0
    0.7321   -0.6687   -0.3970 H   0  0  0  0  0  0  0  0  0  0  0  0
    1.4411    1.9899    0.9445 H   0  0  0  0  0  0  0  0  0  0  0  0
    1.9578    1.6276   -1.5827 H   0  0  0  0  0  0  0  0  0  0  0  0
    2.7869   -1.4711   -0.3172 H   0  0  0  0  0  0  0  0  0  0  0  0
    3.8318    1.0053    0.8854 H   0  0  0  0  0  0  0  0  0  0  0  0
    4.2544   -1.7671    0.7993 H   0  0  0  0  0  0  0  0  0  0  0  0
    4.2560    1.3834   -1.4367 H   0  0  0  0  0  0  0  0  0  0  0  0
    6.1625    1.1527    0.5499 H   0  0  0  0  0  0  0  0  0  0  0  0
    6.3017    2.0941   -0.9281 H   0  0  0  0  0  0  0  0  0  0  0  0
    7.7745    0.6799   -1.9240 H   0  0  0  0  0  0  0  0  0  0  0  0
    7.9683   -1.5625   -1.8290 H   0  0  0  0  0  0  0  0  0  0  0  0
    6.7974   -2.7928   -0.0064 H   0  0  0  0  0  0  0  0  0  0  0  0
    6.0609   -1.9730   -2.9359 H   0  0  0  0  0  0  0  0  0  0  0  0
    5.4388   -2.5327   -1.3914 H   0  0  0  0  0  0  0  0  0  0  0  0
    4.8410   -0.0635   -3.0482 H   0  0  0  0  0  0  0  0  0  0  0  0
    3.8019   -1.0578   -2.0162 H   0  0  0  0  0  0  0  0  0  0  0  0
    7.9054   -0.1471    0.9801 H   0  0  0  0  0  0  0  0  0  0  0  0
    8.5688    1.4024    0.3615 H   0  0  0  0  0  0  0  0  0  0  0  0
   10.1508    0.0035   -1.0980 H   0  0  0  0  0  0  0  0  0  0  0  0
    9.4809   -1.4518   -0.3322 H   0  0  0  0  0  0  0  0  0  0  0  0
   10.0686   -0.5560    1.9160 H   0  0  0  0  0  0  0  0  0  0  0  0
   10.3849    1.6037    2.1279 H   0  0  0  0  0  0  0  0  0  0  0  0
   11.9921    1.3166    1.3932 H   0  0  0  0  0  0  0  0  0  0  0  0
   10.6025    1.8829    0.3225 H   0  0  0  0  0  0  0  0  0  0  0  0
   12.1811   -1.3988    1.7871 H   0  0  0  0  0  0  0  0  0  0  0  0
   12.5811   -0.4068    0.3688 H   0  0  0  0  0  0  0  0  0  0  0  0
   11.5804   -1.9590    0.2035 H   0  0  0  0  0  0  0  0  0  0  0  0
  -10.2458   -0.8214   -2.2358 H   0  0  0  0  0  0  0  0  0  0  0  0
   -9.1565   -1.2010   -0.8016 H   0  0  0  0  0  0  0  0  0  0  0  0
   -8.6103   -1.4756   -2.4704 H   0  0  0  0  0  0  0  0  0  0  0  0
  -11.0529    2.4425    1.6571 H   0  0  0  0  0  0  0  0  0  0  0  0
  -10.8229    2.0362   -0.0164 H   0  0  0  0  0  0  0  0  0  0  0  0
   -8.7533    3.1343    0.6153 H   0  0  0  0  0  0  0  0  0  0  0  0
   -9.0216    3.2991    2.6835 H   0  0  0  0  0  0  0  0  0  0  0  0
   -7.1135   -0.4048   -1.0941 H   0  0  0  0  0  0  0  0  0  0  0  0
   -7.2848    2.5917   -0.5465 H   0  0  0  0  0  0  0  0  0  0  0  0
   -5.6166    2.0862    0.9618 H   0  0  0  0  0  0  0  0  0  0  0  0
   -7.0519   -0.2202    1.1695 H   0  0  0  0  0  0  0  0  0  0  0  0
   -5.0021   -0.0305   -1.0826 H   0  0  0  0  0  0  0  0  0  0  0  0
   -6.0252   -1.1405   -2.4814 H   0  0  0  0  0  0  0  0  0  0  0  0
   -6.1631   -0.4109   -4.1226 H   0  0  0  0  0  0  0  0  0  0  0  0
   -4.6699   -0.1535   -3.1315 H   0  0  0  0  0  0  0  0  0  0  0  0
   -7.4458    2.7482   -3.3276 H   0  0  0  0  0  0  0  0  0  0  0  0
   -6.0462    2.1488   -4.2423 H   0  0  0  0  0  0  0  0  0  0  0  0
   -7.5428    1.1967   -4.3283 H   0  0  0  0  0  0  0  0  0  0  0  0
   -3.4429   -0.6107   -0.8880 H   0  0  0  0  0  0  0  0  0  0  0  0
   -2.1630    0.5394    1.5757 H   0  0  0  0  0  0  0  0  0  0  0  0
   -3.7592   -1.8771    0.6466 H   0  0  0  0  0  0  0  0  0  0  0  0
   -2.5514   -2.1193    1.9343 H   0  0  0  0  0  0  0  0  0  0  0  0
   -3.8571   -0.9752    2.2494 H   0  0  0  0  0  0  0  0  0  0  0  0
   -1.0655   -1.4717   -0.3782 H   0  0  0  0  0  0  0  0  0  0  0  0
   -0.3016    0.9837    1.2097 H   0  0  0  0  0  0  0  0  0  0  0  0
   -0.2970    1.9878   -0.8681 H   0  0  0  0  0  0  0  0  0  0  0  0
    0.4145    0.5477   -1.6211 H   0  0  0  0  0  0  0  0  0  0  0  0
   -1.5353   -0.4800   -2.0872 H   0  0  0  0  0  0  0  0  0  0  0  0
   -2.0186    1.2234   -2.1545 H   0  0  0  0  0  0  0  0  0  0  0  0
    0.7109   -3.1149    2.1509 H   0  0  0  0  0  0  0  0  0  0  0  0
    1.4128   -1.8394    3.7293 H   0  0  0  0  0  0  0  0  0  0  0  0
    0.8104   -1.9795   -0.1512 H   0  0  0  0  0  0  0  0  0  0  0  0
    1.8324    0.3714    1.4716 H   0  0  0  0  0  0  0  0  0  0  0  0
    2.2341   -0.3908   -1.2181 H   0  0  0  0  0  0  0  0  0  0  0  0
    2.9224   -2.3607   -0.4573 H   0  0  0  0  0  0  0  0  0  0  0  0
    3.5369   -2.9487    2.3901 H   0  0  0  0  0  0  0  0  0  0  0  0
    4.3558   -4.1978    0.7768 H   0  0  0  0  0  0  0  0  0  0  0  0
    3.7725   -0.4718    2.2253 H   0  0  0  0  0  0  0  0  0  0  0  0
    4.9437    0.5713    0.6253 H   0  0  0  0  0  0  0  0  0  0  0  0
    4.5730   -0.8789   -0.3014 H   0  0  0  0  0  0  0  0  0  0  0  0
    6.7362   -1.4755   -0.4255 H   0  0  0  0  0  0  0  0  0  0  0  0
    8.4107   -1.5673    1.2013 H   0  0  0  0  0  0  0  0  0  0  0  0
    8.5595   -0.1271    2.8373 H   0  0  0  0  0  0  0  0  0  0  0  0
    7.3842   -2.1987    3.3939 H   0  0  0  0  0  0  0  0  0  0  0  0
    6.6208   -3.0198    2.0334 H   0  0  0  0  0  0  0  0  0  0  0  0
    5.5111   -0.6380    3.6494 H   0  0  0  0  0  0  0  0  0  0  0  0
    4.9246   -2.3145    3.5278 H   0  0  0  0  0  0  0  0  0  0  0  0
    7.0826    1.4477    0.3707 H   0  0  0  0  0  0  0  0  0  0  0  0
    6.7389    0.6716   -1.2601 H   0  0  0  0  0  0  0  0  0  0  0  0
    8.8744   -0.5155   -1.1601 H   0  0  0  0  0  0  0  0  0  0  0  0
    9.2492    0.1230    0.4449 H   0  0  0  0  0  0  0  0  0  0  0  0
    9.0840    2.4769   -0.4829 H   0  0  0  0  0  0  0  0  0  0  0  0
    7.6641    2.4197   -2.2620 H   0  0  0  0  0  0  0  0  0  0  0  0
    9.1877    2.2159   -3.2340 H   0  0  0  0  0  0  0  0  0  0  0  0
    8.1584    0.7859   -2.8057 H   0  0  0  0  0  0  0  0  0  0  0  0
   11.2404    0.9317   -0.5165 H   0  0  0  0  0  0  0  0  0  0  0  0
   11.1894    2.5082   -1.3629 H   0  0  0  0  0  0  0  0  0  0  0  0
   11.0266    0.9921   -2.2985 H   0  0  0  0  0  0  0  0  0  0  0  0
  -10.8996   -1.3006   -1.2168 H   0  0  0  0  0  0  0  0  0  0  0  0
   -9.7368   -1.5379    0.1215 H   0  0  0  0  0  0  0  0  0  0  0  0
   -9.3537   -2.1004   -1.5152 H   0  0  0  0  0  0  0  0  0  0  0  0
  -10.8401    0.7934    1.6484 H   0  0  0  0  0  0  0  0  0  0  0  0
  -10.9709    1.8512    0.2821 H   0  0  0  0  0  0  0  0  0  0  0  0
   -8.9428    2.8366    0.6709 H   0  0  0  0  0  0  0  0  0  0  0  0
   -9.6057    3.2720    2.7763 H   0  0  0  0  0  0  0  0  0  0  0  0
   -7.6422   -1.0046   -0.4061 H   0  0  0  0  0  0  0  0  0  0  0  0
   -7.6170    2.0653   -0.4352 H   0  0  0  0  0  0  0  0  0  0  0  0
   -5.7743    1.7901    1.0098 H   0  0  0  0  0  0  0  0  0  0  0  0
   -7.0334   -0.3135    1.7902 H   0  0  0  0  0  0  0  0  0  0  0  0
   -5.0505   -0.5514   -0.6385 H   0  0  0  0  0  0  0  0  0  0  0  0
   -6.2992   -1.9555   -1.4286 H   0  0  0  0  0  0  0  0  0  0  0  0
   -6.6686   -1.8826   -3.2267 H   0  0  0  0  0  0  0  0  0  0  0  0
   -5.1689   -1.1999   -2.5662 H   0  0  0  0  0  0  0  0  0  0  0  0
   -6.7730    0.6541   -4.1318 H   0  0  0  0  0  0  0  0  0  0  0  0
   -8.2668    1.2202   -3.3504 H   0  0  0  0  0  0  0  0  0  0  0  0
   -8.0732   -0.5251   -3.9160 H   0  0  0  0  0  0  0  0  0  0  0  0
   -3.3571   -0.7304   -0.4989 H   0  0  0  0  0  0  0  0  0  0  0  0
   -1.9894    1.5829    0.9146 H   0  0  0  0  0  0  0  0  0  0  0  0
   -3.3941   -1.0356    1.7079 H   0  0  0  0  0  0  0  0  0  0  0  0
   -2.1976   -0.2639    2.7625 H   0  0  0  0  0  0  0  0  0  0  0  0
   -3.6820    0.6444    2.4077 H   0  0  0  0  0  0  0  0  0  0  0  0
   -1.2418   -1.2373    0.1034 H   0  0  0  0  0  0  0  0  0  0  0  0
    0.3124    1.3987    0.4198 H   0  0  0  0  0  0  0  0  0  0  0  0
   -0.8004    2.0831   -1.4172 H   0  0  0  0  0  0  0  0  0  0  0  0
   -0.0149    0.7423   -2.2705 H   0  0  0  0  0  0  0  0  0  0  0  0
   -1.8530   -0.6153   -2.1695 H   0  0  0  0  0  0  0  0  0  0  0  0
   -2.4949    1.0054   -2.4690 H   0  0  0  0  0  0  0  0  0  0  0  0
    1.0484   -1.4612    2.8256 H   0  0  0  0  0  0  0  0  0  0  0  0
    1.3713    0.6241    3.2857 H   0  0  0  0  0  0  0  0  0  0  0  0
    0.5654   -2.0755    0.4511 H   0  0  0  0  0  0  0  0  0  0  0  0
    2.1173    0.3407   -0.5173 H   0  0  0  0  0  0  0  0  0  0  0  0
    1.6564   -0.6245   -2.3111 H   0  0  0  0  0  0  0  0  0  0  0  0
    2.5387   -2.9716    0.2737 H   0  0  0  0  0  0  0  0  0  0  0  0
    3.6170   -1.3076    2.3968 H   0  0  0  0  0  0  0  0  0  0  0  0
    4.1138   -3.5674    1.9141 H   0  0  0  0  0  0  0  0  0  0  0  0
    3.9907    0.3162    0.7506 H   0  0  0  0  0  0  0  0  0  0  0  0
    5.7889    0.3950    2.1041 H   0  0  0  0  0  0  0  0  0  0  0  0
    6.2379   -1.2956    1.7700 H   0  0  0  0  0  0  0  0  0  0  0  0
    6.3976    0.8266   -0.4252 H   0  0  0  0  0  0  0  0  0  0  0  0
    8.0494   -1.1496   -1.1524 H   0  0  0  0  0  0  0  0  0  0  0  0
    7.8852   -2.9798    0.1120 H   0  0  0  0  0  0  0  0  0  0  0  0
    5.8728   -2.7209   -1.1654 H   0  0  0  0  0  0  0  0  0  0  0  0
    6.1359   -1.4035   -2.3176 H   0  0  0  0  0  0  0  0  0  0  0  0
    3.8058   -1.3860   -1.2147 H   0  0  0  0  0  0  0  0  0  0  0  0
    4.7412    0.1053   -1.3576 H   0  0  0  0  0  0  0  0  0  0  0  0
    7.8560    1.5681    1.4220 H   0  0  0  0  0  0  0  0  0  0  0  0
    8.6058   -0.0343    1.5374 H   0  0  0  0  0  0  0  0  0  0  0  0
    8.5136    1.7953   -0.9622 H   0  0  0  0  0  0  0  0  0  0  0  0
    9.3784    0.2585   -0.9087 H   0  0  0  0  0  0  0  0  0  0  0  0
   10.0899    2.5432    0.9837 H   0  0  0  0  0  0  0  0  0  0  0  0
   10.8474    3.0851   -1.3325 H   0  0  0  0  0  0  0  0  0  0  0  0
   12.2353    2.0841   -0.6349 H   0  0  0  0  0  0  0  0  0  0  0  0
   11.0132    1.3068   -1.6556 H   0  0  0  0  0  0  0  0  0  0  0  0
   12.1445    1.0036    1.0858 H   0  0  0  0  0  0  0  0  0  0  0  0
   11.0960   -0.2348    0.3647 H   0  0  0  0  0  0  0  0  0  0  0  0
   10.6557    0.4334    2.0223 H   0  0  0  0  0  0  0  0  0  0  0  0
  -11.2114   -1.6801   -1.0613 H   0  0  0  0  0  0  0  0  0  0  0  0
  -10.1231   -1.6463    0.3977 H   0  0  0  0  0  0  0  0  0  0  0  0
   -9.6400   -2.5237   -1.0763 H   0  0  0  0  0  0  0  0  0  0  0  0
  -11.3802    2.7746    1.5504 H   0  0  0  0  0  0  0  0  0  0  0  0
  -11.1408    2.0061    0.0071 H   0  0  0  0  0  0  0  0  0  0  0  0
   -9.0186    2.7795    0.4057 H   0  0  0  0  0  0  0  0  0  0  0  0
   -9.4244    3.6809    2.3290 H   0  0  0  0  0  0  0  0  0  0  0  0
   -8.0209   -1.2932   -0.1330 H   0  0  0  0  0  0  0  0  0  0  0  0
   -7.8086    1.7360   -0.5666 H   0  0  0  0  0  0  0  0  0  0  0  0
   -6.1459    1.4812    1.1201 H   0  0  0  0  0  0  0  0  0  0  0  0
   -6.6580   -0.1309    2.4715 H   0  0  0  0  0  0  0  0  0  0  0  0
   -5.3567   -0.8879   -0.3831 H   0  0  0  0  0  0  0  0  0  0  0  0
   -6.6446   -2.3816   -0.8980 H   0  0  0  0  0  0  0  0  0  0  0  0
   -7.1355   -2.5701   -2.6178 H   0  0  0  0  0  0  0  0  0  0  0  0
   -5.4872   -1.8838   -2.1607 H   0  0  0  0  0  0  0  0  0  0  0  0
   -6.9450    0.0739   -3.9523 H   0  0  0  0  0  0  0  0  0  0  0  0
   -8.5665    0.4273   -3.3105 H   0  0  0  0  0  0  0  0  0  0  0  0
   -8.0605   -1.2857   -3.8123 H   0  0  0  0  0  0  0  0  0  0  0  0
   -3.6771   -0.9935   -0.2523 H   0  0  0  0  0  0  0  0  0  0  0  0
   -2.6423    1.3508    1.3345 H   0  0  0  0  0  0  0  0  0  0  0  0
   -3.4649   -1.5479    1.5556 H   0  0  0  0  0  0  0  0  0  0  0  0
   -2.1370   -1.0357    2.6058 H   0  0  0  0  0  0  0  0  0  0  0  0
   -3.6740   -0.1578    2.7716 H   0  0  0  0  0  0  0  0  0  0  0  0
   -1.1597   -0.9916    0.0800 H   0  0  0  0  0  0  0  0  0  0  0  0
   -0.9681    2.0360    0.2781 H   0  0  0  0  0  0  0  0  0  0  0  0
   -1.5677    1.9738   -1.9604 H   0  0  0  0  0  0  0  0  0  0  0  0
   -0.5029    0.5992   -2.2496 H   0  0  0  0  0  0  0  0  0  0  0  0
   -3.0680    0.3612   -2.4232 H   0  0  0  0  0  0  0  0  0  0  0  0
   -2.0571   -0.9529   -1.8005 H   0  0  0  0  0  0  0  0  0  0  0  0
    1.1024   -1.5195    1.9502 H   0  0  0  0  0  0  0  0  0  0  0  0
    1.9317   -0.1809    3.3532 H   0  0  0  0  0  0  0  0  0  0  0  0
    0.7492   -0.9968   -0.3847 H   0  0  0  0  0  0  0  0  0  0  0  0
    1.2777    1.9279    0.3666 H   0  0  0  0  0  0  0  0  0  0  0  0
    1.9393    0.5364   -1.8416 H   0  0  0  0  0  0  0  0  0  0  0  0
    2.8026   -1.6694    0.0029 H   0  0  0  0  0  0  0  0  0  0  0  0
    4.1768   -0.5660    1.4304 H   0  0  0  0  0  0  0  0  0  0  0  0
    4.0887    1.6138    1.6993 H   0  0  0  0  0  0  0  0  0  0  0  0
    4.5347    0.8219   -1.2325 H   0  0  0  0  0  0  0  0  0  0  0  0
    6.2008    0.8917    1.1702 H   0  0  0  0  0  0  0  0  0  0  0  0
    6.4543    1.6848   -0.4095 H   0  0  0  0  0  0  0  0  0  0  0  0
    7.5253   -0.3045   -1.2869 H   0  0  0  0  0  0  0  0  0  0  0  0
    6.4768   -1.2238    1.4424 H   0  0  0  0  0  0  0  0  0  0  0  0
    7.7666   -3.2836    0.7929 H   0  0  0  0  0  0  0  0  0  0  0  0
    6.5225   -2.8593   -1.0643 H   0  0  0  0  0  0  0  0  0  0  0  0
    5.2542   -2.7400    0.2467 H   0  0  0  0  0  0  0  0  0  0  0  0
    5.7556   -0.8798   -2.1306 H   0  0  0  0  0  0  0  0  0  0  0  0
    4.2664   -1.6392   -1.5215 H   0  0  0  0  0  0  0  0  0  0  0  0
    8.4916    0.7487    1.4340 H   0  0  0  0  0  0  0  0  0  0  0  0
    8.7119    1.4494   -0.2517 H   0  0  0  0  0  0  0  0  0  0  0  0
   10.0913   -0.4122   -0.9743 H   0  0  0  0  0  0  0  0  0  0  0  0
    9.8729   -1.2610    0.5725 H   0  0  0  0  0  0  0  0  0  0  0  0
   10.9081    0.6208    1.7516 H   0  0  0  0  0  0  0  0  0  0  0  0
   10.4906    2.5886    0.3496 H   0  0  0  0  0  0  0  0  0  0  0  0
   12.2886    2.1894    0.2493 H   0  0  0  0  0  0  0  0  0  0  0  0
   11.2029    1.7272   -1.0941 H   0  0  0  0  0  0  0  0  0  0  0  0
   13.0805   -0.1134    1.1896 H   0  0  0  0  0  0  0  0  0  0  0  0
   12.7213   -0.0413   -0.6051 H   0  0  0  0  0  0  0  0  0  0  0  0
   12.0258   -1.3690    0.3719 H   0  0  0  0  0  0  0  0  0  0  0  0
  1  2  1  0
  3  4  1  0
  4  5  1  0
  4  6  1  0
  2  7  1  0
  6  8  1  0
  7  8  1  0
  8  9  1  0
  9 10  1  0
  9 11  1  0
 11 12  1  0
  7 13  1  0
 12 13  1  0
 13 14  1  0
 13 15  1  0
 11 16  1  0
 16 17  1  0
 17 18  1  0
 18 19  1  0
 18 20  1  0
 20 21  1  0
 21 22  1  0
 17 23  1  0
 22 23  1  0
 20 24  1  0
 24 25  1  0
 25 26  1  0
 25 27  1  0
 21 28  1  0
 27 28  1  0
 28 29  1  0
 27 30  1  0
 30 31  1  0
 31 32  1  0
 31 33  1  0
 33 34  1  0
 34 35  1  0
 35 36  1  0
 36 37  1  0
 36 38  1  0
 33 39  1  0
 38 39  1  0
 35 40  1  0
 40 41  1  0
 41 42  1  0
 42 43  1  0
 42 44  1  0
 45 46  1  0
 47 48  1  0
 48 49  1  0
 48 50  1  0
 46 51  1  0
 50 52  1  0
 51 52  1  0
 52 53  1  0
 53 54  1  0
 53 55  1  0
 55 56  1  0
 51 57  1  0
 56 57  1  0
 57 58  1  0
 57 59  1  0
 55 60  1  0
 60 61  1  0
 61 62  1  0
 62 63  1  0
 62 64  1  0
 64 65  1  0
 65 66  1  0
 61 67  1  0
 66 67  1  0
 64 68  1  0
 68 69  1  0
 69 70  1  0
 69 71  1  0
 65 72  1  0
 71 72  1  0
 72 73  1  0
 71 74  1  0
 74 75  1  0
 75 76  1  0
 75 77  1  0
 77 78  1  0
 78 79  1  0
 79 80  1  0
 80 81  1  0
 80 82  1  0
 77 83  1  0
 82 83  1  0
 79 84  1  0
 84 85  1  0
 85 86  1  0
 86 87  1  0
 86 88  1  0
 89 90  1  0
 91 92  1  0
 92 93  1  0
 92 94  1  0
 90 95  1  0
 94 96  1  0
 95 96  1  0
 96 97  1  0
 97 98  1  0
 97 99  1  0
 99100  1  0
 95101  1  0
100101  1  0
101102  1  0
101103  1  0
 99104  1  0
104105  1  0
105106  1  0
106107  1  0
106108  1  0
108109  1  0
109110  1  0
105111  1  0
110111  1  0
108112  1  0
112113  1  0
113114  1  0
113115  1  0
109116  1  0
115116  1  0
116117  1  0
115118  1  0
118119  1  0
119120  1  0
119121  1  0
121122  1  0
122123  1  0
123124  1  0
124125  1  0
124126  1  0
121127  1  0
126127  1  0
123128  1  0
128129  1  0
129130  1  0
130131  1  0
130132  1  0
133134  1  0
135136  1  0
136137  1  0
136138  1  0
134139  1  0
138140  1  0
139140  1  0
140141  1  0
141142  1  0
141143  1  0
143144  1  0
139145  1  0
144145  1  0
145146  1  0
145147  1  0
143148  1  0
148149  1  0
149150  1  0
150151  1  0
150152  1  0
152153  1  0
153154  1  0
149155  1  0
154155  1  0
152156  1  0
156157  1  0
157158  1  0
157159  1  0
153160  1  0
159160  1  0
160161  1  0
159162  1  0
162163  1  0
163164  1  0
163165  1  0
165166  1  0
166167  1  0
167168  1  0
168169  1  0
168170  1  0
165171  1  0
170171  1  0
167172  1  0
172173  1  0
173174  1  0
174175  1  0
174176  1  0
  1177  1  0
  1178  1  0
  1179  1  0
  3180  1  0
  3181  1  0
  4182  1  0
  5183  1  0
  7184  1  1
  8185  1  6
  9186  1  1
 10187  1  0
 11188  1  6
 14189  1  0
 14190  1  0
 14191  1  0
 15192  1  0
 15193  1  0
 15194  1  0
 17195  1  0
 18196  1  1
 19197  1  0
 19198  1  0
 19199  1  0
 20200  1  0
 21201  1  0
 22202  1  0
 22203  1  0
 23204  1  0
 23205  1  0
 25206  1  0
 26207  1  0
 27208  1  6
 28209  1  0
 29210  1  0
 30211  1  0
 31212  1  0
 32213  1  0
 33214  1  6
 34215  1  0
 34216  1  0
 35217  1  0
 36218  1  6
 37219  1  0
 38220  1  0
 38221  1  0
 39222  1  0
 39223  1  0
 40224  1  0
 40225  1  0
 41226  1  0
 41227  1  0
 42228  1  0
 43229  1  0
 43230  1  0
 43231  1  0
 44232  1  0
 44233  1  0
 44234  1  0
 45235  1  0
 45236  1  0
 45237  1  0
 47238  1  0
 47239  1  0
 48240  1  0
 49241  1  0
 51242  1  1
 52243  1  6
 53244  1  1
 54245  1  0
 55246  1  6
 58247  1  0
 58248  1  0
 58249  1  0
 59250  1  0
 59251  1  0
 59252  1  0
 61253  1  0
 62254  1  0
 63255  1  0
 63256  1  0
 63257  1  0
 64258  1  0
 65259  1  0
 66260  1  0
 66261  1  0
 67262  1  0
 67263  1  0
 69264  1  0
 70265  1  0
 71266  1  6
 72267  1  0
 73268  1  0
 74269  1  0
 75270  1  0
 76271  1  0
 77272  1  0
 78273  1  0
 78274  1  0
 79275  1  0
 80276  1  0
 81277  1  0
 82278  1  0
 82279  1  0
 83280  1  0
 83281  1  0
 84282  1  0
 84283  1  0
 85284  1  0
 85285  1  0
 86286  1  0
 87287  1  0
 87288  1  0
 87289  1  0
 88290  1  0
 88291  1  0
 88292  1  0
 89293  1  0
 89294  1  0
 89295  1  0
 91296  1  0
 91297  1  0
 92298  1  0
 93299  1  0
 95300  1  1
 96301  1  6
 97302  1  1
 98303  1  0
 99304  1  6
102305  1  0
102306  1  0
102307  1  0
103308  1  0
103309  1  0
103310  1  0
105311  1  0
106312  1  0
107313  1  0
107314  1  0
107315  1  0
108316  1  0
109317  1  0
110318  1  0
110319  1  0
111320  1  0
111321  1  0
113322  1  0
114323  1  0
115324  1  6
116325  1  0
117326  1  0
118327  1  0
119328  1  0
120329  1  0
121330  1  6
122331  1  0
122332  1  0
123333  1  6
124334  1  0
125335  1  0
126336  1  0
126337  1  0
127338  1  0
127339  1  0
128340  1  0
128341  1  0
129342  1  0
129343  1  0
130344  1  0
131345  1  0
131346  1  0
131347  1  0
132348  1  0
132349  1  0
132350  1  0
133351  1  0
133352  1  0
133353  1  0
135354  1  0
135355  1  0
136356  1  0
137357  1  0
139358  1  1
140359  1  6
141360  1  1
142361  1  0
143362  1  1
146363  1  0
146364  1  0
146365  1  0
147366  1  0
147367  1  0
147368  1  0
149369  1  0
150370  1  1
151371  1  0
151372  1  0
151373  1  0
152374  1  0
153375  1  0
154376  1  0
154377  1  0
155378  1  0
155379  1  0
157380  1  0
158381  1  0
159382  1  6
160383  1  0
161384  1  0
162385  1  0
163386  1  1
164387  1  0
165388  1  6
166389  1  0
166390  1  0
167391  1  0
168392  1  0
169393  1  0
170394  1  0
170395  1  0
171396  1  0
171397  1  0
172398  1  0
172399  1  0
173400  1  0
173401  1  0
174402  1  0
175403  1  0
175404  1  0
175405  1  0
176406  1  0
176407  1  0
176408  1  0
M  END
>  <PDBID>  (1) 
4URO

>  <PDB ID>  (1) 
4URO

>  <Generic Name>  (1) 
Novobiocin

>  <Brand Name>  (1) 
Albamycin

>  <DrugBank ID>  (1) 
DB01051

>  <ATC Codes>  (1) 
nan

>  <Ligand ID>  (1) 
NOV

>  <Target Name>  (1) 
DNA gyrase subunit B

>  <UniProt ID>  (1) 
P0A0K8

>  <PDB ID.1>  (1) 
4URO

>  <Seq. Identity>  (1) 
84%

$$$$
