PDB_DB00275_00
     RDKit          3D

 81 84  0  0  0  0  0  0  0  0999 V2000
    1.8221    0.1533   -0.5916 C   0  0  0  0  0  0  0  0  0  0  0  0
    0.3808   -0.3855   -0.7465 C   0  0  0  0  0  0  0  0  0  0  0  0
   -6.0725   -1.4309   -1.8393 O   0  0  0  0  0  0  0  0  0  0  0  0
   -0.2314   -0.6243    0.5598 C   0  0  0  0  0  0  0  0  0  0  0  0
   -3.9936    2.5537   -0.7263 O   0  0  0  0  0  0  0  0  0  0  0  0
   -1.6785   -0.7101    0.7533 C   0  0  0  0  0  0  0  0  0  0  0  0
   -1.8324    2.4616   -1.1163 O   0  0  0  0  0  0  0  0  0  0  0  0
   -5.2602    1.9309    4.1877 C   0  0  0  0  0  0  0  0  0  0  0  0
   -5.1796    0.8800    3.0720 C   0  0  0  0  0  0  0  0  0  0  0  0
   -3.9288    1.1297    2.2983 C   0  0  0  0  0  0  0  0  0  0  0  0
   -3.7991    0.1199    1.1784 C   0  0  0  0  0  0  0  0  0  0  0  0
   -4.8693    0.1404    0.2377 N   0  0  0  0  0  0  0  0  0  0  0  0
   -4.2479   -0.3606   -0.9346 C   0  0  0  0  0  0  0  0  0  0  0  0
   -5.0281   -0.5127   -2.1576 C   0  0  0  0  0  0  0  0  0  0  0  0
   -4.2032   -1.2177   -3.2108 C   0  0  0  0  0  0  0  0  0  0  0  0
   -5.7013    0.6686   -2.7458 C   0  0  0  0  0  0  0  0  0  0  0  0
   -2.9458    0.3749   -0.9769 C   0  0  0  0  0  0  0  0  0  0  0  0
   -3.0543    1.8010   -1.4149 C   0  0  0  0  0  0  0  0  0  0  0  0
   -2.5401    0.3652    0.4253 N   0  0  0  0  0  0  0  0  0  0  0  0
    0.4463    0.3241    1.5642 C   0  0  0  0  0  0  0  0  0  0  0  0
    1.8371   -0.2244    1.7927 C   0  0  0  0  0  0  0  0  0  0  0  0
    2.4916   -0.6368    0.4579 C   0  0  0  0  0  0  0  0  0  0  0  0
    3.9782   -0.4158    0.5487 C   0  0  0  0  0  0  0  0  0  0  0  0
    4.6436   -1.2492    1.6100 C   0  0  0  0  0  0  0  0  0  0  0  0
    5.1807   -2.5562    1.1453 C   0  0  0  0  0  0  0  0  0  0  0  0
    4.8715   -2.9273   -0.2644 C   0  0  0  0  0  0  0  0  0  0  0  0
    5.0039   -1.8319   -1.2600 C   0  0  0  0  0  0  0  0  0  0  0  0
    4.7432   -0.4598   -0.7100 C   0  0  0  0  0  0  0  0  0  0  0  0
    6.1201    0.1460   -0.4019 C   0  0  0  0  0  0  0  0  0  0  0  0
    5.9611    1.5195    0.0858 N   0  0  0  0  0  0  0  0  0  0  0  0
    7.2762    1.9810   -0.0375 N   0  0  0  0  0  0  0  0  0  0  0  0
    7.8517    1.3091   -1.1193 N   0  0  0  0  0  0  0  0  0  0  0  0
    6.8853    0.3989   -1.6017 N   0  0  0  0  0  0  0  0  0  0  0  0
    1.6990    1.2326   -0.3721 H   0  0  0  0  0  0  0  0  0  0  0  0
    2.2405    0.0906   -1.6126 H   0  0  0  0  0  0  0  0  0  0  0  0
   -0.1402    0.3756   -1.3366 H   0  0  0  0  0  0  0  0  0  0  0  0
    0.4176   -1.3533   -1.3128 H   0  0  0  0  0  0  0  0  0  0  0  0
   -6.4871   -1.6623   -2.7060 H   0  0  0  0  0  0  0  0  0  0  0  0
    0.1892   -1.6445    0.9094 H   0  0  0  0  0  0  0  0  0  0  0  0
   -4.3213    3.2944   -1.3168 H   0  0  0  0  0  0  0  0  0  0  0  0
   -2.0235   -1.6751    0.2473 H   0  0  0  0  0  0  0  0  0  0  0  0
   -1.8392   -0.9864    1.8514 H   0  0  0  0  0  0  0  0  0  0  0  0
   -1.8199    2.6750   -0.1493 H   0  0  0  0  0  0  0  0  0  0  0  0
   -6.2882    2.3101    4.2966 H   0  0  0  0  0  0  0  0  0  0  0  0
   -4.6083    2.7992    3.9584 H   0  0  0  0  0  0  0  0  0  0  0  0
   -4.9664    1.5175    5.1697 H   0  0  0  0  0  0  0  0  0  0  0  0
   -5.1713   -0.0942    3.5769 H   0  0  0  0  0  0  0  0  0  0  0  0
   -6.1044    1.0185    2.4666 H   0  0  0  0  0  0  0  0  0  0  0  0
   -3.8085    2.1659    1.9892 H   0  0  0  0  0  0  0  0  0  0  0  0
   -3.0713    0.9192    2.9974 H   0  0  0  0  0  0  0  0  0  0  0  0
   -3.7905   -0.8771    1.6643 H   0  0  0  0  0  0  0  0  0  0  0  0
   -5.4359    0.9752    0.1859 H   0  0  0  0  0  0  0  0  0  0  0  0
   -3.9504   -1.4261   -0.6471 H   0  0  0  0  0  0  0  0  0  0  0  0
   -4.8473   -1.5783   -4.0642 H   0  0  0  0  0  0  0  0  0  0  0  0
   -3.3463   -0.6450   -3.5554 H   0  0  0  0  0  0  0  0  0  0  0  0
   -3.8122   -2.1465   -2.7453 H   0  0  0  0  0  0  0  0  0  0  0  0
   -5.1209    1.1666   -3.5787 H   0  0  0  0  0  0  0  0  0  0  0  0
   -6.1080    1.3914   -2.0294 H   0  0  0  0  0  0  0  0  0  0  0  0
   -6.6122    0.2937   -3.3063 H   0  0  0  0  0  0  0  0  0  0  0  0
   -2.2384   -0.1521   -1.6025 H   0  0  0  0  0  0  0  0  0  0  0  0
   -3.1886    1.9595   -2.4864 H   0  0  0  0  0  0  0  0  0  0  0  0
    0.4205    1.3519    1.2070 H   0  0  0  0  0  0  0  0  0  0  0  0
   -0.0842    0.2993    2.5392 H   0  0  0  0  0  0  0  0  0  0  0  0
    1.8624   -1.0583    2.5059 H   0  0  0  0  0  0  0  0  0  0  0  0
    2.4480    0.6552    2.1445 H   0  0  0  0  0  0  0  0  0  0  0  0
    2.3295   -1.7144    0.2802 H   0  0  0  0  0  0  0  0  0  0  0  0
    4.0740    0.6551    0.9310 H   0  0  0  0  0  0  0  0  0  0  0  0
    5.4672   -0.6614    2.0727 H   0  0  0  0  0  0  0  0  0  0  0  0
    3.8771   -1.4065    2.4079 H   0  0  0  0  0  0  0  0  0  0  0  0
    4.7474   -3.3734    1.7923 H   0  0  0  0  0  0  0  0  0  0  0  0
    6.2852   -2.6295    1.3452 H   0  0  0  0  0  0  0  0  0  0  0  0
    5.6028   -3.7406   -0.5397 H   0  0  0  0  0  0  0  0  0  0  0  0
    3.8779   -3.4636   -0.3444 H   0  0  0  0  0  0  0  0  0  0  0  0
    4.2518   -2.0403   -2.0783 H   0  0  0  0  0  0  0  0  0  0  0  0
    5.9887   -1.9156   -1.7626 H   0  0  0  0  0  0  0  0  0  0  0  0
    4.2593    0.2040   -1.4707 H   0  0  0  0  0  0  0  0  0  0  0  0
    6.6443   -0.5073    0.2927 H   0  0  0  0  0  0  0  0  0  0  0  0
    5.3948    2.0006   -0.6461 H   0  0  0  0  0  0  0  0  0  0  0  0
    7.7647    1.7364    0.8613 H   0  0  0  0  0  0  0  0  0  0  0  0
    8.1595    1.9707   -1.8714 H   0  0  0  0  0  0  0  0  0  0  0  0
    6.2557    0.9790   -2.2350 H   0  0  0  0  0  0  0  0  0  0  0  0
  1  2  1  0
  2  4  1  0
  4  6  1  0
  8  9  1  0
  9 10  1  0
 10 11  1  0
 11 12  1  0
 12 13  1  0
 14  3  1  0
 13 14  1  0
 14 15  1  0
 14 16  1  0
 13 17  1  0
  5 18  1  0
  7 18  1  0
 17 18  1  0
  6 19  1  0
 11 19  1  0
 17 19  1  0
  4 20  1  0
 20 21  1  0
  1 22  1  0
 21 22  1  0
 22 23  1  0
 23 24  1  0
 24 25  1  0
 25 26  1  0
 26 27  1  0
 23 28  1  0
 27 28  1  0
 28 29  1  0
 29 30  1  0
 30 31  1  0
 31 32  1  0
 29 33  1  0
 32 33  1  0
  1 34  1  0
  1 35  1  0
  2 36  1  0
  2 37  1  0
  3 38  1  0
  4 39  1  0
  5 40  1  0
  6 41  1  0
  6 42  1  0
  7 43  1  0
  8 44  1  0
  8 45  1  0
  8 46  1  0
  9 47  1  0
  9 48  1  0
 10 49  1  0
 10 50  1  0
 11 51  1  0
 12 52  1  0
 13 53  1  0
 15 54  1  0
 15 55  1  0
 15 56  1  0
 16 57  1  0
 16 58  1  0
 16 59  1  0
 17 60  1  0
 18 61  1  0
 20 62  1  0
 20 63  1  0
 21 64  1  0
 21 65  1  0
 22 66  1  0
 23 67  1  0
 24 68  1  0
 24 69  1  0
 25 70  1  0
 25 71  1  0
 26 72  1  0
 26 73  1  0
 27 74  1  0
 27 75  1  0
 28 76  1  0
 29 77  1  0
 30 78  1  0
 31 79  1  0
 32 80  1  0
 33 81  1  0
M  END
>  <PDBID>  (1) 
4ZUD

>  <PDB ID>  (1) 
4ZUD

>  <Generic Name>  (1) 
Olmesartan

>  <Brand Name>  (1) 
Amlodipine Besylate and Olmesartan Medoxomil#Amlodipine and Olmesartan Medoxomil#Azor#Benicar#Benicar Hct#Olmesartan Medoxmil and Hydrochlorothiazide#Olmesartan Medoxomil#Olmesartan Medoxomil / Amlodipine Besylate / Hydrochlorothiazide#Olmesartan Medoxomil and Hydrochlorothiazide#Olmesartan Medoxomil, Amlodipine and Hydrochlorothiazide#Olmesartan Medoxomil, Amlodipine and Hydrochlorothiazide 20/5/12.5 mg#Olmesartan Medoxomil, Amlodipine and Hydrochlorothiazide 40/10/12.5 mg#Olmesartan Medoxomil, Amlodipine and Hydrochlorothiazide 40/10/25 mg#Olmesartan Medoxomil, Amlodipine and Hydrochlorothiazide 40/5/12.5 mg#Olmesartan Medoxomil, Amlodipine and Hydrochlorothiazide 40/5/25 mg#Olmetec#Olmetec Plus#Tribenzor#Erastapex#Golme#Olmetec#WinBP

>  <DrugBank ID>  (1) 
DB00275

>  <ATC Codes>  (1) 
C09DA08#C09CA08#C09DX03#C09DB02

>  <Ligand ID>  (1) 
OLM

>  <Target Name>  (1) 
Type-1 angiotensin II receptor

>  <UniProt ID>  (1) 
P30556

>  <PDB ID.1>  (1) 
4ZUD

>  <Seq. Identity>  (1) 
87%

$$$$
