PDB_DB08809_03
     RDKit          3D

 10  9  0  0  0  0  0  0  0  0999 V2000
    0.9330   -0.3738    0.0477 C   0  0  0  0  0  0  0  0  0  0  0  0
   -0.3716    0.3233   -0.2987 C   0  0  0  0  0  0  0  0  0  0  0  0
   -1.4160   -0.6001   -0.2834 O   0  0  0  0  0  0  0  0  0  0  0  0
    1.2952   -1.6506   -1.1125 Cl  0  0  0  0  0  0  0  0  0  0  0  0
    0.7526   -1.0344    1.6964 Cl  0  0  0  0  0  0  0  0  0  0  0  0
   -0.6754    1.2940    0.6310 O   0  0  0  0  0  0  0  0  0  0  0  0
    1.7297    0.3957    0.0892 H   0  0  0  0  0  0  0  0  0  0  0  0
   -0.2961    0.8357   -1.2938 H   0  0  0  0  0  0  0  0  0  0  0  0
   -1.1924   -1.3891    0.2635 H   0  0  0  0  0  0  0  0  0  0  0  0
   -0.7590    2.1993    0.2606 H   0  0  0  0  0  0  0  0  0  0  0  0
  1  2  1  0
  2  3  1  0
  1  4  1  0
  1  5  1  0
  2  6  1  0
  1  7  1  0
  2  8  1  0
  3  9  1  0
  6 10  1  0
M  END
>  <PDBID>  (1) 
2Q8H

>  <PDB ID>  (1) 
2Q8H

>  <Generic Name>  (1) 
Dichloroacetic Acid

>  <Brand Name>  (1) 
Bichloracetic Acid 100%

>  <DrugBank ID>  (1) 
DB08809

>  <ATC Codes>  (1) 
nan

>  <Ligand ID>  (1) 
TF4

>  <Target Name>  (1) 
[Pyruvate dehydrogenase (acetyl-transferring)] kinase isozyme 1, mitochondrial

>  <UniProt ID>  (1) 
Q15118

>  <PDB ID.1>  (1) 
2Q8H

>  <Seq. Identity>  (1) 
100%

$$$$
