PDB_DB00307_02
     RDKit          3D

 70 72  0  0  0  0  0  0  0  0999 V2000
    7.4460    0.3984    0.2654 O   0  0  0  0  0  0  0  0  0  0  0  0
    6.4554   -0.3905    0.8266 C   0  0  0  0  0  0  0  0  0  0  0  0
    6.2003    0.1154    2.1180 O   0  0  0  0  0  0  0  0  0  0  0  0
    5.1678   -0.3222   -0.0038 C   0  0  0  0  0  0  0  0  0  0  0  0
    4.7456    1.1228   -0.0124 C   0  0  0  0  0  0  0  0  0  0  0  0
    4.0914   -1.1229    0.6610 C   0  0  0  0  0  0  0  0  0  0  0  0
    2.9192   -1.2046   -0.3113 C   0  0  0  0  0  0  0  0  0  0  0  0
    2.6105    0.1531   -0.8791 C   0  0  0  0  0  0  0  0  0  0  0  0
    3.2260    1.2668   -0.0505 C   0  0  0  0  0  0  0  0  0  0  0  0
    1.2599    0.3765   -1.3796 C   0  0  0  0  0  0  0  0  0  0  0  0
    1.1265    1.7792   -1.9116 C   0  0  0  0  0  0  0  0  0  0  0  0
    0.0871    0.0278   -0.5274 C   0  0  1  0  0  0  0  0  0  0  0  0
   -0.0156    0.7331    0.7819 C   0  0  0  0  0  0  0  0  0  0  0  0
    0.3984   -0.1598    1.9643 C   0  0  0  0  0  0  0  0  0  0  0  0
   -1.4722    1.0629    1.1407 C   0  0  0  0  0  0  0  0  0  0  0  0
   -1.1451    0.1179   -1.4017 C   0  0  0  0  0  0  0  0  0  0  0  0
   -2.4528    0.0525   -0.7706 C   0  0  0  0  0  0  0  0  0  0  0  0
   -3.3854   -0.9653   -1.3814 C   0  0  0  0  0  0  0  0  0  0  0  0
   -2.7938   -2.3326   -1.4841 C   0  0  0  0  0  0  0  0  0  0  0  0
   -3.7226   -0.4792   -2.7763 C   0  0  0  0  0  0  0  0  0  0  0  0
   -4.6901   -1.0538   -0.6149 C   0  0  0  0  0  0  0  0  0  0  0  0
   -4.5167   -1.1419    0.8634 C   0  0  0  0  0  0  0  0  0  0  0  0
   -3.7051    0.0374    1.3423 C   0  0  0  0  0  0  0  0  0  0  0  0
   -2.3397   -0.1048    0.7230 C   0  0  0  0  0  0  0  0  0  0  0  0
   -3.6021   -0.0769    2.8528 C   0  0  0  0  0  0  0  0  0  0  0  0
   -4.3886    1.3249    1.0216 C   0  0  0  0  0  0  0  0  0  0  0  0
    7.9135   -0.1101   -0.4405 H   0  0  0  0  0  0  0  0  0  0  0  0
    6.8249   -1.4115    0.9304 H   0  0  0  0  0  0  0  0  0  0  0  0
    7.0852    0.2609    2.5305 H   0  0  0  0  0  0  0  0  0  0  0  0
    5.3954   -0.7083   -0.9970 H   0  0  0  0  0  0  0  0  0  0  0  0
    5.1162    1.6743    0.8750 H   0  0  0  0  0  0  0  0  0  0  0  0
    5.2172    1.5958   -0.9016 H   0  0  0  0  0  0  0  0  0  0  0  0
    4.5015   -2.1649    0.7913 H   0  0  0  0  0  0  0  0  0  0  0  0
    3.8113   -0.6959    1.6289 H   0  0  0  0  0  0  0  0  0  0  0  0
    3.2601   -1.9401   -1.1015 H   0  0  0  0  0  0  0  0  0  0  0  0
    2.1196   -1.6959    0.2216 H   0  0  0  0  0  0  0  0  0  0  0  0
    3.2995    0.1944   -1.7917 H   0  0  0  0  0  0  0  0  0  0  0  0
    3.0597    2.2256   -0.5819 H   0  0  0  0  0  0  0  0  0  0  0  0
    2.8895    1.2949    0.9950 H   0  0  0  0  0  0  0  0  0  0  0  0
    1.1420   -0.2775   -2.3047 H   0  0  0  0  0  0  0  0  0  0  0  0
    2.1551    2.0234   -2.3342 H   0  0  0  0  0  0  0  0  0  0  0  0
    0.4814    1.8676   -2.8137 H   0  0  0  0  0  0  0  0  0  0  0  0
    0.7916    2.5136   -1.1874 H   0  0  0  0  0  0  0  0  0  0  0  0
    0.1020   -1.0761   -0.2404 H   0  0  0  0  0  0  0  0  0  0  0  0
    0.5267    1.6675    0.8807 H   0  0  0  0  0  0  0  0  0  0  0  0
    0.0391    0.2591    2.9147 H   0  0  0  0  0  0  0  0  0  0  0  0
   -0.1116   -1.1631    1.8729 H   0  0  0  0  0  0  0  0  0  0  0  0
    1.4875   -0.2782    2.0470 H   0  0  0  0  0  0  0  0  0  0  0  0
   -1.8236    1.9509    0.5778 H   0  0  0  0  0  0  0  0  0  0  0  0
   -1.5908    1.2727    2.2043 H   0  0  0  0  0  0  0  0  0  0  0  0
   -1.0682   -0.7654   -2.1133 H   0  0  0  0  0  0  0  0  0  0  0  0
   -1.1186    0.9840   -2.0992 H   0  0  0  0  0  0  0  0  0  0  0  0
   -2.9917    1.0397   -0.9064 H   0  0  0  0  0  0  0  0  0  0  0  0
   -3.5984   -3.1019   -1.4774 H   0  0  0  0  0  0  0  0  0  0  0  0
   -2.1305   -2.5522   -0.6254 H   0  0  0  0  0  0  0  0  0  0  0  0
   -2.2649   -2.4708   -2.4627 H   0  0  0  0  0  0  0  0  0  0  0  0
   -4.5850   -1.0699   -3.1367 H   0  0  0  0  0  0  0  0  0  0  0  0
   -4.0466    0.5827   -2.6726 H   0  0  0  0  0  0  0  0  0  0  0  0
   -2.8501   -0.5090   -3.4515 H   0  0  0  0  0  0  0  0  0  0  0  0
   -5.4209   -0.2801   -0.9261 H   0  0  0  0  0  0  0  0  0  0  0  0
   -5.1571   -2.0293   -0.9434 H   0  0  0  0  0  0  0  0  0  0  0  0
   -5.4944   -1.2179    1.3345 H   0  0  0  0  0  0  0  0  0  0  0  0
   -3.8882   -2.0573    1.0637 H   0  0  0  0  0  0  0  0  0  0  0  0
   -1.9467   -1.0883    1.0221 H   0  0  0  0  0  0  0  0  0  0  0  0
   -2.7988   -0.7682    3.1654 H   0  0  0  0  0  0  0  0  0  0  0  0
   -3.4638    0.9532    3.2482 H   0  0  0  0  0  0  0  0  0  0  0  0
   -4.5918   -0.4237    3.2191 H   0  0  0  0  0  0  0  0  0  0  0  0
   -5.2584    1.4232    1.7109 H   0  0  0  0  0  0  0  0  0  0  0  0
   -4.7766    1.4134    0.0066 H   0  0  0  0  0  0  0  0  0  0  0  0
   -3.7466    2.1994    1.2123 H   0  0  0  0  0  0  0  0  0  0  0  0
  1  2  1  0
  2  3  1  0
  2  4  1  0
  4  5  1  0
  4  6  1  0
  6  7  1  0
  7  8  1  0
  5  9  1  0
  8  9  1  0
  8 10  1  0
 10 11  1  0
 10 12  1  0
 12 13  1  0
 13 14  1  0
 13 15  1  0
 12 16  1  0
 16 17  1  0
 17 18  1  0
 18 19  1  0
 18 20  1  0
 18 21  1  0
 21 22  1  0
 22 23  1  0
 15 24  1  0
 17 24  1  0
 23 24  1  0
 23 25  1  0
 23 26  1  0
  1 27  1  0
  2 28  1  0
  3 29  1  0
  4 30  1  0
  5 31  1  0
  5 32  1  0
  6 33  1  0
  6 34  1  0
  7 35  1  0
  7 36  1  0
  8 37  1  0
  9 38  1  0
  9 39  1  0
 10 40  1  0
 11 41  1  0
 11 42  1  0
 11 43  1  0
 12 44  1  1
 13 45  1  0
 14 46  1  0
 14 47  1  0
 14 48  1  0
 15 49  1  0
 15 50  1  0
 16 51  1  0
 16 52  1  0
 17 53  1  0
 19 54  1  0
 19 55  1  0
 19 56  1  0
 20 57  1  0
 20 58  1  0
 20 59  1  0
 21 60  1  0
 21 61  1  0
 22 62  1  0
 22 63  1  0
 24 64  1  0
 25 65  1  0
 25 66  1  0
 25 67  1  0
 26 68  1  0
 26 69  1  0
 26 70  1  0
M  END
>  <PDBID>  (1) 
3H0A

>  <PDB ID>  (1) 
3H0A

>  <Generic Name>  (1) 
Bexarotene

>  <Brand Name>  (1) 
Bexarotene#Targretin

>  <DrugBank ID>  (1) 
DB00307

>  <ATC Codes>  (1) 
L01XX25

>  <Ligand ID>  (1) 
9RA

>  <Target Name>  (1) 
Retinoic acid receptor RXR-beta

>  <UniProt ID>  (1) 
P28702

>  <PDB ID.1>  (1) 
3H0A

>  <Seq. Identity>  (1) 
87%

$$$$
