PDB_DB06626_06
     RDKit          3D

 70 73  0  0  0  0  0  0  0  0999 V2000
   -4.6533    1.7480    1.6600 O   0  0  0  0  0  0  0  0  0  0  0  0
   -5.6912    1.2194    0.8465 C   0  0  0  0  0  0  0  0  0  0  0  0
   -5.7027    1.9577   -0.3457 N   0  0  0  0  0  0  0  0  0  0  0  0
   -6.7481    1.6715   -1.2592 C   0  0  0  0  0  0  0  0  0  0  0  0
   -5.4562   -0.2491    0.7935 C   0  0  0  0  0  0  0  0  0  0  0  0
   -6.4248   -1.0691    0.0266 C   0  0  0  0  0  0  0  0  0  0  0  0
   -6.1307   -2.5321    0.3458 C   0  0  0  0  0  0  0  0  0  0  0  0
   -4.9607   -2.6983    1.2539 C   0  0  0  0  0  0  0  0  0  0  0  0
   -4.0642   -0.5743    0.2040 C   0  0  0  0  0  0  0  0  0  0  0  0
   -3.7467   -1.9571    0.7439 C   0  0  0  0  0  0  0  0  0  0  0  0
   -2.8691    0.6711    0.6960 S   0  0  0  0  0  0  0  0  0  0  0  0
   -1.3236    0.5049   -0.1606 C   0  0  0  0  0  0  0  0  0  0  0  0
   -0.3274    1.6019    0.2293 C   0  0  0  0  0  0  0  0  0  0  0  0
    1.1155    1.1380    0.0985 C   0  0  0  0  0  0  0  0  0  0  0  0
   -0.6470   -0.7845    0.1587 C   0  0  0  0  0  0  0  0  0  0  0  0
    0.4078   -0.9869   -0.9165 C   0  0  0  0  0  0  0  0  0  0  0  0
    1.2968   -2.0215   -0.4818 N   0  0  0  0  0  0  0  0  0  0  0  0
    2.5993   -1.5940   -0.5605 N   0  0  0  0  0  0  0  0  0  0  0  0
    2.5989   -0.3785   -1.2862 C   0  0  0  0  0  0  0  0  0  0  0  0
    1.2891    0.2653   -1.0815 C   0  0  0  0  0  0  0  0  0  0  0  0
    3.8505    0.4020   -1.2167 C   0  0  0  0  0  0  0  0  0  0  0  0
    4.3745    0.8066    0.0987 C   0  0  0  0  0  0  0  0  0  0  0  0
    5.6665    1.6130   -0.1274 C   0  0  0  0  0  0  0  0  0  0  0  0
    6.1853    2.0058    1.1636 N   0  0  0  0  0  0  0  0  0  0  0  0
    6.4975    0.8752    1.9959 C   0  0  0  0  0  0  0  0  0  0  0  0
    7.2956   -0.1963    1.3548 C   0  0  0  0  0  0  0  0  0  0  0  0
    7.0569   -0.4062   -0.1046 C   0  0  0  0  0  0  0  0  0  0  0  0
    6.7117    0.8416   -0.8487 C   0  0  0  0  0  0  0  0  0  0  0  0
   -4.3989    2.6430    1.3534 H   0  0  0  0  0  0  0  0  0  0  0  0
   -6.6289    1.3735    1.4402 H   0  0  0  0  0  0  0  0  0  0  0  0
   -4.7941    2.0604   -0.8162 H   0  0  0  0  0  0  0  0  0  0  0  0
   -6.3339    1.1336   -2.1394 H   0  0  0  0  0  0  0  0  0  0  0  0
   -7.5622    1.0724   -0.8380 H   0  0  0  0  0  0  0  0  0  0  0  0
   -7.2051    2.6443   -1.6526 H   0  0  0  0  0  0  0  0  0  0  0  0
   -5.4772   -0.6045    1.8675 H   0  0  0  0  0  0  0  0  0  0  0  0
   -6.3026   -0.9295   -1.0530 H   0  0  0  0  0  0  0  0  0  0  0  0
   -7.4877   -0.9109    0.3289 H   0  0  0  0  0  0  0  0  0  0  0  0
   -7.0040   -3.0433    0.8123 H   0  0  0  0  0  0  0  0  0  0  0  0
   -5.9302   -3.0868   -0.5933 H   0  0  0  0  0  0  0  0  0  0  0  0
   -5.1631   -2.5355    2.3300 H   0  0  0  0  0  0  0  0  0  0  0  0
   -4.6787   -3.7943    1.1924 H   0  0  0  0  0  0  0  0  0  0  0  0
   -4.1947   -0.5605   -0.8907 H   0  0  0  0  0  0  0  0  0  0  0  0
   -3.3837   -2.5430   -0.1217 H   0  0  0  0  0  0  0  0  0  0  0  0
   -3.0519   -1.8782    1.5920 H   0  0  0  0  0  0  0  0  0  0  0  0
   -1.4435    0.6492   -1.2773 H   0  0  0  0  0  0  0  0  0  0  0  0
   -0.4871    1.8022    1.3106 H   0  0  0  0  0  0  0  0  0  0  0  0
   -0.5059    2.5372   -0.3133 H   0  0  0  0  0  0  0  0  0  0  0  0
    1.4791    0.6835    1.0138 H   0  0  0  0  0  0  0  0  0  0  0  0
    1.6995    2.0816   -0.0786 H   0  0  0  0  0  0  0  0  0  0  0  0
   -1.2490   -1.6826    0.1590 H   0  0  0  0  0  0  0  0  0  0  0  0
   -0.1251   -0.6648    1.1319 H   0  0  0  0  0  0  0  0  0  0  0  0
   -0.0491   -1.1875   -1.8913 H   0  0  0  0  0  0  0  0  0  0  0  0
    1.1765   -2.9135   -0.9757 H   0  0  0  0  0  0  0  0  0  0  0  0
    3.2011   -2.3539   -0.9428 H   0  0  0  0  0  0  0  0  0  0  0  0
    2.5097   -0.7639   -2.4117 H   0  0  0  0  0  0  0  0  0  0  0  0
    0.9407    0.8146   -2.0173 H   0  0  0  0  0  0  0  0  0  0  0  0
    3.8489    1.2975   -1.9011 H   0  0  0  0  0  0  0  0  0  0  0  0
    4.6501   -0.2533   -1.6956 H   0  0  0  0  0  0  0  0  0  0  0  0
    3.7025    1.4244    0.6744 H   0  0  0  0  0  0  0  0  0  0  0  0
    4.6075   -0.0793    0.7437 H   0  0  0  0  0  0  0  0  0  0  0  0
    5.3396    2.5308   -0.6608 H   0  0  0  0  0  0  0  0  0  0  0  0
    5.5143    2.6024    1.7031 H   0  0  0  0  0  0  0  0  0  0  0  0
    5.5615    0.4870    2.4810 H   0  0  0  0  0  0  0  0  0  0  0  0
    7.1072    1.2695    2.8607 H   0  0  0  0  0  0  0  0  0  0  0  0
    7.0349   -1.1652    1.8728 H   0  0  0  0  0  0  0  0  0  0  0  0
    8.3979   -0.0758    1.5704 H   0  0  0  0  0  0  0  0  0  0  0  0
    8.0373   -0.7644   -0.5426 H   0  0  0  0  0  0  0  0  0  0  0  0
    6.3471   -1.2485   -0.3236 H   0  0  0  0  0  0  0  0  0  0  0  0
    7.6237    1.4772   -0.9017 H   0  0  0  0  0  0  0  0  0  0  0  0
    6.4774    0.5813   -1.8978 H   0  0  0  0  0  0  0  0  0  0  0  0
  1  2  1  0
  2  3  1  0
  3  4  1  0
  2  5  1  0
  5  6  1  0
  6  7  1  0
  7  8  1  0
  5  9  1  0
  8 10  1  0
  9 10  1  0
  9 11  1  0
 11 12  1  0
 12 13  1  0
 13 14  1  0
 12 15  1  0
 15 16  1  0
 16 17  1  0
 17 18  1  0
 18 19  1  0
 14 20  1  0
 16 20  1  0
 19 20  1  0
 19 21  1  0
 21 22  1  0
 22 23  1  0
 23 24  1  0
 24 25  1  0
 25 26  1  0
 26 27  1  0
 23 28  1  0
 27 28  1  0
  1 29  1  0
  2 30  1  0
  3 31  1  0
  4 32  1  0
  4 33  1  0
  4 34  1  0
  5 35  1  0
  6 36  1  0
  6 37  1  0
  7 38  1  0
  7 39  1  0
  8 40  1  0
  8 41  1  0
  9 42  1  0
 10 43  1  0
 10 44  1  0
 12 45  1  0
 13 46  1  0
 13 47  1  0
 14 48  1  0
 14 49  1  0
 15 50  1  0
 15 51  1  0
 16 52  1  0
 17 53  1  0
 18 54  1  0
 19 55  1  0
 20 56  1  0
 21 57  1  0
 21 58  1  0
 22 59  1  0
 22 60  1  0
 23 61  1  0
 24 62  1  0
 25 63  1  0
 25 64  1  0
 26 65  1  0
 26 66  1  0
 27 67  1  0
 27 68  1  0
 28 69  1  0
 28 70  1  0
M  END
>  <PDBID>  (1) 
4AG8

>  <PDB ID>  (1) 
4AG8

>  <Generic Name>  (1) 
Axitinib

>  <Brand Name>  (1) 
Inlyta

>  <DrugBank ID>  (1) 
DB06626

>  <ATC Codes>  (1) 
L01XE17

>  <Ligand ID>  (1) 
AXI

>  <Target Name>  (1) 
Vascular endothelial growth factor receptor 3

>  <UniProt ID>  (1) 
P35916

>  <PDB ID.1>  (1) 
4AG8

>  <Seq. Identity>  (1) 
67%

$$$$
