PDB_DB00307_06
     RDKit          3D

 70 72  0  0  0  0  0  0  0  0999 V2000
    6.7719    1.8307   -0.2093 O   0  0  0  0  0  0  0  0  0  0  0  0
    6.3776    0.7469    0.5562 C   0  0  0  0  0  0  0  0  0  0  0  0
    7.1889   -0.3387    0.2856 O   0  0  0  0  0  0  0  0  0  0  0  0
    4.9315    0.3599    0.3190 C   0  0  0  0  0  0  0  0  0  0  0  0
    3.9857    1.4704    0.6458 C   0  0  0  0  0  0  0  0  0  0  0  0
    4.6972   -0.0898   -1.0967 C   0  0  0  0  0  0  0  0  0  0  0  0
    3.4588    0.4566   -1.6907 C   0  0  0  0  0  0  0  0  0  0  0  0
    2.2128    0.4175   -0.8171 C   0  0  0  0  0  0  0  0  0  0  0  0
    2.5614    0.8658    0.5421 C   0  0  0  0  0  0  0  0  0  0  0  0
    1.4661   -0.8800   -0.9738 C   0  0  0  0  0  0  0  0  0  0  0  0
    2.2020   -2.1007   -0.5928 C   0  0  0  0  0  0  0  0  0  0  0  0
    0.0434   -0.7414   -0.6683 C   0  0  1  0  0  0  0  0  0  0  0  0
   -0.8011   -1.9813   -0.8364 C   0  0  0  0  0  0  0  0  0  0  0  0
   -0.8073   -2.9621    0.2699 C   0  0  0  0  0  0  0  0  0  0  0  0
   -2.2204   -1.5077   -1.0490 C   0  0  0  0  0  0  0  0  0  0  0  0
   -0.4511   -0.1687    0.5963 C   0  0  0  0  0  0  0  0  0  0  0  0
   -1.7320    0.6376    0.2292 C   0  0  0  0  0  0  0  0  0  0  0  0
   -2.4183    1.0355    1.4756 C   0  0  0  0  0  0  0  0  0  0  0  0
   -2.7677    2.5356    1.4576 C   0  0  0  0  0  0  0  0  0  0  0  0
   -1.6438    0.8284    2.7509 C   0  0  0  0  0  0  0  0  0  0  0  0
   -3.7609    0.3398    1.6664 C   0  0  0  0  0  0  0  0  0  0  0  0
   -4.5498    0.7551    0.4674 C   0  0  0  0  0  0  0  0  0  0  0  0
   -4.0111    0.0854   -0.7433 C   0  0  0  0  0  0  0  0  0  0  0  0
   -2.5128   -0.0688   -0.8141 C   0  0  0  0  0  0  0  0  0  0  0  0
   -4.5638    0.9035   -1.9297 C   0  0  0  0  0  0  0  0  0  0  0  0
   -4.7627   -1.2430   -0.8541 C   0  0  0  0  0  0  0  0  0  0  0  0
    5.9803    2.1546   -0.7090 H   0  0  0  0  0  0  0  0  0  0  0  0
    6.5016    1.0132    1.6148 H   0  0  0  0  0  0  0  0  0  0  0  0
    6.6950   -0.9510   -0.3183 H   0  0  0  0  0  0  0  0  0  0  0  0
    4.7306   -0.4872    1.0023 H   0  0  0  0  0  0  0  0  0  0  0  0
    4.0757    2.3453   -0.0028 H   0  0  0  0  0  0  0  0  0  0  0  0
    4.1002    1.7309    1.7192 H   0  0  0  0  0  0  0  0  0  0  0  0
    5.5494    0.3430   -1.6922 H   0  0  0  0  0  0  0  0  0  0  0  0
    4.7571   -1.1691   -1.2242 H   0  0  0  0  0  0  0  0  0  0  0  0
    3.2572   -0.0831   -2.6653 H   0  0  0  0  0  0  0  0  0  0  0  0
    3.6204    1.5213   -2.0472 H   0  0  0  0  0  0  0  0  0  0  0  0
    1.5778    1.2595   -1.2644 H   0  0  0  0  0  0  0  0  0  0  0  0
    1.9239    1.7535    0.8763 H   0  0  0  0  0  0  0  0  0  0  0  0
    2.5367    0.1481    1.3529 H   0  0  0  0  0  0  0  0  0  0  0  0
    1.4697   -0.9859   -2.1475 H   0  0  0  0  0  0  0  0  0  0  0  0
    1.6141   -2.9406   -0.1873 H   0  0  0  0  0  0  0  0  0  0  0  0
    2.9504   -1.8288    0.1903 H   0  0  0  0  0  0  0  0  0  0  0  0
    2.8390   -2.4424   -1.4568 H   0  0  0  0  0  0  0  0  0  0  0  0
   -0.3433   -0.0630   -1.5084 H   0  0  0  0  0  0  0  0  0  0  0  0
   -0.3845   -2.5051   -1.7473 H   0  0  0  0  0  0  0  0  0  0  0  0
   -1.8635   -3.1624    0.6515 H   0  0  0  0  0  0  0  0  0  0  0  0
   -0.2446   -2.7733    1.1673 H   0  0  0  0  0  0  0  0  0  0  0  0
   -0.5106   -4.0052   -0.0669 H   0  0  0  0  0  0  0  0  0  0  0  0
   -2.4798   -1.7777   -2.1055 H   0  0  0  0  0  0  0  0  0  0  0  0
   -2.9240   -2.1011   -0.4301 H   0  0  0  0  0  0  0  0  0  0  0  0
   -0.9154   -0.9454    1.2975 H   0  0  0  0  0  0  0  0  0  0  0  0
    0.1958    0.3966    1.2325 H   0  0  0  0  0  0  0  0  0  0  0  0
   -1.2655    1.5818   -0.1814 H   0  0  0  0  0  0  0  0  0  0  0  0
   -3.6822    2.7524    2.0069 H   0  0  0  0  0  0  0  0  0  0  0  0
   -2.7502    2.8863    0.4080 H   0  0  0  0  0  0  0  0  0  0  0  0
   -1.9490    3.1090    1.9705 H   0  0  0  0  0  0  0  0  0  0  0  0
   -0.6803    1.3945    2.7719 H   0  0  0  0  0  0  0  0  0  0  0  0
   -2.2587    1.3379    3.5543 H   0  0  0  0  0  0  0  0  0  0  0  0
   -1.5616   -0.2084    3.0768 H   0  0  0  0  0  0  0  0  0  0  0  0
   -3.6625   -0.7301    1.8065 H   0  0  0  0  0  0  0  0  0  0  0  0
   -4.2276    0.8537    2.5561 H   0  0  0  0  0  0  0  0  0  0  0  0
   -5.5994    0.4583    0.6351 H   0  0  0  0  0  0  0  0  0  0  0  0
   -4.5091    1.8590    0.3736 H   0  0  0  0  0  0  0  0  0  0  0  0
   -2.2486    0.4293   -1.8068 H   0  0  0  0  0  0  0  0  0  0  0  0
   -5.5113    1.3957   -1.6573 H   0  0  0  0  0  0  0  0  0  0  0  0
   -4.7653    0.2064   -2.7919 H   0  0  0  0  0  0  0  0  0  0  0  0
   -3.7807    1.5887   -2.2741 H   0  0  0  0  0  0  0  0  0  0  0  0
   -4.4774   -1.8443   -1.7102 H   0  0  0  0  0  0  0  0  0  0  0  0
   -4.8384   -1.7671    0.1181 H   0  0  0  0  0  0  0  0  0  0  0  0
   -5.8359   -0.9342   -1.0522 H   0  0  0  0  0  0  0  0  0  0  0  0
  1  2  1  0
  2  3  1  0
  2  4  1  0
  4  5  1  0
  4  6  1  0
  6  7  1  0
  7  8  1  0
  5  9  1  0
  8  9  1  0
  8 10  1  0
 10 11  1  0
 10 12  1  0
 12 13  1  0
 13 14  1  0
 13 15  1  0
 12 16  1  0
 16 17  1  0
 17 18  1  0
 18 19  1  0
 18 20  1  0
 18 21  1  0
 21 22  1  0
 22 23  1  0
 15 24  1  0
 17 24  1  0
 23 24  1  0
 23 25  1  0
 23 26  1  0
  1 27  1  0
  2 28  1  0
  3 29  1  0
  4 30  1  0
  5 31  1  0
  5 32  1  0
  6 33  1  0
  6 34  1  0
  7 35  1  0
  7 36  1  0
  8 37  1  0
  9 38  1  0
  9 39  1  0
 10 40  1  0
 11 41  1  0
 11 42  1  0
 11 43  1  0
 12 44  1  6
 13 45  1  0
 14 46  1  0
 14 47  1  0
 14 48  1  0
 15 49  1  0
 15 50  1  0
 16 51  1  0
 16 52  1  0
 17 53  1  0
 19 54  1  0
 19 55  1  0
 19 56  1  0
 20 57  1  0
 20 58  1  0
 20 59  1  0
 21 60  1  0
 21 61  1  0
 22 62  1  0
 22 63  1  0
 24 64  1  0
 25 65  1  0
 25 66  1  0
 25 67  1  0
 26 68  1  0
 26 69  1  0
 26 70  1  0
M  END
>  <PDBID>  (1) 
3H0A

>  <PDB ID>  (1) 
3H0A

>  <Generic Name>  (1) 
Bexarotene

>  <Brand Name>  (1) 
Bexarotene#Targretin

>  <DrugBank ID>  (1) 
DB00307

>  <ATC Codes>  (1) 
L01XX25

>  <Ligand ID>  (1) 
9RA

>  <Target Name>  (1) 
Retinoic acid receptor RXR-beta

>  <UniProt ID>  (1) 
P28702

>  <PDB ID.1>  (1) 
3H0A

>  <Seq. Identity>  (1) 
87%

$$$$
