PDB_DB04868_02
     RDKit          3D

 91 95  0  0  0  0  0  0  0  0999 V2000
   -1.0156    1.6787    1.0353 O   0  0  0  0  0  0  0  0  0  0  0  0
   -1.2754    0.3207    1.3209 C   0  0  1  0  0  0  0  0  0  0  0  0
   -2.6267   -0.0009    1.4778 N   0  0  0  0  0  0  0  0  0  0  0  0
   -3.5344   -0.0815    0.4147 C   0  0  2  0  0  0  0  0  0  0  0  0
   -4.9706    0.2736    0.9077 C   0  0  0  0  0  0  0  0  0  0  0  0
   -5.9060   -0.1167   -0.1736 C   0  0  0  0  0  0  0  0  0  0  0  0
   -7.1018    0.6871   -0.2337 N   0  0  0  0  0  0  0  0  0  0  0  0
   -6.8964    2.0703   -0.4912 C   0  0  0  0  0  0  0  0  0  0  0  0
   -7.6370    2.8062    0.6059 C   0  0  0  0  0  0  0  0  0  0  0  0
   -8.2727    4.0246    0.0078 C   0  0  0  0  0  0  0  0  0  0  0  0
   -8.5920    1.8458    1.0792 N   0  0  0  0  0  0  0  0  0  0  0  0
   -7.9779    0.5333    0.8800 C   0  0  0  0  0  0  0  0  0  0  0  0
   -5.3112   -0.1678   -1.5571 C   0  0  0  0  0  0  0  0  0  0  0  0
   -3.7256   -1.4417   -0.2141 C   0  0  0  0  0  0  0  0  0  0  0  0
   -4.2803   -1.2666   -1.6211 C   0  0  0  0  0  0  0  0  0  0  0  0
   -4.8507   -2.6006   -2.0388 C   0  0  0  0  0  0  0  0  0  0  0  0
   -3.8071   -3.4963   -2.0583 F   0  0  0  0  0  0  0  0  0  0  0  0
   -5.7745   -3.0423   -1.1272 F   0  0  0  0  0  0  0  0  0  0  0  0
   -5.4431   -2.5127   -3.2574 F   0  0  0  0  0  0  0  0  0  0  0  0
   -0.3784   -0.5921    0.5692 C   0  0  1  0  0  0  0  0  0  0  0  0
   -0.4450   -0.4548   -0.8997 C   0  0  0  0  0  0  0  0  0  0  0  0
    0.1605   -1.6641   -1.5341 C   0  0  0  0  0  0  0  0  0  0  0  0
    1.0946   -2.3787   -0.5789 C   0  0  0  0  0  0  0  0  0  0  0  0
    1.8908   -3.3292   -1.4096 C   0  0  0  0  0  0  0  0  0  0  0  0
    1.9086   -1.5026    0.2943 C   0  0  2  0  0  0  0  0  0  0  0  0
    1.0918   -0.3736    0.9423 C   0  0  0  0  0  0  0  0  0  0  0  0
    3.0791   -0.9130   -0.1875 N   0  0  0  0  0  0  0  0  0  0  0  0
    4.2231   -1.6324   -0.5509 C   0  0  0  0  0  0  0  0  0  0  0  0
    4.7015   -2.5589    0.4430 N   0  0  0  0  0  0  0  0  0  0  0  0
    6.1056   -2.8041    0.2218 C   0  0  0  0  0  0  0  0  0  0  0  0
    6.8222   -1.5631    0.7724 C   0  0  0  0  0  0  0  0  0  0  0  0
    5.9447   -0.3534    0.4391 C   0  0  0  0  0  0  0  0  0  0  0  0
    5.2929   -0.6214   -0.8365 N   0  0  0  0  0  0  0  0  0  0  0  0
    6.7007    0.9254    0.4455 C   0  0  0  0  0  0  0  0  0  0  0  0
    5.7363    2.0603    0.1356 C   0  0  0  0  0  0  0  0  0  0  0  0
    6.5085    3.3371    0.4332 C   0  0  0  0  0  0  0  0  0  0  0  0
    7.8148    3.4054   -0.3061 C   0  0  0  0  0  0  0  0  0  0  0  0
    8.5884    2.2031   -0.2256 N   0  0  0  0  0  0  0  0  0  0  0  0
    7.7996    1.0198   -0.5687 C   0  0  0  0  0  0  0  0  0  0  0  0
   -0.0875    1.9241    1.3547 H   0  0  0  0  0  0  0  0  0  0  0  0
   -0.8462    0.2602    2.4145 H   0  0  0  0  0  0  0  0  0  0  0  0
   -3.0348    0.6528    2.2116 H   0  0  0  0  0  0  0  0  0  0  0  0
   -3.3436    0.7174   -0.3606 H   0  0  0  0  0  0  0  0  0  0  0  0
   -5.1015   -0.3755    1.8247 H   0  0  0  0  0  0  0  0  0  0  0  0
   -5.0337    1.2971    1.2644 H   0  0  0  0  0  0  0  0  0  0  0  0
   -6.2714   -1.1572    0.0773 H   0  0  0  0  0  0  0  0  0  0  0  0
   -7.3357    2.3428   -1.4708 H   0  0  0  0  0  0  0  0  0  0  0  0
   -5.8269    2.3694   -0.5297 H   0  0  0  0  0  0  0  0  0  0  0  0
   -6.9357    3.0203    1.4103 H   0  0  0  0  0  0  0  0  0  0  0  0
   -8.5889    3.7676   -1.0380 H   0  0  0  0  0  0  0  0  0  0  0  0
   -9.1602    4.3764    0.5896 H   0  0  0  0  0  0  0  0  0  0  0  0
   -7.5123    4.8322   -0.0549 H   0  0  0  0  0  0  0  0  0  0  0  0
   -8.8827    1.9721    2.0677 H   0  0  0  0  0  0  0  0  0  0  0  0
   -8.8399   -0.1284    0.5675 H   0  0  0  0  0  0  0  0  0  0  0  0
   -7.5183    0.1455    1.7879 H   0  0  0  0  0  0  0  0  0  0  0  0
   -4.8839    0.8075   -1.7866 H   0  0  0  0  0  0  0  0  0  0  0  0
   -6.1315   -0.4644   -2.2450 H   0  0  0  0  0  0  0  0  0  0  0  0
   -4.4133   -2.0639    0.4109 H   0  0  0  0  0  0  0  0  0  0  0  0
   -2.8037   -2.0213   -0.3079 H   0  0  0  0  0  0  0  0  0  0  0  0
   -3.4551   -0.9958   -2.3087 H   0  0  0  0  0  0  0  0  0  0  0  0
   -0.5969   -1.6202    0.9437 H   0  0  0  0  0  0  0  0  0  0  0  0
   -1.4043   -0.2574   -1.3610 H   0  0  0  0  0  0  0  0  0  0  0  0
    0.2110    0.4407   -1.1619 H   0  0  0  0  0  0  0  0  0  0  0  0
    0.6273   -1.5013   -2.5073 H   0  0  0  0  0  0  0  0  0  0  0  0
   -0.6920   -2.3871   -1.7079 H   0  0  0  0  0  0  0  0  0  0  0  0
    0.4707   -3.0671    0.0985 H   0  0  0  0  0  0  0  0  0  0  0  0
    1.1357   -4.1461   -1.7049 H   0  0  0  0  0  0  0  0  0  0  0  0
    2.1596   -2.9246   -2.4255 H   0  0  0  0  0  0  0  0  0  0  0  0
    2.6733   -3.8857   -0.9057 H   0  0  0  0  0  0  0  0  0  0  0  0
    2.1347   -2.1701    1.2188 H   0  0  0  0  0  0  0  0  0  0  0  0
    1.4287    0.6303    0.5660 H   0  0  0  0  0  0  0  0  0  0  0  0
    1.1581   -0.3513    2.0261 H   0  0  0  0  0  0  0  0  0  0  0  0
    2.8043   -0.1990   -0.9289 H   0  0  0  0  0  0  0  0  0  0  0  0
    4.1186   -2.1500   -1.5033 H   0  0  0  0  0  0  0  0  0  0  0  0
    4.5886   -2.2394    1.4089 H   0  0  0  0  0  0  0  0  0  0  0  0
    6.4647   -3.7174    0.7454 H   0  0  0  0  0  0  0  0  0  0  0  0
    6.2936   -2.9373   -0.8494 H   0  0  0  0  0  0  0  0  0  0  0  0
    6.9143   -1.6899    1.8626 H   0  0  0  0  0  0  0  0  0  0  0  0
    7.7880   -1.5029    0.2789 H   0  0  0  0  0  0  0  0  0  0  0  0
    5.1203   -0.2677    1.1757 H   0  0  0  0  0  0  0  0  0  0  0  0
    6.0157   -1.0314   -1.4523 H   0  0  0  0  0  0  0  0  0  0  0  0
    7.1172    1.0766    1.4569 H   0  0  0  0  0  0  0  0  0  0  0  0
    4.8489    2.0654    0.7827 H   0  0  0  0  0  0  0  0  0  0  0  0
    5.4692    1.9913   -0.9210 H   0  0  0  0  0  0  0  0  0  0  0  0
    6.6714    3.3825    1.5298 H   0  0  0  0  0  0  0  0  0  0  0  0
    5.8758    4.1887    0.1441 H   0  0  0  0  0  0  0  0  0  0  0  0
    7.6724    3.6720   -1.3546 H   0  0  0  0  0  0  0  0  0  0  0  0
    8.4272    4.2115    0.1874 H   0  0  0  0  0  0  0  0  0  0  0  0
    8.9883    2.0059    0.7188 H   0  0  0  0  0  0  0  0  0  0  0  0
    8.5013    0.1838   -0.5877 H   0  0  0  0  0  0  0  0  0  0  0  0
    7.3796    1.1954   -1.5823 H   0  0  0  0  0  0  0  0  0  0  0  0
  1  2  1  0
  2  3  1  0
  3  4  1  0
  4  5  1  0
  5  6  1  0
  6  7  1  0
  7  8  1  0
  8  9  1  0
  9 10  1  0
  9 11  1  0
  7 12  1  0
 11 12  1  0
  6 13  1  0
  4 14  1  0
 13 15  1  0
 14 15  1  0
 15 16  1  0
 16 17  1  0
 16 18  1  0
 16 19  1  0
  2 20  1  0
 20 21  1  0
 21 22  1  0
 22 23  1  0
 23 24  1  0
 23 25  1  0
 20 26  1  0
 25 26  1  0
 25 27  1  0
 27 28  1  0
 28 29  1  0
 29 30  1  0
 30 31  1  0
 31 32  1  0
 28 33  1  0
 32 33  1  0
 32 34  1  0
 34 35  1  0
 35 36  1  0
 36 37  1  0
 37 38  1  0
 34 39  1  0
 38 39  1  0
  1 40  1  0
  2 41  1  1
  3 42  1  0
  4 43  1  6
  5 44  1  0
  5 45  1  0
  6 46  1  0
  8 47  1  0
  8 48  1  0
  9 49  1  0
 10 50  1  0
 10 51  1  0
 10 52  1  0
 11 53  1  0
 12 54  1  0
 12 55  1  0
 13 56  1  0
 13 57  1  0
 14 58  1  0
 14 59  1  0
 15 60  1  0
 20 61  1  6
 21 62  1  0
 21 63  1  0
 22 64  1  0
 22 65  1  0
 23 66  1  0
 24 67  1  0
 24 68  1  0
 24 69  1  0
 25 70  1  1
 26 71  1  0
 26 72  1  0
 27 73  1  0
 28 74  1  0
 29 75  1  0
 30 76  1  0
 30 77  1  0
 31 78  1  0
 31 79  1  0
 32 80  1  0
 33 81  1  0
 34 82  1  0
 35 83  1  0
 35 84  1  0
 36 85  1  0
 36 86  1  0
 37 87  1  0
 37 88  1  0
 38 89  1  0
 39 90  1  0
 39 91  1  0
M  END
>  <PDBID>  (1) 
5MO4

>  <PDB ID>  (1) 
5MO4

>  <Generic Name>  (1) 
Nilotinib

>  <Brand Name>  (1) 
Tasigna

>  <DrugBank ID>  (1) 
DB04868

>  <ATC Codes>  (1) 
L01XE08

>  <Ligand ID>  (1) 
NIL

>  <Target Name>  (1) 
Tyrosine-protein kinase ABL1

>  <UniProt ID>  (1) 
P00519

>  <PDB ID.1>  (1) 
5MO4

>  <Seq. Identity>  (1) 
97%

$$$$
