PDB_DB00255_08
     RDKit          3D

108110  0  0  0  0  0  0  0  0999 V2000
    0.1001   -3.1781    0.2524 C   0  0  0  0  0  0  0  0  0  0  0  0
   -0.5808   -2.3565   -0.8144 C   0  0  0  0  0  0  0  0  0  0  0  0
   -0.6576   -0.9016   -0.5463 C   0  0  0  0  0  0  0  0  0  0  0  0
   -1.3843   -0.4996    0.7212 C   0  0  0  0  0  0  0  0  0  0  0  0
   -2.8192   -1.0261    0.6928 C   0  0  0  0  0  0  0  0  0  0  0  0
   -3.7516   -0.1183   -0.0962 C   0  0  0  0  0  0  0  0  0  0  0  0
   -3.9800    1.1358    0.7380 C   0  0  0  0  0  0  0  0  0  0  0  0
   -5.0618    0.8855    1.5783 O   0  0  0  0  0  0  0  0  0  0  0  0
   -2.7699    1.3775    1.6185 C   0  0  0  0  0  0  0  0  0  0  0  0
   -1.5549    1.0029    0.7604 C   0  0  0  0  0  0  0  0  0  0  0  0
    0.4588   -0.0326   -0.9360 C   0  0  0  0  0  0  0  0  0  0  0  0
    1.8198   -0.3477   -0.4090 C   0  0  0  0  0  0  0  0  0  0  0  0
    1.9402   -0.3365    1.0949 C   0  0  0  0  0  0  0  0  0  0  0  0
    3.2887    0.2385    1.5648 C   0  0  0  0  0  0  0  0  0  0  0  0
    3.3914    1.6990    1.2821 C   0  0  0  0  0  0  0  0  0  0  0  0
    4.7388    2.0067    1.0972 O   0  0  0  0  0  0  0  0  0  0  0  0
    2.6775    1.9750   -0.0227 C   0  0  0  0  0  0  0  0  0  0  0  0
    2.7828    0.7305   -0.8561 C   0  0  0  0  0  0  0  0  0  0  0  0
    0.4322    0.4123   -2.3590 C   0  0  0  0  0  0  0  0  0  0  0  0
    0.5000   -0.6155   -3.4192 C   0  0  0  0  0  0  0  0  0  0  0  0
    0.1001   -3.1781    0.2524 C   0  0  0  0  0  0  0  0  0  0  0  0
   -0.5808   -2.3565   -0.8144 C   0  0  0  0  0  0  0  0  0  0  0  0
   -0.6576   -0.9016   -0.5463 C   0  0  0  0  0  0  0  0  0  0  0  0
   -1.3843   -0.4996    0.7212 C   0  0  0  0  0  0  0  0  0  0  0  0
   -2.8192   -1.0261    0.6928 C   0  0  0  0  0  0  0  0  0  0  0  0
   -3.7516   -0.1183   -0.0962 C   0  0  0  0  0  0  0  0  0  0  0  0
   -3.9800    1.1358    0.7380 C   0  0  0  0  0  0  0  0  0  0  0  0
   -5.0618    0.8855    1.5783 O   0  0  0  0  0  0  0  0  0  0  0  0
   -2.7699    1.3775    1.6185 C   0  0  0  0  0  0  0  0  0  0  0  0
   -1.5549    1.0029    0.7604 C   0  0  0  0  0  0  0  0  0  0  0  0
    0.4588   -0.0326   -0.9360 C   0  0  0  0  0  0  0  0  0  0  0  0
    1.8198   -0.3477   -0.4090 C   0  0  0  0  0  0  0  0  0  0  0  0
    1.9402   -0.3365    1.0949 C   0  0  0  0  0  0  0  0  0  0  0  0
    3.2887    0.2385    1.5648 C   0  0  0  0  0  0  0  0  0  0  0  0
    3.3914    1.6990    1.2821 C   0  0  0  0  0  0  0  0  0  0  0  0
    4.7388    2.0067    1.0972 O   0  0  0  0  0  0  0  0  0  0  0  0
    2.6775    1.9750   -0.0227 C   0  0  0  0  0  0  0  0  0  0  0  0
    2.7828    0.7305   -0.8561 C   0  0  0  0  0  0  0  0  0  0  0  0
    0.4322    0.4123   -2.3590 C   0  0  0  0  0  0  0  0  0  0  0  0
    0.5000   -0.6155   -3.4192 C   0  0  0  0  0  0  0  0  0  0  0  0
    1.1831   -3.2418    0.0204 H   0  0  0  0  0  0  0  0  0  0  0  0
   -0.2423   -4.2507    0.2201 H   0  0  0  0  0  0  0  0  0  0  0  0
    0.0271   -2.7496    1.2615 H   0  0  0  0  0  0  0  0  0  0  0  0
   -1.5512   -2.8636   -1.0011 H   0  0  0  0  0  0  0  0  0  0  0  0
   -0.0148   -2.5266   -1.7473 H   0  0  0  0  0  0  0  0  0  0  0  0
   -1.5014   -0.6006   -1.3050 H   0  0  0  0  0  0  0  0  0  0  0  0
   -0.8801   -0.8497    1.6355 H   0  0  0  0  0  0  0  0  0  0  0  0
   -3.2164   -1.0009    1.7246 H   0  0  0  0  0  0  0  0  0  0  0  0
   -2.8985   -2.0162    0.2210 H   0  0  0  0  0  0  0  0  0  0  0  0
   -4.7325   -0.6233   -0.1871 H   0  0  0  0  0  0  0  0  0  0  0  0
   -3.4020    0.1033   -1.1013 H   0  0  0  0  0  0  0  0  0  0  0  0
   -4.1408    1.9804    0.0733 H   0  0  0  0  0  0  0  0  0  0  0  0
   -4.8815    1.2307    2.4763 H   0  0  0  0  0  0  0  0  0  0  0  0
   -2.7269    0.7685    2.5210 H   0  0  0  0  0  0  0  0  0  0  0  0
   -2.7197    2.4537    1.8686 H   0  0  0  0  0  0  0  0  0  0  0  0
   -1.7023    1.4092   -0.2854 H   0  0  0  0  0  0  0  0  0  0  0  0
   -0.7335    1.5755    1.1887 H   0  0  0  0  0  0  0  0  0  0  0  0
    0.2677    0.9681   -0.3696 H   0  0  0  0  0  0  0  0  0  0  0  0
    2.2463   -1.2876   -0.8414 H   0  0  0  0  0  0  0  0  0  0  0  0
    1.9441   -1.3517    1.5353 H   0  0  0  0  0  0  0  0  0  0  0  0
    1.1884    0.3291    1.5002 H   0  0  0  0  0  0  0  0  0  0  0  0
    4.0962   -0.3922    1.1978 H   0  0  0  0  0  0  0  0  0  0  0  0
    3.2872    0.1015    2.6759 H   0  0  0  0  0  0  0  0  0  0  0  0
    2.9965    2.3223    2.1130 H   0  0  0  0  0  0  0  0  0  0  0  0
    5.1432    2.4028    1.9074 H   0  0  0  0  0  0  0  0  0  0  0  0
    3.2376    2.7761   -0.5572 H   0  0  0  0  0  0  0  0  0  0  0  0
    1.6691    2.3504    0.1380 H   0  0  0  0  0  0  0  0  0  0  0  0
    2.7960    0.9767   -1.9027 H   0  0  0  0  0  0  0  0  0  0  0  0
    3.8369    0.3374   -0.6556 H   0  0  0  0  0  0  0  0  0  0  0  0
    1.0128    1.3381   -2.5758 H   0  0  0  0  0  0  0  0  0  0  0  0
   -0.6406    0.8427   -2.4699 H   0  0  0  0  0  0  0  0  0  0  0  0
    1.2673   -1.3959   -3.3180 H   0  0  0  0  0  0  0  0  0  0  0  0
    0.6987   -0.0564   -4.3786 H   0  0  0  0  0  0  0  0  0  0  0  0
   -0.4842   -1.1111   -3.5244 H   0  0  0  0  0  0  0  0  0  0  0  0
    1.1831   -3.2418    0.0204 H   0  0  0  0  0  0  0  0  0  0  0  0
   -0.2423   -4.2507    0.2201 H   0  0  0  0  0  0  0  0  0  0  0  0
    0.0271   -2.7496    1.2615 H   0  0  0  0  0  0  0  0  0  0  0  0
   -1.5512   -2.8636   -1.0011 H   0  0  0  0  0  0  0  0  0  0  0  0
   -0.0148   -2.5266   -1.7473 H   0  0  0  0  0  0  0  0  0  0  0  0
   -1.5014   -0.6006   -1.3050 H   0  0  0  0  0  0  0  0  0  0  0  0
   -0.8801   -0.8497    1.6355 H   0  0  0  0  0  0  0  0  0  0  0  0
   -3.2164   -1.0009    1.7246 H   0  0  0  0  0  0  0  0  0  0  0  0
   -2.8985   -2.0162    0.2210 H   0  0  0  0  0  0  0  0  0  0  0  0
   -4.7325   -0.6233   -0.1871 H   0  0  0  0  0  0  0  0  0  0  0  0
   -3.4020    0.1033   -1.1013 H   0  0  0  0  0  0  0  0  0  0  0  0
   -4.1408    1.9804    0.0733 H   0  0  0  0  0  0  0  0  0  0  0  0
   -4.8815    1.2307    2.4763 H   0  0  0  0  0  0  0  0  0  0  0  0
   -2.7269    0.7685    2.5210 H   0  0  0  0  0  0  0  0  0  0  0  0
   -2.7197    2.4537    1.8686 H   0  0  0  0  0  0  0  0  0  0  0  0
   -1.7023    1.4092   -0.2854 H   0  0  0  0  0  0  0  0  0  0  0  0
   -0.7335    1.5755    1.1887 H   0  0  0  0  0  0  0  0  0  0  0  0
    0.2677    0.9681   -0.3696 H   0  0  0  0  0  0  0  0  0  0  0  0
    2.2463   -1.2876   -0.8414 H   0  0  0  0  0  0  0  0  0  0  0  0
    1.9441   -1.3517    1.5353 H   0  0  0  0  0  0  0  0  0  0  0  0
    1.1884    0.3291    1.5002 H   0  0  0  0  0  0  0  0  0  0  0  0
    4.0962   -0.3922    1.1978 H   0  0  0  0  0  0  0  0  0  0  0  0
    3.2872    0.1015    2.6759 H   0  0  0  0  0  0  0  0  0  0  0  0
    2.9965    2.3223    2.1130 H   0  0  0  0  0  0  0  0  0  0  0  0
    5.1432    2.4028    1.9074 H   0  0  0  0  0  0  0  0  0  0  0  0
    3.2376    2.7761   -0.5572 H   0  0  0  0  0  0  0  0  0  0  0  0
    1.6691    2.3504    0.1380 H   0  0  0  0  0  0  0  0  0  0  0  0
    2.7960    0.9767   -1.9027 H   0  0  0  0  0  0  0  0  0  0  0  0
    3.8369    0.3374   -0.6556 H   0  0  0  0  0  0  0  0  0  0  0  0
    1.0128    1.3381   -2.5758 H   0  0  0  0  0  0  0  0  0  0  0  0
   -0.6406    0.8427   -2.4699 H   0  0  0  0  0  0  0  0  0  0  0  0
    1.2673   -1.3959   -3.3180 H   0  0  0  0  0  0  0  0  0  0  0  0
    0.6987   -0.0564   -4.3786 H   0  0  0  0  0  0  0  0  0  0  0  0
   -0.4842   -1.1111   -3.5244 H   0  0  0  0  0  0  0  0  0  0  0  0
  1  2  1  0
  2  3  1  0
  3  4  1  0
  4  5  1  0
  5  6  1  0
  6  7  1  0
  7  8  1  0
  7  9  1  0
  4 10  1  0
  9 10  1  0
  3 11  1  0
 11 12  1  0
 12 13  1  0
 13 14  1  0
 14 15  1  0
 15 16  1  0
 15 17  1  0
 12 18  1  0
 17 18  1  0
 11 19  1  0
 19 20  1  0
 21 22  1  0
 22 23  1  0
 23 24  1  0
 24 25  1  0
 25 26  1  0
 26 27  1  0
 27 28  1  0
 27 29  1  0
 24 30  1  0
 29 30  1  0
 23 31  1  0
 31 32  1  0
 32 33  1  0
 33 34  1  0
 34 35  1  0
 35 36  1  0
 35 37  1  0
 32 38  1  0
 37 38  1  0
 31 39  1  0
 39 40  1  0
  1 41  1  0
  1 42  1  0
  1 43  1  0
  2 44  1  0
  2 45  1  0
  3 46  1  0
  4 47  1  0
  5 48  1  0
  5 49  1  0
  6 50  1  0
  6 51  1  0
  7 52  1  0
  8 53  1  0
  9 54  1  0
  9 55  1  0
 10 56  1  0
 10 57  1  0
 11 58  1  0
 12 59  1  0
 13 60  1  0
 13 61  1  0
 14 62  1  0
 14 63  1  0
 15 64  1  0
 16 65  1  0
 17 66  1  0
 17 67  1  0
 18 68  1  0
 18 69  1  0
 19 70  1  0
 19 71  1  0
 20 72  1  0
 20 73  1  0
 20 74  1  0
 21 75  1  0
 21 76  1  0
 21 77  1  0
 22 78  1  0
 22 79  1  0
 23 80  1  0
 24 81  1  0
 25 82  1  0
 25 83  1  0
 26 84  1  0
 26 85  1  0
 27 86  1  0
 28 87  1  0
 29 88  1  0
 29 89  1  0
 30 90  1  0
 30 91  1  0
 31 92  1  0
 32 93  1  0
 33 94  1  0
 33 95  1  0
 34 96  1  0
 34 97  1  0
 35 98  1  0
 36 99  1  0
 37100  1  0
 37101  1  0
 38102  1  0
 38103  1  0
 39104  1  0
 39105  1  0
 40106  1  0
 40107  1  0
 40108  1  0
M  END
>  <PDBID>  (1) 
4ZN7

>  <PDB ID>  (1) 
4ZN7

>  <Generic Name>  (1) 
Diethylstilbestrol

>  <Brand Name>  (1) 
Honvol Ampoules 250mg#Honvol Tablets 100mg#Stilbestrol 0.5mg Tablet#Stilbestrol 1.0mg Tablet#Stilbestrol Tab 1mg#Stilbestrol Tablets 0.1 mg#Stilbestrol Tablets 0.5 mg#Stilbestrol Tablets 1.0 mg#Stilboestrol Tab 0.1mg#Stilboestrol Tab 0.5mg#Distilbene#Stilbestrol#Stilbetin

>  <DrugBank ID>  (1) 
DB00255

>  <ATC Codes>  (1) 
L02AA01#G03CC05#L02AA04#G03CB02

>  <Ligand ID>  (1) 
DES

>  <Target Name>  (1) 
Estrogen receptor

>  <UniProt ID>  (1) 
P03372

>  <PDB ID.1>  (1) 
4ZN7

>  <Seq. Identity>  (1) 
93%

$$$$
