PDB_DB09330_07
     RDKit          3D

 94 97  0  0  0  0  0  0  0  0999 V2000
    6.6267   -3.4505   -0.0846 C   0  0  0  0  0  0  0  0  0  0  0  0
    6.8770   -2.0817   -0.4186 N   0  0  0  0  0  0  0  0  0  0  0  0
    8.2728   -1.7720   -0.6214 C   0  0  0  0  0  0  0  0  0  0  0  0
    6.0369   -1.5628   -1.4711 C   0  0  0  0  0  0  0  0  0  0  0  0
    4.5812   -1.3755   -1.0672 C   0  0  0  0  0  0  0  0  0  0  0  0
    4.5078   -0.4273   -0.0275 N   0  0  0  0  0  0  0  0  0  0  0  0
    5.0597   -0.9338    1.2297 C   0  0  0  0  0  0  0  0  0  0  0  0
    2.2631   -0.8774    0.6129 C   0  0  0  0  0  0  0  0  0  0  0  0
    0.7852   -0.5467    0.3230 C   0  0  0  0  0  0  0  0  0  0  0  0
   -0.0225   -1.2753    1.1378 O   0  0  0  0  0  0  0  0  0  0  0  0
   -0.6037   -2.3437    0.4475 C   0  0  0  0  0  0  0  0  0  0  0  0
    3.2208    0.2108    0.2146 C   0  0  0  0  0  0  0  0  0  0  0  0
    2.8533    1.1167   -0.8591 C   0  0  2  0  0  0  0  0  0  0  0  0
    3.4282    2.3933   -0.8866 N   0  0  0  0  0  0  0  0  0  0  0  0
    4.7329    2.7647   -1.0050 C   0  0  0  0  0  0  0  0  0  0  0  0
    4.7596    4.1673   -1.3516 O   0  0  0  0  0  0  0  0  0  0  0  0
    5.7077    2.6166    0.0929 C   0  0  0  0  0  0  0  0  0  0  0  0
    5.3220    3.4179    1.3330 C   0  0  0  0  0  0  0  0  0  0  0  0
    1.3233    1.3599   -1.0049 C   0  0  0  0  0  0  0  0  0  0  0  0
    0.6910    0.9313    0.3141 C   0  0  0  0  0  0  0  0  0  0  0  0
   -0.5195    1.5391    0.6038 N   0  0  0  0  0  0  0  0  0  0  0  0
   -1.6741    1.4002   -0.1625 C   0  0  0  0  0  0  0  0  0  0  0  0
   -2.4352    0.2471    0.2554 N   0  0  0  0  0  0  0  0  0  0  0  0
   -2.4584    2.6097   -0.1526 N   0  0  0  0  0  0  0  0  0  0  0  0
   -3.4880    2.4850   -1.1649 C   0  0  0  0  0  0  0  0  0  0  0  0
   -3.7557    1.1012   -1.6177 C   0  0  0  0  0  0  0  0  0  0  0  0
   -3.6083    0.0512   -0.5764 C   0  0  0  0  0  0  0  0  0  0  0  0
   -4.7772   -0.2465    0.2831 C   0  0  0  0  0  0  0  0  0  0  0  0
   -6.0825   -0.4320   -0.4528 C   0  0  0  0  0  0  0  0  0  0  0  0
   -6.1419   -1.6562   -1.3025 C   0  0  0  0  0  0  0  0  0  0  0  0
   -7.0308   -2.7361   -0.7182 C   0  0  0  0  0  0  0  0  0  0  0  0
   -6.7969   -2.9286    0.7623 C   0  0  0  0  0  0  0  0  0  0  0  0
   -6.9635   -1.6556    1.5590 C   0  0  0  0  0  0  0  0  0  0  0  0
   -7.0617   -0.4429    0.7087 C   0  0  0  0  0  0  0  0  0  0  0  0
   -6.5997    0.7043    1.4648 N   0  0  0  0  0  0  0  0  0  0  0  0
   -7.1821    1.9551    1.0034 C   0  0  0  0  0  0  0  0  0  0  0  0
   -5.1330    0.7209    1.3378 C   0  0  0  0  0  0  0  0  0  0  0  0
    7.4646   -4.1057   -0.4426 H   0  0  0  0  0  0  0  0  0  0  0  0
    5.6486   -3.8237   -0.4533 H   0  0  0  0  0  0  0  0  0  0  0  0
    6.6379   -3.5471    1.0160 H   0  0  0  0  0  0  0  0  0  0  0  0
    8.4009   -0.7987   -1.1449 H   0  0  0  0  0  0  0  0  0  0  0  0
    8.8015   -2.5661   -1.1716 H   0  0  0  0  0  0  0  0  0  0  0  0
    8.7830   -1.6861    0.3643 H   0  0  0  0  0  0  0  0  0  0  0  0
    6.4643   -0.6079   -1.8620 H   0  0  0  0  0  0  0  0  0  0  0  0
    6.1348   -2.2723   -2.3390 H   0  0  0  0  0  0  0  0  0  0  0  0
    4.2543   -2.4009   -0.7359 H   0  0  0  0  0  0  0  0  0  0  0  0
    4.0613   -1.0826   -1.9961 H   0  0  0  0  0  0  0  0  0  0  0  0
    4.5622   -0.2925    2.0260 H   0  0  0  0  0  0  0  0  0  0  0  0
    6.1262   -0.7190    1.3400 H   0  0  0  0  0  0  0  0  0  0  0  0
    4.7414   -1.9438    1.4701 H   0  0  0  0  0  0  0  0  0  0  0  0
    2.4658   -1.8354    0.1325 H   0  0  0  0  0  0  0  0  0  0  0  0
    2.3299   -1.0193    1.7042 H   0  0  0  0  0  0  0  0  0  0  0  0
    0.6320   -0.9259   -0.7402 H   0  0  0  0  0  0  0  0  0  0  0  0
    0.1863   -3.0351    0.0369 H   0  0  0  0  0  0  0  0  0  0  0  0
   -1.2301   -2.9198    1.1676 H   0  0  0  0  0  0  0  0  0  0  0  0
   -1.2271   -2.0538   -0.3972 H   0  0  0  0  0  0  0  0  0  0  0  0
    3.4130    0.8335    1.1466 H   0  0  0  0  0  0  0  0  0  0  0  0
    3.1650    0.5859   -1.8470 H   0  0  0  0  0  0  0  0  0  0  0  0
    2.7160    3.1853   -0.9632 H   0  0  0  0  0  0  0  0  0  0  0  0
    5.2286    2.3221   -1.9606 H   0  0  0  0  0  0  0  0  0  0  0  0
    3.9404    4.3863   -1.8551 H   0  0  0  0  0  0  0  0  0  0  0  0
    6.7310    3.0419   -0.2495 H   0  0  0  0  0  0  0  0  0  0  0  0
    5.9614    1.6105    0.3838 H   0  0  0  0  0  0  0  0  0  0  0  0
    4.6372    2.8658    1.9844 H   0  0  0  0  0  0  0  0  0  0  0  0
    5.0003    4.4365    1.0474 H   0  0  0  0  0  0  0  0  0  0  0  0
    6.2853    3.5692    1.9038 H   0  0  0  0  0  0  0  0  0  0  0  0
    1.1100    2.3930   -1.2769 H   0  0  0  0  0  0  0  0  0  0  0  0
    0.9903    0.6303   -1.7667 H   0  0  0  0  0  0  0  0  0  0  0  0
    1.4467    1.3585    1.0828 H   0  0  0  0  0  0  0  0  0  0  0  0
   -0.6755    1.8269    1.6021 H   0  0  0  0  0  0  0  0  0  0  0  0
   -1.4731    1.2167   -1.2623 H   0  0  0  0  0  0  0  0  0  0  0  0
   -2.6837    0.2913    1.2645 H   0  0  0  0  0  0  0  0  0  0  0  0
   -2.7770    2.9294    0.7704 H   0  0  0  0  0  0  0  0  0  0  0  0
   -4.3989    2.9811   -0.7722 H   0  0  0  0  0  0  0  0  0  0  0  0
   -3.1470    3.1257   -2.0190 H   0  0  0  0  0  0  0  0  0  0  0  0
   -3.0346    0.8987   -2.4716 H   0  0  0  0  0  0  0  0  0  0  0  0
   -4.7363    1.0203   -2.0946 H   0  0  0  0  0  0  0  0  0  0  0  0
   -3.3761   -0.9091   -1.1394 H   0  0  0  0  0  0  0  0  0  0  0  0
   -4.5809   -1.2620    0.7626 H   0  0  0  0  0  0  0  0  0  0  0  0
   -6.3136    0.4814   -1.0205 H   0  0  0  0  0  0  0  0  0  0  0  0
   -5.0969   -2.0083   -1.4888 H   0  0  0  0  0  0  0  0  0  0  0  0
   -6.5920   -1.3857   -2.2810 H   0  0  0  0  0  0  0  0  0  0  0  0
   -8.0818   -2.5649   -0.9545 H   0  0  0  0  0  0  0  0  0  0  0  0
   -6.7272   -3.6877   -1.2148 H   0  0  0  0  0  0  0  0  0  0  0  0
   -5.8486   -3.4477    0.9698 H   0  0  0  0  0  0  0  0  0  0  0  0
   -7.6152   -3.6326    1.0873 H   0  0  0  0  0  0  0  0  0  0  0  0
   -7.8524   -1.6892    2.2218 H   0  0  0  0  0  0  0  0  0  0  0  0
   -6.0955   -1.5638    2.2324 H   0  0  0  0  0  0  0  0  0  0  0  0
   -8.1012   -0.2419    0.3629 H   0  0  0  0  0  0  0  0  0  0  0  0
   -6.3069    2.6566    0.8522 H   0  0  0  0  0  0  0  0  0  0  0  0
   -7.8390    2.4332    1.7359 H   0  0  0  0  0  0  0  0  0  0  0  0
   -7.6373    1.8319   -0.0023 H   0  0  0  0  0  0  0  0  0  0  0  0
   -4.7997    1.7469    1.2330 H   0  0  0  0  0  0  0  0  0  0  0  0
   -4.7873    0.3221    2.3378 H   0  0  0  0  0  0  0  0  0  0  0  0
  1  2  1  0
  2  3  1  0
  2  4  1  0
  4  5  1  0
  5  6  1  0
  6  7  1  0
  8  9  1  0
  9 10  1  0
 10 11  1  0
  6 12  1  0
  8 12  1  0
 12 13  1  0
 13 14  1  0
 14 15  1  0
 15 16  1  0
 15 17  1  0
 17 18  1  0
 13 19  1  0
  9 20  1  0
 19 20  1  0
 20 21  1  0
 21 22  1  0
 22 23  1  0
 22 24  1  0
 24 25  1  0
 25 26  1  0
 23 27  1  0
 26 27  1  0
 27 28  1  0
 28 29  1  0
 29 30  1  0
 30 31  1  0
 31 32  1  0
 32 33  1  0
 29 34  1  0
 33 34  1  0
 34 35  1  0
 35 36  1  0
 28 37  1  0
 35 37  1  0
  1 38  1  0
  1 39  1  0
  1 40  1  0
  3 41  1  0
  3 42  1  0
  3 43  1  0
  4 44  1  0
  4 45  1  0
  5 46  1  0
  5 47  1  0
  7 48  1  0
  7 49  1  0
  7 50  1  0
  8 51  1  0
  8 52  1  0
  9 53  1  0
 11 54  1  0
 11 55  1  0
 11 56  1  0
 12 57  1  0
 13 58  1  6
 14 59  1  0
 15 60  1  0
 16 61  1  0
 17 62  1  0
 17 63  1  0
 18 64  1  0
 18 65  1  0
 18 66  1  0
 19 67  1  0
 19 68  1  0
 20 69  1  0
 21 70  1  0
 22 71  1  0
 23 72  1  0
 24 73  1  0
 25 74  1  0
 25 75  1  0
 26 76  1  0
 26 77  1  0
 27 78  1  0
 28 79  1  0
 29 80  1  0
 30 81  1  0
 30 82  1  0
 31 83  1  0
 31 84  1  0
 32 85  1  0
 32 86  1  0
 33 87  1  0
 33 88  1  0
 34 89  1  0
 36 90  1  0
 36 91  1  0
 36 92  1  0
 37 93  1  0
 37 94  1  0
M  END
>  <PDBID>  (1) 
4ZAU

>  <PDB ID>  (1) 
4ZAU

>  <Generic Name>  (1) 
Osimertinib

>  <Brand Name>  (1) 
Tagrisso

>  <DrugBank ID>  (1) 
DB09330

>  <ATC Codes>  (1) 
nan

>  <Ligand ID>  (1) 
YY3

>  <Target Name>  (1) 
Epidermal growth factor receptor

>  <UniProt ID>  (1) 
P00533

>  <PDB ID.1>  (1) 
4ZAU

>  <Seq. Identity>  (1) 
96%

$$$$
