PDB_DB00773_07
     RDKit          3D

176188  0  0  0  0  0  0  0  0999 V2000
   -1.5720   -4.3522    3.4746 C   0  0  0  0  0  0  0  0  0  0  0  0
   -0.6712   -4.4323    2.4141 O   0  0  0  0  0  0  0  0  0  0  0  0
   -1.7345   -2.4662    2.4449 C   0  0  0  0  0  0  0  0  0  0  0  0
   -2.4946   -3.3476    3.1667 O   0  0  0  0  0  0  0  0  0  0  0  0
   -2.4904   -1.5706    1.5339 C   0  0  0  0  0  0  0  0  0  0  0  0
    0.0515   -1.4757   -3.6421 O   0  0  0  0  0  0  0  0  0  0  0  0
   -1.5728   -0.8285    0.5896 C   0  0  0  0  0  0  0  0  0  0  0  0
   -2.2355   -1.7454   -3.7232 O   0  0  0  0  0  0  0  0  0  0  0  0
   -2.1089   -0.8915   -0.7932 C   0  0  2  0  0  0  0  0  0  0  0  0
   -3.4054    2.9467    0.5479 O   0  0  0  0  0  0  0  0  0  0  0  0
   -1.0496   -1.2601   -1.7264 C   0  0  1  0  0  0  0  0  0  0  0  0
   -4.8091    2.9740   -2.6601 O   0  0  0  0  0  0  0  0  0  0  0  0
   -1.2053   -0.9978   -3.1835 C   0  0  1  0  0  0  0  0  0  0  0  0
   -6.5340    1.1274   -0.6164 O   0  0  0  0  0  0  0  0  0  0  0  0
    0.9981   -1.1152   -2.6712 C   0  0  0  0  0  0  0  0  0  0  0  0
    2.0060   -1.2006   -0.0639 O   0  0  0  0  0  0  0  0  0  0  0  0
    0.2465   -0.4710   -1.5361 C   0  0  2  0  0  0  0  0  0  0  0  0
    4.0154   -0.4312   -0.5602 O   0  0  0  0  0  0  0  0  0  0  0  0
    0.8065   -0.5531   -0.1944 C   0  0  1  0  0  0  0  0  0  0  0  0
    6.5826    2.0475   -0.9056 O   0  0  0  0  0  0  0  0  0  0  0  0
   -0.1528   -1.2169    0.7973 C   0  0  0  0  0  0  0  0  0  0  0  0
    6.5743    1.1828    1.2379 O   0  0  0  0  0  0  0  0  0  0  0  0
    0.1493   -2.6744    0.9573 C   0  0  0  0  0  0  0  0  0  0  0  0
    5.6404   -0.8389    3.0665 O   0  0  0  0  0  0  0  0  0  0  0  0
   -0.9917   -3.4461    1.5172 C   0  0  0  0  0  0  0  0  0  0  0  0
    2.9200   -1.1070    2.7898 O   0  0  0  0  0  0  0  0  0  0  0  0
   -2.9968    0.2649   -1.1990 C   0  0  0  0  0  0  0  0  0  0  0  0
   -2.3889    1.6038   -1.1919 C   0  0  0  0  0  0  0  0  0  0  0  0
   -3.3377    2.6904   -0.8197 C   0  0  0  0  0  0  0  0  0  0  0  0
   -4.7406    2.5366   -1.3406 C   0  0  0  0  0  0  0  0  0  0  0  0
   -5.2692    1.1322   -1.1475 C   0  0  0  0  0  0  0  0  0  0  0  0
   -4.2688    0.2862   -0.3751 C   0  0  0  0  0  0  0  0  0  0  0  0
   -3.0507    4.2243    0.9039 C   0  0  0  0  0  0  0  0  0  0  0  0
   -7.4891    0.5907   -1.4747 C   0  0  0  0  0  0  0  0  0  0  0  0
    3.0474   -0.5238    0.4504 C   0  0  2  0  0  0  0  0  0  0  0  0
    4.8784    0.5915   -0.2500 C   0  0  2  0  0  0  0  0  0  0  0  0
    5.7557    1.0247   -1.3767 C   0  0  0  0  0  0  0  0  0  0  0  0
    7.3514    1.6350    0.1765 C   0  0  2  0  0  0  0  0  0  0  0  0
    5.7857    0.0841    0.8668 C   0  0  2  0  0  0  0  0  0  0  0  0
    4.9169   -0.2688    2.0240 C   0  0  1  0  0  0  0  0  0  0  0  0
    3.7228   -1.1287    1.6454 C   0  0  1  0  0  0  0  0  0  0  0  0
    8.1234    2.8397    0.6721 C   0  0  0  0  0  0  0  0  0  0  0  0
   -1.5720   -4.3522    3.4746 C   0  0  0  0  0  0  0  0  0  0  0  0
   -0.6712   -4.4323    2.4141 O   0  0  0  0  0  0  0  0  0  0  0  0
   -1.7345   -2.4662    2.4449 C   0  0  0  0  0  0  0  0  0  0  0  0
   -2.4946   -3.3476    3.1667 O   0  0  0  0  0  0  0  0  0  0  0  0
   -2.4904   -1.5706    1.5339 C   0  0  0  0  0  0  0  0  0  0  0  0
    0.0515   -1.4757   -3.6421 O   0  0  0  0  0  0  0  0  0  0  0  0
   -1.5728   -0.8285    0.5896 C   0  0  0  0  0  0  0  0  0  0  0  0
   -2.2355   -1.7454   -3.7232 O   0  0  0  0  0  0  0  0  0  0  0  0
   -2.1089   -0.8915   -0.7932 C   0  0  2  0  0  0  0  0  0  0  0  0
   -3.4054    2.9467    0.5479 O   0  0  0  0  0  0  0  0  0  0  0  0
   -1.0496   -1.2601   -1.7264 C   0  0  1  0  0  0  0  0  0  0  0  0
   -4.8091    2.9740   -2.6601 O   0  0  0  0  0  0  0  0  0  0  0  0
   -1.2053   -0.9978   -3.1835 C   0  0  1  0  0  0  0  0  0  0  0  0
   -6.5340    1.1274   -0.6164 O   0  0  0  0  0  0  0  0  0  0  0  0
    0.9981   -1.1152   -2.6712 C   0  0  0  0  0  0  0  0  0  0  0  0
    2.0060   -1.2006   -0.0639 O   0  0  0  0  0  0  0  0  0  0  0  0
    0.2465   -0.4710   -1.5361 C   0  0  2  0  0  0  0  0  0  0  0  0
    4.0154   -0.4312   -0.5602 O   0  0  0  0  0  0  0  0  0  0  0  0
    0.8065   -0.5531   -0.1944 C   0  0  1  0  0  0  0  0  0  0  0  0
    6.5826    2.0475   -0.9056 O   0  0  0  0  0  0  0  0  0  0  0  0
   -0.1528   -1.2169    0.7973 C   0  0  0  0  0  0  0  0  0  0  0  0
    6.5743    1.1828    1.2379 O   0  0  0  0  0  0  0  0  0  0  0  0
    0.1493   -2.6744    0.9573 C   0  0  0  0  0  0  0  0  0  0  0  0
    5.6404   -0.8389    3.0665 O   0  0  0  0  0  0  0  0  0  0  0  0
   -0.9917   -3.4461    1.5172 C   0  0  0  0  0  0  0  0  0  0  0  0
    2.9200   -1.1070    2.7898 O   0  0  0  0  0  0  0  0  0  0  0  0
   -2.9968    0.2649   -1.1990 C   0  0  0  0  0  0  0  0  0  0  0  0
   -2.3889    1.6038   -1.1919 C   0  0  0  0  0  0  0  0  0  0  0  0
   -3.3377    2.6904   -0.8197 C   0  0  0  0  0  0  0  0  0  0  0  0
   -4.7406    2.5366   -1.3406 C   0  0  0  0  0  0  0  0  0  0  0  0
   -5.2692    1.1322   -1.1475 C   0  0  0  0  0  0  0  0  0  0  0  0
   -4.2688    0.2862   -0.3751 C   0  0  0  0  0  0  0  0  0  0  0  0
   -3.0507    4.2243    0.9039 C   0  0  0  0  0  0  0  0  0  0  0  0
   -7.4891    0.5907   -1.4747 C   0  0  0  0  0  0  0  0  0  0  0  0
    3.0474   -0.5238    0.4504 C   0  0  2  0  0  0  0  0  0  0  0  0
    4.8784    0.5915   -0.2500 C   0  0  2  0  0  0  0  0  0  0  0  0
    5.7557    1.0247   -1.3767 C   0  0  0  0  0  0  0  0  0  0  0  0
    7.3514    1.6350    0.1765 C   0  0  2  0  0  0  0  0  0  0  0  0
    5.7857    0.0841    0.8668 C   0  0  2  0  0  0  0  0  0  0  0  0
    4.9169   -0.2688    2.0240 C   0  0  1  0  0  0  0  0  0  0  0  0
    3.7228   -1.1287    1.6454 C   0  0  1  0  0  0  0  0  0  0  0  0
    8.1234    2.8397    0.6721 C   0  0  0  0  0  0  0  0  0  0  0  0
   -2.0801   -5.3165    3.6753 H   0  0  0  0  0  0  0  0  0  0  0  0
   -1.0137   -4.0491    4.3832 H   0  0  0  0  0  0  0  0  0  0  0  0
   -0.9823   -1.9665    3.0674 H   0  0  0  0  0  0  0  0  0  0  0  0
   -3.1599   -0.9264    2.1174 H   0  0  0  0  0  0  0  0  0  0  0  0
   -3.1761   -2.2301    0.9231 H   0  0  0  0  0  0  0  0  0  0  0  0
   -1.6461    0.2458    0.9456 H   0  0  0  0  0  0  0  0  0  0  0  0
   -2.7452   -1.2102   -4.3703 H   0  0  0  0  0  0  0  0  0  0  0  0
   -2.8419   -1.7675   -0.8078 H   0  0  0  0  0  0  0  0  0  0  0  0
   -0.8299   -2.3712   -1.6712 H   0  0  0  0  0  0  0  0  0  0  0  0
   -5.6086    2.5786   -3.0914 H   0  0  0  0  0  0  0  0  0  0  0  0
   -1.2125    0.0554   -3.4943 H   0  0  0  0  0  0  0  0  0  0  0  0
    1.4313   -2.0583   -2.3011 H   0  0  0  0  0  0  0  0  0  0  0  0
    1.7413   -0.4412   -3.1332 H   0  0  0  0  0  0  0  0  0  0  0  0
    0.0085    0.5827   -1.8646 H   0  0  0  0  0  0  0  0  0  0  0  0
    0.9527    0.4906    0.1895 H   0  0  0  0  0  0  0  0  0  0  0  0
    0.1106   -0.7775    1.8157 H   0  0  0  0  0  0  0  0  0  0  0  0
    0.6076   -3.1497    0.0443 H   0  0  0  0  0  0  0  0  0  0  0  0
    0.9925   -2.8163    1.7077 H   0  0  0  0  0  0  0  0  0  0  0  0
    6.1343   -0.1519    3.5797 H   0  0  0  0  0  0  0  0  0  0  0  0
   -1.6741   -3.8731    0.7649 H   0  0  0  0  0  0  0  0  0  0  0  0
    2.4680   -0.2312    2.8335 H   0  0  0  0  0  0  0  0  0  0  0  0
   -3.3504    0.0253   -2.2331 H   0  0  0  0  0  0  0  0  0  0  0  0
   -1.9654    1.8898   -2.1958 H   0  0  0  0  0  0  0  0  0  0  0  0
   -1.5737    1.6393   -0.4200 H   0  0  0  0  0  0  0  0  0  0  0  0
   -2.9842    3.6732   -1.2652 H   0  0  0  0  0  0  0  0  0  0  0  0
   -5.3882    3.2120   -0.7468 H   0  0  0  0  0  0  0  0  0  0  0  0
   -5.3274    0.6866   -2.1631 H   0  0  0  0  0  0  0  0  0  0  0  0
   -4.6466   -0.7614   -0.3145 H   0  0  0  0  0  0  0  0  0  0  0  0
   -4.0474    0.7254    0.5909 H   0  0  0  0  0  0  0  0  0  0  0  0
   -1.9922    4.4436    0.5890 H   0  0  0  0  0  0  0  0  0  0  0  0
   -2.9869    4.2232    2.0317 H   0  0  0  0  0  0  0  0  0  0  0  0
   -3.7383    5.0097    0.5478 H   0  0  0  0  0  0  0  0  0  0  0  0
   -7.5343    1.1789   -2.4183 H   0  0  0  0  0  0  0  0  0  0  0  0
   -7.3606   -0.4894   -1.6559 H   0  0  0  0  0  0  0  0  0  0  0  0
   -8.4745    0.7269   -0.9829 H   0  0  0  0  0  0  0  0  0  0  0  0
    2.8168    0.5452    0.7314 H   0  0  0  0  0  0  0  0  0  0  0  0
    4.3182    1.4429    0.1899 H   0  0  0  0  0  0  0  0  0  0  0  0
    6.4218    0.1653   -1.6365 H   0  0  0  0  0  0  0  0  0  0  0  0
    5.2192    1.4113   -2.2506 H   0  0  0  0  0  0  0  0  0  0  0  0
    8.0666    0.8737   -0.1409 H   0  0  0  0  0  0  0  0  0  0  0  0
    6.4384   -0.7356    0.5221 H   0  0  0  0  0  0  0  0  0  0  0  0
    4.4874    0.6806    2.4303 H   0  0  0  0  0  0  0  0  0  0  0  0
    4.0964   -2.1558    1.4634 H   0  0  0  0  0  0  0  0  0  0  0  0
    9.0430    3.0154    0.0594 H   0  0  0  0  0  0  0  0  0  0  0  0
    7.5178    3.7828    0.5476 H   0  0  0  0  0  0  0  0  0  0  0  0
    8.4658    2.7357    1.7108 H   0  0  0  0  0  0  0  0  0  0  0  0
   -2.0801   -5.3165    3.6753 H   0  0  0  0  0  0  0  0  0  0  0  0
   -1.0137   -4.0491    4.3832 H   0  0  0  0  0  0  0  0  0  0  0  0
   -0.9823   -1.9665    3.0674 H   0  0  0  0  0  0  0  0  0  0  0  0
   -3.1599   -0.9264    2.1174 H   0  0  0  0  0  0  0  0  0  0  0  0
   -3.1761   -2.2301    0.9231 H   0  0  0  0  0  0  0  0  0  0  0  0
   -1.6461    0.2458    0.9456 H   0  0  0  0  0  0  0  0  0  0  0  0
   -2.7452   -1.2102   -4.3703 H   0  0  0  0  0  0  0  0  0  0  0  0
   -2.8419   -1.7675   -0.8078 H   0  0  0  0  0  0  0  0  0  0  0  0
   -0.8299   -2.3712   -1.6712 H   0  0  0  0  0  0  0  0  0  0  0  0
   -5.6086    2.5786   -3.0914 H   0  0  0  0  0  0  0  0  0  0  0  0
   -1.2125    0.0554   -3.4943 H   0  0  0  0  0  0  0  0  0  0  0  0
    1.4313   -2.0583   -2.3011 H   0  0  0  0  0  0  0  0  0  0  0  0
    1.7413   -0.4412   -3.1332 H   0  0  0  0  0  0  0  0  0  0  0  0
    0.0085    0.5827   -1.8646 H   0  0  0  0  0  0  0  0  0  0  0  0
    0.9527    0.4906    0.1895 H   0  0  0  0  0  0  0  0  0  0  0  0
    0.1106   -0.7775    1.8157 H   0  0  0  0  0  0  0  0  0  0  0  0
    0.6076   -3.1497    0.0443 H   0  0  0  0  0  0  0  0  0  0  0  0
    0.9925   -2.8163    1.7077 H   0  0  0  0  0  0  0  0  0  0  0  0
    6.1343   -0.1519    3.5797 H   0  0  0  0  0  0  0  0  0  0  0  0
   -1.6741   -3.8731    0.7649 H   0  0  0  0  0  0  0  0  0  0  0  0
    2.4680   -0.2312    2.8335 H   0  0  0  0  0  0  0  0  0  0  0  0
   -3.3504    0.0253   -2.2331 H   0  0  0  0  0  0  0  0  0  0  0  0
   -1.9654    1.8898   -2.1958 H   0  0  0  0  0  0  0  0  0  0  0  0
   -1.5737    1.6393   -0.4200 H   0  0  0  0  0  0  0  0  0  0  0  0
   -2.9842    3.6732   -1.2652 H   0  0  0  0  0  0  0  0  0  0  0  0
   -5.3882    3.2120   -0.7468 H   0  0  0  0  0  0  0  0  0  0  0  0
   -5.3274    0.6866   -2.1631 H   0  0  0  0  0  0  0  0  0  0  0  0
   -4.6466   -0.7614   -0.3145 H   0  0  0  0  0  0  0  0  0  0  0  0
   -4.0474    0.7254    0.5909 H   0  0  0  0  0  0  0  0  0  0  0  0
   -1.9922    4.4436    0.5890 H   0  0  0  0  0  0  0  0  0  0  0  0
   -2.9869    4.2232    2.0317 H   0  0  0  0  0  0  0  0  0  0  0  0
   -3.7383    5.0097    0.5478 H   0  0  0  0  0  0  0  0  0  0  0  0
   -7.5343    1.1789   -2.4183 H   0  0  0  0  0  0  0  0  0  0  0  0
   -7.3606   -0.4894   -1.6559 H   0  0  0  0  0  0  0  0  0  0  0  0
   -8.4745    0.7269   -0.9829 H   0  0  0  0  0  0  0  0  0  0  0  0
    2.8168    0.5452    0.7314 H   0  0  0  0  0  0  0  0  0  0  0  0
    4.3182    1.4429    0.1899 H   0  0  0  0  0  0  0  0  0  0  0  0
    6.4218    0.1653   -1.6365 H   0  0  0  0  0  0  0  0  0  0  0  0
    5.2192    1.4113   -2.2506 H   0  0  0  0  0  0  0  0  0  0  0  0
    8.0666    0.8737   -0.1409 H   0  0  0  0  0  0  0  0  0  0  0  0
    6.4384   -0.7356    0.5221 H   0  0  0  0  0  0  0  0  0  0  0  0
    4.4874    0.6806    2.4303 H   0  0  0  0  0  0  0  0  0  0  0  0
    4.0964   -2.1558    1.4634 H   0  0  0  0  0  0  0  0  0  0  0  0
    9.0430    3.0154    0.0594 H   0  0  0  0  0  0  0  0  0  0  0  0
    7.5178    3.7828    0.5476 H   0  0  0  0  0  0  0  0  0  0  0  0
    8.4658    2.7357    1.7108 H   0  0  0  0  0  0  0  0  0  0  0  0
  1  2  1  0
  1  4  1  0
  3  4  1  0
  3  5  1  0
  5  7  1  0
  7  9  1  0
  9 11  1  0
  6 13  1  0
  8 13  1  0
 11 13  1  0
  6 15  1  0
 11 17  1  0
 15 17  1  0
 16 19  1  0
 17 19  1  0
  7 21  1  0
 19 21  1  0
 21 23  1  0
  2 25  1  0
  3 25  1  0
 23 25  1  0
  9 27  1  0
 27 28  1  0
 10 29  1  0
 28 29  1  0
 12 30  1  0
 29 30  1  0
 14 31  1  0
 30 31  1  0
 27 32  1  0
 31 32  1  0
 10 33  1  0
 14 34  1  0
 16 35  1  0
 18 35  1  0
 18 36  1  0
 20 37  1  0
 36 37  1  0
 20 38  1  0
 22 38  1  0
 22 39  1  0
 36 39  1  0
 24 40  1  0
 39 40  1  0
 26 41  1  0
 35 41  1  0
 40 41  1  0
 38 42  1  0
 43 44  1  0
 43 46  1  0
 45 46  1  0
 45 47  1  0
 47 49  1  0
 49 51  1  0
 51 53  1  0
 48 55  1  0
 50 55  1  0
 53 55  1  0
 48 57  1  0
 53 59  1  0
 57 59  1  0
 58 61  1  0
 59 61  1  0
 49 63  1  0
 61 63  1  0
 63 65  1  0
 44 67  1  0
 45 67  1  0
 65 67  1  0
 51 69  1  0
 69 70  1  0
 52 71  1  0
 70 71  1  0
 54 72  1  0
 71 72  1  0
 56 73  1  0
 72 73  1  0
 69 74  1  0
 73 74  1  0
 52 75  1  0
 56 76  1  0
 58 77  1  0
 60 77  1  0
 60 78  1  0
 62 79  1  0
 78 79  1  0
 62 80  1  0
 64 80  1  0
 64 81  1  0
 78 81  1  0
 66 82  1  0
 81 82  1  0
 68 83  1  0
 77 83  1  0
 82 83  1  0
 80 84  1  0
  1 85  1  0
  1 86  1  0
  3 87  1  0
  5 88  1  0
  5 89  1  0
  7 90  1  0
  8 91  1  0
  9 92  1  1
 11 93  1  6
 12 94  1  0
 13 95  1  1
 15 96  1  0
 15 97  1  0
 17 98  1  6
 19 99  1  1
 21100  1  0
 23101  1  0
 23102  1  0
 24103  1  0
 25104  1  0
 26105  1  0
 27106  1  0
 28107  1  0
 28108  1  0
 29109  1  0
 30110  1  0
 31111  1  0
 32112  1  0
 32113  1  0
 33114  1  0
 33115  1  0
 33116  1  0
 34117  1  0
 34118  1  0
 34119  1  0
 35120  1  1
 36121  1  1
 37122  1  0
 37123  1  0
 38124  1  6
 39125  1  6
 40126  1  1
 41127  1  6
 42128  1  0
 42129  1  0
 42130  1  0
 43131  1  0
 43132  1  0
 45133  1  0
 47134  1  0
 47135  1  0
 49136  1  0
 50137  1  0
 51138  1  1
 53139  1  6
 54140  1  0
 55141  1  1
 57142  1  0
 57143  1  0
 59144  1  6
 61145  1  1
 63146  1  0
 65147  1  0
 65148  1  0
 66149  1  0
 67150  1  0
 68151  1  0
 69152  1  0
 70153  1  0
 70154  1  0
 71155  1  0
 72156  1  0
 73157  1  0
 74158  1  0
 74159  1  0
 75160  1  0
 75161  1  0
 75162  1  0
 76163  1  0
 76164  1  0
 76165  1  0
 77166  1  1
 78167  1  1
 79168  1  0
 79169  1  0
 80170  1  6
 81171  1  6
 82172  1  1
 83173  1  6
 84174  1  0
 84175  1  0
 84176  1  0
M  END
>  <PDBID>  (1) 
5GWK

>  <PDB ID>  (1) 
5GWK

>  <Generic Name>  (1) 
Etoposide

>  <Brand Name>  (1) 
Dom-etoposide#Eposin#Etopophos#Etoposide#Etoposide - Liq IV 20mg/ml#Etoposide Injection#Etoposide Injection USP#Etoposide Injection, USP#PMS-etoposide#Toposar#Vepesid#Vepesid Inj 20mg/ml#Etopofos#Lastet#Nexvep#Vepesid K#Vépéside

>  <DrugBank ID>  (1) 
DB00773

>  <ATC Codes>  (1) 
L01CB01

>  <Ligand ID>  (1) 
EVP

>  <Target Name>  (1) 
DNA topoisomerase 2-alpha

>  <UniProt ID>  (1) 
P11388

>  <PDB ID.1>  (1) 
5GWK

>  <Seq. Identity>  (1) 
96%

$$$$
