PDB_DB00552_09
     RDKit          3D

164172  0  0  0  0  0  0  0  0999 V2000
    1.6671   -1.2411   -1.5565 N   0  0  0  0  0  0  0  0  0  0  0  0
    0.3610   -1.8020   -1.2502 C   0  0  0  0  0  0  0  0  0  0  0  0
   -0.0077   -1.2924    0.0452 N   0  0  0  0  0  0  0  0  0  0  0  0
    1.5016    0.0931   -0.9851 C   0  0  1  0  0  0  0  0  0  0  0  0
    0.9328   -0.2332    0.3598 C   0  0  2  0  0  0  0  0  0  0  0  0
    1.9716   -0.8581    1.1736 N   0  0  0  0  0  0  0  0  0  0  0  0
    2.6228    0.0730    2.0499 C   0  0  0  0  0  0  0  0  0  0  0  0
    3.5140    0.9375    1.3181 N   0  0  0  0  0  0  0  0  0  0  0  0
    3.7842    0.4123    0.0071 C   0  0  0  0  0  0  0  0  0  0  0  0
    2.7570    0.8751   -0.9816 C   0  0  1  0  0  0  0  0  0  0  0  0
    3.3466    0.7614   -2.2578 O   0  0  0  0  0  0  0  0  0  0  0  0
   -1.6460    0.2671    1.0250 C   0  0  0  0  0  0  0  0  0  0  0  0
   -3.1867    0.1783    0.9882 C   0  0  2  0  0  0  0  0  0  0  0  0
   -3.5559   -0.8110    1.9202 O   0  0  0  0  0  0  0  0  0  0  0  0
   -2.8050    1.7432   -1.3210 O   0  0  0  0  0  0  0  0  0  0  0  0
   -3.8298    0.8134   -1.2822 C   0  0  0  0  0  0  0  0  0  0  0  0
   -3.3558   -0.3336   -0.4254 C   0  0  1  0  0  0  0  0  0  0  0  0
   -2.1454   -0.8077   -0.8864 O   0  0  0  0  0  0  0  0  0  0  0  0
   -1.3532   -0.9989    0.2580 C   0  0  1  0  0  0  0  0  0  0  0  0
    1.2678   -0.6613   -2.1036 N   0  0  0  0  0  0  0  0  0  0  0  0
   -0.1105   -0.4923   -1.6809 C   0  0  0  0  0  0  0  0  0  0  0  0
   -0.0775   -1.0829   -0.3380 N   0  0  0  0  0  0  0  0  0  0  0  0
    2.0811   -0.5492   -0.9142 C   0  0  0  0  0  0  0  0  0  0  0  0
    1.1241   -0.5706    0.2559 C   0  0  2  0  0  0  0  0  0  0  0  0
    1.6951   -1.4143    1.2624 N   0  0  0  0  0  0  0  0  0  0  0  0
    2.6099   -0.6872    2.1127 C   0  0  0  0  0  0  0  0  0  0  0  0
    2.8985    0.6372    1.5993 N   0  0  0  0  0  0  0  0  0  0  0  0
    3.7202    0.6254    0.4294 C   0  0  0  0  0  0  0  0  0  0  0  0
    2.8687    0.7244   -0.8225 C   0  0  1  0  0  0  0  0  0  0  0  0
    3.6712    0.9365   -1.9409 O   0  0  0  0  0  0  0  0  0  0  0  0
   -1.5651    0.6315    0.6651 C   0  0  0  0  0  0  0  0  0  0  0  0
   -3.0647    0.5292    1.0047 C   0  0  2  0  0  0  0  0  0  0  0  0
   -3.2313   -0.0005    2.2872 O   0  0  0  0  0  0  0  0  0  0  0  0
   -3.0842    0.9926   -1.8646 O   0  0  0  0  0  0  0  0  0  0  0  0
   -4.0136    0.1543   -1.2839 C   0  0  0  0  0  0  0  0  0  0  0  0
   -3.4761   -0.5082   -0.0153 C   0  0  1  0  0  0  0  0  0  0  0  0
   -2.3668   -1.2364   -0.3604 O   0  0  0  0  0  0  0  0  0  0  0  0
   -1.2727   -0.7973    0.3726 C   0  0  1  0  0  0  0  0  0  0  0  0
    1.6671   -1.2411   -1.5565 N   0  0  0  0  0  0  0  0  0  0  0  0
    0.3610   -1.8020   -1.2502 C   0  0  0  0  0  0  0  0  0  0  0  0
   -0.0077   -1.2924    0.0452 N   0  0  0  0  0  0  0  0  0  0  0  0
    1.5016    0.0931   -0.9851 C   0  0  1  0  0  0  0  0  0  0  0  0
    0.9328   -0.2332    0.3598 C   0  0  2  0  0  0  0  0  0  0  0  0
    1.9716   -0.8581    1.1736 N   0  0  0  0  0  0  0  0  0  0  0  0
    2.6228    0.0730    2.0499 C   0  0  0  0  0  0  0  0  0  0  0  0
    3.5140    0.9375    1.3181 N   0  0  0  0  0  0  0  0  0  0  0  0
    3.7842    0.4123    0.0071 C   0  0  0  0  0  0  0  0  0  0  0  0
    2.7570    0.8751   -0.9816 C   0  0  1  0  0  0  0  0  0  0  0  0
    3.3466    0.7614   -2.2578 O   0  0  0  0  0  0  0  0  0  0  0  0
   -1.6460    0.2671    1.0250 C   0  0  0  0  0  0  0  0  0  0  0  0
   -3.1867    0.1783    0.9882 C   0  0  2  0  0  0  0  0  0  0  0  0
   -3.5559   -0.8110    1.9202 O   0  0  0  0  0  0  0  0  0  0  0  0
   -2.8050    1.7432   -1.3210 O   0  0  0  0  0  0  0  0  0  0  0  0
   -3.8298    0.8134   -1.2822 C   0  0  0  0  0  0  0  0  0  0  0  0
   -3.3558   -0.3336   -0.4254 C   0  0  1  0  0  0  0  0  0  0  0  0
   -2.1454   -0.8077   -0.8864 O   0  0  0  0  0  0  0  0  0  0  0  0
   -1.3532   -0.9989    0.2580 C   0  0  1  0  0  0  0  0  0  0  0  0
    1.6671   -1.2411   -1.5565 N   0  0  0  0  0  0  0  0  0  0  0  0
    0.3610   -1.8020   -1.2502 C   0  0  0  0  0  0  0  0  0  0  0  0
   -0.0077   -1.2924    0.0452 N   0  0  0  0  0  0  0  0  0  0  0  0
    1.5016    0.0931   -0.9851 C   0  0  1  0  0  0  0  0  0  0  0  0
    0.9328   -0.2332    0.3598 C   0  0  2  0  0  0  0  0  0  0  0  0
    1.9716   -0.8581    1.1736 N   0  0  0  0  0  0  0  0  0  0  0  0
    2.6228    0.0730    2.0499 C   0  0  0  0  0  0  0  0  0  0  0  0
    3.5140    0.9375    1.3181 N   0  0  0  0  0  0  0  0  0  0  0  0
    3.7842    0.4123    0.0071 C   0  0  0  0  0  0  0  0  0  0  0  0
    2.7570    0.8751   -0.9816 C   0  0  1  0  0  0  0  0  0  0  0  0
    3.3466    0.7614   -2.2578 O   0  0  0  0  0  0  0  0  0  0  0  0
   -1.6460    0.2671    1.0250 C   0  0  0  0  0  0  0  0  0  0  0  0
   -3.1867    0.1783    0.9882 C   0  0  2  0  0  0  0  0  0  0  0  0
   -3.5559   -0.8110    1.9202 O   0  0  0  0  0  0  0  0  0  0  0  0
   -2.8050    1.7432   -1.3210 O   0  0  0  0  0  0  0  0  0  0  0  0
   -3.8298    0.8134   -1.2822 C   0  0  0  0  0  0  0  0  0  0  0  0
   -3.3558   -0.3336   -0.4254 C   0  0  1  0  0  0  0  0  0  0  0  0
   -2.1454   -0.8077   -0.8864 O   0  0  0  0  0  0  0  0  0  0  0  0
   -1.3532   -0.9989    0.2580 C   0  0  1  0  0  0  0  0  0  0  0  0
    2.4268   -1.7077   -0.9926 H   0  0  0  0  0  0  0  0  0  0  0  0
   -0.3584   -1.5981   -2.0405 H   0  0  0  0  0  0  0  0  0  0  0  0
    0.5519   -2.9022   -1.1113 H   0  0  0  0  0  0  0  0  0  0  0  0
    0.7617    0.6054   -1.6246 H   0  0  0  0  0  0  0  0  0  0  0  0
    0.4986    0.6331    0.8624 H   0  0  0  0  0  0  0  0  0  0  0  0
    1.4872   -1.5662    1.7934 H   0  0  0  0  0  0  0  0  0  0  0  0
    3.2415   -0.5389    2.7569 H   0  0  0  0  0  0  0  0  0  0  0  0
    1.8695    0.6413    2.6249 H   0  0  0  0  0  0  0  0  0  0  0  0
    3.1495    1.9032    1.2710 H   0  0  0  0  0  0  0  0  0  0  0  0
    3.8963   -0.6824    0.0100 H   0  0  0  0  0  0  0  0  0  0  0  0
    4.7648    0.8502   -0.3208 H   0  0  0  0  0  0  0  0  0  0  0  0
    2.5357    1.9433   -0.8322 H   0  0  0  0  0  0  0  0  0  0  0  0
    3.2706    1.5849   -2.7839 H   0  0  0  0  0  0  0  0  0  0  0  0
   -1.4117    1.1964    0.4906 H   0  0  0  0  0  0  0  0  0  0  0  0
   -1.2866    0.2235    2.0699 H   0  0  0  0  0  0  0  0  0  0  0  0
   -3.6562    1.1429    1.1817 H   0  0  0  0  0  0  0  0  0  0  0  0
   -4.5409   -0.9181    1.9344 H   0  0  0  0  0  0  0  0  0  0  0  0
   -2.9756    2.5892   -0.8680 H   0  0  0  0  0  0  0  0  0  0  0  0
   -4.6843    1.3383   -0.7552 H   0  0  0  0  0  0  0  0  0  0  0  0
   -4.1208    0.4736   -2.2735 H   0  0  0  0  0  0  0  0  0  0  0  0
   -4.1190   -1.1601   -0.3982 H   0  0  0  0  0  0  0  0  0  0  0  0
   -1.8736   -1.8282    0.8068 H   0  0  0  0  0  0  0  0  0  0  0  0
    1.5536   -0.0423   -2.8722 H   0  0  0  0  0  0  0  0  0  0  0  0
   -0.3660    0.5769   -1.6741 H   0  0  0  0  0  0  0  0  0  0  0  0
   -0.7681   -1.0849   -2.3511 H   0  0  0  0  0  0  0  0  0  0  0  0
    2.8047   -1.3872   -0.8859 H   0  0  0  0  0  0  0  0  0  0  0  0
    1.0052    0.4376    0.6913 H   0  0  0  0  0  0  0  0  0  0  0  0
    1.0293   -2.0166    1.7512 H   0  0  0  0  0  0  0  0  0  0  0  0
    3.5474   -1.2484    2.2743 H   0  0  0  0  0  0  0  0  0  0  0  0
    2.1143   -0.5627    3.0882 H   0  0  0  0  0  0  0  0  0  0  0  0
    3.4162    1.1435    2.3546 H   0  0  0  0  0  0  0  0  0  0  0  0
    4.2694   -0.3422    0.3587 H   0  0  0  0  0  0  0  0  0  0  0  0
    4.5119    1.4126    0.4448 H   0  0  0  0  0  0  0  0  0  0  0  0
    2.1942    1.6022   -0.6982 H   0  0  0  0  0  0  0  0  0  0  0  0
    3.2563    1.5865   -2.5518 H   0  0  0  0  0  0  0  0  0  0  0  0
   -1.5104    1.3232   -0.1753 H   0  0  0  0  0  0  0  0  0  0  0  0
   -1.0873    1.0206    1.5874 H   0  0  0  0  0  0  0  0  0  0  0  0
   -3.5879    1.4695    0.8447 H   0  0  0  0  0  0  0  0  0  0  0  0
   -3.9600   -0.6835    2.2459 H   0  0  0  0  0  0  0  0  0  0  0  0
   -3.3379    1.9401   -1.8146 H   0  0  0  0  0  0  0  0  0  0  0  0
   -4.3325   -0.5962   -2.0113 H   0  0  0  0  0  0  0  0  0  0  0  0
   -4.9225    0.7345   -1.0024 H   0  0  0  0  0  0  0  0  0  0  0  0
   -4.2809   -1.1805    0.3786 H   0  0  0  0  0  0  0  0  0  0  0  0
   -1.2236   -1.3333    1.3523 H   0  0  0  0  0  0  0  0  0  0  0  0
    2.4268   -1.7077   -0.9926 H   0  0  0  0  0  0  0  0  0  0  0  0
   -0.3584   -1.5981   -2.0405 H   0  0  0  0  0  0  0  0  0  0  0  0
    0.5519   -2.9022   -1.1113 H   0  0  0  0  0  0  0  0  0  0  0  0
    0.7617    0.6054   -1.6246 H   0  0  0  0  0  0  0  0  0  0  0  0
    0.4986    0.6331    0.8624 H   0  0  0  0  0  0  0  0  0  0  0  0
    1.4872   -1.5662    1.7934 H   0  0  0  0  0  0  0  0  0  0  0  0
    3.2415   -0.5389    2.7569 H   0  0  0  0  0  0  0  0  0  0  0  0
    1.8695    0.6413    2.6249 H   0  0  0  0  0  0  0  0  0  0  0  0
    3.1495    1.9032    1.2710 H   0  0  0  0  0  0  0  0  0  0  0  0
    3.8963   -0.6824    0.0100 H   0  0  0  0  0  0  0  0  0  0  0  0
    4.7648    0.8502   -0.3208 H   0  0  0  0  0  0  0  0  0  0  0  0
    2.5357    1.9433   -0.8322 H   0  0  0  0  0  0  0  0  0  0  0  0
    3.2706    1.5849   -2.7839 H   0  0  0  0  0  0  0  0  0  0  0  0
   -1.4117    1.1964    0.4906 H   0  0  0  0  0  0  0  0  0  0  0  0
   -1.2866    0.2235    2.0699 H   0  0  0  0  0  0  0  0  0  0  0  0
   -3.6562    1.1429    1.1817 H   0  0  0  0  0  0  0  0  0  0  0  0
   -4.5409   -0.9181    1.9344 H   0  0  0  0  0  0  0  0  0  0  0  0
   -2.9756    2.5892   -0.8680 H   0  0  0  0  0  0  0  0  0  0  0  0
   -4.6843    1.3383   -0.7552 H   0  0  0  0  0  0  0  0  0  0  0  0
   -4.1208    0.4736   -2.2735 H   0  0  0  0  0  0  0  0  0  0  0  0
   -4.1190   -1.1601   -0.3982 H   0  0  0  0  0  0  0  0  0  0  0  0
   -1.8736   -1.8282    0.8068 H   0  0  0  0  0  0  0  0  0  0  0  0
    2.4268   -1.7077   -0.9926 H   0  0  0  0  0  0  0  0  0  0  0  0
   -0.3584   -1.5981   -2.0405 H   0  0  0  0  0  0  0  0  0  0  0  0
    0.5519   -2.9022   -1.1113 H   0  0  0  0  0  0  0  0  0  0  0  0
    0.7617    0.6054   -1.6246 H   0  0  0  0  0  0  0  0  0  0  0  0
    0.4986    0.6331    0.8624 H   0  0  0  0  0  0  0  0  0  0  0  0
    1.4872   -1.5662    1.7934 H   0  0  0  0  0  0  0  0  0  0  0  0
    3.2415   -0.5389    2.7569 H   0  0  0  0  0  0  0  0  0  0  0  0
    1.8695    0.6413    2.6249 H   0  0  0  0  0  0  0  0  0  0  0  0
    3.1495    1.9032    1.2710 H   0  0  0  0  0  0  0  0  0  0  0  0
    3.8963   -0.6824    0.0100 H   0  0  0  0  0  0  0  0  0  0  0  0
    4.7648    0.8502   -0.3208 H   0  0  0  0  0  0  0  0  0  0  0  0
    2.5357    1.9433   -0.8322 H   0  0  0  0  0  0  0  0  0  0  0  0
    3.2706    1.5849   -2.7839 H   0  0  0  0  0  0  0  0  0  0  0  0
   -1.4117    1.1964    0.4906 H   0  0  0  0  0  0  0  0  0  0  0  0
   -1.2866    0.2235    2.0699 H   0  0  0  0  0  0  0  0  0  0  0  0
   -3.6562    1.1429    1.1817 H   0  0  0  0  0  0  0  0  0  0  0  0
   -4.5409   -0.9181    1.9344 H   0  0  0  0  0  0  0  0  0  0  0  0
   -2.9756    2.5892   -0.8680 H   0  0  0  0  0  0  0  0  0  0  0  0
   -4.6843    1.3383   -0.7552 H   0  0  0  0  0  0  0  0  0  0  0  0
   -4.1208    0.4736   -2.2735 H   0  0  0  0  0  0  0  0  0  0  0  0
   -4.1190   -1.1601   -0.3982 H   0  0  0  0  0  0  0  0  0  0  0  0
   -1.8736   -1.8282    0.8068 H   0  0  0  0  0  0  0  0  0  0  0  0
  1  2  1  0
  2  3  1  0
  1  4  1  0
  3  5  1  0
  4  5  1  0
  5  6  1  0
  6  7  1  0
  7  8  1  0
  8  9  1  0
  4 10  1  0
  9 10  1  0
 10 11  1  0
 12 13  1  0
 13 14  1  0
 15 16  1  0
 13 17  1  0
 16 17  1  0
 17 18  1  0
  3 19  1  0
 12 19  1  0
 18 19  1  0
 20 21  1  0
 21 22  1  0
 20 23  1  0
 22 24  1  0
 23 24  1  0
 24 25  1  0
 25 26  1  0
 26 27  1  0
 27 28  1  0
 23 29  1  0
 28 29  1  0
 29 30  1  0
 31 32  1  0
 32 33  1  0
 34 35  1  0
 32 36  1  0
 35 36  1  0
 36 37  1  0
 22 38  1  0
 31 38  1  0
 37 38  1  0
 39 40  1  0
 40 41  1  0
 39 42  1  0
 41 43  1  0
 42 43  1  0
 43 44  1  0
 44 45  1  0
 45 46  1  0
 46 47  1  0
 42 48  1  0
 47 48  1  0
 48 49  1  0
 50 51  1  0
 51 52  1  0
 53 54  1  0
 51 55  1  0
 54 55  1  0
 55 56  1  0
 41 57  1  0
 50 57  1  0
 56 57  1  0
 58 59  1  0
 59 60  1  0
 58 61  1  0
 60 62  1  0
 61 62  1  0
 62 63  1  0
 63 64  1  0
 64 65  1  0
 65 66  1  0
 61 67  1  0
 66 67  1  0
 67 68  1  0
 69 70  1  0
 70 71  1  0
 72 73  1  0
 70 74  1  0
 73 74  1  0
 74 75  1  0
 60 76  1  0
 69 76  1  0
 75 76  1  0
  1 77  1  0
  2 78  1  0
  2 79  1  0
  4 80  1  6
  5 81  1  1
  6 82  1  0
  7 83  1  0
  7 84  1  0
  8 85  1  0
  9 86  1  0
  9 87  1  0
 10 88  1  1
 11 89  1  0
 12 90  1  0
 12 91  1  0
 13 92  1  6
 14 93  1  0
 15 94  1  0
 16 95  1  0
 16 96  1  0
 17 97  1  1
 19 98  1  1
 20 99  1  0
 21100  1  0
 21101  1  0
 23102  1  0
 24103  1  1
 25104  1  0
 26105  1  0
 26106  1  0
 27107  1  0
 28108  1  0
 28109  1  0
 29110  1  1
 30111  1  0
 31112  1  0
 31113  1  0
 32114  1  1
 33115  1  0
 34116  1  0
 35117  1  0
 35118  1  0
 36119  1  1
 38120  1  1
 39121  1  0
 40122  1  0
 40123  1  0
 42124  1  6
 43125  1  1
 44126  1  0
 45127  1  0
 45128  1  0
 46129  1  0
 47130  1  0
 47131  1  0
 48132  1  1
 49133  1  0
 50134  1  0
 50135  1  0
 51136  1  6
 52137  1  0
 53138  1  0
 54139  1  0
 54140  1  0
 55141  1  1
 57142  1  1
 58143  1  0
 59144  1  0
 59145  1  0
 61146  1  6
 62147  1  1
 63148  1  0
 64149  1  0
 64150  1  0
 65151  1  0
 66152  1  0
 66153  1  0
 67154  1  1
 68155  1  0
 69156  1  0
 69157  1  0
 70158  1  6
 71159  1  0
 72160  1  0
 73161  1  0
 73162  1  0
 74163  1  1
 76164  1  1
M  END
>  <PDBID>  (1) 
1A4L

>  <PDB ID>  (1) 
1A4L

>  <Generic Name>  (1) 
Pentostatin

>  <Brand Name>  (1) 
Nipent#Nipent Pws 10mg/vial

>  <DrugBank ID>  (1) 
DB00552

>  <ATC Codes>  (1) 
L01XX08

>  <Ligand ID>  (1) 
DCF

>  <Target Name>  (1) 
Adenosine deaminase

>  <UniProt ID>  (1) 
P00813

>  <PDB ID.1>  (1) 
1A4L

>  <Seq. Identity>  (1) 
83%

$$$$
