PDB_DB05812_07
     RDKit          3D

268284  0  0  0  0  0  0  0  0999 V2000
    3.4762    1.5709   -0.5043 C   0  0  0  0  0  0  0  0  0  0  0  0
    4.9776    1.5452   -0.6150 C   0  0  0  0  0  0  0  0  0  0  0  0
    5.5802    1.1713    0.7210 C   0  0  2  0  0  0  0  0  0  0  0  0
    6.6781    0.3182    0.5120 O   0  0  0  0  0  0  0  0  0  0  0  0
    4.5410    0.5113    1.5818 C   0  0  0  0  0  0  0  0  0  0  0  0
    3.7218   -0.4993    0.7901 C   0  0  0  0  0  0  0  0  0  0  0  0
    2.8613   -1.2396    1.7673 C   0  0  0  0  0  0  0  0  0  0  0  0
    1.7254   -1.9853    1.1556 C   0  0  0  0  0  0  0  0  0  0  0  0
    0.9107   -1.1395    0.1725 C   0  0  2  0  0  0  0  0  0  0  0  0
    1.4978    0.2694    0.2053 C   0  0  1  0  0  0  0  0  0  0  0  0
    2.8982    0.1999   -0.2825 C   0  0  1  0  0  0  0  0  0  0  0  0
    0.6598    1.2740   -0.4782 C   0  0  0  0  0  0  0  0  0  0  0  0
   -0.8093    1.1449   -0.3116 C   0  0  0  0  0  0  0  0  0  0  0  0
   -1.3098   -0.2562   -0.3533 C   0  0  1  0  0  0  0  0  0  0  0  0
   -0.4623   -1.0026    0.7000 C   0  0  1  0  0  0  0  0  0  0  0  0
   -1.2420   -2.2396    0.8886 C   0  0  0  0  0  0  0  0  0  0  0  0
   -2.6270   -1.6681    1.0964 C   0  0  0  0  0  0  0  0  0  0  0  0
   -2.6672   -0.4473    0.2516 C   0  0  0  0  0  0  0  0  0  0  0  0
   -1.1116   -0.8378   -1.7079 C   0  0  0  0  0  0  0  0  0  0  0  0
    2.9363   -0.5746   -1.5818 C   0  0  0  0  0  0  0  0  0  0  0  0
   -3.8281   -0.3348   -0.6616 C   0  0  0  0  0  0  0  0  0  0  0  0
   -3.9120    1.0650   -1.2240 C   0  0  0  0  0  0  0  0  0  0  0  0
   -5.2828    1.4518   -1.5092 N   0  0  0  0  0  0  0  0  0  0  0  0
   -6.0595    1.6235   -0.3006 C   0  0  0  0  0  0  0  0  0  0  0  0
   -5.5694    0.6265    0.7628 C   0  0  0  0  0  0  0  0  0  0  0  0
   -5.1561   -0.6035    0.0071 C   0  0  0  0  0  0  0  0  0  0  0  0
    3.4762    1.5709   -0.5043 C   0  0  0  0  0  0  0  0  0  0  0  0
    4.9776    1.5452   -0.6150 C   0  0  0  0  0  0  0  0  0  0  0  0
    5.5802    1.1713    0.7210 C   0  0  2  0  0  0  0  0  0  0  0  0
    6.6781    0.3182    0.5120 O   0  0  0  0  0  0  0  0  0  0  0  0
    4.5410    0.5113    1.5818 C   0  0  0  0  0  0  0  0  0  0  0  0
    3.7218   -0.4993    0.7901 C   0  0  0  0  0  0  0  0  0  0  0  0
    2.8613   -1.2396    1.7673 C   0  0  0  0  0  0  0  0  0  0  0  0
    1.7254   -1.9853    1.1556 C   0  0  0  0  0  0  0  0  0  0  0  0
    0.9107   -1.1395    0.1725 C   0  0  2  0  0  0  0  0  0  0  0  0
    1.4978    0.2694    0.2053 C   0  0  1  0  0  0  0  0  0  0  0  0
    2.8982    0.1999   -0.2825 C   0  0  1  0  0  0  0  0  0  0  0  0
    0.6598    1.2740   -0.4782 C   0  0  0  0  0  0  0  0  0  0  0  0
   -0.8093    1.1449   -0.3116 C   0  0  0  0  0  0  0  0  0  0  0  0
   -1.3098   -0.2562   -0.3533 C   0  0  1  0  0  0  0  0  0  0  0  0
   -0.4623   -1.0026    0.7000 C   0  0  1  0  0  0  0  0  0  0  0  0
   -1.2420   -2.2396    0.8886 C   0  0  0  0  0  0  0  0  0  0  0  0
   -2.6270   -1.6681    1.0964 C   0  0  0  0  0  0  0  0  0  0  0  0
   -2.6672   -0.4473    0.2516 C   0  0  0  0  0  0  0  0  0  0  0  0
   -1.1116   -0.8378   -1.7079 C   0  0  0  0  0  0  0  0  0  0  0  0
    2.9363   -0.5746   -1.5818 C   0  0  0  0  0  0  0  0  0  0  0  0
   -3.8281   -0.3348   -0.6616 C   0  0  0  0  0  0  0  0  0  0  0  0
   -3.9120    1.0650   -1.2240 C   0  0  0  0  0  0  0  0  0  0  0  0
   -5.2828    1.4518   -1.5092 N   0  0  0  0  0  0  0  0  0  0  0  0
   -6.0595    1.6235   -0.3006 C   0  0  0  0  0  0  0  0  0  0  0  0
   -5.5694    0.6265    0.7628 C   0  0  0  0  0  0  0  0  0  0  0  0
   -5.1561   -0.6035    0.0071 C   0  0  0  0  0  0  0  0  0  0  0  0
    3.4312    1.6236   -0.2203 C   0  0  0  0  0  0  0  0  0  0  0  0
    4.9343    1.6508   -0.0181 C   0  0  0  0  0  0  0  0  0  0  0  0
    5.1883    1.2586    1.4232 C   0  0  2  0  0  0  0  0  0  0  0  0
    6.4291    0.6838    1.5431 O   0  0  0  0  0  0  0  0  0  0  0  0
    4.0655    0.3908    1.9488 C   0  0  0  0  0  0  0  0  0  0  0  0
    3.5632   -0.5818    0.8787 C   0  0  0  0  0  0  0  0  0  0  0  0
    2.5504   -1.4798    1.5577 C   0  0  0  0  0  0  0  0  0  0  0  0
    1.5931   -2.1366    0.6241 C   0  0  0  0  0  0  0  0  0  0  0  0
    0.8636   -1.1657   -0.2950 C   0  0  2  0  0  0  0  0  0  0  0  0
    1.4606    0.1997   -0.0296 C   0  0  1  0  0  0  0  0  0  0  0  0
    2.9311    0.1876   -0.2691 C   0  0  1  0  0  0  0  0  0  0  0  0
    0.7775    1.3127   -0.7056 C   0  0  0  0  0  0  0  0  0  0  0  0
   -0.7356    1.2331   -0.6967 C   0  0  0  0  0  0  0  0  0  0  0  0
   -1.2071   -0.1268   -1.0191 C   0  0  1  0  0  0  0  0  0  0  0  0
   -0.5716   -1.0631    0.0174 C   0  0  1  0  0  0  0  0  0  0  0  0
   -1.3912   -2.2912   -0.1695 C   0  0  0  0  0  0  0  0  0  0  0  0
   -2.7737   -1.6771   -0.0027 C   0  0  0  0  0  0  0  0  0  0  0  0
   -2.6291   -0.4598   -0.9439 C   0  0  1  0  0  0  0  0  0  0  0  0
   -0.6515   -0.4681   -2.4126 C   0  0  0  0  0  0  0  0  0  0  0  0
    3.2422   -0.4267   -1.5943 C   0  0  0  0  0  0  0  0  0  0  0  0
   -3.6421    0.5737   -0.6902 C   0  0  1  0  0  0  0  0  0  0  0  0
   -5.0601   -0.0524   -0.7828 C   0  0  0  0  0  0  0  0  0  0  0  0
   -5.3963   -0.7555    0.4336 N   0  0  0  0  0  0  0  0  0  0  0  0
   -5.7534    0.2545    1.4050 C   0  0  0  0  0  0  0  0  0  0  0  0
   -4.9863    1.5354    1.1992 C   0  0  0  0  0  0  0  0  0  0  0  0
   -3.6122    1.2954    0.6153 C   0  0  0  0  0  0  0  0  0  0  0  0
    3.4648    1.5433   -0.6424 C   0  0  0  0  0  0  0  0  0  0  0  0
    4.9630    1.4929   -0.7432 C   0  0  0  0  0  0  0  0  0  0  0  0
    5.5857    1.1630    0.5988 C   0  0  2  0  0  0  0  0  0  0  0  0
    6.7377    0.3793    0.4433 O   0  0  0  0  0  0  0  0  0  0  0  0
    4.5729    0.5145    1.4977 C   0  0  0  0  0  0  0  0  0  0  0  0
    3.7219   -0.5065    0.7303 C   0  0  1  0  0  0  0  0  0  0  0  0
    2.8920   -1.2197    1.7502 C   0  0  0  0  0  0  0  0  0  0  0  0
    1.7053   -1.9317    1.2069 C   0  0  0  0  0  0  0  0  0  0  0  0
    0.9051   -1.1259    0.2063 C   0  0  2  0  0  0  0  0  0  0  0  0
    1.4943    0.2823    0.1829 C   0  0  1  0  0  0  0  0  0  0  0  0
    2.8881    0.1813   -0.3290 C   0  0  1  0  0  0  0  0  0  0  0  0
    0.6563    1.2567   -0.5434 C   0  0  0  0  0  0  0  0  0  0  0  0
   -0.8109    1.1504   -0.3673 C   0  0  0  0  0  0  0  0  0  0  0  0
   -1.3265   -0.2461   -0.3300 C   0  0  1  0  0  0  0  0  0  0  0  0
   -0.4757   -0.9525    0.7347 C   0  0  1  0  0  0  0  0  0  0  0  0
   -1.2435   -2.1906    0.9795 C   0  0  0  0  0  0  0  0  0  0  0  0
   -2.6398   -1.6264    1.1266 C   0  0  0  0  0  0  0  0  0  0  0  0
   -2.6803   -0.4030    0.2696 C   0  0  0  0  0  0  0  0  0  0  0  0
   -1.1337   -0.8768   -1.6746 C   0  0  0  0  0  0  0  0  0  0  0  0
    2.9343   -0.6393   -1.5763 C   0  0  0  0  0  0  0  0  0  0  0  0
   -3.8404   -0.3018   -0.6363 C   0  0  0  0  0  0  0  0  0  0  0  0
   -3.9202    1.0803   -1.2400 C   0  0  0  0  0  0  0  0  0  0  0  0
   -5.2936    1.4836   -1.4853 N   0  0  0  0  0  0  0  0  0  0  0  0
   -6.0292    1.6866   -0.2566 C   0  0  0  0  0  0  0  0  0  0  0  0
   -5.5803    0.6570    0.7914 C   0  0  0  0  0  0  0  0  0  0  0  0
   -5.1723   -0.5624    0.0217 C   0  0  0  0  0  0  0  0  0  0  0  0
    3.0714    2.0669   -1.3959 H   0  0  0  0  0  0  0  0  0  0  0  0
    3.2202    2.2138    0.3639 H   0  0  0  0  0  0  0  0  0  0  0  0
    5.3366    2.5483   -0.8907 H   0  0  0  0  0  0  0  0  0  0  0  0
    5.3314    0.8489   -1.3974 H   0  0  0  0  0  0  0  0  0  0  0  0
    5.9354    2.0779    1.2506 H   0  0  0  0  0  0  0  0  0  0  0  0
    7.3402    0.7815   -0.0410 H   0  0  0  0  0  0  0  0  0  0  0  0
    5.0525   -0.0646    2.3844 H   0  0  0  0  0  0  0  0  0  0  0  0
    3.9049    1.2674    2.0800 H   0  0  0  0  0  0  0  0  0  0  0  0
    4.4399   -1.1999    0.3242 H   0  0  0  0  0  0  0  0  0  0  0  0
    2.5527   -0.6012    2.6466 H   0  0  0  0  0  0  0  0  0  0  0  0
    3.5281   -2.0211    2.2403 H   0  0  0  0  0  0  0  0  0  0  0  0
    1.0796   -2.3505    1.9872 H   0  0  0  0  0  0  0  0  0  0  0  0
    2.1352   -2.8978    0.6759 H   0  0  0  0  0  0  0  0  0  0  0  0
    1.0292   -1.6120   -0.8018 H   0  0  0  0  0  0  0  0  0  0  0  0
    1.5337    0.5386    1.2988 H   0  0  0  0  0  0  0  0  0  0  0  0
    0.9464    2.2888   -0.0644 H   0  0  0  0  0  0  0  0  0  0  0  0
    0.9615    1.3556   -1.5655 H   0  0  0  0  0  0  0  0  0  0  0  0
   -1.2933    1.7571   -1.1124 H   0  0  0  0  0  0  0  0  0  0  0  0
   -1.1051    1.5946    0.6762 H   0  0  0  0  0  0  0  0  0  0  0  0
   -0.4458   -0.3826    1.6035 H   0  0  0  0  0  0  0  0  0  0  0  0
   -0.9002   -2.8012    1.8000 H   0  0  0  0  0  0  0  0  0  0  0  0
   -1.2233   -2.9006    0.0097 H   0  0  0  0  0  0  0  0  0  0  0  0
   -3.4219   -2.4015    0.9038 H   0  0  0  0  0  0  0  0  0  0  0  0
   -2.6820   -1.4351    2.1960 H   0  0  0  0  0  0  0  0  0  0  0  0
   -2.7690    0.4233    0.9837 H   0  0  0  0  0  0  0  0  0  0  0  0
   -0.7685   -1.9017   -1.6876 H   0  0  0  0  0  0  0  0  0  0  0  0
   -0.3062   -0.2318   -2.2245 H   0  0  0  0  0  0  0  0  0  0  0  0
   -1.9961   -0.6904   -2.3247 H   0  0  0  0  0  0  0  0  0  0  0  0
    2.0867   -0.3164   -2.2389 H   0  0  0  0  0  0  0  0  0  0  0  0
    2.9982   -1.6481   -1.3275 H   0  0  0  0  0  0  0  0  0  0  0  0
    3.8556   -0.3250   -2.1751 H   0  0  0  0  0  0  0  0  0  0  0  0
   -3.7915   -1.0949   -1.4999 H   0  0  0  0  0  0  0  0  0  0  0  0
   -3.5602    1.8243   -0.4725 H   0  0  0  0  0  0  0  0  0  0  0  0
   -3.3606    1.2263   -2.1562 H   0  0  0  0  0  0  0  0  0  0  0  0
   -5.7361    0.8521   -2.2143 H   0  0  0  0  0  0  0  0  0  0  0  0
   -6.0793    2.6481    0.0767 H   0  0  0  0  0  0  0  0  0  0  0  0
   -7.1024    1.3243   -0.5333 H   0  0  0  0  0  0  0  0  0  0  0  0
   -4.7328    1.1290    1.2863 H   0  0  0  0  0  0  0  0  0  0  0  0
   -6.3711    0.4110    1.4891 H   0  0  0  0  0  0  0  0  0  0  0  0
   -5.2181   -1.5263    0.5718 H   0  0  0  0  0  0  0  0  0  0  0  0
   -5.9028   -0.7190   -0.8355 H   0  0  0  0  0  0  0  0  0  0  0  0
    3.0714    2.0669   -1.3959 H   0  0  0  0  0  0  0  0  0  0  0  0
    3.2202    2.2138    0.3639 H   0  0  0  0  0  0  0  0  0  0  0  0
    5.3366    2.5483   -0.8907 H   0  0  0  0  0  0  0  0  0  0  0  0
    5.3314    0.8489   -1.3974 H   0  0  0  0  0  0  0  0  0  0  0  0
    5.9354    2.0779    1.2506 H   0  0  0  0  0  0  0  0  0  0  0  0
    7.3402    0.7815   -0.0410 H   0  0  0  0  0  0  0  0  0  0  0  0
    5.0525   -0.0646    2.3844 H   0  0  0  0  0  0  0  0  0  0  0  0
    3.9049    1.2674    2.0800 H   0  0  0  0  0  0  0  0  0  0  0  0
    4.4399   -1.1999    0.3242 H   0  0  0  0  0  0  0  0  0  0  0  0
    2.5527   -0.6012    2.6466 H   0  0  0  0  0  0  0  0  0  0  0  0
    3.5281   -2.0211    2.2403 H   0  0  0  0  0  0  0  0  0  0  0  0
    1.0796   -2.3505    1.9872 H   0  0  0  0  0  0  0  0  0  0  0  0
    2.1352   -2.8978    0.6759 H   0  0  0  0  0  0  0  0  0  0  0  0
    1.0292   -1.6120   -0.8018 H   0  0  0  0  0  0  0  0  0  0  0  0
    1.5337    0.5386    1.2988 H   0  0  0  0  0  0  0  0  0  0  0  0
    0.9464    2.2888   -0.0644 H   0  0  0  0  0  0  0  0  0  0  0  0
    0.9615    1.3556   -1.5655 H   0  0  0  0  0  0  0  0  0  0  0  0
   -1.2933    1.7571   -1.1124 H   0  0  0  0  0  0  0  0  0  0  0  0
   -1.1051    1.5946    0.6762 H   0  0  0  0  0  0  0  0  0  0  0  0
   -0.4458   -0.3826    1.6035 H   0  0  0  0  0  0  0  0  0  0  0  0
   -0.9002   -2.8012    1.8000 H   0  0  0  0  0  0  0  0  0  0  0  0
   -1.2233   -2.9006    0.0097 H   0  0  0  0  0  0  0  0  0  0  0  0
   -3.4219   -2.4015    0.9038 H   0  0  0  0  0  0  0  0  0  0  0  0
   -2.6820   -1.4351    2.1960 H   0  0  0  0  0  0  0  0  0  0  0  0
   -2.7690    0.4233    0.9837 H   0  0  0  0  0  0  0  0  0  0  0  0
   -0.7685   -1.9017   -1.6876 H   0  0  0  0  0  0  0  0  0  0  0  0
   -0.3062   -0.2318   -2.2245 H   0  0  0  0  0  0  0  0  0  0  0  0
   -1.9961   -0.6904   -2.3247 H   0  0  0  0  0  0  0  0  0  0  0  0
    2.0867   -0.3164   -2.2389 H   0  0  0  0  0  0  0  0  0  0  0  0
    2.9982   -1.6481   -1.3275 H   0  0  0  0  0  0  0  0  0  0  0  0
    3.8556   -0.3250   -2.1751 H   0  0  0  0  0  0  0  0  0  0  0  0
   -3.7915   -1.0949   -1.4999 H   0  0  0  0  0  0  0  0  0  0  0  0
   -3.5602    1.8243   -0.4725 H   0  0  0  0  0  0  0  0  0  0  0  0
   -3.3606    1.2263   -2.1562 H   0  0  0  0  0  0  0  0  0  0  0  0
   -5.7361    0.8521   -2.2143 H   0  0  0  0  0  0  0  0  0  0  0  0
   -6.0793    2.6481    0.0767 H   0  0  0  0  0  0  0  0  0  0  0  0
   -7.1024    1.3243   -0.5333 H   0  0  0  0  0  0  0  0  0  0  0  0
   -4.7328    1.1290    1.2863 H   0  0  0  0  0  0  0  0  0  0  0  0
   -6.3711    0.4110    1.4891 H   0  0  0  0  0  0  0  0  0  0  0  0
   -5.2181   -1.5263    0.5718 H   0  0  0  0  0  0  0  0  0  0  0  0
   -5.9028   -0.7190   -0.8355 H   0  0  0  0  0  0  0  0  0  0  0  0
    3.2137    2.1730   -1.1354 H   0  0  0  0  0  0  0  0  0  0  0  0
    2.9144    2.1088    0.6289 H   0  0  0  0  0  0  0  0  0  0  0  0
    5.2946    2.6656   -0.2550 H   0  0  0  0  0  0  0  0  0  0  0  0
    5.4114    0.9046   -0.6507 H   0  0  0  0  0  0  0  0  0  0  0  0
    5.1722    2.2036    2.0082 H   0  0  0  0  0  0  0  0  0  0  0  0
    6.8203    0.5427    0.6457 H   0  0  0  0  0  0  0  0  0  0  0  0
    3.2398    1.0278    2.3286 H   0  0  0  0  0  0  0  0  0  0  0  0
    4.4238   -0.2209    2.7923 H   0  0  0  0  0  0  0  0  0  0  0  0
    4.4375   -1.1244    0.4995 H   0  0  0  0  0  0  0  0  0  0  0  0
    2.0747   -0.9794    2.4224 H   0  0  0  0  0  0  0  0  0  0  0  0
    3.1611   -2.3151    2.0128 H   0  0  0  0  0  0  0  0  0  0  0  0
    0.8048   -2.6172    1.2547 H   0  0  0  0  0  0  0  0  0  0  0  0
    2.0740   -2.9642    0.0698 H   0  0  0  0  0  0  0  0  0  0  0  0
    1.0335   -1.5193   -1.3089 H   0  0  0  0  0  0  0  0  0  0  0  0
    1.3138    0.3536    1.0832 H   0  0  0  0  0  0  0  0  0  0  0  0
    1.0195    2.2479   -0.1094 H   0  0  0  0  0  0  0  0  0  0  0  0
    1.1793    1.5402   -1.7069 H   0  0  0  0  0  0  0  0  0  0  0  0
   -1.0778    2.0403   -1.3772 H   0  0  0  0  0  0  0  0  0  0  0  0
   -1.0063    1.4443    0.3836 H   0  0  0  0  0  0  0  0  0  0  0  0
   -0.7986   -0.6308    1.0058 H   0  0  0  0  0  0  0  0  0  0  0  0
   -1.2957   -2.7750   -1.1466 H   0  0  0  0  0  0  0  0  0  0  0  0
   -1.2667   -3.0109    0.6673 H   0  0  0  0  0  0  0  0  0  0  0  0
   -3.5841   -2.3367   -0.2994 H   0  0  0  0  0  0  0  0  0  0  0  0
   -2.8173   -1.3481    1.0536 H   0  0  0  0  0  0  0  0  0  0  0  0
   -2.9307   -0.9345   -1.9360 H   0  0  0  0  0  0  0  0  0  0  0  0
   -0.5363   -1.5375   -2.5754 H   0  0  0  0  0  0  0  0  0  0  0  0
    0.1961    0.1281   -2.7058 H   0  0  0  0  0  0  0  0  0  0  0  0
   -1.4940   -0.1586   -3.1067 H   0  0  0  0  0  0  0  0  0  0  0  0
    2.5359   -0.1651   -2.4029 H   0  0  0  0  0  0  0  0  0  0  0  0
    3.3185   -1.5262   -1.4575 H   0  0  0  0  0  0  0  0  0  0  0  0
    4.2519   -0.1116   -1.9849 H   0  0  0  0  0  0  0  0  0  0  0  0
   -3.6299    1.3173   -1.5079 H   0  0  0  0  0  0  0  0  0  0  0  0
   -5.1018   -0.7756   -1.6214 H   0  0  0  0  0  0  0  0  0  0  0  0
   -5.8088    0.7215   -0.9619 H   0  0  0  0  0  0  0  0  0  0  0  0
   -6.0818   -1.5002    0.3114 H   0  0  0  0  0  0  0  0  0  0  0  0
   -5.5134   -0.1483    2.4102 H   0  0  0  0  0  0  0  0  0  0  0  0
   -6.8438    0.4265    1.3732 H   0  0  0  0  0  0  0  0  0  0  0  0
   -4.9630    2.0808    2.1462 H   0  0  0  0  0  0  0  0  0  0  0  0
   -5.5623    2.1481    0.4781 H   0  0  0  0  0  0  0  0  0  0  0  0
   -3.1865    2.3040    0.4537 H   0  0  0  0  0  0  0  0  0  0  0  0
   -3.0122    0.8058    1.3950 H   0  0  0  0  0  0  0  0  0  0  0  0
    3.0809    1.8584   -1.6363 H   0  0  0  0  0  0  0  0  0  0  0  0
    3.2115    2.2899    0.1340 H   0  0  0  0  0  0  0  0  0  0  0  0
    5.3361    2.4743   -1.0957 H   0  0  0  0  0  0  0  0  0  0  0  0
    5.3381    0.7403   -1.4584 H   0  0  0  0  0  0  0  0  0  0  0  0
    5.9018    2.1183    1.0574 H   0  0  0  0  0  0  0  0  0  0  0  0
    7.3643    0.5082    1.1969 H   0  0  0  0  0  0  0  0  0  0  0  0
    3.9504    1.2293    2.0538 H   0  0  0  0  0  0  0  0  0  0  0  0
    5.1376   -0.0853    2.2490 H   0  0  0  0  0  0  0  0  0  0  0  0
    4.4360   -1.1995    0.2526 H   0  0  0  0  0  0  0  0  0  0  0  0
    2.6338   -0.5451    2.6049 H   0  0  0  0  0  0  0  0  0  0  0  0
    3.5602   -2.0039    2.2140 H   0  0  0  0  0  0  0  0  0  0  0  0
    1.0729   -2.2344    2.0870 H   0  0  0  0  0  0  0  0  0  0  0  0
    2.0347   -2.9178    0.7657 H   0  0  0  0  0  0  0  0  0  0  0  0
    0.9895   -1.6255   -0.7573 H   0  0  0  0  0  0  0  0  0  0  0  0
    1.5679    0.5728    1.2725 H   0  0  0  0  0  0  0  0  0  0  0  0
    0.9588    2.2898   -0.1943 H   0  0  0  0  0  0  0  0  0  0  0  0
    0.9682    1.2560   -1.6300 H   0  0  0  0  0  0  0  0  0  0  0  0
   -1.2732    1.6966   -1.2448 H   0  0  0  0  0  0  0  0  0  0  0  0
   -1.1598    1.7107    0.5232 H   0  0  0  0  0  0  0  0  0  0  0  0
   -0.4580   -0.2964    1.6060 H   0  0  0  0  0  0  0  0  0  0  0  0
   -0.9029   -2.6976    1.9080 H   0  0  0  0  0  0  0  0  0  0  0  0
   -1.2339   -2.8917    0.1380 H   0  0  0  0  0  0  0  0  0  0  0  0
   -3.4203   -2.3684    0.9021 H   0  0  0  0  0  0  0  0  0  0  0  0
   -2.7568   -1.4033    2.2171 H   0  0  0  0  0  0  0  0  0  0  0  0
   -2.7757    0.4646    1.0044 H   0  0  0  0  0  0  0  0  0  0  0  0
   -0.2709   -0.3461   -2.1714 H   0  0  0  0  0  0  0  0  0  0  0  0
   -1.9953   -0.6940   -2.3057 H   0  0  0  0  0  0  0  0  0  0  0  0
   -0.8296   -1.9402   -1.6114 H   0  0  0  0  0  0  0  0  0  0  0  0
    2.1184   -0.4342   -2.2925 H   0  0  0  0  0  0  0  0  0  0  0  0
    2.9573   -1.7272   -1.2729 H   0  0  0  0  0  0  0  0  0  0  0  0
    3.8783   -0.5026   -2.1535 H   0  0  0  0  0  0  0  0  0  0  0  0
   -3.7829   -1.0894   -1.4468 H   0  0  0  0  0  0  0  0  0  0  0  0
   -3.5223    1.8561   -0.5326 H   0  0  0  0  0  0  0  0  0  0  0  0
   -3.3970    1.2059   -2.1895 H   0  0  0  0  0  0  0  0  0  0  0  0
   -5.7829    0.8759   -2.1674 H   0  0  0  0  0  0  0  0  0  0  0  0
   -5.9931    2.7063    0.1237 H   0  0  0  0  0  0  0  0  0  0  0  0
   -7.0908    1.4387   -0.4754 H   0  0  0  0  0  0  0  0  0  0  0  0
   -4.7118    1.1191    1.3086 H   0  0  0  0  0  0  0  0  0  0  0  0
   -6.3695    0.4584    1.5283 H   0  0  0  0  0  0  0  0  0  0  0  0
   -5.2326   -1.4946    0.5729 H   0  0  0  0  0  0  0  0  0  0  0  0
   -5.9124   -0.6608   -0.8286 H   0  0  0  0  0  0  0  0  0  0  0  0
  1  2  1  0
  2  3  1  0
  3  4  1  0
  3  5  1  0
  5  6  1  0
  6  7  1  0
  7  8  1  0
  8  9  1  0
  9 10  1  0
  1 11  1  0
  6 11  1  0
 10 11  1  0
 10 12  1  0
 12 13  1  0
 13 14  1  0
  9 15  1  0
 14 15  1  0
 15 16  1  0
 16 17  1  0
 14 18  1  0
 17 18  1  0
 14 19  1  6
 11 20  1  6
 18 21  1  0
 21 22  1  0
 22 23  1  0
 24 23  1  0
 24 25  1  0
 21 26  1  0
 25 26  1  0
 27 28  1  0
 28 29  1  0
 29 30  1  0
 29 31  1  0
 31 32  1  0
 32 33  1  0
 33 34  1  0
 34 35  1  0
 35 36  1  0
 27 37  1  0
 32 37  1  0
 36 37  1  0
 36 38  1  0
 38 39  1  0
 39 40  1  0
 35 41  1  0
 40 41  1  0
 41 42  1  0
 42 43  1  0
 40 44  1  0
 43 44  1  0
 40 45  1  6
 37 46  1  6
 44 47  1  0
 47 48  1  0
 48 49  1  0
 50 49  1  0
 50 51  1  0
 47 52  1  0
 51 52  1  0
 53 54  1  0
 54 55  1  0
 55 56  1  0
 55 57  1  0
 57 58  1  0
 58 59  1  0
 59 60  1  0
 60 61  1  0
 61 62  1  0
 53 63  1  0
 58 63  1  0
 62 63  1  0
 62 64  1  0
 64 65  1  0
 65 66  1  0
 61 67  1  0
 66 67  1  0
 67 68  1  0
 68 69  1  0
 66 70  1  0
 69 70  1  0
 66 71  1  6
 63 72  1  6
 70 73  1  0
 73 74  1  0
 74 75  1  0
 76 75  1  0
 76 77  1  0
 73 78  1  0
 77 78  1  0
 79 80  1  0
 80 81  1  0
 81 82  1  0
 81 83  1  0
 83 84  1  0
 84 85  1  0
 85 86  1  0
 86 87  1  0
 87 88  1  0
 79 89  1  0
 84 89  1  0
 88 89  1  0
 88 90  1  0
 90 91  1  0
 91 92  1  0
 87 93  1  0
 92 93  1  0
 93 94  1  0
 94 95  1  0
 92 96  1  0
 95 96  1  0
 92 97  1  6
 89 98  1  6
 96 99  1  0
 99100  1  0
100101  1  0
102101  1  0
102103  1  0
 99104  1  0
103104  1  0
  1105  1  0
  1106  1  0
  2107  1  0
  2108  1  0
  3109  1  1
  4110  1  0
  5111  1  0
  5112  1  0
  6113  1  0
  7114  1  0
  7115  1  0
  8116  1  0
  8117  1  0
  9118  1  6
 10119  1  1
 12120  1  0
 12121  1  0
 13122  1  0
 13123  1  0
 15124  1  1
 16125  1  0
 16126  1  0
 17127  1  0
 17128  1  0
 18129  1  0
 19130  1  0
 19131  1  0
 19132  1  0
 20133  1  0
 20134  1  0
 20135  1  0
 21136  1  0
 22137  1  0
 22138  1  0
 23139  1  0
 24140  1  0
 24141  1  0
 25142  1  0
 25143  1  0
 26144  1  0
 26145  1  0
 27146  1  0
 27147  1  0
 28148  1  0
 28149  1  0
 29150  1  1
 30151  1  0
 31152  1  0
 31153  1  0
 32154  1  0
 33155  1  0
 33156  1  0
 34157  1  0
 34158  1  0
 35159  1  6
 36160  1  1
 38161  1  0
 38162  1  0
 39163  1  0
 39164  1  0
 41165  1  1
 42166  1  0
 42167  1  0
 43168  1  0
 43169  1  0
 44170  1  0
 45171  1  0
 45172  1  0
 45173  1  0
 46174  1  0
 46175  1  0
 46176  1  0
 47177  1  0
 48178  1  0
 48179  1  0
 49180  1  0
 50181  1  0
 50182  1  0
 51183  1  0
 51184  1  0
 52185  1  0
 52186  1  0
 53187  1  0
 53188  1  0
 54189  1  0
 54190  1  0
 55191  1  1
 56192  1  0
 57193  1  0
 57194  1  0
 58195  1  0
 59196  1  0
 59197  1  0
 60198  1  0
 60199  1  0
 61200  1  6
 62201  1  1
 64202  1  0
 64203  1  0
 65204  1  0
 65205  1  0
 67206  1  1
 68207  1  0
 68208  1  0
 69209  1  0
 69210  1  0
 70211  1  6
 71212  1  0
 71213  1  0
 71214  1  0
 72215  1  0
 72216  1  0
 72217  1  0
 73218  1  6
 74219  1  0
 74220  1  0
 75221  1  0
 76222  1  0
 76223  1  0
 77224  1  0
 77225  1  0
 78226  1  0
 78227  1  0
 79228  1  0
 79229  1  0
 80230  1  0
 80231  1  0
 81232  1  1
 82233  1  0
 83234  1  0
 83235  1  0
 84236  1  6
 85237  1  0
 85238  1  0
 86239  1  0
 86240  1  0
 87241  1  6
 88242  1  1
 90243  1  0
 90244  1  0
 91245  1  0
 91246  1  0
 93247  1  1
 94248  1  0
 94249  1  0
 95250  1  0
 95251  1  0
 96252  1  0
 97253  1  0
 97254  1  0
 97255  1  0
 98256  1  0
 98257  1  0
 98258  1  0
 99259  1  0
100260  1  0
100261  1  0
101262  1  0
102263  1  0
102264  1  0
103265  1  0
103266  1  0
104267  1  0
104268  1  0
M  END
>  <PDBID>  (1) 
3RUK

>  <PDB ID>  (1) 
3RUK

>  <Generic Name>  (1) 
Abiraterone

>  <Brand Name>  (1) 
Zytiga

>  <DrugBank ID>  (1) 
DB05812

>  <ATC Codes>  (1) 
L02BX03

>  <Ligand ID>  (1) 
AER

>  <Target Name>  (1) 
Steroid 17-alpha-hydroxylase/17,20 lyase

>  <UniProt ID>  (1) 
P05093

>  <PDB ID.1>  (1) 
3RUK

>  <Seq. Identity>  (1) 
97%

$$$$
