PDB_DB08895_00
     RDKit          3D

114118  0  0  0  0  0  0  0  0999 V2000
    0.1991   -0.9459   -0.5487 C   0  0  1  0  0  0  0  0  0  0  0  0
    1.0202    0.0747    0.1735 C   0  0  0  0  0  0  0  0  0  0  0  0
    2.6839   -1.5916   -0.4415 C   0  0  0  0  0  0  0  0  0  0  0  0
    1.7973   -2.6620    0.0603 C   0  0  0  0  0  0  0  0  0  0  0  0
    0.3403   -2.2624    0.1777 C   0  0  1  0  0  0  0  0  0  0  0  0
    2.3900   -0.2716    0.0000 N   0  0  0  0  0  0  0  0  0  0  0  0
    3.6922    0.0642   -1.9017 O   0  0  0  0  0  0  0  0  0  0  0  0
    3.2322    0.6521   -0.6974 C   0  0  0  0  0  0  0  0  0  0  0  0
    4.4087    0.9538    0.1977 C   0  0  0  0  0  0  0  0  0  0  0  0
    4.0752    1.6194    1.4932 C   0  0  0  0  0  0  0  0  0  0  0  0
    5.2982    1.7791    2.3119 N   0  0  0  0  0  0  0  0  0  0  0  0
   -0.0035   -2.1950    1.6402 C   0  0  0  0  0  0  0  0  0  0  0  0
   -1.0655   -0.7182   -0.9997 N   0  0  0  0  0  0  0  0  0  0  0  0
   -1.3567   -1.5544   -2.1711 C   0  0  0  0  0  0  0  0  0  0  0  0
   -1.8425    0.4116   -0.9960 C   0  0  0  0  0  0  0  0  0  0  0  0
   -2.3215    0.9092    0.3175 C   0  0  0  0  0  0  0  0  0  0  0  0
   -3.1288   -0.0363    1.1441 C   0  0  0  0  0  0  0  0  0  0  0  0
   -4.3362    0.7802    1.5992 C   0  0  0  0  0  0  0  0  0  0  0  0
   -3.9024    2.1715    1.4443 N   0  0  0  0  0  0  0  0  0  0  0  0
   -3.2138    2.1381    0.1501 C   0  0  0  0  0  0  0  0  0  0  0  0
   -4.1694    2.0052   -0.9143 N   0  0  0  0  0  0  0  0  0  0  0  0
   -4.1669    0.7718   -1.6194 C   0  0  0  0  0  0  0  0  0  0  0  0
   -2.8794    0.3019   -2.0155 N   0  0  0  0  0  0  0  0  0  0  0  0
    0.1991   -0.9459   -0.5487 C   0  0  1  0  0  0  0  0  0  0  0  0
    1.0202    0.0747    0.1735 C   0  0  0  0  0  0  0  0  0  0  0  0
    2.6839   -1.5916   -0.4415 C   0  0  0  0  0  0  0  0  0  0  0  0
    1.7973   -2.6620    0.0603 C   0  0  0  0  0  0  0  0  0  0  0  0
    0.3403   -2.2624    0.1777 C   0  0  1  0  0  0  0  0  0  0  0  0
    2.3900   -0.2716    0.0000 N   0  0  0  0  0  0  0  0  0  0  0  0
    3.6922    0.0642   -1.9017 O   0  0  0  0  0  0  0  0  0  0  0  0
    3.2322    0.6521   -0.6974 C   0  0  0  0  0  0  0  0  0  0  0  0
    4.4087    0.9538    0.1977 C   0  0  0  0  0  0  0  0  0  0  0  0
    4.0752    1.6194    1.4932 C   0  0  0  0  0  0  0  0  0  0  0  0
    5.2982    1.7791    2.3119 N   0  0  0  0  0  0  0  0  0  0  0  0
   -0.0035   -2.1950    1.6402 C   0  0  0  0  0  0  0  0  0  0  0  0
   -1.0655   -0.7182   -0.9997 N   0  0  0  0  0  0  0  0  0  0  0  0
   -1.3567   -1.5544   -2.1711 C   0  0  0  0  0  0  0  0  0  0  0  0
   -1.8425    0.4116   -0.9960 C   0  0  0  0  0  0  0  0  0  0  0  0
   -2.3215    0.9092    0.3175 C   0  0  0  0  0  0  0  0  0  0  0  0
   -3.1288   -0.0363    1.1441 C   0  0  0  0  0  0  0  0  0  0  0  0
   -4.3362    0.7802    1.5992 C   0  0  0  0  0  0  0  0  0  0  0  0
   -3.9024    2.1715    1.4443 N   0  0  0  0  0  0  0  0  0  0  0  0
   -3.2138    2.1381    0.1501 C   0  0  0  0  0  0  0  0  0  0  0  0
   -4.1694    2.0052   -0.9143 N   0  0  0  0  0  0  0  0  0  0  0  0
   -4.1669    0.7718   -1.6194 C   0  0  0  0  0  0  0  0  0  0  0  0
   -2.8794    0.3019   -2.0155 N   0  0  0  0  0  0  0  0  0  0  0  0
    0.8453   -1.1343   -1.5222 H   0  0  0  0  0  0  0  0  0  0  0  0
    0.8700    1.1077   -0.1821 H   0  0  0  0  0  0  0  0  0  0  0  0
    0.7699    0.0147    1.2502 H   0  0  0  0  0  0  0  0  0  0  0  0
    2.8469   -1.6406   -1.5609 H   0  0  0  0  0  0  0  0  0  0  0  0
    3.7249   -1.8108   -0.0414 H   0  0  0  0  0  0  0  0  0  0  0  0
    1.8427   -3.5305   -0.6526 H   0  0  0  0  0  0  0  0  0  0  0  0
    2.1700   -3.0058    1.0471 H   0  0  0  0  0  0  0  0  0  0  0  0
   -0.3059   -3.0387   -0.2862 H   0  0  0  0  0  0  0  0  0  0  0  0
    4.3233    0.7040   -2.3098 H   0  0  0  0  0  0  0  0  0  0  0  0
    2.7320    1.5878   -1.0148 H   0  0  0  0  0  0  0  0  0  0  0  0
    5.2111    1.4792   -0.3685 H   0  0  0  0  0  0  0  0  0  0  0  0
    4.9163   -0.0260    0.4959 H   0  0  0  0  0  0  0  0  0  0  0  0
    3.8234    2.7139    1.2406 H   0  0  0  0  0  0  0  0  0  0  0  0
    3.2854    1.1588    2.0736 H   0  0  0  0  0  0  0  0  0  0  0  0
    6.0922    1.4016    1.7091 H   0  0  0  0  0  0  0  0  0  0  0  0
    5.2470    1.1854    3.1797 H   0  0  0  0  0  0  0  0  0  0  0  0
    0.9454   -2.1471    2.2566 H   0  0  0  0  0  0  0  0  0  0  0  0
   -0.6631   -1.3697    1.9316 H   0  0  0  0  0  0  0  0  0  0  0  0
   -0.5545   -3.1464    1.9225 H   0  0  0  0  0  0  0  0  0  0  0  0
   -2.4378   -1.7448   -2.2575 H   0  0  0  0  0  0  0  0  0  0  0  0
   -0.9815   -1.0237   -3.0660 H   0  0  0  0  0  0  0  0  0  0  0  0
   -0.8610   -2.5209   -2.1506 H   0  0  0  0  0  0  0  0  0  0  0  0
   -1.2591    1.3440   -1.4123 H   0  0  0  0  0  0  0  0  0  0  0  0
   -1.4649    1.2611    0.9241 H   0  0  0  0  0  0  0  0  0  0  0  0
   -2.6150   -0.2765    2.1281 H   0  0  0  0  0  0  0  0  0  0  0  0
   -3.3936   -0.9835    0.6910 H   0  0  0  0  0  0  0  0  0  0  0  0
   -5.2411    0.5725    1.0312 H   0  0  0  0  0  0  0  0  0  0  0  0
   -4.5766    0.6324    2.6654 H   0  0  0  0  0  0  0  0  0  0  0  0
   -3.1649    2.3845    2.1473 H   0  0  0  0  0  0  0  0  0  0  0  0
   -2.5748    3.0032   -0.0139 H   0  0  0  0  0  0  0  0  0  0  0  0
   -4.2277    2.8163   -1.5498 H   0  0  0  0  0  0  0  0  0  0  0  0
   -4.7127    0.9854   -2.5947 H   0  0  0  0  0  0  0  0  0  0  0  0
   -4.7843   -0.0329   -1.1694 H   0  0  0  0  0  0  0  0  0  0  0  0
   -2.5779    0.6844   -2.9458 H   0  0  0  0  0  0  0  0  0  0  0  0
    0.8453   -1.1343   -1.5222 H   0  0  0  0  0  0  0  0  0  0  0  0
    0.8700    1.1077   -0.1821 H   0  0  0  0  0  0  0  0  0  0  0  0
    0.7699    0.0147    1.2502 H   0  0  0  0  0  0  0  0  0  0  0  0
    2.8469   -1.6406   -1.5609 H   0  0  0  0  0  0  0  0  0  0  0  0
    3.7249   -1.8108   -0.0414 H   0  0  0  0  0  0  0  0  0  0  0  0
    1.8427   -3.5305   -0.6526 H   0  0  0  0  0  0  0  0  0  0  0  0
    2.1700   -3.0058    1.0471 H   0  0  0  0  0  0  0  0  0  0  0  0
   -0.3059   -3.0387   -0.2862 H   0  0  0  0  0  0  0  0  0  0  0  0
    4.3233    0.7040   -2.3098 H   0  0  0  0  0  0  0  0  0  0  0  0
    2.7320    1.5878   -1.0148 H   0  0  0  0  0  0  0  0  0  0  0  0
    5.2111    1.4792   -0.3685 H   0  0  0  0  0  0  0  0  0  0  0  0
    4.9163   -0.0260    0.4959 H   0  0  0  0  0  0  0  0  0  0  0  0
    3.8234    2.7139    1.2406 H   0  0  0  0  0  0  0  0  0  0  0  0
    3.2854    1.1588    2.0736 H   0  0  0  0  0  0  0  0  0  0  0  0
    6.0922    1.4016    1.7091 H   0  0  0  0  0  0  0  0  0  0  0  0
    5.2470    1.1854    3.1797 H   0  0  0  0  0  0  0  0  0  0  0  0
    0.9454   -2.1471    2.2566 H   0  0  0  0  0  0  0  0  0  0  0  0
   -0.6631   -1.3697    1.9316 H   0  0  0  0  0  0  0  0  0  0  0  0
   -0.5545   -3.1464    1.9225 H   0  0  0  0  0  0  0  0  0  0  0  0
   -2.4378   -1.7448   -2.2575 H   0  0  0  0  0  0  0  0  0  0  0  0
   -0.9815   -1.0237   -3.0660 H   0  0  0  0  0  0  0  0  0  0  0  0
   -0.8610   -2.5209   -2.1506 H   0  0  0  0  0  0  0  0  0  0  0  0
   -1.2591    1.3440   -1.4123 H   0  0  0  0  0  0  0  0  0  0  0  0
   -1.4649    1.2611    0.9241 H   0  0  0  0  0  0  0  0  0  0  0  0
   -2.6150   -0.2765    2.1281 H   0  0  0  0  0  0  0  0  0  0  0  0
   -3.3936   -0.9835    0.6910 H   0  0  0  0  0  0  0  0  0  0  0  0
   -5.2411    0.5725    1.0312 H   0  0  0  0  0  0  0  0  0  0  0  0
   -4.5766    0.6324    2.6654 H   0  0  0  0  0  0  0  0  0  0  0  0
   -3.1649    2.3845    2.1473 H   0  0  0  0  0  0  0  0  0  0  0  0
   -2.5748    3.0032   -0.0139 H   0  0  0  0  0  0  0  0  0  0  0  0
   -4.2277    2.8163   -1.5498 H   0  0  0  0  0  0  0  0  0  0  0  0
   -4.7127    0.9854   -2.5947 H   0  0  0  0  0  0  0  0  0  0  0  0
   -4.7843   -0.0329   -1.1694 H   0  0  0  0  0  0  0  0  0  0  0  0
   -2.5779    0.6844   -2.9458 H   0  0  0  0  0  0  0  0  0  0  0  0
  1  2  1  0
  3  4  1  0
  1  5  1  0
  4  5  1  0
  2  6  1  0
  3  6  1  0
  6  8  1  0
  7  8  1  0
  8  9  1  0
  9 10  1  0
 10 11  1  0
  5 12  1  0
  1 13  1  0
 13 14  1  0
 13 15  1  0
 15 16  1  0
 16 17  1  0
 17 18  1  0
 18 19  1  0
 16 20  1  0
 19 20  1  0
 20 21  1  0
 21 22  1  0
 15 23  1  0
 22 23  1  0
 24 25  1  0
 26 27  1  0
 24 28  1  0
 27 28  1  0
 25 29  1  0
 26 29  1  0
 29 31  1  0
 30 31  1  0
 31 32  1  0
 32 33  1  0
 33 34  1  0
 28 35  1  0
 24 36  1  0
 36 37  1  0
 36 38  1  0
 38 39  1  0
 39 40  1  0
 40 41  1  0
 41 42  1  0
 39 43  1  0
 42 43  1  0
 43 44  1  0
 44 45  1  0
 38 46  1  0
 45 46  1  0
  1 47  1  6
  2 48  1  0
  2 49  1  0
  3 50  1  0
  3 51  1  0
  4 52  1  0
  4 53  1  0
  5 54  1  6
  7 55  1  0
  8 56  1  0
  9 57  1  0
  9 58  1  0
 10 59  1  0
 10 60  1  0
 11 61  1  0
 11 62  1  0
 12 63  1  0
 12 64  1  0
 12 65  1  0
 14 66  1  0
 14 67  1  0
 14 68  1  0
 15 69  1  0
 16 70  1  0
 17 71  1  0
 17 72  1  0
 18 73  1  0
 18 74  1  0
 19 75  1  0
 20 76  1  0
 21 77  1  0
 22 78  1  0
 22 79  1  0
 23 80  1  0
 24 81  1  6
 25 82  1  0
 25 83  1  0
 26 84  1  0
 26 85  1  0
 27 86  1  0
 27 87  1  0
 28 88  1  6
 30 89  1  0
 31 90  1  0
 32 91  1  0
 32 92  1  0
 33 93  1  0
 33 94  1  0
 34 95  1  0
 34 96  1  0
 35 97  1  0
 35 98  1  0
 35 99  1  0
 37100  1  0
 37101  1  0
 37102  1  0
 38103  1  0
 39104  1  0
 40105  1  0
 40106  1  0
 41107  1  0
 41108  1  0
 42109  1  0
 43110  1  0
 44111  1  0
 45112  1  0
 45113  1  0
 46114  1  0
M  END
>  <PDBID>  (1) 
3FUP

>  <PDB ID>  (1) 
3FUP

>  <Generic Name>  (1) 
Tofacitinib

>  <Brand Name>  (1) 
Xeljanz#Xeljanz XR

>  <DrugBank ID>  (1) 
DB08895

>  <ATC Codes>  (1) 
L04AA29

>  <Ligand ID>  (1) 
MI1

>  <Target Name>  (1) 
Tyrosine-protein kinase JAK2

>  <UniProt ID>  (1) 
O60674

>  <PDB ID.1>  (1) 
3FUP

>  <Seq. Identity>  (1) 
100%

$$$$
