PDB_DB00184_03
     RDKit          3D

 64 66  0  0  0  0  0  0  0  0999 V2000
    2.4075    0.6273    1.4799 N   0  0  0  0  0  0  0  0  0  0  0  0
    0.9954    0.8105    1.0911 C   0  0  0  0  0  0  0  0  0  0  0  0
    0.4281   -0.5398    0.8836 C   0  0  0  0  0  0  0  0  0  0  0  0
    1.4489   -1.4690    0.2269 C   0  0  0  0  0  0  0  0  0  0  0  0
    2.4984   -0.7084   -0.5266 C   0  0  0  0  0  0  0  0  0  0  0  0
    3.1176    0.4151    0.2324 C   0  0  0  0  0  0  0  0  0  0  0  0
   -1.9716    0.0246    0.6661 N   0  0  0  0  0  0  0  0  0  0  0  0
   -0.8329   -0.6442    0.1356 C   0  0  1  0  0  0  0  0  0  0  0  0
   -0.8050   -0.2004   -1.2874 C   0  0  0  0  0  0  0  0  0  0  0  0
   -2.2894   -0.2016   -1.6147 C   0  0  0  0  0  0  0  0  0  0  0  0
   -3.0054   -0.4494   -0.2776 C   0  0  0  0  0  0  0  0  0  0  0  0
   -1.9847    1.4430    0.5950 C   0  0  0  0  0  0  0  0  0  0  0  0
    2.4075    0.6273    1.4799 N   0  0  0  0  0  0  0  0  0  0  0  0
    0.9954    0.8105    1.0911 C   0  0  0  0  0  0  0  0  0  0  0  0
    0.4281   -0.5398    0.8836 C   0  0  0  0  0  0  0  0  0  0  0  0
    1.4489   -1.4690    0.2269 C   0  0  0  0  0  0  0  0  0  0  0  0
    2.4984   -0.7084   -0.5266 C   0  0  0  0  0  0  0  0  0  0  0  0
    3.1176    0.4151    0.2324 C   0  0  0  0  0  0  0  0  0  0  0  0
   -1.9716    0.0246    0.6661 N   0  0  0  0  0  0  0  0  0  0  0  0
   -0.8329   -0.6442    0.1356 C   0  0  1  0  0  0  0  0  0  0  0  0
   -0.8050   -0.2004   -1.2874 C   0  0  0  0  0  0  0  0  0  0  0  0
   -2.2894   -0.2016   -1.6147 C   0  0  0  0  0  0  0  0  0  0  0  0
   -3.0054   -0.4494   -0.2776 C   0  0  0  0  0  0  0  0  0  0  0  0
   -1.9847    1.4430    0.5950 C   0  0  0  0  0  0  0  0  0  0  0  0
    2.6980    1.5412    1.9052 H   0  0  0  0  0  0  0  0  0  0  0  0
    0.5321    1.3154    1.9693 H   0  0  0  0  0  0  0  0  0  0  0  0
    1.0313    1.4445    0.1894 H   0  0  0  0  0  0  0  0  0  0  0  0
    0.2515   -0.9904    1.9027 H   0  0  0  0  0  0  0  0  0  0  0  0
    1.9575   -2.1168    0.9567 H   0  0  0  0  0  0  0  0  0  0  0  0
    0.9511   -2.1506   -0.5022 H   0  0  0  0  0  0  0  0  0  0  0  0
    2.1183   -0.3734   -1.5363 H   0  0  0  0  0  0  0  0  0  0  0  0
    3.3109   -1.4363   -0.7700 H   0  0  0  0  0  0  0  0  0  0  0  0
    4.2082    0.3126    0.3852 H   0  0  0  0  0  0  0  0  0  0  0  0
    2.9580    1.3603   -0.3652 H   0  0  0  0  0  0  0  0  0  0  0  0
   -1.1040   -1.7448    0.1108 H   0  0  0  0  0  0  0  0  0  0  0  0
   -0.2945   -0.9840   -1.9105 H   0  0  0  0  0  0  0  0  0  0  0  0
   -0.3262    0.7623   -1.4732 H   0  0  0  0  0  0  0  0  0  0  0  0
   -2.6260    0.7189   -2.0968 H   0  0  0  0  0  0  0  0  0  0  0  0
   -2.5283   -1.1207   -2.2258 H   0  0  0  0  0  0  0  0  0  0  0  0
   -3.1889   -1.5067   -0.0992 H   0  0  0  0  0  0  0  0  0  0  0  0
   -3.8790    0.2087   -0.2088 H   0  0  0  0  0  0  0  0  0  0  0  0
   -1.7706    1.8775    1.6150 H   0  0  0  0  0  0  0  0  0  0  0  0
   -3.0065    1.8631    0.3516 H   0  0  0  0  0  0  0  0  0  0  0  0
   -1.2998    1.9114   -0.1008 H   0  0  0  0  0  0  0  0  0  0  0  0
    2.6980    1.5412    1.9052 H   0  0  0  0  0  0  0  0  0  0  0  0
    0.5321    1.3154    1.9693 H   0  0  0  0  0  0  0  0  0  0  0  0
    1.0313    1.4445    0.1894 H   0  0  0  0  0  0  0  0  0  0  0  0
    0.2515   -0.9904    1.9027 H   0  0  0  0  0  0  0  0  0  0  0  0
    1.9575   -2.1168    0.9567 H   0  0  0  0  0  0  0  0  0  0  0  0
    0.9511   -2.1506   -0.5022 H   0  0  0  0  0  0  0  0  0  0  0  0
    2.1183   -0.3734   -1.5363 H   0  0  0  0  0  0  0  0  0  0  0  0
    3.3109   -1.4363   -0.7700 H   0  0  0  0  0  0  0  0  0  0  0  0
    4.2082    0.3126    0.3852 H   0  0  0  0  0  0  0  0  0  0  0  0
    2.9580    1.3603   -0.3652 H   0  0  0  0  0  0  0  0  0  0  0  0
   -1.1040   -1.7448    0.1108 H   0  0  0  0  0  0  0  0  0  0  0  0
   -0.2945   -0.9840   -1.9105 H   0  0  0  0  0  0  0  0  0  0  0  0
   -0.3262    0.7623   -1.4732 H   0  0  0  0  0  0  0  0  0  0  0  0
   -2.6260    0.7189   -2.0968 H   0  0  0  0  0  0  0  0  0  0  0  0
   -2.5283   -1.1207   -2.2258 H   0  0  0  0  0  0  0  0  0  0  0  0
   -3.1889   -1.5067   -0.0992 H   0  0  0  0  0  0  0  0  0  0  0  0
   -3.8790    0.2087   -0.2088 H   0  0  0  0  0  0  0  0  0  0  0  0
   -1.7706    1.8775    1.6150 H   0  0  0  0  0  0  0  0  0  0  0  0
   -3.0065    1.8631    0.3516 H   0  0  0  0  0  0  0  0  0  0  0  0
   -1.2998    1.9114   -0.1008 H   0  0  0  0  0  0  0  0  0  0  0  0
  1  2  1  0
  2  3  1  0
  3  4  1  0
  4  5  1  0
  1  6  1  0
  5  6  1  0
  3  8  1  0
  7  8  1  0
  8  9  1  0
  9 10  1  0
  7 11  1  0
 10 11  1  0
  7 12  1  0
 13 14  1  0
 14 15  1  0
 15 16  1  0
 16 17  1  0
 13 18  1  0
 17 18  1  0
 15 20  1  0
 19 20  1  0
 20 21  1  0
 21 22  1  0
 19 23  1  0
 22 23  1  0
 19 24  1  0
  1 25  1  0
  2 26  1  0
  2 27  1  0
  3 28  1  0
  4 29  1  0
  4 30  1  0
  5 31  1  0
  5 32  1  0
  6 33  1  0
  6 34  1  0
  8 35  1  6
  9 36  1  0
  9 37  1  0
 10 38  1  0
 10 39  1  0
 11 40  1  0
 11 41  1  0
 12 42  1  0
 12 43  1  0
 12 44  1  0
 13 45  1  0
 14 46  1  0
 14 47  1  0
 15 48  1  0
 16 49  1  0
 16 50  1  0
 17 51  1  0
 17 52  1  0
 18 53  1  0
 18 54  1  0
 20 55  1  6
 21 56  1  0
 21 57  1  0
 22 58  1  0
 22 59  1  0
 23 60  1  0
 23 61  1  0
 24 62  1  0
 24 63  1  0
 24 64  1  0
M  END
>  <PDBID>  (1) 
5KXI

>  <PDB ID>  (1) 
5KXI

>  <Generic Name>  (1) 
Nicotine

>  <Brand Name>  (1) 
American Fare Nicotine Transdermal System#Berkley and Jensen Nicotine#Berkley and Jensen Nicotine Polacrilex#Care One Nicotine#Careone Mini Nicotine Polacrilex#Careone Nicotine#Careone Nicotine Polacrilex#Careone Nicotine Transdermal System Step 1#Careone Nicotine Transdermal System Step 2#Careone Nicotine Transdermal System Step 3#Equaline Nicotine#Equate Nicotine#Exchange Select Nicotine Transdermal System Step 3#Good Neighbor Pharmacy Nicotine#Good Neighbor Pharmacy Nicotine Mini#Good Sense Nicotine#Good Sense Nicotine Mint#Good Sense Nicotine Stop Smoking Aid#Habitrol Patch Nicotine Transdermal System, Step 1#Habitrol Patch Nicotine Transdermal System, Step 2#Habitrol Patch Nicotine Transdermal System, Step 3#Harris Teeter Nicotine#Health Mart Nicotine#Health Mart Nicotine Polacrilex#Healthmart Nicotine Transdermal System Step 1#Healthmart Nicotine Transdermal System Step 2#Healthmart Nicotine Transdermal System Step 3#Healthy Accents Nicotine#Humana Pharmacy Nicotine#In Control Nicotine#Kirkland Signature Quit 2#Kirkland Signature Quit 4#Kroger Nicotine Transdermal System Step 1#Kroger Nicotine Transdermal System Step 2#Kroger Nicotine Transdermal System Step 3#Leader Nicotine#Leader Nicotine Transdermal System Step 1#Leader Nicotine Transdermal System Step 2#Leader Nicotine Transdermal System Step 3#Meijer Nicotine Transdermal System Step 1#Meijer Nicotine Transdermal System Step 2#Meijer Nicotine Transdermal System Step 3#Members Mark Mini Nicotine#Members Mark Nicotine#Mini Nicotine#Nicoderm Cq#Nicoderm Trd 114mg Nicotine/21#Nicoderm Trd 36mg Nicotine/7 Sqcm Patch#Nicoderm Trd 78mg Nicotine/14#Nicorelief#Nicorette#Nicorette Cinnamon Surge#Nicorette Fresh Mint#Nicorette Fruit Chill#Nicorette Gum 2mg#Nicorette Invisipatch#Nicorette Mint#Nicorette Original#Nicorette Plus 4mg#Nicorette Spearmint Burst#Nicorette White Ice Mint#Nicotine#Nicotine Coated Mint#Nicotine Gum#Nicotine Mini#Nicotine Mint Flavor#Nicotine Original#Nicotine Polacrilex#Nicotine Polacrilex Stop Smoking Aid#Nicotine Polacrilex, Coated Fruit Flavor#Nicotine Polacrilex, Coated Mint Flavor#Nicotine Polacrilex, Original#Nicotine Stop Smoking Aid#Nicotine Transdermal System#Nicotine Transdermal System Patch Kit#Nicotine Transdermal System Step 1#Nicotine Transdermal System Step 2#Nicotine Transdermal System Step 3#Nicotine Un1654#Nicotrol#Nicotrol (professional Sample)#Nictoine Gum#Preferred Plus Nicotine#Preferred Plus Nicotine Polacrilex Gum, Original Flavor#Rexall Nicotine#Rite Aid Nicotine Transdermal System Step 1#Rite Aid Nicotine Transdermal System Step 2#Rite Aid Nicotine Transdermal System Step 3#Rugby Nicotine#Rugby Nicotine Polacrilex Gum, Coated Cinnamon Flavor#Rugby Nicotine Polacrilex Gum, Coated Fruit Flavor#Rugby Nicotine Polacrilex Gum, Coated Mint Flavor#Rugby Nicotine Polacrilex Gum, Mint Flavor#Rugby Nicotine Polacrilex Gum, Original Flavor#Safeway Nicotine Transdermal System Step 1#Safeway Nicotine Transdermal System Step 2#Safeway Nicotine Transdermal System Step 3#Signature Care Nicotine#Simply Right Nicotine#Smart Sense Nicotine#Smart Sense Nicotine Mint#Smart Sense Nicotine Polacrilex#Stop Smoking Aid#Stop Smoking Aid Nicotine#Sunmark Nicotine#Sunmark Nicotine Transdermal System Step 1#Sunmark Nicotine Transdermal System Step 2#Sunmark Nicotine Transdermal System Step 3#Topcare Nicotine#Topcare Nicotine Gum#Topcare Nicotine Polacrilex#Topcare Nicotine Stop Smoking Aid#Tru Relief Nicotine#Up and Up Nicotine#Up and Up Nicotine Polacrilex#Zonnic#Zonnic Nicotine#Zonnic Nicotine Mini#Zonnic Nicotine Polacrilex#Habitrol#Nicoderm

>  <DrugBank ID>  (1) 
DB00184

>  <ATC Codes>  (1) 
N07BA01

>  <Ligand ID>  (1) 
NCT

>  <Target Name>  (1) 
Neuronal acetylcholine receptor subunit alpha-4

>  <UniProt ID>  (1) 
P43681

>  <PDB ID.1>  (1) 
5KXI

>  <Seq. Identity>  (1) 
54%

$$$$
