PDB_DB01015_00
     RDKit          3D

 40 41  0  0  0  0  0  0  0  0999 V2000
    0.3256    1.6056    1.0546 O   0  0  0  0  0  0  0  0  0  0  0  0
    0.1170    0.2947    0.0055 S   0  0  0  0  0  0  0  0  0  0  0  0
    0.3740    1.2131   -1.5679 O   0  0  0  0  0  0  0  0  0  0  0  0
   -1.5317    0.0534   -0.0725 C   0  0  0  0  0  0  0  0  0  0  0  0
   -2.0139   -1.1120   -0.8748 C   0  0  0  0  0  0  0  0  0  0  0  0
   -3.4918   -0.8684   -1.1796 C   0  0  0  0  0  0  0  0  0  0  0  0
   -2.1128   -0.1263    1.3377 C   0  0  0  0  0  0  0  0  0  0  0  0
   -3.5807   -0.3840    1.2842 C   0  0  0  0  0  0  0  0  0  0  0  0
   -4.2013   -0.1850   -0.0585 C   0  0  0  0  0  0  0  0  0  0  0  0
   -4.4122    1.2324   -0.3056 N   0  0  0  0  0  0  0  0  0  0  0  0
    1.1400   -0.6961    0.0453 N   0  0  0  0  0  0  0  0  0  0  0  0
    2.3862   -0.5884   -0.7118 C   0  0  0  0  0  0  0  0  0  0  0  0
    3.2596   -1.6947   -0.5182 N   0  0  0  0  0  0  0  0  0  0  0  0
    4.4038   -1.2533    0.0308 O   0  0  0  0  0  0  0  0  0  0  0  0
    4.6071    0.0446   -0.3762 C   0  0  0  0  0  0  0  0  0  0  0  0
    3.1899    0.6193   -0.2569 C   0  0  0  0  0  0  0  0  0  0  0  0
    5.5691    0.7690    0.5060 C   0  0  0  0  0  0  0  0  0  0  0  0
    0.3780    1.2211    1.9528 H   0  0  0  0  0  0  0  0  0  0  0  0
   -0.2823    1.9167   -1.4123 H   0  0  0  0  0  0  0  0  0  0  0  0
   -2.0510    0.9726   -0.4671 H   0  0  0  0  0  0  0  0  0  0  0  0
   -1.4502   -1.2726   -1.8117 H   0  0  0  0  0  0  0  0  0  0  0  0
   -1.9937   -2.0354   -0.2463 H   0  0  0  0  0  0  0  0  0  0  0  0
   -3.9903   -1.7734   -1.5496 H   0  0  0  0  0  0  0  0  0  0  0  0
   -3.4871   -0.1492   -2.0488 H   0  0  0  0  0  0  0  0  0  0  0  0
   -1.6254   -1.0652    1.7210 H   0  0  0  0  0  0  0  0  0  0  0  0
   -1.8074    0.6952    1.9960 H   0  0  0  0  0  0  0  0  0  0  0  0
   -4.0687    0.3571    1.9814 H   0  0  0  0  0  0  0  0  0  0  0  0
   -3.8847   -1.3786    1.6698 H   0  0  0  0  0  0  0  0  0  0  0  0
   -5.2371   -0.6320   -0.0073 H   0  0  0  0  0  0  0  0  0  0  0  0
   -4.4464    1.7126    0.6285 H   0  0  0  0  0  0  0  0  0  0  0  0
   -5.3517    1.4083   -0.7423 H   0  0  0  0  0  0  0  0  0  0  0  0
    1.0829   -1.6874    0.3575 H   0  0  0  0  0  0  0  0  0  0  0  0
    2.1889   -0.4492   -1.7872 H   0  0  0  0  0  0  0  0  0  0  0  0
    3.5067   -2.2234   -1.3770 H   0  0  0  0  0  0  0  0  0  0  0  0
    4.9160    0.1418   -1.4400 H   0  0  0  0  0  0  0  0  0  0  0  0
    3.0707    1.4870   -0.9057 H   0  0  0  0  0  0  0  0  0  0  0  0
    2.9781    0.8530    0.8232 H   0  0  0  0  0  0  0  0  0  0  0  0
    6.3873    1.2224   -0.1169 H   0  0  0  0  0  0  0  0  0  0  0  0
    6.0482    0.1300    1.2460 H   0  0  0  0  0  0  0  0  0  0  0  0
    5.0912    1.6248    1.0259 H   0  0  0  0  0  0  0  0  0  0  0  0
  2  1  1  0
  2  3  1  0
  2  4  1  0
  4  5  1  0
  5  6  1  0
  4  7  1  0
  7  8  1  0
  6  9  1  0
  8  9  1  0
  9 10  1  0
  2 11  1  0
 11 12  1  0
 12 13  1  0
 13 14  1  0
 14 15  1  0
 12 16  1  0
 15 16  1  0
 15 17  1  0
  1 18  1  0
  3 19  1  0
  4 20  1  0
  5 21  1  0
  5 22  1  0
  6 23  1  0
  6 24  1  0
  7 25  1  0
  7 26  1  0
  8 27  1  0
  8 28  1  0
  9 29  1  0
 10 30  1  0
 10 31  1  0
 11 32  1  0
 12 33  1  0
 13 34  1  0
 15 35  1  0
 16 36  1  0
 16 37  1  0
 17 38  1  0
 17 39  1  0
 17 40  1  0
M  END
>  <PDBID>  (1) 
3TZF

>  <PDB ID>  (1) 
3TZF

>  <Generic Name>  (1) 
Sulfamethoxazole

>  <Brand Name>  (1) 
Apo Sulfamethoxazole Tab 500mg#Apo Sulfatrim DS Tab#Apo Sulfatrim Pediatric#Apo Sulfatrim Tab#Apo-sulfatrim Oral Suspension#Bactrim#Bactrim DS#Bactrim DS Roche Tab#Bactrim Roche Inj#Bactrim Roche Suspension Paediatric#Bactrim Roche Tab#Nu-cotrimox Sus 40/8mg/ml#Nu-cotrimox Tab 400/80mg#Nu-cotrimox-DS Tab 800/160mg#Protrin Df Tab#Protrin Tab#Riva-sep DS#Roubac Tab 160/800#Roubac Tab 80/400#Septra#Septra DS Tablets#Septra Injection#Septra Pediatric Suspension#Sulfamethoxazole Tab 500mg#Sulfamethoxazole and Trimethoprim#Sulfamethoxazole and Trimethoprim (double Strength)#Sulfamethoxazole and Trimethoprim DS#Sulfamethoxazole and Trimethoprim Double Strength#Sulfamethoxazole and Trimethoprim Tablets#Sulfatrim#Teva-trimel#Teva-trimel DS#Trisulfa DS Tab#Trisulfa S Suspension#Trisulfa Tab#Gantanol#Sinomin#Urobak

>  <DrugBank ID>  (1) 
DB01015

>  <ATC Codes>  (1) 
J01EE01#J01EC01

>  <Ligand ID>  (1) 
08D

>  <Target Name>  (1) 
Dihydropteroate synthase

>  <UniProt ID>  (1) 
P0AC13

>  <PDB ID.1>  (1) 
3TZF

>  <Seq. Identity>  (1) 
75%

$$$$
