PDB_DB01764_06
     RDKit          3D

354360  0  0  0  0  0  0  0  0999 V2000
   -0.1671   -0.4478   -1.9645 O   0  0  0  0  0  0  0  0  0  0  0  0
    0.1642   -1.3665   -0.9791 C   0  0  0  0  0  0  0  0  0  0  0  0
    1.5849   -1.5227   -0.9242 N   0  0  0  0  0  0  0  0  0  0  0  0
    2.0538   -2.3072   -2.0192 C   0  0  0  0  0  0  0  0  0  0  0  0
    3.3571   -1.7262   -2.4768 C   0  0  0  0  0  0  0  0  0  0  0  0
    3.6910   -0.7320   -1.3397 C   0  0  1  0  0  0  0  0  0  0  0  0
    4.7379    0.4286   -1.9709 S   0  0  0  0  0  0  0  0  0  0  0  0
    4.1669    1.3961   -2.9728 O   0  0  0  0  0  0  0  0  0  0  0  0
    5.8621   -0.5892   -2.9805 O   0  0  0  0  0  0  0  0  0  0  0  0
    5.8574    0.9722   -0.8187 C   0  0  0  0  0  0  0  0  0  0  0  0
    6.7347   -0.1407   -0.2660 C   0  0  0  0  0  0  0  0  0  0  0  0
    7.6804    0.3417    0.7011 N   0  0  0  0  0  0  0  0  0  0  0  0
    7.0545    0.7818    1.9058 C   0  0  0  0  0  0  0  0  0  0  0  0
    8.0625    1.2654    2.9373 C   0  0  0  0  0  0  0  0  0  0  0  0
    8.6955   -0.6528    0.8991 C   0  0  0  0  0  0  0  0  0  0  0  0
    8.1701   -1.9010    1.5902 C   0  0  0  0  0  0  0  0  0  0  0  0
    2.3141   -0.2662   -0.9545 C   0  0  2  0  0  0  0  0  0  0  0  0
   -0.5204   -2.6848   -1.1268 C   0  0  2  0  0  0  0  0  0  0  0  0
   -1.5206   -2.6604   -2.2608 C   0  0  0  0  0  0  0  0  0  0  0  0
   -2.7508   -3.0408   -1.7241 O   0  0  0  0  0  0  0  0  0  0  0  0
   -1.3851   -3.0121    0.0150 N   0  0  0  0  0  0  0  0  0  0  0  0
   -2.3752   -3.8388   -0.6493 C   0  0  0  0  0  0  0  0  0  0  0  0
   -3.5118   -4.2329    0.2351 C   0  0  0  0  0  0  0  0  0  0  0  0
   -4.8099   -3.9627   -0.5312 C   0  0  1  0  0  0  0  0  0  0  0  0
   -4.8618   -4.7060   -1.7043 O   0  0  0  0  0  0  0  0  0  0  0  0
   -5.9961   -4.2206    0.3718 C   0  0  0  0  0  0  0  0  0  0  0  0
   -6.8683   -2.9716    0.3112 C   0  0  2  0  0  0  0  0  0  0  0  0
   -6.7581   -2.4838   -0.9915 O   0  0  0  0  0  0  0  0  0  0  0  0
   -6.2986   -2.0040    1.3281 C   0  0  0  0  0  0  0  0  0  0  0  0
   -6.9471   -0.6267    1.1829 C   0  0  2  0  0  0  0  0  0  0  0  0
   -8.4388   -0.8422    0.9649 C   0  0  0  0  0  0  0  0  0  0  0  0
   -6.2920    0.0492    0.0233 C   0  0  0  0  0  0  0  0  0  0  0  0
   -6.2490    1.5531    0.1479 C   0  0  0  0  0  0  0  0  0  0  0  0
   -5.4021    2.0520    1.2605 C   0  0  0  0  0  0  0  0  0  0  0  0
   -4.0429    2.3764    0.8945 N   0  0  0  0  0  0  0  0  0  0  0  0
   -3.9010    3.6055    0.1798 C   0  0  2  0  0  0  0  0  0  0  0  0
   -4.3351    3.5367   -1.1328 O   0  0  0  0  0  0  0  0  0  0  0  0
   -2.4261    3.9614    0.1432 C   0  0  0  0  0  0  0  0  0  0  0  0
   -1.5398    2.7408    0.1730 C   0  0  0  0  0  0  0  0  0  0  0  0
   -0.2138    3.0324    0.8405 C   0  0  1  0  0  0  0  0  0  0  0  0
   -0.3504    2.6536    2.2790 C   0  0  0  0  0  0  0  0  0  0  0  0
    0.8486    2.2706    0.0991 C   0  0  1  0  0  0  0  0  0  0  0  0
    2.0964    3.0923   -0.1329 C   0  0  0  0  0  0  0  0  0  0  0  0
    1.7422    4.3386   -0.9627 C   0  0  0  0  0  0  0  0  0  0  0  0
    2.7561    3.5785    1.1100 C   0  0  0  0  0  0  0  0  0  0  0  0
    1.0766    1.0194    0.5817 O   0  0  0  0  0  0  0  0  0  0  0  0
    2.2644    0.4169    0.4036 C   0  0  0  0  0  0  0  0  0  0  0  0
    2.3366   -0.6503    1.3347 O   0  0  0  0  0  0  0  0  0  0  0  0
   -0.1671   -0.4478   -1.9645 O   0  0  0  0  0  0  0  0  0  0  0  0
    0.1642   -1.3665   -0.9791 C   0  0  0  0  0  0  0  0  0  0  0  0
    1.5849   -1.5227   -0.9242 N   0  0  0  0  0  0  0  0  0  0  0  0
    2.0538   -2.3072   -2.0192 C   0  0  0  0  0  0  0  0  0  0  0  0
    3.3571   -1.7262   -2.4768 C   0  0  0  0  0  0  0  0  0  0  0  0
    3.6910   -0.7320   -1.3397 C   0  0  1  0  0  0  0  0  0  0  0  0
    4.7379    0.4286   -1.9709 S   0  0  0  0  0  0  0  0  0  0  0  0
    4.1669    1.3961   -2.9728 O   0  0  0  0  0  0  0  0  0  0  0  0
    5.8621   -0.5892   -2.9805 O   0  0  0  0  0  0  0  0  0  0  0  0
    5.8574    0.9722   -0.8187 C   0  0  0  0  0  0  0  0  0  0  0  0
    6.7347   -0.1407   -0.2660 C   0  0  0  0  0  0  0  0  0  0  0  0
    7.6804    0.3417    0.7011 N   0  0  0  0  0  0  0  0  0  0  0  0
    7.0545    0.7818    1.9058 C   0  0  0  0  0  0  0  0  0  0  0  0
    8.0625    1.2654    2.9373 C   0  0  0  0  0  0  0  0  0  0  0  0
    8.6955   -0.6528    0.8991 C   0  0  0  0  0  0  0  0  0  0  0  0
    8.1701   -1.9010    1.5902 C   0  0  0  0  0  0  0  0  0  0  0  0
    2.3141   -0.2662   -0.9545 C   0  0  2  0  0  0  0  0  0  0  0  0
   -0.5204   -2.6848   -1.1268 C   0  0  2  0  0  0  0  0  0  0  0  0
   -1.5206   -2.6604   -2.2608 C   0  0  0  0  0  0  0  0  0  0  0  0
   -2.7508   -3.0408   -1.7241 O   0  0  0  0  0  0  0  0  0  0  0  0
   -1.3851   -3.0121    0.0150 N   0  0  0  0  0  0  0  0  0  0  0  0
   -2.3752   -3.8388   -0.6493 C   0  0  0  0  0  0  0  0  0  0  0  0
   -3.5118   -4.2329    0.2351 C   0  0  0  0  0  0  0  0  0  0  0  0
   -4.8099   -3.9627   -0.5312 C   0  0  1  0  0  0  0  0  0  0  0  0
   -4.8618   -4.7060   -1.7043 O   0  0  0  0  0  0  0  0  0  0  0  0
   -5.9961   -4.2206    0.3718 C   0  0  0  0  0  0  0  0  0  0  0  0
   -6.8683   -2.9716    0.3112 C   0  0  2  0  0  0  0  0  0  0  0  0
   -6.7581   -2.4838   -0.9915 O   0  0  0  0  0  0  0  0  0  0  0  0
   -6.2986   -2.0040    1.3281 C   0  0  0  0  0  0  0  0  0  0  0  0
   -6.9471   -0.6267    1.1829 C   0  0  2  0  0  0  0  0  0  0  0  0
   -8.4388   -0.8422    0.9649 C   0  0  0  0  0  0  0  0  0  0  0  0
   -6.2920    0.0492    0.0233 C   0  0  0  0  0  0  0  0  0  0  0  0
   -6.2490    1.5531    0.1479 C   0  0  0  0  0  0  0  0  0  0  0  0
   -5.4021    2.0520    1.2605 C   0  0  0  0  0  0  0  0  0  0  0  0
   -4.0429    2.3764    0.8945 N   0  0  0  0  0  0  0  0  0  0  0  0
   -3.9010    3.6055    0.1798 C   0  0  2  0  0  0  0  0  0  0  0  0
   -4.3351    3.5367   -1.1328 O   0  0  0  0  0  0  0  0  0  0  0  0
   -2.4261    3.9614    0.1432 C   0  0  0  0  0  0  0  0  0  0  0  0
   -1.5398    2.7408    0.1730 C   0  0  0  0  0  0  0  0  0  0  0  0
   -0.2138    3.0324    0.8405 C   0  0  1  0  0  0  0  0  0  0  0  0
   -0.3504    2.6536    2.2790 C   0  0  0  0  0  0  0  0  0  0  0  0
    0.8486    2.2706    0.0991 C   0  0  1  0  0  0  0  0  0  0  0  0
    2.0964    3.0923   -0.1329 C   0  0  0  0  0  0  0  0  0  0  0  0
    1.7422    4.3386   -0.9627 C   0  0  0  0  0  0  0  0  0  0  0  0
    2.7561    3.5785    1.1100 C   0  0  0  0  0  0  0  0  0  0  0  0
    1.0766    1.0194    0.5817 O   0  0  0  0  0  0  0  0  0  0  0  0
    2.2644    0.4169    0.4036 C   0  0  0  0  0  0  0  0  0  0  0  0
    2.3366   -0.6503    1.3347 O   0  0  0  0  0  0  0  0  0  0  0  0
    1.6290   -1.7180    1.2316 O   0  0  0  0  0  0  0  0  0  0  0  0
    0.7400   -1.2757    0.2517 C   0  0  1  0  0  0  0  0  0  0  0  0
    1.3263   -0.5578   -0.8044 N   0  0  0  0  0  0  0  0  0  0  0  0
    2.1893   -1.4331   -1.5707 C   0  0  0  0  0  0  0  0  0  0  0  0
    3.4755   -1.4951   -0.7083 C   0  0  0  0  0  0  0  0  0  0  0  0
    3.5251   -0.1898    0.0076 C   0  0  1  0  0  0  0  0  0  0  0  0
    4.8633    0.7702   -0.5837 S   0  0  0  0  0  0  0  0  0  0  0  0
    4.7051    2.2625   -0.3200 O   0  0  0  0  0  0  0  0  0  0  0  0
    5.1096    0.4380   -2.1752 O   0  0  0  0  0  0  0  0  0  0  0  0
    6.2649    0.1046    0.2327 C   0  0  0  0  0  0  0  0  0  0  0  0
    6.5273   -1.3432   -0.0415 C   0  0  0  0  0  0  0  0  0  0  0  0
    7.7289   -1.7376    0.6513 N   0  0  0  0  0  0  0  0  0  0  0  0
    7.6399   -1.7649    2.0651 C   0  0  0  0  0  0  0  0  0  0  0  0
    6.7179   -2.8766    2.5627 C   0  0  0  0  0  0  0  0  0  0  0  0
    8.9510   -1.2818    0.1016 C   0  0  0  0  0  0  0  0  0  0  0  0
    9.2871   -1.9056   -1.2345 C   0  0  0  0  0  0  0  0  0  0  0  0
    2.2338    0.4755   -0.5061 C   0  0  2  0  0  0  0  0  0  0  0  0
    0.0498   -2.5098   -0.2916 C   0  0  2  0  0  0  0  0  0  0  0  0
   -0.8371   -2.2205   -1.4637 C   0  0  0  0  0  0  0  0  0  0  0  0
   -2.0319   -2.9306   -1.2455 O   0  0  0  0  0  0  0  0  0  0  0  0
   -0.9622   -3.0120    0.6681 N   0  0  0  0  0  0  0  0  0  0  0  0
   -1.7734   -3.8355   -0.2132 C   0  0  1  0  0  0  0  0  0  0  0  0
   -3.0482   -4.2784    0.4292 C   0  0  0  0  0  0  0  0  0  0  0  0
   -4.1474   -4.1936   -0.6190 C   0  0  1  0  0  0  0  0  0  0  0  0
   -3.9051   -5.2056   -1.5690 O   0  0  0  0  0  0  0  0  0  0  0  0
   -5.5275   -4.2695   -0.0408 C   0  0  0  0  0  0  0  0  0  0  0  0
   -6.1327   -2.8687   -0.1473 C   0  0  2  0  0  0  0  0  0  0  0  0
   -5.8531   -2.4271   -1.4535 O   0  0  0  0  0  0  0  0  0  0  0  0
   -5.4473   -2.0052    0.8799 C   0  0  0  0  0  0  0  0  0  0  0  0
   -6.2369   -0.7548    1.1908 C   0  0  2  0  0  0  0  0  0  0  0  0
   -7.6031   -1.0960    1.6900 C   0  0  0  0  0  0  0  0  0  0  0  0
   -6.3161    0.0573   -0.0790 C   0  0  0  0  0  0  0  0  0  0  0  0
   -6.8579    1.4408    0.1631 C   0  0  0  0  0  0  0  0  0  0  0  0
   -6.0075    2.2450    1.1017 C   0  0  0  0  0  0  0  0  0  0  0  0
   -4.6413    2.4149    0.5991 N   0  0  0  0  0  0  0  0  0  0  0  0
   -4.6197    3.6349   -0.1451 C   0  0  2  0  0  0  0  0  0  0  0  0
   -5.3092    3.4763   -1.3614 O   0  0  0  0  0  0  0  0  0  0  0  0
   -3.2820    4.2564   -0.3410 C   0  0  0  0  0  0  0  0  0  0  0  0
   -2.1616    3.2683   -0.3344 C   0  0  0  0  0  0  0  0  0  0  0  0
   -0.8324    3.9204   -0.0022 C   0  0  1  0  0  0  0  0  0  0  0  0
   -0.7608    4.0180    1.4868 C   0  0  0  0  0  0  0  0  0  0  0  0
    0.2405    3.0864   -0.6288 C   0  0  1  0  0  0  0  0  0  0  0  0
    1.3971    3.8994   -1.1573 C   0  0  0  0  0  0  0  0  0  0  0  0
    0.8916    4.8713   -2.2427 C   0  0  0  0  0  0  0  0  0  0  0  0
    2.0876    4.7470   -0.1311 C   0  0  0  0  0  0  0  0  0  0  0  0
    0.5070    1.9439    0.0205 O   0  0  0  0  0  0  0  0  0  0  0  0
    1.7480    1.5752    0.3818 C   0  0  0  0  0  0  0  0  0  0  0  0
    1.7001    1.1954    1.7333 O   0  0  0  0  0  0  0  0  0  0  0  0
    0.4236   -0.4751   -2.7408 H   0  0  0  0  0  0  0  0  0  0  0  0
   -0.1891   -0.9199   -0.0139 H   0  0  0  0  0  0  0  0  0  0  0  0
    1.3602   -2.3133   -2.8986 H   0  0  0  0  0  0  0  0  0  0  0  0
    2.2240   -3.3790   -1.7459 H   0  0  0  0  0  0  0  0  0  0  0  0
    4.1528   -2.4708   -2.5730 H   0  0  0  0  0  0  0  0  0  0  0  0
    3.2668   -1.1450   -3.4096 H   0  0  0  0  0  0  0  0  0  0  0  0
    4.1849   -1.3784   -0.5782 H   0  0  0  0  0  0  0  0  0  0  0  0
    4.6382    1.5199   -3.8569 H   0  0  0  0  0  0  0  0  0  0  0  0
    6.6271    0.0156   -3.1141 H   0  0  0  0  0  0  0  0  0  0  0  0
    6.5908    1.6713   -1.3273 H   0  0  0  0  0  0  0  0  0  0  0  0
    5.3868    1.5658   -0.0390 H   0  0  0  0  0  0  0  0  0  0  0  0
    7.3161   -0.5803   -1.1153 H   0  0  0  0  0  0  0  0  0  0  0  0
    6.1047   -0.9670    0.1273 H   0  0  0  0  0  0  0  0  0  0  0  0
    6.4191    0.0188    2.3682 H   0  0  0  0  0  0  0  0  0  0  0  0
    6.4546    1.7071    1.6594 H   0  0  0  0  0  0  0  0  0  0  0  0
    7.4554    1.7057    3.7748 H   0  0  0  0  0  0  0  0  0  0  0  0
    8.6357    0.4358    3.3944 H   0  0  0  0  0  0  0  0  0  0  0  0
    8.6715    2.0691    2.5199 H   0  0  0  0  0  0  0  0  0  0  0  0
    9.5835   -0.2480    1.3846 H   0  0  0  0  0  0  0  0  0  0  0  0
    9.0115   -1.0037   -0.1257 H   0  0  0  0  0  0  0  0  0  0  0  0
    9.0418   -2.5255    1.8782 H   0  0  0  0  0  0  0  0  0  0  0  0
    7.5573   -1.6673    2.4799 H   0  0  0  0  0  0  0  0  0  0  0  0
    7.5888   -2.5045    0.8471 H   0  0  0  0  0  0  0  0  0  0  0  0
    1.9676    0.4169   -1.7453 H   0  0  0  0  0  0  0  0  0  0  0  0
    0.1844   -3.5447   -1.2080 H   0  0  0  0  0  0  0  0  0  0  0  0
   -1.1607   -3.3545   -3.0434 H   0  0  0  0  0  0  0  0  0  0  0  0
   -1.5753   -1.6590   -2.7419 H   0  0  0  0  0  0  0  0  0  0  0  0
   -1.8620   -2.1678    0.3980 H   0  0  0  0  0  0  0  0  0  0  0  0
   -1.8945   -4.7413   -1.0795 H   0  0  0  0  0  0  0  0  0  0  0  0
   -3.5142   -3.6101    1.1324 H   0  0  0  0  0  0  0  0  0  0  0  0
   -3.4750   -5.3056    0.5240 H   0  0  0  0  0  0  0  0  0  0  0  0
   -4.7496   -2.8908   -0.8532 H   0  0  0  0  0  0  0  0  0  0  0  0
   -4.2182   -5.4507   -1.6561 H   0  0  0  0  0  0  0  0  0  0  0  0
   -5.6989   -4.4322    1.4125 H   0  0  0  0  0  0  0  0  0  0  0  0
   -6.5538   -5.0854   -0.0837 H   0  0  0  0  0  0  0  0  0  0  0  0
   -7.9099   -3.2102    0.5529 H   0  0  0  0  0  0  0  0  0  0  0  0
   -6.9566   -3.2456   -1.6003 H   0  0  0  0  0  0  0  0  0  0  0  0
   -6.4761   -2.4406    2.3272 H   0  0  0  0  0  0  0  0  0  0  0  0
   -5.2063   -1.9029    1.1640 H   0  0  0  0  0  0  0  0  0  0  0  0
   -6.8391   -0.1200    2.1419 H   0  0  0  0  0  0  0  0  0  0  0  0
   -8.9413    0.0936    1.2697 H   0  0  0  0  0  0  0  0  0  0  0  0
   -8.6715   -1.0808   -0.0916 H   0  0  0  0  0  0  0  0  0  0  0  0
   -8.7726   -1.6265    1.6479 H   0  0  0  0  0  0  0  0  0  0  0  0
   -5.3105   -0.3884   -0.2271 H   0  0  0  0  0  0  0  0  0  0  0  0
   -6.9429   -0.1571   -0.8773 H   0  0  0  0  0  0  0  0  0  0  0  0
   -6.0259    1.9542   -0.8466 H   0  0  0  0  0  0  0  0  0  0  0  0
   -7.3107    1.8693    0.3688 H   0  0  0  0  0  0  0  0  0  0  0  0
   -5.8838    2.9049    1.8233 H   0  0  0  0  0  0  0  0  0  0  0  0
   -5.3183    1.2365    2.0387 H   0  0  0  0  0  0  0  0  0  0  0  0
   -3.5276    2.5077    1.8185 H   0  0  0  0  0  0  0  0  0  0  0  0
   -4.4211    4.4570    0.6651 H   0  0  0  0  0  0  0  0  0  0  0  0
   -3.9168    4.2214   -1.7115 H   0  0  0  0  0  0  0  0  0  0  0  0
   -2.1755    4.5288   -0.8010 H   0  0  0  0  0  0  0  0  0  0  0  0
   -2.1661    4.6679    0.9746 H   0  0  0  0  0  0  0  0  0  0  0  0
   -1.3492    2.4351   -0.8971 H   0  0  0  0  0  0  0  0  0  0  0  0
   -1.9764    1.8728    0.6609 H   0  0  0  0  0  0  0  0  0  0  0  0
   -0.0237    4.1206    0.6881 H   0  0  0  0  0  0  0  0  0  0  0  0
    0.5673    2.3316    2.7791 H   0  0  0  0  0  0  0  0  0  0  0  0
   -0.7444    3.5309    2.8350 H   0  0  0  0  0  0  0  0  0  0  0  0
   -1.1073    1.8372    2.4385 H   0  0  0  0  0  0  0  0  0  0  0  0
    0.4352    2.1224   -0.9270 H   0  0  0  0  0  0  0  0  0  0  0  0
    2.7943    2.5246   -0.7662 H   0  0  0  0  0  0  0  0  0  0  0  0
    0.8018    4.1093   -1.5317 H   0  0  0  0  0  0  0  0  0  0  0  0
    1.4654    5.1849   -0.2878 H   0  0  0  0  0  0  0  0  0  0  0  0
    2.5590    4.6561   -1.6062 H   0  0  0  0  0  0  0  0  0  0  0  0
    2.3916    4.5870    1.4342 H   0  0  0  0  0  0  0  0  0  0  0  0
    3.8535    3.7474    0.8903 H   0  0  0  0  0  0  0  0  0  0  0  0
    2.7534    2.8659    1.9595 H   0  0  0  0  0  0  0  0  0  0  0  0
    3.1631    0.9999    0.5205 H   0  0  0  0  0  0  0  0  0  0  0  0
    1.8875   -0.3740    2.1917 H   0  0  0  0  0  0  0  0  0  0  0  0
    0.4236   -0.4751   -2.7408 H   0  0  0  0  0  0  0  0  0  0  0  0
   -0.1891   -0.9199   -0.0139 H   0  0  0  0  0  0  0  0  0  0  0  0
    1.3602   -2.3133   -2.8986 H   0  0  0  0  0  0  0  0  0  0  0  0
    2.2240   -3.3790   -1.7459 H   0  0  0  0  0  0  0  0  0  0  0  0
    4.1528   -2.4708   -2.5730 H   0  0  0  0  0  0  0  0  0  0  0  0
    3.2668   -1.1450   -3.4096 H   0  0  0  0  0  0  0  0  0  0  0  0
    4.1849   -1.3784   -0.5782 H   0  0  0  0  0  0  0  0  0  0  0  0
    4.6382    1.5199   -3.8569 H   0  0  0  0  0  0  0  0  0  0  0  0
    6.6271    0.0156   -3.1141 H   0  0  0  0  0  0  0  0  0  0  0  0
    6.5908    1.6713   -1.3273 H   0  0  0  0  0  0  0  0  0  0  0  0
    5.3868    1.5658   -0.0390 H   0  0  0  0  0  0  0  0  0  0  0  0
    7.3161   -0.5803   -1.1153 H   0  0  0  0  0  0  0  0  0  0  0  0
    6.1047   -0.9670    0.1273 H   0  0  0  0  0  0  0  0  0  0  0  0
    6.4191    0.0188    2.3682 H   0  0  0  0  0  0  0  0  0  0  0  0
    6.4546    1.7071    1.6594 H   0  0  0  0  0  0  0  0  0  0  0  0
    7.4554    1.7057    3.7748 H   0  0  0  0  0  0  0  0  0  0  0  0
    8.6357    0.4358    3.3944 H   0  0  0  0  0  0  0  0  0  0  0  0
    8.6715    2.0691    2.5199 H   0  0  0  0  0  0  0  0  0  0  0  0
    9.5835   -0.2480    1.3846 H   0  0  0  0  0  0  0  0  0  0  0  0
    9.0115   -1.0037   -0.1257 H   0  0  0  0  0  0  0  0  0  0  0  0
    9.0418   -2.5255    1.8782 H   0  0  0  0  0  0  0  0  0  0  0  0
    7.5573   -1.6673    2.4799 H   0  0  0  0  0  0  0  0  0  0  0  0
    7.5888   -2.5045    0.8471 H   0  0  0  0  0  0  0  0  0  0  0  0
    1.9676    0.4169   -1.7453 H   0  0  0  0  0  0  0  0  0  0  0  0
    0.1844   -3.5447   -1.2080 H   0  0  0  0  0  0  0  0  0  0  0  0
   -1.1607   -3.3545   -3.0434 H   0  0  0  0  0  0  0  0  0  0  0  0
   -1.5753   -1.6590   -2.7419 H   0  0  0  0  0  0  0  0  0  0  0  0
   -1.8620   -2.1678    0.3980 H   0  0  0  0  0  0  0  0  0  0  0  0
   -1.8945   -4.7413   -1.0795 H   0  0  0  0  0  0  0  0  0  0  0  0
   -3.5142   -3.6101    1.1324 H   0  0  0  0  0  0  0  0  0  0  0  0
   -3.4750   -5.3056    0.5240 H   0  0  0  0  0  0  0  0  0  0  0  0
   -4.7496   -2.8908   -0.8532 H   0  0  0  0  0  0  0  0  0  0  0  0
   -4.2182   -5.4507   -1.6561 H   0  0  0  0  0  0  0  0  0  0  0  0
   -5.6989   -4.4322    1.4125 H   0  0  0  0  0  0  0  0  0  0  0  0
   -6.5538   -5.0854   -0.0837 H   0  0  0  0  0  0  0  0  0  0  0  0
   -7.9099   -3.2102    0.5529 H   0  0  0  0  0  0  0  0  0  0  0  0
   -6.9566   -3.2456   -1.6003 H   0  0  0  0  0  0  0  0  0  0  0  0
   -6.4761   -2.4406    2.3272 H   0  0  0  0  0  0  0  0  0  0  0  0
   -5.2063   -1.9029    1.1640 H   0  0  0  0  0  0  0  0  0  0  0  0
   -6.8391   -0.1200    2.1419 H   0  0  0  0  0  0  0  0  0  0  0  0
   -8.9413    0.0936    1.2697 H   0  0  0  0  0  0  0  0  0  0  0  0
   -8.6715   -1.0808   -0.0916 H   0  0  0  0  0  0  0  0  0  0  0  0
   -8.7726   -1.6265    1.6479 H   0  0  0  0  0  0  0  0  0  0  0  0
   -5.3105   -0.3884   -0.2271 H   0  0  0  0  0  0  0  0  0  0  0  0
   -6.9429   -0.1571   -0.8773 H   0  0  0  0  0  0  0  0  0  0  0  0
   -6.0259    1.9542   -0.8466 H   0  0  0  0  0  0  0  0  0  0  0  0
   -7.3107    1.8693    0.3688 H   0  0  0  0  0  0  0  0  0  0  0  0
   -5.8838    2.9049    1.8233 H   0  0  0  0  0  0  0  0  0  0  0  0
   -5.3183    1.2365    2.0387 H   0  0  0  0  0  0  0  0  0  0  0  0
   -3.5276    2.5077    1.8185 H   0  0  0  0  0  0  0  0  0  0  0  0
   -4.4211    4.4570    0.6651 H   0  0  0  0  0  0  0  0  0  0  0  0
   -3.9168    4.2214   -1.7115 H   0  0  0  0  0  0  0  0  0  0  0  0
   -2.1755    4.5288   -0.8010 H   0  0  0  0  0  0  0  0  0  0  0  0
   -2.1661    4.6679    0.9746 H   0  0  0  0  0  0  0  0  0  0  0  0
   -1.3492    2.4351   -0.8971 H   0  0  0  0  0  0  0  0  0  0  0  0
   -1.9764    1.8728    0.6609 H   0  0  0  0  0  0  0  0  0  0  0  0
   -0.0237    4.1206    0.6881 H   0  0  0  0  0  0  0  0  0  0  0  0
    0.5673    2.3316    2.7791 H   0  0  0  0  0  0  0  0  0  0  0  0
   -0.7444    3.5309    2.8350 H   0  0  0  0  0  0  0  0  0  0  0  0
   -1.1073    1.8372    2.4385 H   0  0  0  0  0  0  0  0  0  0  0  0
    0.4352    2.1224   -0.9270 H   0  0  0  0  0  0  0  0  0  0  0  0
    2.7943    2.5246   -0.7662 H   0  0  0  0  0  0  0  0  0  0  0  0
    0.8018    4.1093   -1.5317 H   0  0  0  0  0  0  0  0  0  0  0  0
    1.4654    5.1849   -0.2878 H   0  0  0  0  0  0  0  0  0  0  0  0
    2.5590    4.6561   -1.6062 H   0  0  0  0  0  0  0  0  0  0  0  0
    2.3916    4.5870    1.4342 H   0  0  0  0  0  0  0  0  0  0  0  0
    3.8535    3.7474    0.8903 H   0  0  0  0  0  0  0  0  0  0  0  0
    2.7534    2.8659    1.9595 H   0  0  0  0  0  0  0  0  0  0  0  0
    3.1631    0.9999    0.5205 H   0  0  0  0  0  0  0  0  0  0  0  0
    1.8875   -0.3740    2.1917 H   0  0  0  0  0  0  0  0  0  0  0  0
    1.1263   -2.2570    1.9013 H   0  0  0  0  0  0  0  0  0  0  0  0
   -0.0562   -0.7345    0.8092 H   0  0  0  0  0  0  0  0  0  0  0  0
    2.4375   -0.9373   -2.5532 H   0  0  0  0  0  0  0  0  0  0  0  0
    1.8089   -2.4146   -1.7941 H   0  0  0  0  0  0  0  0  0  0  0  0
    3.4370   -2.3962   -0.0670 H   0  0  0  0  0  0  0  0  0  0  0  0
    4.2716   -1.6546   -1.4645 H   0  0  0  0  0  0  0  0  0  0  0  0
    3.4915   -0.2099    1.1124 H   0  0  0  0  0  0  0  0  0  0  0  0
    4.5007    2.8512   -1.1166 H   0  0  0  0  0  0  0  0  0  0  0  0
    6.0555    0.6057   -2.3969 H   0  0  0  0  0  0  0  0  0  0  0  0
    7.1357    0.6856   -0.1444 H   0  0  0  0  0  0  0  0  0  0  0  0
    6.0883    0.2995    1.3185 H   0  0  0  0  0  0  0  0  0  0  0  0
    6.6369   -1.5337   -1.1062 H   0  0  0  0  0  0  0  0  0  0  0  0
    5.6503   -1.9296    0.3778 H   0  0  0  0  0  0  0  0  0  0  0  0
    8.6671   -1.9129    2.4667 H   0  0  0  0  0  0  0  0  0  0  0  0
    7.2753   -0.8304    2.4825 H   0  0  0  0  0  0  0  0  0  0  0  0
    7.0394   -3.1276    3.5812 H   0  0  0  0  0  0  0  0  0  0  0  0
    5.6625   -2.5641    2.5885 H   0  0  0  0  0  0  0  0  0  0  0  0
    6.7982   -3.7766    1.8997 H   0  0  0  0  0  0  0  0  0  0  0  0
    9.7576   -1.5228    0.8539 H   0  0  0  0  0  0  0  0  0  0  0  0
    8.9441   -0.1776    0.0289 H   0  0  0  0  0  0  0  0  0  0  0  0
   10.1939   -2.5276   -1.0986 H   0  0  0  0  0  0  0  0  0  0  0  0
    8.4620   -2.5440   -1.6146 H   0  0  0  0  0  0  0  0  0  0  0  0
    9.5233   -1.0820   -1.9376 H   0  0  0  0  0  0  0  0  0  0  0  0
    2.5369    0.9467   -1.4615 H   0  0  0  0  0  0  0  0  0  0  0  0
    0.7261   -3.3789   -0.4186 H   0  0  0  0  0  0  0  0  0  0  0  0
   -0.4747   -2.5365   -2.4374 H   0  0  0  0  0  0  0  0  0  0  0  0
   -1.1350   -1.1377   -1.4166 H   0  0  0  0  0  0  0  0  0  0  0  0
   -0.5114   -3.5489    1.4289 H   0  0  0  0  0  0  0  0  0  0  0  0
   -1.1329   -4.6558   -0.5801 H   0  0  0  0  0  0  0  0  0  0  0  0
   -3.3240   -3.7030    1.3234 H   0  0  0  0  0  0  0  0  0  0  0  0
   -2.9268   -5.3544    0.7057 H   0  0  0  0  0  0  0  0  0  0  0  0
   -3.9534   -3.2224   -1.1618 H   0  0  0  0  0  0  0  0  0  0  0  0
   -3.8331   -6.0863   -1.1218 H   0  0  0  0  0  0  0  0  0  0  0  0
   -5.5799   -4.6781    0.9704 H   0  0  0  0  0  0  0  0  0  0  0  0
   -6.1314   -4.9137   -0.7457 H   0  0  0  0  0  0  0  0  0  0  0  0
   -7.2082   -2.9520    0.0095 H   0  0  0  0  0  0  0  0  0  0  0  0
   -6.0827   -3.1865   -2.0533 H   0  0  0  0  0  0  0  0  0  0  0  0
   -5.3817   -2.5791    1.8252 H   0  0  0  0  0  0  0  0  0  0  0  0
   -4.4488   -1.7441    0.5366 H   0  0  0  0  0  0  0  0  0  0  0  0
   -5.6900   -0.2270    2.0064 H   0  0  0  0  0  0  0  0  0  0  0  0
   -7.9802   -0.1937    2.2382 H   0  0  0  0  0  0  0  0  0  0  0  0
   -8.3038   -1.2848    0.8712 H   0  0  0  0  0  0  0  0  0  0  0  0
   -7.6075   -1.9888    2.3484 H   0  0  0  0  0  0  0  0  0  0  0  0
   -5.3693    0.0826   -0.6238 H   0  0  0  0  0  0  0  0  0  0  0  0
   -7.0481   -0.4694   -0.7380 H   0  0  0  0  0  0  0  0  0  0  0  0
   -6.9699    1.9367   -0.7982 H   0  0  0  0  0  0  0  0  0  0  0  0
   -7.8635    1.3546    0.6441 H   0  0  0  0  0  0  0  0  0  0  0  0
   -6.5011    3.2331    1.2241 H   0  0  0  0  0  0  0  0  0  0  0  0
   -6.0064    1.7858    2.1156 H   0  0  0  0  0  0  0  0  0  0  0  0
   -4.0636    2.5692    1.4810 H   0  0  0  0  0  0  0  0  0  0  0  0
   -5.2499    4.3787    0.4300 H   0  0  0  0  0  0  0  0  0  0  0  0
   -4.8743    4.0812   -2.0095 H   0  0  0  0  0  0  0  0  0  0  0  0
   -3.2862    4.7271   -1.3614 H   0  0  0  0  0  0  0  0  0  0  0  0
   -3.1088    5.1112    0.3641 H   0  0  0  0  0  0  0  0  0  0  0  0
   -2.1377    2.7755   -1.3261 H   0  0  0  0  0  0  0  0  0  0  0  0
   -2.3420    2.4397    0.4007 H   0  0  0  0  0  0  0  0  0  0  0  0
   -0.8754    4.9320   -0.5029 H   0  0  0  0  0  0  0  0  0  0  0  0
   -0.0289    3.3969    1.9819 H   0  0  0  0  0  0  0  0  0  0  0  0
   -0.5663    5.0821    1.7570 H   0  0  0  0  0  0  0  0  0  0  0  0
   -1.7491    3.7900    1.9847 H   0  0  0  0  0  0  0  0  0  0  0  0
   -0.2481    2.7212   -1.6025 H   0  0  0  0  0  0  0  0  0  0  0  0
    2.1617    3.2822   -1.6630 H   0  0  0  0  0  0  0  0  0  0  0  0
   -0.0646    4.5159   -2.6743 H   0  0  0  0  0  0  0  0  0  0  0  0
    0.7181    5.8806   -1.8432 H   0  0  0  0  0  0  0  0  0  0  0  0
    1.6022    4.9451   -3.0737 H   0  0  0  0  0  0  0  0  0  0  0  0
    1.6293    4.7217    0.8772 H   0  0  0  0  0  0  0  0  0  0  0  0
    2.0435    5.8415   -0.4234 H   0  0  0  0  0  0  0  0  0  0  0  0
    3.2059    4.5797   -0.0893 H   0  0  0  0  0  0  0  0  0  0  0  0
    2.5148    2.3749    0.3684 H   0  0  0  0  0  0  0  0  0  0  0  0
    0.7713    1.1308    2.0687 H   0  0  0  0  0  0  0  0  0  0  0  0
  1  2  1  0
  2  3  1  0
  3  4  1  0
  4  5  1  0
  5  6  1  0
  6  7  1  0
  7  8  1  0
  7  9  1  0
  7 10  1  0
 10 11  1  0
 11 12  1  0
 12 13  1  0
 13 14  1  0
 12 15  1  0
 15 16  1  0
  3 17  1  0
  6 17  1  0
  2 18  1  0
 18 19  1  0
 19 20  1  0
 18 21  1  0
 20 22  1  0
 21 22  1  0
 22 23  1  0
 23 24  1  0
 24 25  1  0
 24 26  1  0
 26 27  1  0
 27 28  1  0
 27 29  1  0
 29 30  1  0
 30 31  1  0
 30 32  1  0
 32 33  1  0
 33 34  1  0
 34 35  1  0
 35 36  1  0
 36 37  1  0
 36 38  1  0
 38 39  1  0
 39 40  1  0
 40 41  1  0
 40 42  1  0
 42 43  1  0
 43 44  1  0
 43 45  1  0
 42 46  1  0
 17 47  1  0
 46 47  1  0
 47 48  1  0
 49 50  1  0
 50 51  1  0
 51 52  1  0
 52 53  1  0
 53 54  1  0
 54 55  1  0
 55 56  1  0
 55 57  1  0
 55 58  1  0
 58 59  1  0
 59 60  1  0
 60 61  1  0
 61 62  1  0
 60 63  1  0
 63 64  1  0
 51 65  1  0
 54 65  1  0
 50 66  1  0
 66 67  1  0
 67 68  1  0
 66 69  1  0
 68 70  1  0
 69 70  1  0
 70 71  1  0
 71 72  1  0
 72 73  1  0
 72 74  1  0
 74 75  1  0
 75 76  1  0
 75 77  1  0
 77 78  1  0
 78 79  1  0
 78 80  1  0
 80 81  1  0
 81 82  1  0
 82 83  1  0
 83 84  1  0
 84 85  1  0
 84 86  1  0
 86 87  1  0
 87 88  1  0
 88 89  1  0
 88 90  1  0
 90 91  1  0
 91 92  1  0
 91 93  1  0
 90 94  1  0
 65 95  1  0
 94 95  1  0
 95 96  1  0
 97 98  1  0
 98 99  1  0
 99100  1  0
100101  1  0
101102  1  0
102103  1  0
103104  1  0
103105  1  0
103106  1  0
106107  1  0
107108  1  0
108109  1  0
109110  1  0
108111  1  0
111112  1  0
 99113  1  0
102113  1  0
 98114  1  0
114115  1  0
115116  1  0
114117  1  0
116118  1  0
117118  1  0
118119  1  0
119120  1  0
120121  1  0
120122  1  0
122123  1  0
123124  1  0
123125  1  0
125126  1  0
126127  1  0
126128  1  0
128129  1  0
129130  1  0
130131  1  0
131132  1  0
132133  1  0
132134  1  0
134135  1  0
135136  1  0
136137  1  0
136138  1  0
138139  1  0
139140  1  0
139141  1  0
138142  1  0
113143  1  0
142143  1  0
143144  1  0
  1145  1  0
  2146  1  0
  4147  1  0
  4148  1  0
  5149  1  0
  5150  1  0
  6151  1  1
  8152  1  0
  9153  1  0
 10154  1  0
 10155  1  0
 11156  1  0
 11157  1  0
 13158  1  0
 13159  1  0
 14160  1  0
 14161  1  0
 14162  1  0
 15163  1  0
 15164  1  0
 16165  1  0
 16166  1  0
 16167  1  0
 17168  1  6
 18169  1  6
 19170  1  0
 19171  1  0
 21172  1  0
 22173  1  0
 23174  1  0
 23175  1  0
 24176  1  6
 25177  1  0
 26178  1  0
 26179  1  0
 27180  1  1
 28181  1  0
 29182  1  0
 29183  1  0
 30184  1  1
 31185  1  0
 31186  1  0
 31187  1  0
 32188  1  0
 32189  1  0
 33190  1  0
 33191  1  0
 34192  1  0
 34193  1  0
 35194  1  0
 36195  1  1
 37196  1  0
 38197  1  0
 38198  1  0
 39199  1  0
 39200  1  0
 40201  1  1
 41202  1  0
 41203  1  0
 41204  1  0
 42205  1  6
 43206  1  0
 44207  1  0
 44208  1  0
 44209  1  0
 45210  1  0
 45211  1  0
 45212  1  0
 47213  1  0
 48214  1  0
 49215  1  0
 50216  1  0
 52217  1  0
 52218  1  0
 53219  1  0
 53220  1  0
 54221  1  1
 56222  1  0
 57223  1  0
 58224  1  0
 58225  1  0
 59226  1  0
 59227  1  0
 61228  1  0
 61229  1  0
 62230  1  0
 62231  1  0
 62232  1  0
 63233  1  0
 63234  1  0
 64235  1  0
 64236  1  0
 64237  1  0
 65238  1  6
 66239  1  6
 67240  1  0
 67241  1  0
 69242  1  0
 70243  1  0
 71244  1  0
 71245  1  0
 72246  1  6
 73247  1  0
 74248  1  0
 74249  1  0
 75250  1  1
 76251  1  0
 77252  1  0
 77253  1  0
 78254  1  1
 79255  1  0
 79256  1  0
 79257  1  0
 80258  1  0
 80259  1  0
 81260  1  0
 81261  1  0
 82262  1  0
 82263  1  0
 83264  1  0
 84265  1  1
 85266  1  0
 86267  1  0
 86268  1  0
 87269  1  0
 87270  1  0
 88271  1  1
 89272  1  0
 89273  1  0
 89274  1  0
 90275  1  6
 91276  1  0
 92277  1  0
 92278  1  0
 92279  1  0
 93280  1  0
 93281  1  0
 93282  1  0
 95283  1  0
 96284  1  0
 97285  1  0
 98286  1  1
100287  1  0
100288  1  0
101289  1  0
101290  1  0
102291  1  1
104292  1  0
105293  1  0
106294  1  0
106295  1  0
107296  1  0
107297  1  0
109298  1  0
109299  1  0
110300  1  0
110301  1  0
110302  1  0
111303  1  0
111304  1  0
112305  1  0
112306  1  0
112307  1  0
113308  1  6
114309  1  6
115310  1  0
115311  1  0
117312  1  0
118313  1  6
119314  1  0
119315  1  0
120316  1  6
121317  1  0
122318  1  0
122319  1  0
123320  1  1
124321  1  0
125322  1  0
125323  1  0
126324  1  1
127325  1  0
127326  1  0
127327  1  0
128328  1  0
128329  1  0
129330  1  0
129331  1  0
130332  1  0
130333  1  0
131334  1  0
132335  1  1
133336  1  0
134337  1  0
134338  1  0
135339  1  0
135340  1  0
136341  1  6
137342  1  0
137343  1  0
137344  1  0
138345  1  6
139346  1  0
140347  1  0
140348  1  0
140349  1  0
141350  1  0
141351  1  0
141352  1  0
143353  1  0
144354  1  0
M  END
>  <PDBID>  (1) 
1MRL

>  <PDB ID>  (1) 
1MRL

>  <Generic Name>  (1) 
Dalfopristin

>  <Brand Name>  (1) 
Synercid

>  <DrugBank ID>  (1) 
DB01764

>  <ATC Codes>  (1) 
nan

>  <Ligand ID>  (1) 
DOL

>  <Target Name>  (1) 
Streptogramin A acetyltransferase

>  <UniProt ID>  (1) 
P50870

>  <PDB ID.1>  (1) 
1MRL

>  <Seq. Identity>  (1) 
100%

$$$$
