PDB_DB09079_08
     RDKit          3D

 99103  0  0  0  0  0  0  0  0999 V2000
   -2.9163    0.1134   -0.0754 C   0  0  0  0  0  0  0  0  0  0  0  0
   -4.3125    0.2824   -0.5434 C   0  0  0  0  0  0  0  0  0  0  0  0
   -2.1853   -1.1278   -0.5004 C   0  0  0  0  0  0  0  0  0  0  0  0
   -2.1975    1.2219   -0.8238 C   0  0  0  0  0  0  0  0  0  0  0  0
   -4.3890    1.8111   -0.7151 C   0  0  0  0  0  0  0  0  0  0  0  0
   -5.3780    0.0197    0.4940 C   0  0  0  0  0  0  0  0  0  0  0  0
   -2.6468   -2.4608   -0.1685 C   0  0  0  0  0  0  0  0  0  0  0  0
   -5.6413    2.1193   -1.4619 C   0  0  0  0  0  0  0  0  0  0  0  0
   -6.3490    1.1500    0.7037 C   0  0  0  0  0  0  0  0  0  0  0  0
    0.2729   -0.7352   -0.0926 C   0  0  0  0  0  0  0  0  0  0  0  0
   -6.8140    1.6924   -0.6064 C   0  0  1  0  0  0  0  0  0  0  0  0
   -3.7475   -4.5429   -0.8730 C   0  0  0  0  0  0  0  0  0  0  0  0
   -2.9867   -4.3538    1.4140 C   0  0  0  0  0  0  0  0  0  0  0  0
    0.8304   -1.3644    1.0975 C   0  0  0  0  0  0  0  0  0  0  0  0
   -7.7282    2.8833   -0.4366 C   0  0  2  0  0  0  0  0  0  0  0  0
    1.8284   -0.3933    1.7380 C   0  0  0  0  0  0  0  0  0  0  0  0
    2.7399   -0.4907   -0.6083 C   0  0  0  0  0  0  0  0  0  0  0  0
   -8.8301    2.5376    0.3477 O   0  0  0  0  0  0  0  0  0  0  0  0
   -8.1880    3.3270   -1.6745 O   0  0  0  0  0  0  0  0  0  0  0  0
    2.8851    0.0481    0.7564 C   0  0  0  0  0  0  0  0  0  0  0  0
    5.3226    0.0148    0.6470 C   0  0  1  0  0  0  0  0  0  0  0  0
    4.1860    0.3547    2.7053 C   0  0  0  0  0  0  0  0  0  0  0  0
    5.5905    1.4251    0.2133 C   0  0  0  0  0  0  0  0  0  0  0  0
    8.0125    1.4054    0.2460 C   0  0  0  0  0  0  0  0  0  0  0  0
    6.8305    0.9833   -1.8040 C   0  0  0  0  0  0  0  0  0  0  0  0
    9.1404    2.0377   -0.5825 C   0  0  0  0  0  0  0  0  0  0  0  0
    8.1871    0.3386   -2.0036 C   0  0  0  0  0  0  0  0  0  0  0  0
   10.4925    0.5343   -1.7381 C   0  0  0  0  0  0  0  0  0  0  0  0
    6.4006   -0.3564    1.4895 O   0  0  0  0  0  0  0  0  0  0  0  0
    6.8117    1.5887   -0.5041 N   0  0  0  0  0  0  0  0  0  0  0  0
    9.2527    1.2914   -1.8198 N   0  0  0  0  0  0  0  0  0  0  0  0
    4.1453   -0.2108    1.3733 N   0  0  0  0  0  0  0  0  0  0  0  0
    1.4294   -0.8751   -1.1228 C   0  0  0  0  0  0  0  0  0  0  0  0
   -0.8400   -1.0724   -0.7787 N   0  0  0  0  0  0  0  0  0  0  0  0
   -2.8196   -2.8435    1.2768 C   0  0  0  0  0  0  0  0  0  0  0  0
   -4.0675   -4.9204    0.5625 C   0  0  0  0  0  0  0  0  0  0  0  0
   -3.8368   -3.0050   -0.8991 C   0  0  0  0  0  0  0  0  0  0  0  0
   -8.8476    3.3377    1.4858 C   0  0  0  0  0  0  0  0  0  0  0  0
   -3.1950    2.0982   -1.3850 N   0  0  0  0  0  0  0  0  0  0  0  0
   -1.5077    0.7654   -1.9477 O   0  0  0  0  0  0  0  0  0  0  0  0
   -2.9118    0.2769    1.0153 H   0  0  0  0  0  0  0  0  0  0  0  0
   -4.5411   -0.1555   -1.5272 H   0  0  0  0  0  0  0  0  0  0  0  0
   -2.6023   -1.0616   -1.6343 H   0  0  0  0  0  0  0  0  0  0  0  0
   -1.5752    1.8403   -0.1532 H   0  0  0  0  0  0  0  0  0  0  0  0
   -4.3540    2.3088    0.2940 H   0  0  0  0  0  0  0  0  0  0  0  0
   -6.0288   -0.8008    0.0608 H   0  0  0  0  0  0  0  0  0  0  0  0
   -4.9291   -0.3088    1.4630 H   0  0  0  0  0  0  0  0  0  0  0  0
   -1.8125   -3.1719   -0.4952 H   0  0  0  0  0  0  0  0  0  0  0  0
   -5.6291    1.5636   -2.4100 H   0  0  0  0  0  0  0  0  0  0  0  0
   -5.7058    3.1950   -1.7233 H   0  0  0  0  0  0  0  0  0  0  0  0
   -6.0018    1.9147    1.4216 H   0  0  0  0  0  0  0  0  0  0  0  0
   -7.2630    0.7008    1.1985 H   0  0  0  0  0  0  0  0  0  0  0  0
    0.3196    0.3942    0.0696 H   0  0  0  0  0  0  0  0  0  0  0  0
   -7.3859    0.9126   -1.1362 H   0  0  0  0  0  0  0  0  0  0  0  0
   -4.4109   -5.0004   -1.6055 H   0  0  0  0  0  0  0  0  0  0  0  0
   -2.6762   -4.8508   -1.0370 H   0  0  0  0  0  0  0  0  0  0  0  0
   -2.0209   -4.8057    1.1100 H   0  0  0  0  0  0  0  0  0  0  0  0
   -3.1279   -4.5436    2.4990 H   0  0  0  0  0  0  0  0  0  0  0  0
    1.4691   -2.2655    0.8438 H   0  0  0  0  0  0  0  0  0  0  0  0
    0.1962   -1.6874    1.9080 H   0  0  0  0  0  0  0  0  0  0  0  0
   -7.1492    3.6984    0.0383 H   0  0  0  0  0  0  0  0  0  0  0  0
    2.2367   -0.9334    2.6168 H   0  0  0  0  0  0  0  0  0  0  0  0
    1.2114    0.4367    2.1391 H   0  0  0  0  0  0  0  0  0  0  0  0
    3.2142    0.1923   -1.3776 H   0  0  0  0  0  0  0  0  0  0  0  0
    3.4035   -1.4100   -0.6624 H   0  0  0  0  0  0  0  0  0  0  0  0
   -7.9613    4.2974   -1.8022 H   0  0  0  0  0  0  0  0  0  0  0  0
    2.7782    1.1628    0.7025 H   0  0  0  0  0  0  0  0  0  0  0  0
    5.3982   -0.6802   -0.2189 H   0  0  0  0  0  0  0  0  0  0  0  0
    4.9638    1.1689    2.7685 H   0  0  0  0  0  0  0  0  0  0  0  0
    4.5020   -0.4018    3.4636 H   0  0  0  0  0  0  0  0  0  0  0  0
    3.2368    0.8424    2.9967 H   0  0  0  0  0  0  0  0  0  0  0  0
    4.7680    1.7549   -0.4555 H   0  0  0  0  0  0  0  0  0  0  0  0
    5.5980    2.1433    1.0585 H   0  0  0  0  0  0  0  0  0  0  0  0
    7.9412    2.0106    1.1655 H   0  0  0  0  0  0  0  0  0  0  0  0
    8.3289    0.3754    0.4194 H   0  0  0  0  0  0  0  0  0  0  0  0
    6.7062    1.7741   -2.5665 H   0  0  0  0  0  0  0  0  0  0  0  0
    6.0315    0.2474   -1.9666 H   0  0  0  0  0  0  0  0  0  0  0  0
    8.7939    3.0574   -0.8413 H   0  0  0  0  0  0  0  0  0  0  0  0
   10.0760    2.0983   -0.0264 H   0  0  0  0  0  0  0  0  0  0  0  0
    8.2217    0.0310   -3.0804 H   0  0  0  0  0  0  0  0  0  0  0  0
    8.3317   -0.5594   -1.3896 H   0  0  0  0  0  0  0  0  0  0  0  0
   10.4206   -0.1322   -0.8303 H   0  0  0  0  0  0  0  0  0  0  0  0
   11.3238    1.2257   -1.5611 H   0  0  0  0  0  0  0  0  0  0  0  0
   10.6793   -0.0833   -2.6263 H   0  0  0  0  0  0  0  0  0  0  0  0
    6.0941   -1.0553    2.1249 H   0  0  0  0  0  0  0  0  0  0  0  0
    1.0826   -0.2225   -1.9761 H   0  0  0  0  0  0  0  0  0  0  0  0
    1.3641   -1.9280   -1.4671 H   0  0  0  0  0  0  0  0  0  0  0  0
   -0.6248   -1.7819   -1.5505 H   0  0  0  0  0  0  0  0  0  0  0  0
   -3.7097   -2.3843    1.7414 H   0  0  0  0  0  0  0  0  0  0  0  0
   -1.8823   -2.6296    1.8079 H   0  0  0  0  0  0  0  0  0  0  0  0
   -5.0452   -4.4328    0.8332 H   0  0  0  0  0  0  0  0  0  0  0  0
   -4.1113   -5.9939    0.7210 H   0  0  0  0  0  0  0  0  0  0  0  0
   -3.8321   -2.7295   -1.9495 H   0  0  0  0  0  0  0  0  0  0  0  0
   -4.7332   -2.7651   -0.3284 H   0  0  0  0  0  0  0  0  0  0  0  0
   -7.9256    3.2108    2.0983 H   0  0  0  0  0  0  0  0  0  0  0  0
   -9.7605    3.0620    2.0536 H   0  0  0  0  0  0  0  0  0  0  0  0
   -8.8898    4.4226    1.1855 H   0  0  0  0  0  0  0  0  0  0  0  0
   -2.9561    3.1230   -1.2296 H   0  0  0  0  0  0  0  0  0  0  0  0
   -2.0682    0.7041   -2.7413 H   0  0  0  0  0  0  0  0  0  0  0  0
  1  2  1  0
  1  3  1  0
  1  4  1  0
  2  5  1  0
  2  6  1  0
  3  7  1  0
  5  8  1  0
  6  9  1  0
  8 11  1  0
  9 11  1  0
 10 14  1  0
 11 15  1  0
 14 16  1  0
 15 18  1  0
 15 19  1  0
 16 20  1  0
 17 20  1  0
 21 23  1  0
 24 26  1  0
 25 27  1  0
 21 29  1  0
 23 30  1  0
 24 30  1  0
 25 30  1  0
 26 31  1  0
 27 31  1  0
 28 31  1  0
 20 32  1  0
 21 32  1  0
 22 32  1  0
 10 33  1  0
 17 33  1  0
  3 34  1  0
 10 34  1  0
  7 35  1  0
 13 35  1  0
 12 36  1  0
 13 36  1  0
  7 37  1  0
 12 37  1  0
 18 38  1  0
  4 39  1  0
  5 39  1  0
  4 40  1  0
  1 41  1  0
  2 42  1  0
  3 43  1  0
  4 44  1  0
  5 45  1  0
  6 46  1  0
  6 47  1  0
  7 48  1  0
  8 49  1  0
  8 50  1  0
  9 51  1  0
  9 52  1  0
 10 53  1  0
 11 54  1  6
 12 55  1  0
 12 56  1  0
 13 57  1  0
 13 58  1  0
 14 59  1  0
 14 60  1  0
 15 61  1  1
 16 62  1  0
 16 63  1  0
 17 64  1  0
 17 65  1  0
 19 66  1  0
 20 67  1  0
 21 68  1  6
 22 69  1  0
 22 70  1  0
 22 71  1  0
 23 72  1  0
 23 73  1  0
 24 74  1  0
 24 75  1  0
 25 76  1  0
 25 77  1  0
 26 78  1  0
 26 79  1  0
 27 80  1  0
 27 81  1  0
 28 82  1  0
 28 83  1  0
 28 84  1  0
 29 85  1  0
 33 86  1  0
 33 87  1  0
 34 88  1  0
 35 89  1  0
 35 90  1  0
 36 91  1  0
 36 92  1  0
 37 93  1  0
 37 94  1  0
 38 95  1  0
 38 96  1  0
 38 97  1  0
 39 98  1  0
 40 99  1  0
M  END
>  <PDBID>  (1) 
3C7Q

>  <PDB ID>  (1) 
3C7Q

>  <Generic Name>  (1) 
Nintedanib

>  <Brand Name>  (1) 
Ofev#Vargatef

>  <DrugBank ID>  (1) 
DB09079

>  <ATC Codes>  (1) 
L01XE31

>  <Ligand ID>  (1) 
XIN

>  <Target Name>  (1) 
Vascular endothelial growth factor receptor 3

>  <UniProt ID>  (1) 
P35916

>  <PDB ID.1>  (1) 
3C7Q

>  <Seq. Identity>  (1) 
67%

$$$$
