PDB_DB00884_00
     RDKit          3D

 38 38  0  0  0  0  0  0  0  0999 V2000
   -3.2544    1.0123   -0.7343 O   0  0  0  0  0  0  0  0  0  0  0  0
   -2.2923    1.5404    0.5153 P   0  0  0  0  0  0  0  0  0  0  0  0
   -1.2442    2.7669    0.2204 O   0  0  0  0  0  0  0  0  0  0  0  0
   -3.4389    2.4486    0.9765 O   0  0  0  0  0  0  0  0  0  0  0  0
   -1.1872    0.3538    0.1062 C   0  0  0  0  0  0  0  0  0  0  0  0
   -0.6471    0.5579   -1.2040 O   0  0  0  0  0  0  0  0  0  0  0  0
   -1.8393   -1.2596    0.1789 P   0  0  0  0  0  0  0  0  0  0  0  0
   -2.6249   -1.2929   -1.1416 O   0  0  0  0  0  0  0  0  0  0  0  0
   -3.3780   -1.4842    0.9209 O   0  0  0  0  0  0  0  0  0  0  0  0
   -0.9451   -2.5432   -0.2403 O   0  0  0  0  0  0  0  0  0  0  0  0
    0.0746    0.4949    0.9464 C   0  0  0  0  0  0  0  0  0  0  0  0
    1.1308   -0.4891    0.6962 C   0  0  1  0  0  0  0  0  0  0  0  0
    1.6091   -0.4258   -0.7330 C   0  0  0  0  0  0  0  0  0  0  0  0
    3.0087   -1.0306   -0.7462 C   0  0  0  0  0  0  0  0  0  0  0  0
    3.9204    0.0390   -0.1324 C   0  0  0  0  0  0  0  0  0  0  0  0
    3.2503    0.6461    0.9866 N   0  0  0  0  0  0  0  0  0  0  0  0
    2.3105   -0.2695    1.6337 C   0  0  0  0  0  0  0  0  0  0  0  0
   -1.1224   -0.0061   -1.8472 H   0  0  0  0  0  0  0  0  0  0  0  0
    0.4536    1.5476    0.9157 H   0  0  0  0  0  0  0  0  0  0  0  0
   -0.2685    0.3542    2.0151 H   0  0  0  0  0  0  0  0  0  0  0  0
    1.0134   -1.0316   -1.4345 H   0  0  0  0  0  0  0  0  0  0  0  0
    3.2769   -1.2386   -1.7879 H   0  0  0  0  0  0  0  0  0  0  0  0
    4.8598   -0.4494    0.1492 H   0  0  0  0  0  0  0  0  0  0  0  0
    2.7964   -1.2285    1.8269 H   0  0  0  0  0  0  0  0  0  0  0  0
    2.7935    1.5415    0.7854 H   0  0  0  0  0  0  0  0  0  0  0  0
   -2.9172    1.4314   -1.5335 H   0  0  0  0  0  0  0  0  0  0  0  0
   -2.3816    0.9583    1.7547 H   0  0  0  0  0  0  0  0  0  0  0  0
   -1.0115    3.2017    1.0481 H   0  0  0  0  0  0  0  0  0  0  0  0
   -3.7000    3.1838    0.4192 H   0  0  0  0  0  0  0  0  0  0  0  0
   -1.4869   -1.5103    1.4048 H   0  0  0  0  0  0  0  0  0  0  0  0
   -3.0699   -2.0643   -1.5164 H   0  0  0  0  0  0  0  0  0  0  0  0
   -3.6903   -0.5890    1.0623 H   0  0  0  0  0  0  0  0  0  0  0  0
   -1.4670   -3.3489   -0.1690 H   0  0  0  0  0  0  0  0  0  0  0  0
    0.7471   -1.5093    0.9384 H   0  0  0  0  0  0  0  0  0  0  0  0
    1.6583    0.6359   -1.0787 H   0  0  0  0  0  0  0  0  0  0  0  0
    2.9883   -1.9447   -0.1383 H   0  0  0  0  0  0  0  0  0  0  0  0
    4.0963    0.7868   -0.9510 H   0  0  0  0  0  0  0  0  0  0  0  0
    1.9789    0.2142    2.5580 H   0  0  0  0  0  0  0  0  0  0  0  0
  1  2  1  0
  2  3  1  0
  2  4  1  0
  2  5  1  0
  5  6  1  0
  5  7  1  0
  7  8  1  0
  7  9  1  0
  7 10  1  0
  5 11  1  0
 11 12  1  0
 12 13  1  0
 13 14  1  0
 14 15  1  0
 15 16  1  0
 12 17  1  0
 16 17  1  0
 18  6  1  0
 11 19  1  0
 11 20  1  0
 13 21  1  0
 14 22  1  0
 15 23  1  0
 17 24  1  0
 25 16  1  0
  1 26  1  0
  2 27  1  0
  3 28  1  0
  4 29  1  0
  7 30  1  0
  8 31  1  0
  9 32  1  0
 10 33  1  0
 12 34  1  1
 13 35  1  0
 14 36  1  0
 15 37  1  0
 17 38  1  0
M  END
>  <PDBID>  (1) 
5CG5

>  <PDB ID>  (1) 
5CG5

>  <Generic Name>  (1) 
Risedronate

>  <Brand Name>  (1) 
Actonel#Actonel Dr#Actonel Plus Calcium#Actonel Sachet Kit#Apo-risedronate#Atelvia#Auro-risedronate#Dom-risedronate#Jamp-risedronate#Mylan-risedronate#Ntp-risedronate#PHL-risedronate#PMS-risedronate#PMS-risedronate Plus Calcium#Pendo-risedronate#Q-risedronate#Ratio-risedronate#Risedronate#Risedronate Sodium#Risedronate-35#Riva-risedronate#Sandoz Risedronate#Teva-risedronate#Benet

>  <DrugBank ID>  (1) 
DB00884

>  <ATC Codes>  (1) 
M05BB02#M05BA07#M05BB04#M05BB07

>  <Ligand ID>  (1) 
RIS

>  <Target Name>  (1) 
Farnesyl pyrophosphate synthase

>  <UniProt ID>  (1) 
P14324

>  <PDB ID.1>  (1) 
5CG5

>  <Seq. Identity>  (1) 
100%

$$$$
