PDB_DB01204_05
     RDKit          3D

152156  0  0  0  0  0  0  0  0999 V2000
    8.5855    2.9230    0.7485 O   0  0  0  0  0  0  0  0  0  0  0  0
    7.1915    3.0435    0.5336 C   0  0  0  0  0  0  0  0  0  0  0  0
    6.5162    1.7489    1.0029 C   0  0  0  0  0  0  0  0  0  0  0  0
    5.0894    1.8058    0.8182 N   0  0  0  0  0  0  0  0  0  0  0  0
    4.7832    1.7773   -0.5810 C   0  0  0  0  0  0  0  0  0  0  0  0
    3.2711    1.8602   -0.8209 C   0  0  0  0  0  0  0  0  0  0  0  0
    2.6320    0.7236   -0.1925 N   0  0  0  0  0  0  0  0  0  0  0  0
    1.2188    0.6951   -0.3808 C   0  0  0  0  0  0  0  0  0  0  0  0
    0.5172    1.8419    0.2622 C   0  0  0  0  0  0  0  0  0  0  0  0
   -0.9115    1.9016   -0.2407 C   0  0  0  0  0  0  0  0  0  0  0  0
    0.6756   -0.6361    0.0883 C   0  0  0  0  0  0  0  0  0  0  0  0
    1.1122   -1.6359   -0.9335 C   0  0  0  0  0  0  0  0  0  0  0  0
    1.3134   -0.9994   -2.1826 O   0  0  0  0  0  0  0  0  0  0  0  0
    0.2252   -2.8068   -1.1099 C   0  0  0  0  0  0  0  0  0  0  0  0
    0.9592   -4.0846   -1.4023 C   0  0  0  0  0  0  0  0  0  0  0  0
    0.0538   -4.9799   -1.9532 O   0  0  0  0  0  0  0  0  0  0  0  0
    1.6894   -4.6557   -0.2480 C   0  0  0  0  0  0  0  0  0  0  0  0
    1.2378   -4.1742    1.0990 C   0  0  0  0  0  0  0  0  0  0  0  0
   -0.1961   -3.7563    1.1766 C   0  0  0  0  0  0  0  0  0  0  0  0
   -0.3430   -3.0163    2.3636 O   0  0  0  0  0  0  0  0  0  0  0  0
   -0.7406   -3.0465   -0.0053 C   0  0  0  0  0  0  0  0  0  0  0  0
   -1.5346   -1.8135    0.2540 C   0  0  0  0  0  0  0  0  0  0  0  0
   -2.4244   -1.6636   -0.8358 O   0  0  0  0  0  0  0  0  0  0  0  0
   -0.7629   -0.5232    0.3684 C   0  0  0  0  0  0  0  0  0  0  0  0
   -1.4790    0.5478   -0.3834 C   0  0  0  0  0  0  0  0  0  0  0  0
   -2.8735    0.6741    0.1711 N   0  0  0  0  0  0  0  0  0  0  0  0
   -3.6079    1.5427   -0.6946 C   0  0  0  0  0  0  0  0  0  0  0  0
   -4.8716    2.1216   -0.1329 C   0  0  0  0  0  0  0  0  0  0  0  0
   -5.8456    1.1700    0.2619 N   0  0  0  0  0  0  0  0  0  0  0  0
   -6.9892    1.7220    0.9144 C   0  0  0  0  0  0  0  0  0  0  0  0
   -7.9256    2.5180    0.0799 C   0  0  0  0  0  0  0  0  0  0  0  0
   -7.3198    3.6095   -0.5021 O   0  0  0  0  0  0  0  0  0  0  0  0
    8.5855    2.9230    0.7485 O   0  0  0  0  0  0  0  0  0  0  0  0
    7.1915    3.0435    0.5336 C   0  0  0  0  0  0  0  0  0  0  0  0
    6.5162    1.7489    1.0029 C   0  0  0  0  0  0  0  0  0  0  0  0
    5.0894    1.8058    0.8182 N   0  0  0  0  0  0  0  0  0  0  0  0
    4.7832    1.7773   -0.5810 C   0  0  0  0  0  0  0  0  0  0  0  0
    3.2711    1.8602   -0.8209 C   0  0  0  0  0  0  0  0  0  0  0  0
    2.6320    0.7236   -0.1925 N   0  0  0  0  0  0  0  0  0  0  0  0
    1.2188    0.6951   -0.3808 C   0  0  0  0  0  0  0  0  0  0  0  0
    0.5172    1.8419    0.2622 C   0  0  0  0  0  0  0  0  0  0  0  0
   -0.9115    1.9016   -0.2407 C   0  0  0  0  0  0  0  0  0  0  0  0
    0.6756   -0.6361    0.0883 C   0  0  0  0  0  0  0  0  0  0  0  0
    1.1122   -1.6359   -0.9335 C   0  0  0  0  0  0  0  0  0  0  0  0
    1.3134   -0.9994   -2.1826 O   0  0  0  0  0  0  0  0  0  0  0  0
    0.2252   -2.8068   -1.1099 C   0  0  0  0  0  0  0  0  0  0  0  0
    0.9592   -4.0846   -1.4023 C   0  0  0  0  0  0  0  0  0  0  0  0
    0.0538   -4.9799   -1.9532 O   0  0  0  0  0  0  0  0  0  0  0  0
    1.6894   -4.6557   -0.2480 C   0  0  0  0  0  0  0  0  0  0  0  0
    1.2378   -4.1742    1.0990 C   0  0  0  0  0  0  0  0  0  0  0  0
   -0.1961   -3.7563    1.1766 C   0  0  0  0  0  0  0  0  0  0  0  0
   -0.3430   -3.0163    2.3636 O   0  0  0  0  0  0  0  0  0  0  0  0
   -0.7406   -3.0465   -0.0053 C   0  0  0  0  0  0  0  0  0  0  0  0
   -1.5346   -1.8135    0.2540 C   0  0  0  0  0  0  0  0  0  0  0  0
   -2.4244   -1.6636   -0.8358 O   0  0  0  0  0  0  0  0  0  0  0  0
   -0.7629   -0.5232    0.3684 C   0  0  0  0  0  0  0  0  0  0  0  0
   -1.4790    0.5478   -0.3834 C   0  0  0  0  0  0  0  0  0  0  0  0
   -2.8735    0.6741    0.1711 N   0  0  0  0  0  0  0  0  0  0  0  0
   -3.6079    1.5427   -0.6946 C   0  0  0  0  0  0  0  0  0  0  0  0
   -4.8716    2.1216   -0.1329 C   0  0  0  0  0  0  0  0  0  0  0  0
   -5.8456    1.1700    0.2619 N   0  0  0  0  0  0  0  0  0  0  0  0
   -6.9892    1.7220    0.9144 C   0  0  0  0  0  0  0  0  0  0  0  0
   -7.9256    2.5180    0.0799 C   0  0  0  0  0  0  0  0  0  0  0  0
   -7.3198    3.6095   -0.5021 O   0  0  0  0  0  0  0  0  0  0  0  0
    8.9631    3.8448    0.6828 H   0  0  0  0  0  0  0  0  0  0  0  0
    6.8363    3.9203    1.0920 H   0  0  0  0  0  0  0  0  0  0  0  0
    7.0295    3.1750   -0.5509 H   0  0  0  0  0  0  0  0  0  0  0  0
    6.9410    0.9265    0.3507 H   0  0  0  0  0  0  0  0  0  0  0  0
    6.8075    1.5129    2.0337 H   0  0  0  0  0  0  0  0  0  0  0  0
    4.7335    2.6803    1.2882 H   0  0  0  0  0  0  0  0  0  0  0  0
    5.2336    2.5764   -1.1888 H   0  0  0  0  0  0  0  0  0  0  0  0
    5.1829    0.8225   -0.9898 H   0  0  0  0  0  0  0  0  0  0  0  0
    2.9591    2.8054   -0.3509 H   0  0  0  0  0  0  0  0  0  0  0  0
    3.1266    1.8318   -1.9081 H   0  0  0  0  0  0  0  0  0  0  0  0
    3.0584   -0.1374   -0.6539 H   0  0  0  0  0  0  0  0  0  0  0  0
    1.0052    0.8085   -1.4943 H   0  0  0  0  0  0  0  0  0  0  0  0
    0.5485    1.8121    1.3732 H   0  0  0  0  0  0  0  0  0  0  0  0
    0.9889    2.7798   -0.0599 H   0  0  0  0  0  0  0  0  0  0  0  0
   -1.4947    2.4781    0.5280 H   0  0  0  0  0  0  0  0  0  0  0  0
   -0.9786    2.5271   -1.1630 H   0  0  0  0  0  0  0  0  0  0  0  0
    1.2446   -0.8391    1.0513 H   0  0  0  0  0  0  0  0  0  0  0  0
    2.1504   -1.9837   -0.6409 H   0  0  0  0  0  0  0  0  0  0  0  0
    1.7684   -1.6691   -2.7892 H   0  0  0  0  0  0  0  0  0  0  0  0
   -0.4002   -2.6077   -2.0320 H   0  0  0  0  0  0  0  0  0  0  0  0
    1.6748   -3.8198   -2.2432 H   0  0  0  0  0  0  0  0  0  0  0  0
   -0.0193   -5.7644   -1.3720 H   0  0  0  0  0  0  0  0  0  0  0  0
    2.7748   -4.3536   -0.3543 H   0  0  0  0  0  0  0  0  0  0  0  0
    1.7058   -5.7615   -0.3554 H   0  0  0  0  0  0  0  0  0  0  0  0
    1.8813   -3.3479    1.5201 H   0  0  0  0  0  0  0  0  0  0  0  0
    1.4128   -5.0301    1.8141 H   0  0  0  0  0  0  0  0  0  0  0  0
   -0.7688   -4.7078    1.4013 H   0  0  0  0  0  0  0  0  0  0  0  0
   -1.1471   -3.2817    2.8807 H   0  0  0  0  0  0  0  0  0  0  0  0
   -1.4957   -3.7794   -0.4659 H   0  0  0  0  0  0  0  0  0  0  0  0
   -2.1974   -1.9797    1.1335 H   0  0  0  0  0  0  0  0  0  0  0  0
   -3.0573   -2.4260   -0.8750 H   0  0  0  0  0  0  0  0  0  0  0  0
   -0.8541   -0.2214    1.4637 H   0  0  0  0  0  0  0  0  0  0  0  0
   -1.6747    0.2549   -1.4494 H   0  0  0  0  0  0  0  0  0  0  0  0
   -2.8124    1.1300    1.1097 H   0  0  0  0  0  0  0  0  0  0  0  0
   -2.9418    2.3302   -1.0965 H   0  0  0  0  0  0  0  0  0  0  0  0
   -3.9194    0.9672   -1.6335 H   0  0  0  0  0  0  0  0  0  0  0  0
   -4.5892    2.8323    0.6870 H   0  0  0  0  0  0  0  0  0  0  0  0
   -5.3011    2.7832   -0.9585 H   0  0  0  0  0  0  0  0  0  0  0  0
   -5.4326    0.4145    0.8149 H   0  0  0  0  0  0  0  0  0  0  0  0
   -7.5832    0.8846    1.4041 H   0  0  0  0  0  0  0  0  0  0  0  0
   -6.6130    2.3386    1.7934 H   0  0  0  0  0  0  0  0  0  0  0  0
   -8.3591    1.8358   -0.7077 H   0  0  0  0  0  0  0  0  0  0  0  0
   -8.7990    2.8880    0.7016 H   0  0  0  0  0  0  0  0  0  0  0  0
   -6.8344    4.1149    0.2139 H   0  0  0  0  0  0  0  0  0  0  0  0
    8.9631    3.8448    0.6828 H   0  0  0  0  0  0  0  0  0  0  0  0
    6.8363    3.9203    1.0920 H   0  0  0  0  0  0  0  0  0  0  0  0
    7.0295    3.1750   -0.5509 H   0  0  0  0  0  0  0  0  0  0  0  0
    6.9410    0.9265    0.3507 H   0  0  0  0  0  0  0  0  0  0  0  0
    6.8075    1.5129    2.0337 H   0  0  0  0  0  0  0  0  0  0  0  0
    4.7335    2.6803    1.2882 H   0  0  0  0  0  0  0  0  0  0  0  0
    5.2336    2.5764   -1.1888 H   0  0  0  0  0  0  0  0  0  0  0  0
    5.1829    0.8225   -0.9898 H   0  0  0  0  0  0  0  0  0  0  0  0
    2.9591    2.8054   -0.3509 H   0  0  0  0  0  0  0  0  0  0  0  0
    3.1266    1.8318   -1.9081 H   0  0  0  0  0  0  0  0  0  0  0  0
    3.0584   -0.1374   -0.6539 H   0  0  0  0  0  0  0  0  0  0  0  0
    1.0052    0.8085   -1.4943 H   0  0  0  0  0  0  0  0  0  0  0  0
    0.5485    1.8121    1.3732 H   0  0  0  0  0  0  0  0  0  0  0  0
    0.9889    2.7798   -0.0599 H   0  0  0  0  0  0  0  0  0  0  0  0
   -1.4947    2.4781    0.5280 H   0  0  0  0  0  0  0  0  0  0  0  0
   -0.9786    2.5271   -1.1630 H   0  0  0  0  0  0  0  0  0  0  0  0
    1.2446   -0.8391    1.0513 H   0  0  0  0  0  0  0  0  0  0  0  0
    2.1504   -1.9837   -0.6409 H   0  0  0  0  0  0  0  0  0  0  0  0
    1.7684   -1.6691   -2.7892 H   0  0  0  0  0  0  0  0  0  0  0  0
   -0.4002   -2.6077   -2.0320 H   0  0  0  0  0  0  0  0  0  0  0  0
    1.6748   -3.8198   -2.2432 H   0  0  0  0  0  0  0  0  0  0  0  0
   -0.0193   -5.7644   -1.3720 H   0  0  0  0  0  0  0  0  0  0  0  0
    2.7748   -4.3536   -0.3543 H   0  0  0  0  0  0  0  0  0  0  0  0
    1.7058   -5.7615   -0.3554 H   0  0  0  0  0  0  0  0  0  0  0  0
    1.8813   -3.3479    1.5201 H   0  0  0  0  0  0  0  0  0  0  0  0
    1.4128   -5.0301    1.8141 H   0  0  0  0  0  0  0  0  0  0  0  0
   -0.7688   -4.7078    1.4013 H   0  0  0  0  0  0  0  0  0  0  0  0
   -1.1471   -3.2817    2.8807 H   0  0  0  0  0  0  0  0  0  0  0  0
   -1.4957   -3.7794   -0.4659 H   0  0  0  0  0  0  0  0  0  0  0  0
   -2.1974   -1.9797    1.1335 H   0  0  0  0  0  0  0  0  0  0  0  0
   -3.0573   -2.4260   -0.8750 H   0  0  0  0  0  0  0  0  0  0  0  0
   -0.8541   -0.2214    1.4637 H   0  0  0  0  0  0  0  0  0  0  0  0
   -1.6747    0.2549   -1.4494 H   0  0  0  0  0  0  0  0  0  0  0  0
   -2.8124    1.1300    1.1097 H   0  0  0  0  0  0  0  0  0  0  0  0
   -2.9418    2.3302   -1.0965 H   0  0  0  0  0  0  0  0  0  0  0  0
   -3.9194    0.9672   -1.6335 H   0  0  0  0  0  0  0  0  0  0  0  0
   -4.5892    2.8323    0.6870 H   0  0  0  0  0  0  0  0  0  0  0  0
   -5.3011    2.7832   -0.9585 H   0  0  0  0  0  0  0  0  0  0  0  0
   -5.4326    0.4145    0.8149 H   0  0  0  0  0  0  0  0  0  0  0  0
   -7.5832    0.8846    1.4041 H   0  0  0  0  0  0  0  0  0  0  0  0
   -6.6130    2.3386    1.7934 H   0  0  0  0  0  0  0  0  0  0  0  0
   -8.3591    1.8358   -0.7077 H   0  0  0  0  0  0  0  0  0  0  0  0
   -8.7990    2.8880    0.7016 H   0  0  0  0  0  0  0  0  0  0  0  0
   -6.8344    4.1149    0.2139 H   0  0  0  0  0  0  0  0  0  0  0  0
  1  2  1  0
  2  3  1  0
  3  4  1  0
  4  5  1  0
  5  6  1  0
  6  7  1  0
  7  8  1  0
  8  9  1  0
  9 10  1  0
  8 11  1  0
 11 12  1  0
 12 13  1  0
 12 14  1  0
 14 15  1  0
 15 16  1  0
 15 17  1  0
 17 18  1  0
 18 19  1  0
 19 20  1  0
 14 21  1  0
 19 21  1  0
 21 22  1  0
 22 23  1  0
 11 24  1  0
 22 24  1  0
 10 25  1  0
 24 25  1  0
 25 26  1  0
 26 27  1  0
 27 28  1  0
 28 29  1  0
 29 30  1  0
 30 31  1  0
 31 32  1  0
 33 34  1  0
 34 35  1  0
 35 36  1  0
 36 37  1  0
 37 38  1  0
 38 39  1  0
 39 40  1  0
 40 41  1  0
 41 42  1  0
 40 43  1  0
 43 44  1  0
 44 45  1  0
 44 46  1  0
 46 47  1  0
 47 48  1  0
 47 49  1  0
 49 50  1  0
 50 51  1  0
 51 52  1  0
 46 53  1  0
 51 53  1  0
 53 54  1  0
 54 55  1  0
 43 56  1  0
 54 56  1  0
 42 57  1  0
 56 57  1  0
 57 58  1  0
 58 59  1  0
 59 60  1  0
 60 61  1  0
 61 62  1  0
 62 63  1  0
 63 64  1  0
  1 65  1  0
  2 66  1  0
  2 67  1  0
  3 68  1  0
  3 69  1  0
  4 70  1  0
  5 71  1  0
  5 72  1  0
  6 73  1  0
  6 74  1  0
  7 75  1  0
  8 76  1  0
  9 77  1  0
  9 78  1  0
 10 79  1  0
 10 80  1  0
 11 81  1  0
 12 82  1  0
 13 83  1  0
 14 84  1  0
 15 85  1  0
 16 86  1  0
 17 87  1  0
 17 88  1  0
 18 89  1  0
 18 90  1  0
 19 91  1  0
 20 92  1  0
 21 93  1  0
 22 94  1  0
 23 95  1  0
 24 96  1  0
 25 97  1  0
 26 98  1  0
 27 99  1  0
 27100  1  0
 28101  1  0
 28102  1  0
 29103  1  0
 30104  1  0
 30105  1  0
 31106  1  0
 31107  1  0
 32108  1  0
 33109  1  0
 34110  1  0
 34111  1  0
 35112  1  0
 35113  1  0
 36114  1  0
 37115  1  0
 37116  1  0
 38117  1  0
 38118  1  0
 39119  1  0
 40120  1  0
 41121  1  0
 41122  1  0
 42123  1  0
 42124  1  0
 43125  1  0
 44126  1  0
 45127  1  0
 46128  1  0
 47129  1  0
 48130  1  0
 49131  1  0
 49132  1  0
 50133  1  0
 50134  1  0
 51135  1  0
 52136  1  0
 53137  1  0
 54138  1  0
 55139  1  0
 56140  1  0
 57141  1  0
 58142  1  0
 59143  1  0
 59144  1  0
 60145  1  0
 60146  1  0
 61147  1  0
 62148  1  0
 62149  1  0
 63150  1  0
 63151  1  0
 64152  1  0
M  END
>  <PDBID>  (1) 
4G0V

>  <PDB ID>  (1) 
4G0V

>  <Generic Name>  (1) 
Mitoxantrone

>  <Brand Name>  (1) 
Mitoxantrone#Mitoxantrone Hydrochloride#Mitoxantrone Injection#Mitoxantrone Injection USP#Novantrone#Novantrone Inj 2mg/ml

>  <DrugBank ID>  (1) 
DB01204

>  <ATC Codes>  (1) 
L01DB07

>  <Ligand ID>  (1) 
MIX

>  <Target Name>  (1) 
DNA topoisomerase 2-alpha

>  <UniProt ID>  (1) 
P11388

>  <PDB ID.1>  (1) 
4G0V

>  <Seq. Identity>  (1) 
78%

$$$$
