PDB_DB06335_02
     RDKit          3D

106114  0  0  0  0  0  0  0  0999 V2000
   -1.0605    0.3396    0.0443 C   0  0  1  0  0  0  0  0  0  0  0  0
    0.3225    0.1735    0.5997 C   0  0  1  0  0  0  0  0  0  0  0  0
   -2.0176   -0.0133    1.2017 C   0  0  0  0  0  0  0  0  0  0  0  0
   -3.4623   -0.0444    0.7594 C   0  0  1  0  0  0  0  0  0  0  0  0
   -2.8929    1.8657   -0.6130 C   0  0  2  0  0  0  0  0  0  0  0  0
   -2.7847   -0.3718   -1.5612 C   0  0  1  0  0  0  0  0  0  0  0  0
   -3.8272    1.3920    0.4657 C   0  0  0  0  0  0  0  0  0  0  0  0
   -3.5923   -0.9420   -0.4210 C   0  0  0  0  0  0  0  0  0  0  0  0
   -3.2111    1.0371   -1.8513 C   0  0  0  0  0  0  0  0  0  0  0  0
    2.9211   -2.1020   -0.9004 C   0  0  1  0  0  0  0  0  0  0  0  0
    4.2915   -1.6410   -1.2842 C   0  0  0  0  0  0  0  0  0  0  0  0
    2.7064   -2.1248    0.6016 C   0  0  0  0  0  0  0  0  0  0  0  0
    4.3592   -0.4725    1.4811 C   0  0  0  0  0  0  0  0  0  0  0  0
    4.5229    0.8925    1.9006 N   0  0  0  0  0  0  0  0  0  0  0  0
   -1.4289    1.7843   -0.2633 C   0  0  0  0  0  0  0  0  0  0  0  0
   -1.3155   -0.4578   -1.1753 C   0  0  0  0  0  0  0  0  0  0  0  0
    1.3396    0.3821   -0.4731 C   0  0  0  0  0  0  0  0  0  0  0  0
    0.6392    1.2264    1.5953 N   0  0  0  0  0  0  0  0  0  0  0  0
    2.6823    0.0329   -0.1595 N   0  0  0  0  0  0  0  0  0  0  0  0
    1.2982    1.6514   -1.0035 O   0  0  0  0  0  0  0  0  0  0  0  0
   -4.1952   -0.5724    1.8202 O   0  0  0  0  0  0  0  0  0  0  0  0
    3.2419   -0.6460   -1.2624 C   0  0  2  0  0  0  0  0  0  0  0  0
    2.9085   -0.7183    1.0273 C   0  0  1  0  0  0  0  0  0  0  0  0
   -1.0605    0.3396    0.0443 C   0  0  1  0  0  0  0  0  0  0  0  0
    0.3225    0.1735    0.5997 C   0  0  1  0  0  0  0  0  0  0  0  0
   -2.0176   -0.0133    1.2017 C   0  0  0  0  0  0  0  0  0  0  0  0
   -3.4623   -0.0444    0.7594 C   0  0  1  0  0  0  0  0  0  0  0  0
   -2.8929    1.8657   -0.6130 C   0  0  2  0  0  0  0  0  0  0  0  0
   -2.7847   -0.3718   -1.5612 C   0  0  1  0  0  0  0  0  0  0  0  0
   -3.8272    1.3920    0.4657 C   0  0  0  0  0  0  0  0  0  0  0  0
   -3.5923   -0.9420   -0.4210 C   0  0  0  0  0  0  0  0  0  0  0  0
   -3.2111    1.0371   -1.8513 C   0  0  0  0  0  0  0  0  0  0  0  0
    2.9211   -2.1020   -0.9004 C   0  0  1  0  0  0  0  0  0  0  0  0
    4.2915   -1.6410   -1.2842 C   0  0  0  0  0  0  0  0  0  0  0  0
    2.7064   -2.1248    0.6016 C   0  0  0  0  0  0  0  0  0  0  0  0
    4.3592   -0.4725    1.4811 C   0  0  0  0  0  0  0  0  0  0  0  0
    4.5229    0.8925    1.9006 N   0  0  0  0  0  0  0  0  0  0  0  0
   -1.4289    1.7843   -0.2633 C   0  0  0  0  0  0  0  0  0  0  0  0
   -1.3155   -0.4578   -1.1753 C   0  0  0  0  0  0  0  0  0  0  0  0
    1.3396    0.3821   -0.4731 C   0  0  0  0  0  0  0  0  0  0  0  0
    0.6392    1.2264    1.5953 N   0  0  0  0  0  0  0  0  0  0  0  0
    2.6823    0.0329   -0.1595 N   0  0  0  0  0  0  0  0  0  0  0  0
    1.2982    1.6514   -1.0035 O   0  0  0  0  0  0  0  0  0  0  0  0
   -4.1952   -0.5724    1.8202 O   0  0  0  0  0  0  0  0  0  0  0  0
    3.2419   -0.6460   -1.2624 C   0  0  2  0  0  0  0  0  0  0  0  0
    2.9085   -0.7183    1.0273 C   0  0  1  0  0  0  0  0  0  0  0  0
    0.3825   -0.8214    1.0569 H   0  0  0  0  0  0  0  0  0  0  0  0
   -1.8959    0.8029    1.9452 H   0  0  0  0  0  0  0  0  0  0  0  0
   -1.7237   -0.9895    1.5789 H   0  0  0  0  0  0  0  0  0  0  0  0
   -3.1884    2.9033   -0.8475 H   0  0  0  0  0  0  0  0  0  0  0  0
   -2.9262   -1.0000   -2.4489 H   0  0  0  0  0  0  0  0  0  0  0  0
   -4.8527    1.3528    0.0077 H   0  0  0  0  0  0  0  0  0  0  0  0
   -3.7989    1.9502    1.3953 H   0  0  0  0  0  0  0  0  0  0  0  0
   -3.1360   -1.9310   -0.1299 H   0  0  0  0  0  0  0  0  0  0  0  0
   -4.6430   -1.1266   -0.7159 H   0  0  0  0  0  0  0  0  0  0  0  0
   -4.3015    1.0644   -1.9647 H   0  0  0  0  0  0  0  0  0  0  0  0
   -2.7454    1.4572   -2.7497 H   0  0  0  0  0  0  0  0  0  0  0  0
    2.2700   -2.6728   -1.5602 H   0  0  0  0  0  0  0  0  0  0  0  0
    5.0978   -1.7597   -0.5462 H   0  0  0  0  0  0  0  0  0  0  0  0
    4.5969   -2.0174   -2.2858 H   0  0  0  0  0  0  0  0  0  0  0  0
    1.7707   -2.6066    0.9079 H   0  0  0  0  0  0  0  0  0  0  0  0
    3.5374   -2.7557    1.0437 H   0  0  0  0  0  0  0  0  0  0  0  0
    4.7258   -1.2221    2.1775 H   0  0  0  0  0  0  0  0  0  0  0  0
    4.0551    1.0734    2.8116 H   0  0  0  0  0  0  0  0  0  0  0  0
    4.2345    1.5294    1.1419 H   0  0  0  0  0  0  0  0  0  0  0  0
   -1.3186    2.3339    0.7053 H   0  0  0  0  0  0  0  0  0  0  0  0
   -0.8777    2.2527   -1.0553 H   0  0  0  0  0  0  0  0  0  0  0  0
   -1.0476   -1.5148   -1.1148 H   0  0  0  0  0  0  0  0  0  0  0  0
   -0.7971    0.0570   -2.0435 H   0  0  0  0  0  0  0  0  0  0  0  0
    1.0162   -0.2994   -1.3432 H   0  0  0  0  0  0  0  0  0  0  0  0
   -0.0602    1.3432    2.3097 H   0  0  0  0  0  0  0  0  0  0  0  0
    0.7396    2.1065    0.9854 H   0  0  0  0  0  0  0  0  0  0  0  0
    2.1526    1.9815   -1.3556 H   0  0  0  0  0  0  0  0  0  0  0  0
   -3.8711   -1.5115    1.9393 H   0  0  0  0  0  0  0  0  0  0  0  0
    2.8431   -0.2835   -2.2609 H   0  0  0  0  0  0  0  0  0  0  0  0
    2.3164   -0.3676    1.8871 H   0  0  0  0  0  0  0  0  0  0  0  0
    0.3825   -0.8214    1.0569 H   0  0  0  0  0  0  0  0  0  0  0  0
   -1.8959    0.8029    1.9452 H   0  0  0  0  0  0  0  0  0  0  0  0
   -1.7237   -0.9895    1.5789 H   0  0  0  0  0  0  0  0  0  0  0  0
   -3.1884    2.9033   -0.8475 H   0  0  0  0  0  0  0  0  0  0  0  0
   -2.9262   -1.0000   -2.4489 H   0  0  0  0  0  0  0  0  0  0  0  0
   -4.8527    1.3528    0.0077 H   0  0  0  0  0  0  0  0  0  0  0  0
   -3.7989    1.9502    1.3953 H   0  0  0  0  0  0  0  0  0  0  0  0
   -3.1360   -1.9310   -0.1299 H   0  0  0  0  0  0  0  0  0  0  0  0
   -4.6430   -1.1266   -0.7159 H   0  0  0  0  0  0  0  0  0  0  0  0
   -4.3015    1.0644   -1.9647 H   0  0  0  0  0  0  0  0  0  0  0  0
   -2.7454    1.4572   -2.7497 H   0  0  0  0  0  0  0  0  0  0  0  0
    2.2700   -2.6728   -1.5602 H   0  0  0  0  0  0  0  0  0  0  0  0
    5.0978   -1.7597   -0.5462 H   0  0  0  0  0  0  0  0  0  0  0  0
    4.5969   -2.0174   -2.2858 H   0  0  0  0  0  0  0  0  0  0  0  0
    1.7707   -2.6066    0.9079 H   0  0  0  0  0  0  0  0  0  0  0  0
    3.5374   -2.7557    1.0437 H   0  0  0  0  0  0  0  0  0  0  0  0
    4.7258   -1.2221    2.1775 H   0  0  0  0  0  0  0  0  0  0  0  0
    4.0551    1.0734    2.8116 H   0  0  0  0  0  0  0  0  0  0  0  0
    4.2345    1.5294    1.1419 H   0  0  0  0  0  0  0  0  0  0  0  0
   -1.3186    2.3339    0.7053 H   0  0  0  0  0  0  0  0  0  0  0  0
   -0.8777    2.2527   -1.0553 H   0  0  0  0  0  0  0  0  0  0  0  0
   -1.0476   -1.5148   -1.1148 H   0  0  0  0  0  0  0  0  0  0  0  0
   -0.7971    0.0570   -2.0435 H   0  0  0  0  0  0  0  0  0  0  0  0
    1.0162   -0.2994   -1.3432 H   0  0  0  0  0  0  0  0  0  0  0  0
   -0.0602    1.3432    2.3097 H   0  0  0  0  0  0  0  0  0  0  0  0
    0.7396    2.1065    0.9854 H   0  0  0  0  0  0  0  0  0  0  0  0
    2.1526    1.9815   -1.3556 H   0  0  0  0  0  0  0  0  0  0  0  0
   -3.8711   -1.5115    1.9393 H   0  0  0  0  0  0  0  0  0  0  0  0
    2.8431   -0.2835   -2.2609 H   0  0  0  0  0  0  0  0  0  0  0  0
    2.3164   -0.3676    1.8871 H   0  0  0  0  0  0  0  0  0  0  0  0
  1  2  1  0
  1  3  1  0
  3  4  1  0
  4  7  1  0
  5  7  1  0
  4  8  1  0
  6  8  1  0
  5  9  1  0
  6  9  1  0
 10 11  1  0
 10 12  1  0
 13 14  1  0
  1 15  1  6
  5 15  1  0
  1 16  1  0
  6 16  1  0
  2 17  1  0
  2 18  1  0
 17 19  1  0
 17 20  1  0
  4 21  1  1
 10 22  1  0
 11 22  1  0
 19 22  1  0
 12 23  1  0
 13 23  1  0
 19 23  1  0
 24 25  1  0
 24 26  1  1
 26 27  1  0
 27 30  1  0
 28 30  1  0
 27 31  1  0
 29 31  1  0
 28 32  1  0
 29 32  1  0
 33 34  1  0
 33 35  1  0
 36 37  1  0
 24 38  1  0
 28 38  1  0
 24 39  1  0
 29 39  1  0
 25 40  1  0
 25 41  1  0
 40 42  1  0
 40 43  1  0
 27 44  1  1
 33 45  1  0
 34 45  1  0
 42 45  1  0
 35 46  1  0
 36 46  1  0
 42 46  1  0
  2 47  1  1
  3 48  1  0
  3 49  1  0
  5 50  1  6
  6 51  1  6
  7 52  1  0
  7 53  1  0
  8 54  1  0
  8 55  1  0
  9 56  1  0
  9 57  1  0
 10 58  1  6
 11 59  1  0
 11 60  1  0
 12 61  1  0
 12 62  1  0
 13 63  1  0
 14 64  1  0
 14 65  1  0
 15 66  1  0
 15 67  1  0
 16 68  1  0
 16 69  1  0
 17 70  1  0
 18 71  1  0
 18 72  1  0
 20 73  1  0
 21 74  1  0
 22 75  1  6
 23 76  1  1
 25 77  1  1
 26 78  1  0
 26 79  1  0
 28 80  1  6
 29 81  1  6
 30 82  1  0
 30 83  1  0
 31 84  1  0
 31 85  1  0
 32 86  1  0
 32 87  1  0
 33 88  1  6
 34 89  1  0
 34 90  1  0
 35 91  1  0
 35 92  1  0
 36 93  1  0
 37 94  1  0
 37 95  1  0
 38 96  1  0
 38 97  1  0
 39 98  1  0
 39 99  1  0
 40100  1  0
 41101  1  0
 41102  1  0
 43103  1  0
 44104  1  0
 45105  1  6
 46106  1  1
M  END
>  <PDBID>  (1) 
3BJM

>  <PDB ID>  (1) 
3BJM

>  <Generic Name>  (1) 
Saxagliptin

>  <Brand Name>  (1) 
Kombiglyze XR#Komboglyze#Onglyza#Qtern

>  <DrugBank ID>  (1) 
DB06335

>  <ATC Codes>  (1) 
A10BD10#A10BH03#A10BD21

>  <Ligand ID>  (1) 
BJM

>  <Target Name>  (1) 
Dipeptidyl peptidase 4

>  <UniProt ID>  (1) 
P27487

>  <PDB ID.1>  (1) 
3BJM

>  <Seq. Identity>  (1) 
100%

$$$$
