PDB_DB00624_05
     RDKit          3D

 53 56  0  0  0  0  0  0  0  0999 V2000
    2.4370   -1.4757    0.3120 C   0  0  0  0  0  0  0  0  0  0  0  0
    3.6316   -1.4555   -0.5872 C   0  0  0  0  0  0  0  0  0  0  0  0
    4.4264   -0.1785   -0.4997 C   0  0  0  0  0  0  0  0  0  0  0  0
    5.1864   -0.1357    0.6580 O   0  0  0  0  0  0  0  0  0  0  0  0
    3.5636    1.0438   -0.6879 C   0  0  0  0  0  0  0  0  0  0  0  0
    2.1624    0.5957   -0.9379 C   0  0  0  0  0  0  0  0  0  0  0  0
    1.2615    1.7551   -1.3334 C   0  0  0  0  0  0  0  0  0  0  0  0
   -0.0553    1.1163   -1.7872 C   0  0  0  0  0  0  0  0  0  0  0  0
   -0.6723    0.5302   -0.5435 C   0  0  2  0  0  0  0  0  0  0  0  0
    0.1928   -0.5765    0.0535 C   0  0  1  0  0  0  0  0  0  0  0  0
    1.6140   -0.1912    0.2172 C   0  0  1  0  0  0  0  0  0  0  0  0
   -0.4272   -0.9244    1.3929 C   0  0  0  0  0  0  0  0  0  0  0  0
   -1.8577   -1.3817    1.2602 C   0  0  0  0  0  0  0  0  0  0  0  0
   -2.6766   -0.3203    0.5799 C   0  0  1  0  0  0  0  0  0  0  0  0
   -2.0078   -0.0566   -0.7692 C   0  0  1  0  0  0  0  0  0  0  0  0
   -3.0114    0.7870   -1.4444 C   0  0  0  0  0  0  0  0  0  0  0  0
   -4.3293    0.0971   -1.0826 C   0  0  0  0  0  0  0  0  0  0  0  0
   -4.0191   -0.7807    0.1190 C   0  0  2  0  0  0  0  0  0  0  0  0
   -4.9808   -0.4903    1.1031 O   0  0  0  0  0  0  0  0  0  0  0  0
   -2.8432    0.9262    1.3875 C   0  0  0  0  0  0  0  0  0  0  0  0
    1.7690    0.5276    1.5418 C   0  0  0  0  0  0  0  0  0  0  0  0
    1.8235   -2.3642    0.0267 H   0  0  0  0  0  0  0  0  0  0  0  0
    2.7620   -1.6717    1.3607 H   0  0  0  0  0  0  0  0  0  0  0  0
    4.3137   -2.2743   -0.2417 H   0  0  0  0  0  0  0  0  0  0  0  0
    3.3823   -1.7257   -1.6456 H   0  0  0  0  0  0  0  0  0  0  0  0
    5.1679   -0.2186   -1.3509 H   0  0  0  0  0  0  0  0  0  0  0  0
    6.1583   -0.2555    0.4995 H   0  0  0  0  0  0  0  0  0  0  0  0
    3.8881    1.6198   -1.6044 H   0  0  0  0  0  0  0  0  0  0  0  0
    3.6490    1.7708    0.1441 H   0  0  0  0  0  0  0  0  0  0  0  0
    2.1795   -0.0874   -1.8175 H   0  0  0  0  0  0  0  0  0  0  0  0
    1.7504    2.3042   -2.1385 H   0  0  0  0  0  0  0  0  0  0  0  0
    1.0511    2.3426   -0.4313 H   0  0  0  0  0  0  0  0  0  0  0  0
    0.1458    0.3454   -2.5623 H   0  0  0  0  0  0  0  0  0  0  0  0
   -0.7175    1.8965   -2.1568 H   0  0  0  0  0  0  0  0  0  0  0  0
   -0.6608    1.3505    0.2252 H   0  0  0  0  0  0  0  0  0  0  0  0
    0.0520   -1.4745   -0.5951 H   0  0  0  0  0  0  0  0  0  0  0  0
   -0.4653    0.0237    2.0056 H   0  0  0  0  0  0  0  0  0  0  0  0
    0.1301   -1.7279    1.9189 H   0  0  0  0  0  0  0  0  0  0  0  0
   -2.2569   -1.5055    2.2805 H   0  0  0  0  0  0  0  0  0  0  0  0
   -1.9364   -2.3236    0.7217 H   0  0  0  0  0  0  0  0  0  0  0  0
   -1.8973   -1.0432   -1.2505 H   0  0  0  0  0  0  0  0  0  0  0  0
   -2.9326    0.7738   -2.5649 H   0  0  0  0  0  0  0  0  0  0  0  0
   -2.9963    1.8178   -1.0904 H   0  0  0  0  0  0  0  0  0  0  0  0
   -4.6018   -0.5992   -1.9219 H   0  0  0  0  0  0  0  0  0  0  0  0
   -5.1307    0.8244   -0.8826 H   0  0  0  0  0  0  0  0  0  0  0  0
   -4.0604   -1.8584   -0.1302 H   0  0  0  0  0  0  0  0  0  0  0  0
   -4.8843   -1.0828    1.8896 H   0  0  0  0  0  0  0  0  0  0  0  0
   -2.3207    0.8036    2.3802 H   0  0  0  0  0  0  0  0  0  0  0  0
   -2.5231    1.8466    0.8937 H   0  0  0  0  0  0  0  0  0  0  0  0
   -3.9232    1.0933    1.6754 H   0  0  0  0  0  0  0  0  0  0  0  0
    2.8322    0.8085    1.7458 H   0  0  0  0  0  0  0  0  0  0  0  0
    1.5302   -0.2371    2.3363 H   0  0  0  0  0  0  0  0  0  0  0  0
    1.1271    1.4158    1.6043 H   0  0  0  0  0  0  0  0  0  0  0  0
  1  2  1  0
  2  3  1  0
  3  4  1  0
  3  5  1  0
  5  6  1  0
  6  7  1  0
  7  8  1  0
  8  9  1  0
  9 10  1  0
  1 11  1  0
  6 11  1  0
 10 11  1  0
 10 12  1  0
 12 13  1  0
 13 14  1  0
  9 15  1  0
 14 15  1  0
 15 16  1  0
 16 17  1  0
 14 18  1  0
 17 18  1  0
 18 19  1  0
 14 20  1  1
 11 21  1  1
  1 22  1  0
  1 23  1  0
  2 24  1  0
  2 25  1  0
  3 26  1  0
  4 27  1  0
  5 28  1  0
  5 29  1  0
  6 30  1  0
  7 31  1  0
  7 32  1  0
  8 33  1  0
  8 34  1  0
  9 35  1  1
 10 36  1  6
 12 37  1  0
 12 38  1  0
 13 39  1  0
 13 40  1  0
 15 41  1  6
 16 42  1  0
 16 43  1  0
 17 44  1  0
 17 45  1  0
 18 46  1  6
 19 47  1  0
 20 48  1  0
 20 49  1  0
 20 50  1  0
 21 51  1  0
 21 52  1  0
 21 53  1  0
M  END
>  <PDBID>  (1) 
2AM9

>  <PDB ID>  (1) 
2AM9

>  <Generic Name>  (1) 
Testosterone

>  <Brand Name>  (1) 
Andriol#Androderm#Androgel#Aveed#Axiron#Delatestryl#Depo-testosterone#Depo-testosterone Inj 100mg/ml#Fortesta#Malogen Aqueous 100 Sus 100mg/ml#Malogex La200 Liq 200mg/ml#Natesto#Neo Pause Injection#PMS-testosterone#PMS-testosterone Enanthate Inj 200mg/ml USP#Scheinpharm Testone-cyp Inject.- Im 100mg/ml#Striant#Taro-testosterone#Testim#Testim 1%#Testopel#Testosterone#Testosterone Cypionate#Testosterone Cypionate Injection USP#Testosterone Cypionate Injection, USP#Testosterone Enanthate#Testosterone Enanthate Inj 200mg/ml#Vogelxo#Andronate 100#Andronate 200#Andropatch#Andropository 200#Andryl 200#Bio-T-Gel#Fortigel#Intrinsa#Livensa#Nebido#Sustanon#Testamone 100#Testaqua IM#Testoderm#Testoderm TTS#Testogel#Testolin#Testopatch#Testopel Pellets#Testrin-P.A#Testro AQ#Tostrelle#Tostrex#Virormone

>  <DrugBank ID>  (1) 
DB00624

>  <ATC Codes>  (1) 
G03EA02#G03BA03

>  <Ligand ID>  (1) 
TES

>  <Target Name>  (1) 
Androgen receptor

>  <UniProt ID>  (1) 
P10275

>  <PDB ID.1>  (1) 
2AM9

>  <Seq. Identity>  (1) 
100%

$$$$
