PDB_DB01034_08
     RDKit          3D

 82 82  0  0  0  0  0  0  0  0999 V2000
   -3.5879    1.7007    1.7948 O   0  0  0  0  0  0  0  0  0  0  0  0
   -3.5114    1.0370    0.5425 C   0  0  0  0  0  0  0  0  0  0  0  0
   -4.4009    1.8366   -0.3227 N   0  0  0  0  0  0  0  0  0  0  0  0
   -4.0915   -0.3209    0.6592 C   0  0  2  0  0  0  0  0  0  0  0  0
   -3.2175   -1.1491    1.5329 O   0  0  0  0  0  0  0  0  0  0  0  0
   -3.6166   -1.5650    0.2268 C   0  0  2  0  0  0  0  0  0  0  0  0
   -2.6215   -1.9784   -0.7678 C   0  0  1  0  0  0  0  0  0  0  0  0
   -3.3154   -2.3001   -1.9553 O   0  0  0  0  0  0  0  0  0  0  0  0
   -1.4373   -1.1977   -1.0788 C   0  0  0  0  0  0  0  0  0  0  0  0
   -0.5472   -1.0256    0.1286 C   0  0  0  0  0  0  0  0  0  0  0  0
    0.6885   -0.2063   -0.2073 C   0  0  0  0  0  0  0  0  0  0  0  0
    1.5871   -0.0202    0.9684 C   0  0  0  0  0  0  0  0  0  0  0  0
    2.8022    0.8001    0.6072 C   0  0  0  0  0  0  0  0  0  0  0  0
    3.6211    0.1545   -0.4751 C   0  0  0  0  0  0  0  0  0  0  0  0
    4.8380    0.9914   -0.8196 C   0  0  0  0  0  0  0  0  0  0  0  0
    5.7313    1.1719    0.3896 C   0  0  0  0  0  0  0  0  0  0  0  0
   -3.4276    1.5684    1.9529 O   0  0  0  0  0  0  0  0  0  0  0  0
   -3.3838    1.0789    0.6213 C   0  0  0  0  0  0  0  0  0  0  0  0
   -4.1803    2.0768   -0.1307 N   0  0  0  0  0  0  0  0  0  0  0  0
   -4.0573   -0.2318    0.5562 C   0  0  2  0  0  0  0  0  0  0  0  0
   -3.3070   -1.2659    1.3025 O   0  0  0  0  0  0  0  0  0  0  0  0
   -3.6659   -1.4660   -0.0127 C   0  0  2  0  0  0  0  0  0  0  0  0
   -2.6917   -1.8408   -1.0531 C   0  0  0  0  0  0  0  0  0  0  0  0
   -2.1692   -3.1507   -0.7321 O   0  0  0  0  0  0  0  0  0  0  0  0
   -1.4232   -1.0277   -1.1480 C   0  0  0  0  0  0  0  0  0  0  0  0
   -0.5641   -1.0713    0.0723 C   0  0  0  0  0  0  0  0  0  0  0  0
    0.6535   -0.2031   -0.1777 C   0  0  0  0  0  0  0  0  0  0  0  0
    1.5890   -0.1687    0.9779 C   0  0  0  0  0  0  0  0  0  0  0  0
    2.7562    0.7226    0.6466 C   0  0  0  0  0  0  0  0  0  0  0  0
    3.5195    0.2474   -0.5472 C   0  0  0  0  0  0  0  0  0  0  0  0
    4.7012    1.1701   -0.8452 C   0  0  0  0  0  0  0  0  0  0  0  0
    5.6540    1.2237    0.3211 C   0  0  0  0  0  0  0  0  0  0  0  0
   -4.5045    2.0563    1.9179 H   0  0  0  0  0  0  0  0  0  0  0  0
   -2.4721    1.1222    0.2367 H   0  0  0  0  0  0  0  0  0  0  0  0
   -5.3622    1.6757    0.0670 H   0  0  0  0  0  0  0  0  0  0  0  0
   -4.1780    2.8385   -0.2244 H   0  0  0  0  0  0  0  0  0  0  0  0
   -5.1378   -0.2609    1.0937 H   0  0  0  0  0  0  0  0  0  0  0  0
   -4.3539   -2.4347    0.3717 H   0  0  0  0  0  0  0  0  0  0  0  0
   -2.2487   -3.0087   -0.4295 H   0  0  0  0  0  0  0  0  0  0  0  0
   -2.6530   -2.6432   -2.6114 H   0  0  0  0  0  0  0  0  0  0  0  0
   -1.5886   -0.2509   -1.6279 H   0  0  0  0  0  0  0  0  0  0  0  0
   -0.8187   -1.8215   -1.7977 H   0  0  0  0  0  0  0  0  0  0  0  0
   -0.1540   -2.0294    0.4626 H   0  0  0  0  0  0  0  0  0  0  0  0
   -1.0425   -0.6023    1.0121 H   0  0  0  0  0  0  0  0  0  0  0  0
    1.2418   -0.8427   -0.9593 H   0  0  0  0  0  0  0  0  0  0  0  0
    0.3962    0.7535   -0.6360 H   0  0  0  0  0  0  0  0  0  0  0  0
    1.9918   -1.0175    1.3138 H   0  0  0  0  0  0  0  0  0  0  0  0
    1.0880    0.4032    1.8539 H   0  0  0  0  0  0  0  0  0  0  0  0
    3.4541    0.9745    1.4764 H   0  0  0  0  0  0  0  0  0  0  0  0
    2.4319    1.7704    0.1903 H   0  0  0  0  0  0  0  0  0  0  0  0
    2.9991    0.0676   -1.3926 H   0  0  0  0  0  0  0  0  0  0  0  0
    3.9824   -0.8504   -0.2202 H   0  0  0  0  0  0  0  0  0  0  0  0
    4.5582    1.9987   -1.1667 H   0  0  0  0  0  0  0  0  0  0  0  0
    5.4360    0.4542   -1.5837 H   0  0  0  0  0  0  0  0  0  0  0  0
    6.0814    0.1837    0.7861 H   0  0  0  0  0  0  0  0  0  0  0  0
    6.6438    1.7195    0.0124 H   0  0  0  0  0  0  0  0  0  0  0  0
    5.2885    1.8154    1.1597 H   0  0  0  0  0  0  0  0  0  0  0  0
   -4.3628    1.5686    2.2823 H   0  0  0  0  0  0  0  0  0  0  0  0
   -2.3375    1.1497    0.3340 H   0  0  0  0  0  0  0  0  0  0  0  0
   -5.1830    1.7496   -0.0261 H   0  0  0  0  0  0  0  0  0  0  0  0
   -3.9411    1.9186   -1.1506 H   0  0  0  0  0  0  0  0  0  0  0  0
   -5.1220   -0.1597    0.9854 H   0  0  0  0  0  0  0  0  0  0  0  0
   -4.5286   -2.2491   -0.0321 H   0  0  0  0  0  0  0  0  0  0  0  0
   -3.1259   -1.9175   -2.0576 H   0  0  0  0  0  0  0  0  0  0  0  0
   -2.1214   -3.1393    0.2621 H   0  0  0  0  0  0  0  0  0  0  0  0
   -1.5675   -0.0187   -1.5802 H   0  0  0  0  0  0  0  0  0  0  0  0
   -0.8364   -1.5582   -1.9679 H   0  0  0  0  0  0  0  0  0  0  0  0
   -0.2677   -2.1243    0.2832 H   0  0  0  0  0  0  0  0  0  0  0  0
   -1.0898   -0.7185    0.9656 H   0  0  0  0  0  0  0  0  0  0  0  0
    1.1743   -0.7065   -1.0444 H   0  0  0  0  0  0  0  0  0  0  0  0
    0.3449    0.7904   -0.5390 H   0  0  0  0  0  0  0  0  0  0  0  0
    2.0150   -1.2024    1.1344 H   0  0  0  0  0  0  0  0  0  0  0  0
    1.1075    0.0960    1.9352 H   0  0  0  0  0  0  0  0  0  0  0  0
    3.4452    0.8612    1.4984 H   0  0  0  0  0  0  0  0  0  0  0  0
    2.3626    1.7494    0.3890 H   0  0  0  0  0  0  0  0  0  0  0  0
    2.8747    0.2671   -1.4682 H   0  0  0  0  0  0  0  0  0  0  0  0
    3.8715   -0.7933   -0.4385 H   0  0  0  0  0  0  0  0  0  0  0  0
    4.3220    2.1982   -1.0171 H   0  0  0  0  0  0  0  0  0  0  0  0
    5.2175    0.7981   -1.7409 H   0  0  0  0  0  0  0  0  0  0  0  0
    5.9706    0.1929    0.5961 H   0  0  0  0  0  0  0  0  0  0  0  0
    6.5495    1.7910   -0.0283 H   0  0  0  0  0  0  0  0  0  0  0  0
    5.2254    1.7951    1.1490 H   0  0  0  0  0  0  0  0  0  0  0  0
  1  2  1  0
  2  3  1  0
  2  4  1  0
  4  5  1  0
  4  6  1  0
  5  6  1  0
  6  7  1  0
  7  8  1  0
  7  9  1  0
  9 10  1  0
 10 11  1  0
 11 12  1  0
 12 13  1  0
 13 14  1  0
 14 15  1  0
 15 16  1  0
 17 18  1  0
 18 19  1  0
 18 20  1  0
 20 21  1  0
 20 22  1  0
 21 22  1  0
 22 23  1  0
 23 24  1  0
 23 25  1  0
 25 26  1  0
 26 27  1  0
 27 28  1  0
 28 29  1  0
 29 30  1  0
 30 31  1  0
 31 32  1  0
  1 33  1  0
  2 34  1  0
  3 35  1  0
  3 36  1  0
  4 37  1  1
  6 38  1  1
  7 39  1  1
  8 40  1  0
  9 41  1  0
  9 42  1  0
 10 43  1  0
 10 44  1  0
 11 45  1  0
 11 46  1  0
 12 47  1  0
 12 48  1  0
 13 49  1  0
 13 50  1  0
 14 51  1  0
 14 52  1  0
 15 53  1  0
 15 54  1  0
 16 55  1  0
 16 56  1  0
 16 57  1  0
 17 58  1  0
 18 59  1  0
 19 60  1  0
 19 61  1  0
 20 62  1  1
 22 63  1  1
 23 64  1  0
 24 65  1  0
 25 66  1  0
 25 67  1  0
 26 68  1  0
 26 69  1  0
 27 70  1  0
 27 71  1  0
 28 72  1  0
 28 73  1  0
 29 74  1  0
 29 75  1  0
 30 76  1  0
 30 77  1  0
 31 78  1  0
 31 79  1  0
 32 80  1  0
 32 81  1  0
 32 82  1  0
M  END
>  <PDBID>  (1) 
4LS7

>  <PDB ID>  (1) 
4LS7

>  <Generic Name>  (1) 
Cerulenin

>  <Brand Name>  (1) 
Helicocerin

>  <DrugBank ID>  (1) 
DB01034

>  <ATC Codes>  (1) 
nan

>  <Ligand ID>  (1) 
1X9

>  <Target Name>  (1) 
3-oxoacyl-[acyl-carrier-protein] synthase 2

>  <UniProt ID>  (1) 
P0AAI5

>  <PDB ID.1>  (1) 
4LS7

>  <Seq. Identity>  (1) 
51%

$$$$
