PDB_DB11730_08
     RDKit          3D

 78 82  0  0  0  0  0  0  0  0999 V2000
    0.0308    0.4994   -0.5001 C   0  0  2  0  0  0  0  0  0  0  0  0
   -0.4716   -1.5756    0.3783 C   0  0  0  0  0  0  0  0  0  0  0  0
   -1.8352   -1.5639   -0.2288 C   0  0  0  0  0  0  0  0  0  0  0  0
   -2.2482   -0.2584   -0.8508 C   0  0  0  0  0  0  0  0  0  0  0  0
    4.3746   -1.3669   -1.3320 C   0  0  0  0  0  0  0  0  0  0  0  0
    3.1469   -0.8266   -1.8821 N   0  0  0  0  0  0  0  0  0  0  0  0
   -2.8243   -1.8155    0.8880 C   0  0  0  0  0  0  0  0  0  0  0  0
    4.4694    1.0062   -0.8189 C   0  0  0  0  0  0  0  0  0  0  0  0
    4.8980   -0.3383   -0.3558 C   0  0  0  0  0  0  0  0  0  0  0  0
   -3.8219   -0.6640    0.8095 C   0  0  0  0  0  0  0  0  0  0  0  0
    2.3205   -0.2225   -0.8368 C   0  0  0  0  0  0  0  0  0  0  0  0
   -5.0864   -1.2130    0.1327 C   0  0  2  0  0  0  0  0  0  0  0  0
   -4.9327    3.0481   -1.0169 C   0  0  0  0  0  0  0  0  0  0  0  0
   -4.9303    3.3979    0.4771 C   0  0  0  0  0  0  0  0  0  0  0  0
   -3.6117    2.3557   -1.1673 C   0  0  0  0  0  0  0  0  0  0  0  0
   -4.3633    2.1495    1.1415 C   0  0  0  0  0  0  0  0  0  0  0  0
    7.1594   -0.4308   -1.2043 C   0  0  0  0  0  0  0  0  0  0  0  0
    6.7695   -0.2057    1.1647 C   0  0  0  0  0  0  0  0  0  0  0  0
    8.5077    0.1158   -0.7384 C   0  0  0  0  0  0  0  0  0  0  0  0
    7.5863    1.0612    1.2011 C   0  0  0  0  0  0  0  0  0  0  0  0
   -3.3572    1.6508    0.1725 C   0  0  0  0  0  0  0  0  0  0  0  0
   -6.2576   -1.6815    2.1877 C   0  0  0  0  0  0  0  0  0  0  0  0
   -6.8277   -2.8441    0.2408 C   0  0  0  0  0  0  0  0  0  0  0  0
    2.9691    1.1238   -0.5182 C   0  0  0  0  0  0  0  0  0  0  0  0
   -0.1502   -0.2264    0.7365 N   0  0  0  0  0  0  0  0  0  0  0  0
   -1.1968    0.6301   -1.2176 N   0  0  0  0  0  0  0  0  0  0  0  0
   -3.2731    0.2925   -0.0463 N   0  0  0  0  0  0  0  0  0  0  0  0
    6.2644   -0.5503   -0.1190 N   0  0  0  0  0  0  0  0  0  0  0  0
    1.0018   -0.0993   -1.3680 N   0  0  0  0  0  0  0  0  0  0  0  0
   -5.7505   -2.1806    0.9392 N   0  0  0  0  0  0  0  0  0  0  0  0
    8.3014    1.3290   -0.0053 N   0  0  0  0  0  0  0  0  0  0  0  0
   -4.7288   -1.7783   -1.1159 O   0  0  0  0  0  0  0  0  0  0  0  0
    0.2434   -2.0034   -0.3702 H   0  0  0  0  0  0  0  0  0  0  0  0
    5.0916   -1.5440   -2.1618 H   0  0  0  0  0  0  0  0  0  0  0  0
   -2.3553   -1.7700    1.8935 H   0  0  0  0  0  0  0  0  0  0  0  0
    4.6742    1.2287   -1.8779 H   0  0  0  0  0  0  0  0  0  0  0  0
   -5.8048    2.3905   -1.2244 H   0  0  0  0  0  0  0  0  0  0  0  0
   -5.0190    3.9285   -1.6527 H   0  0  0  0  0  0  0  0  0  0  0  0
   -5.9119    3.6836    0.8471 H   0  0  0  0  0  0  0  0  0  0  0  0
   -4.2023    4.2379    0.5756 H   0  0  0  0  0  0  0  0  0  0  0  0
   -2.8378    3.0771   -1.4244 H   0  0  0  0  0  0  0  0  0  0  0  0
   -3.6557    1.6154   -1.9974 H   0  0  0  0  0  0  0  0  0  0  0  0
   -5.1608    1.4384    1.4182 H   0  0  0  0  0  0  0  0  0  0  0  0
   -3.8948    2.4899    2.0883 H   0  0  0  0  0  0  0  0  0  0  0  0
    6.8376    0.1701   -2.0528 H   0  0  0  0  0  0  0  0  0  0  0  0
    7.3940   -1.4683   -1.5799 H   0  0  0  0  0  0  0  0  0  0  0  0
    7.4387   -1.0344    1.5046 H   0  0  0  0  0  0  0  0  0  0  0  0
    5.9397   -0.1702    1.8883 H   0  0  0  0  0  0  0  0  0  0  0  0
    8.9830   -0.6145   -0.0486 H   0  0  0  0  0  0  0  0  0  0  0  0
    9.1793    0.3037   -1.5870 H   0  0  0  0  0  0  0  0  0  0  0  0
    6.8841    1.8943    1.4785 H   0  0  0  0  0  0  0  0  0  0  0  0
    8.3238    1.0179    2.0438 H   0  0  0  0  0  0  0  0  0  0  0  0
   -2.3385    2.0329    0.4935 H   0  0  0  0  0  0  0  0  0  0  0  0
   -6.0149   -0.6430    2.4214 H   0  0  0  0  0  0  0  0  0  0  0  0
   -7.3859   -1.7744    2.2298 H   0  0  0  0  0  0  0  0  0  0  0  0
   -5.9004   -2.3894    2.9891 H   0  0  0  0  0  0  0  0  0  0  0  0
   -7.4245   -2.1709   -0.4088 H   0  0  0  0  0  0  0  0  0  0  0  0
   -6.4722   -3.7134   -0.3515 H   0  0  0  0  0  0  0  0  0  0  0  0
   -7.5491   -3.2302    1.0105 H   0  0  0  0  0  0  0  0  0  0  0  0
    2.5050    1.9491   -1.0882 H   0  0  0  0  0  0  0  0  0  0  0  0
    1.0589    0.4646   -2.2394 H   0  0  0  0  0  0  0  0  0  0  0  0
    7.7676    1.9842   -0.6010 H   0  0  0  0  0  0  0  0  0  0  0  0
    0.3894    1.5136   -0.2367 H   0  0  0  0  0  0  0  0  0  0  0  0
   -0.4720   -2.1949    1.2997 H   0  0  0  0  0  0  0  0  0  0  0  0
   -1.9289   -2.4336   -0.9147 H   0  0  0  0  0  0  0  0  0  0  0  0
   -2.7475   -0.5529   -1.8305 H   0  0  0  0  0  0  0  0  0  0  0  0
    4.1692   -2.3352   -0.8707 H   0  0  0  0  0  0  0  0  0  0  0  0
    2.6362   -1.4641   -2.4985 H   0  0  0  0  0  0  0  0  0  0  0  0
   -3.3626   -2.7784    0.7899 H   0  0  0  0  0  0  0  0  0  0  0  0
    4.9496    1.7851   -0.1832 H   0  0  0  0  0  0  0  0  0  0  0  0
    4.3482   -0.5416    0.6099 H   0  0  0  0  0  0  0  0  0  0  0  0
   -4.1288   -0.3266    1.8019 H   0  0  0  0  0  0  0  0  0  0  0  0
    2.3697   -0.8059    0.1076 H   0  0  0  0  0  0  0  0  0  0  0  0
   -5.7764   -0.3795   -0.1062 H   0  0  0  0  0  0  0  0  0  0  0  0
    2.8517    1.3769    0.5605 H   0  0  0  0  0  0  0  0  0  0  0  0
    0.6592   -0.1121    1.3696 H   0  0  0  0  0  0  0  0  0  0  0  0
   -1.0227    0.6794   -2.2675 H   0  0  0  0  0  0  0  0  0  0  0  0
   -5.4596   -1.6290   -1.7652 H   0  0  0  0  0  0  0  0  0  0  0  0
  2  3  1  0
  3  4  1  0
  5  6  1  0
  3  7  1  0
  5  9  1  0
  8  9  1  0
  7 10  1  0
  6 11  1  0
 10 12  1  0
 13 14  1  0
 13 15  1  0
 14 16  1  0
 17 19  1  0
 18 20  1  0
 15 21  1  0
 16 21  1  0
  8 24  1  0
 11 24  1  0
  1 25  1  0
  2 25  1  0
  1 26  1  0
  4 26  1  0
  4 27  1  0
 10 27  1  0
 21 27  1  0
  9 28  1  0
 17 28  1  0
 18 28  1  0
  1 29  1  0
 11 29  1  0
 12 30  1  0
 22 30  1  0
 23 30  1  0
 19 31  1  0
 20 31  1  0
 12 32  1  0
  2 33  1  0
  5 34  1  0
  7 35  1  0
  8 36  1  0
 13 37  1  0
 13 38  1  0
 14 39  1  0
 14 40  1  0
 15 41  1  0
 15 42  1  0
 16 43  1  0
 16 44  1  0
 17 45  1  0
 17 46  1  0
 18 47  1  0
 18 48  1  0
 19 49  1  0
 19 50  1  0
 20 51  1  0
 20 52  1  0
 21 53  1  0
 22 54  1  0
 22 55  1  0
 22 56  1  0
 23 57  1  0
 23 58  1  0
 23 59  1  0
 24 60  1  0
 29 61  1  0
 31 62  1  0
  1 63  1  1
  2 64  1  0
  3 65  1  0
  4 66  1  0
  5 67  1  0
  6 68  1  0
  7 69  1  0
  8 70  1  0
  9 71  1  0
 10 72  1  0
 11 73  1  0
 12 74  1  6
 24 75  1  0
 25 76  1  0
 26 77  1  0
 32 78  1  0
M  END
>  <PDBID>  (1) 
5L2T

>  <PDB ID>  (1) 
5L2T

>  <Generic Name>  (1) 
Ribociclib

>  <Brand Name>  (1) 
Kisqali

>  <DrugBank ID>  (1) 
DB11730

>  <ATC Codes>  (1) 
nan

>  <Ligand ID>  (1) 
6ZZ

>  <Target Name>  (1) 
Cyclin-dependent kinase 6

>  <UniProt ID>  (1) 
Q00534

>  <PDB ID.1>  (1) 
5L2T

>  <Seq. Identity>  (1) 
100%

$$$$
