PDB_DB00619_04
     RDKit          3D

 94 98  0  0  0  0  0  0  0  0999 V2000
   -7.6115    2.1671    2.1439 C   0  0  0  0  0  0  0  0  0  0  0  0
   -6.3978    1.2392    2.1932 C   0  0  0  0  0  0  0  0  0  0  0  0
   -5.5066    1.3955    0.9971 C   0  0  0  0  0  0  0  0  0  0  0  0
   -5.8872    2.6605    0.2693 C   0  0  0  0  0  0  0  0  0  0  0  0
   -5.9306    3.7093    1.3012 N   0  0  0  0  0  0  0  0  0  0  0  0
   -7.1927    3.6118    1.9935 C   0  0  0  0  0  0  0  0  0  0  0  0
   -5.4506    0.1829    0.1079 C   0  0  0  0  0  0  0  0  0  0  0  0
   -6.7969   -0.1965   -0.4434 C   0  0  0  0  0  0  0  0  0  0  0  0
   -6.8279   -1.6084   -0.9657 C   0  0  0  0  0  0  0  0  0  0  0  0
   -6.0132   -2.5055   -0.2310 N   0  0  0  0  0  0  0  0  0  0  0  0
   -4.6547   -2.0253   -0.1236 C   0  0  0  0  0  0  0  0  0  0  0  0
   -4.7423   -0.8512    0.7639 N   0  0  0  0  0  0  0  0  0  0  0  0
   -4.1619   -1.6887   -1.4051 N   0  0  0  0  0  0  0  0  0  0  0  0
   -2.7682   -1.5525   -1.5871 C   0  0  0  0  0  0  0  0  0  0  0  0
   -2.0518   -2.8816   -1.3675 C   0  0  0  0  0  0  0  0  0  0  0  0
   -0.5635   -2.6144   -1.3480 C   0  0  0  0  0  0  0  0  0  0  0  0
   -0.1981   -1.3822   -2.1563 C   0  0  0  0  0  0  0  0  0  0  0  0
   -0.7759   -0.1470   -1.6216 C   0  0  1  0  0  0  0  0  0  0  0  0
   -2.0404   -0.5261   -0.8014 C   0  0  0  0  0  0  0  0  0  0  0  0
   -0.0306    0.8493   -1.0288 N   0  0  0  0  0  0  0  0  0  0  0  0
    0.7223    0.7650    0.1240 C   0  0  0  0  0  0  0  0  0  0  0  0
    1.9086   -0.1690    0.0976 C   0  0  0  0  0  0  0  0  0  0  0  0
    2.6436   -0.1626    1.4286 C   0  0  0  0  0  0  0  0  0  0  0  0
    4.0527   -0.6952    1.1386 C   0  0  0  0  0  0  0  0  0  0  0  0
    4.8034    0.4749    0.5312 C   0  0  0  0  0  0  0  0  0  0  0  0
    3.9117    1.2522   -0.4160 C   0  0  0  0  0  0  0  0  0  0  0  0
    2.8360    0.3638   -1.0080 C   0  0  0  0  0  0  0  0  0  0  0  0
    6.0580    0.0459   -0.1569 C   0  0  0  0  0  0  0  0  0  0  0  0
    6.9982   -0.6111    0.6970 N   0  0  0  0  0  0  0  0  0  0  0  0
    7.5972    0.2258    1.6982 C   0  0  0  0  0  0  0  0  0  0  0  0
    8.0676    1.4775    1.0397 C   0  0  0  0  0  0  0  0  0  0  0  0
    8.9658    1.1975   -0.0199 N   0  0  0  0  0  0  0  0  0  0  0  0
    9.0578    2.1697   -1.0579 C   0  0  0  0  0  0  0  0  0  0  0  0
    9.1806   -0.1527   -0.3787 C   0  0  0  0  0  0  0  0  0  0  0  0
    8.0758   -1.1149   -0.1300 C   0  0  0  0  0  0  0  0  0  0  0  0
   -0.0021    0.6452    1.3177 O   0  0  0  0  0  0  0  0  0  0  0  0
   -2.3528   -3.8955   -2.4177 C   0  0  0  0  0  0  0  0  0  0  0  0
   -8.1080    2.0725    3.1338 H   0  0  0  0  0  0  0  0  0  0  0  0
   -8.3495    1.8777    1.3903 H   0  0  0  0  0  0  0  0  0  0  0  0
   -5.8452    1.5276    3.1171 H   0  0  0  0  0  0  0  0  0  0  0  0
   -6.7450    0.2133    2.3539 H   0  0  0  0  0  0  0  0  0  0  0  0
   -4.4458    1.5662    1.3506 H   0  0  0  0  0  0  0  0  0  0  0  0
   -6.8445    2.6022   -0.2494 H   0  0  0  0  0  0  0  0  0  0  0  0
   -5.0297    2.9314   -0.3803 H   0  0  0  0  0  0  0  0  0  0  0  0
   -5.7198    4.6349    0.9189 H   0  0  0  0  0  0  0  0  0  0  0  0
   -7.9770    4.1002    1.3510 H   0  0  0  0  0  0  0  0  0  0  0  0
   -7.1740    4.1612    2.9461 H   0  0  0  0  0  0  0  0  0  0  0  0
   -4.8545    0.5029   -0.7888 H   0  0  0  0  0  0  0  0  0  0  0  0
   -7.5284   -0.1321    0.3818 H   0  0  0  0  0  0  0  0  0  0  0  0
   -7.1388    0.4901   -1.2375 H   0  0  0  0  0  0  0  0  0  0  0  0
   -7.8775   -2.0190   -0.9474 H   0  0  0  0  0  0  0  0  0  0  0  0
   -6.5250   -1.6429   -2.0323 H   0  0  0  0  0  0  0  0  0  0  0  0
   -6.4360   -2.7001    0.7019 H   0  0  0  0  0  0  0  0  0  0  0  0
   -4.0941   -2.8359    0.3957 H   0  0  0  0  0  0  0  0  0  0  0  0
   -5.2147   -1.0981    1.6498 H   0  0  0  0  0  0  0  0  0  0  0  0
   -4.5612   -2.2541   -2.1639 H   0  0  0  0  0  0  0  0  0  0  0  0
   -2.6057   -1.3215   -2.6810 H   0  0  0  0  0  0  0  0  0  0  0  0
   -2.3112   -3.2770   -0.3910 H   0  0  0  0  0  0  0  0  0  0  0  0
   -0.0649   -3.4845   -1.8531 H   0  0  0  0  0  0  0  0  0  0  0  0
   -0.1661   -2.6069   -0.3239 H   0  0  0  0  0  0  0  0  0  0  0  0
   -0.6209   -1.6208   -3.1925 H   0  0  0  0  0  0  0  0  0  0  0  0
    0.8884   -1.4312   -2.3224 H   0  0  0  0  0  0  0  0  0  0  0  0
   -1.2738    0.3612   -2.5264 H   0  0  0  0  0  0  0  0  0  0  0  0
   -2.5757    0.4289   -0.7005 H   0  0  0  0  0  0  0  0  0  0  0  0
   -1.6846   -0.8828    0.1881 H   0  0  0  0  0  0  0  0  0  0  0  0
   -0.5047    1.7941   -1.1280 H   0  0  0  0  0  0  0  0  0  0  0  0
    1.2166    1.7862    0.2633 H   0  0  0  0  0  0  0  0  0  0  0  0
    1.7028   -1.2017   -0.1443 H   0  0  0  0  0  0  0  0  0  0  0  0
    2.7623    0.8857    1.7452 H   0  0  0  0  0  0  0  0  0  0  0  0
    2.1031   -0.7884    2.1438 H   0  0  0  0  0  0  0  0  0  0  0  0
    4.0243   -1.5623    0.4614 H   0  0  0  0  0  0  0  0  0  0  0  0
    4.5717   -0.9520    2.0916 H   0  0  0  0  0  0  0  0  0  0  0  0
    5.0573    1.1743    1.3598 H   0  0  0  0  0  0  0  0  0  0  0  0
    4.5450    1.5776   -1.2652 H   0  0  0  0  0  0  0  0  0  0  0  0
    3.4817    2.1556    0.0435 H   0  0  0  0  0  0  0  0  0  0  0  0
    2.2688    0.9783   -1.7311 H   0  0  0  0  0  0  0  0  0  0  0  0
    3.3274   -0.4437   -1.5507 H   0  0  0  0  0  0  0  0  0  0  0  0
    6.4802    0.8741   -0.7598 H   0  0  0  0  0  0  0  0  0  0  0  0
    5.7452   -0.7278   -0.9192 H   0  0  0  0  0  0  0  0  0  0  0  0
    6.9889    0.3750    2.5975 H   0  0  0  0  0  0  0  0  0  0  0  0
    8.5180   -0.3212    2.0561 H   0  0  0  0  0  0  0  0  0  0  0  0
    7.2372    2.1346    0.7091 H   0  0  0  0  0  0  0  0  0  0  0  0
    8.6331    2.0851    1.8065 H   0  0  0  0  0  0  0  0  0  0  0  0
    8.4982    1.9333   -1.9835 H   0  0  0  0  0  0  0  0  0  0  0  0
    8.6230    3.1271   -0.6445 H   0  0  0  0  0  0  0  0  0  0  0  0
   10.1334    2.4263   -1.2740 H   0  0  0  0  0  0  0  0  0  0  0  0
    9.3662   -0.1729   -1.4970 H   0  0  0  0  0  0  0  0  0  0  0  0
   10.1561   -0.4955    0.0416 H   0  0  0  0  0  0  0  0  0  0  0  0
    8.5134   -1.9805    0.4456 H   0  0  0  0  0  0  0  0  0  0  0  0
    7.6568   -1.5750   -1.0681 H   0  0  0  0  0  0  0  0  0  0  0  0
    0.1226   -0.2844    1.6356 H   0  0  0  0  0  0  0  0  0  0  0  0
   -3.4349   -4.1833   -2.4357 H   0  0  0  0  0  0  0  0  0  0  0  0
   -1.7485   -4.8084   -2.1675 H   0  0  0  0  0  0  0  0  0  0  0  0
   -2.0840   -3.6265   -3.4394 H   0  0  0  0  0  0  0  0  0  0  0  0
  1  2  1  0
  2  3  1  0
  3  4  1  0
  4  5  1  0
  1  6  1  0
  5  6  1  0
  3  7  1  0
  7  8  1  0
  8  9  1  0
  9 10  1  0
 10 11  1  0
  7 12  1  0
 11 12  1  0
 11 13  1  0
 13 14  1  0
 14 15  1  0
 15 16  1  0
 16 17  1  0
 17 18  1  0
 14 19  1  0
 18 19  1  0
 18 20  1  0
 20 21  1  0
 21 22  1  0
 22 23  1  0
 23 24  1  0
 24 25  1  0
 25 26  1  0
 22 27  1  0
 26 27  1  0
 25 28  1  0
 28 29  1  0
 29 30  1  0
 30 31  1  0
 31 32  1  0
 32 33  1  0
 32 34  1  0
 29 35  1  0
 34 35  1  0
 21 36  1  0
 15 37  1  0
  1 38  1  0
  1 39  1  0
  2 40  1  0
  2 41  1  0
  3 42  1  0
  4 43  1  0
  4 44  1  0
  5 45  1  0
  6 46  1  0
  6 47  1  0
  7 48  1  0
  8 49  1  0
  8 50  1  0
  9 51  1  0
  9 52  1  0
 10 53  1  0
 11 54  1  0
 12 55  1  0
 13 56  1  0
 14 57  1  0
 15 58  1  0
 16 59  1  0
 16 60  1  0
 17 61  1  0
 17 62  1  0
 18 63  1  6
 19 64  1  0
 19 65  1  0
 20 66  1  0
 21 67  1  0
 22 68  1  0
 23 69  1  0
 23 70  1  0
 24 71  1  0
 24 72  1  0
 25 73  1  0
 26 74  1  0
 26 75  1  0
 27 76  1  0
 27 77  1  0
 28 78  1  0
 28 79  1  0
 30 80  1  0
 30 81  1  0
 31 82  1  0
 31 83  1  0
 33 84  1  0
 33 85  1  0
 33 86  1  0
 34 87  1  0
 34 88  1  0
 35 89  1  0
 35 90  1  0
 36 91  1  0
 37 92  1  0
 37 93  1  0
 37 94  1  0
M  END
>  <PDBID>  (1) 
1T46

>  <PDB ID>  (1) 
1T46

>  <Generic Name>  (1) 
Imatinib

>  <Brand Name>  (1) 
Apo-imatinib#Gleevec#Imatinib Mesylate#Mylan-imatinib#Nat-imatinib#PMS-imatinib#Ran-imatinib#Teva-imatinib#Celonib#Enliven#Glivec#Imatib#Mesylonib#Mitinab#Plivatinib#Shantinib

>  <DrugBank ID>  (1) 
DB00619

>  <ATC Codes>  (1) 
L01XE01

>  <Ligand ID>  (1) 
STI

>  <Target Name>  (1) 
Mast/stem cell growth factor receptor Kit

>  <UniProt ID>  (1) 
P10721

>  <PDB ID.1>  (1) 
1T46

>  <Seq. Identity>  (1) 
90%

$$$$
