PDB_DB09053_05
     RDKit          3D

 81 85  0  0  0  0  0  0  0  0999 V2000
   -1.2956   -2.7981   -2.2324 N   0  0  0  0  0  0  0  0  0  0  0  0
   -2.6421   -2.9981   -1.7180 C   0  0  0  0  0  0  0  0  0  0  0  0
   -3.1556   -1.7562   -1.1503 N   0  0  0  0  0  0  0  0  0  0  0  0
   -2.1030   -0.8079   -1.1408 C   0  0  0  0  0  0  0  0  0  0  0  0
   -0.9515   -1.3890   -0.3336 C   0  0  0  0  0  0  0  0  0  0  0  0
   -0.3491   -2.4748   -1.1489 C   0  0  1  0  0  0  0  0  0  0  0  0
   -8.4254    0.7118   -0.7339 C   0  0  0  0  0  0  0  0  0  0  0  0
   -0.1977   -3.7261   -0.4180 N   0  0  0  0  0  0  0  0  0  0  0  0
   -6.5845    2.7629   -0.1505 O   0  0  0  0  0  0  0  0  0  0  0  0
   -8.0280    1.1247    0.6608 C   0  0  0  0  0  0  0  0  0  0  0  0
    8.9506    1.0373    0.9654 C   0  0  0  0  0  0  0  0  0  0  0  0
    8.1532    2.2017    0.4511 C   0  0  0  0  0  0  0  0  0  0  0  0
    8.4098   -0.2277    0.3787 C   0  0  0  0  0  0  0  0  0  0  0  0
    6.6714    2.0407    0.7069 C   0  0  0  0  0  0  0  0  0  0  0  0
    6.9726   -0.3915    0.8644 C   0  0  0  0  0  0  0  0  0  0  0  0
    3.1296    1.4438   -0.8682 C   0  0  0  0  0  0  0  0  0  0  0  0
    3.4314   -1.0153   -0.7894 C   0  0  0  0  0  0  0  0  0  0  0  0
    1.8091    1.2954   -0.1649 C   0  0  0  0  0  0  0  0  0  0  0  0
    2.2216   -1.0443    0.0907 C   0  0  0  0  0  0  0  0  0  0  0  0
   -4.3403   -0.7248    1.6758 C   0  0  0  0  0  0  0  0  0  0  0  0
   -3.3226    0.3432    1.5307 C   0  0  0  0  0  0  0  0  0  0  0  0
   -5.5774   -0.5393    0.8701 C   0  0  0  0  0  0  0  0  0  0  0  0
   -4.5706    1.2040   -0.4880 C   0  0  0  0  0  0  0  0  0  0  0  0
   -0.9358    0.9365   -0.4113 N   0  0  0  0  0  0  0  0  0  0  0  0
    4.8514    0.5171    0.4445 O   0  0  0  0  0  0  0  0  0  0  0  0
   -6.6096    1.6475    0.7133 C   0  0  0  0  0  0  0  0  0  0  0  0
    6.1802    0.7063    0.1857 C   0  0  0  0  0  0  0  0  0  0  0  0
    4.0828    0.3216   -0.6964 C   0  0  0  0  0  0  0  0  0  0  0  0
    1.2119   -0.0797   -0.5484 C   0  0  0  0  0  0  0  0  0  0  0  0
   -0.1625   -0.2122    0.0172 C   0  0  0  0  0  0  0  0  0  0  0  0
   -3.2320    0.9655    0.1495 C   0  0  2  0  0  0  0  0  0  0  0  0
   -2.2216    0.4645   -0.6831 N   0  0  0  0  0  0  0  0  0  0  0  0
   -5.6959    0.6939    0.2009 N   0  0  0  0  0  0  0  0  0  0  0  0
   -1.0348   -3.6570   -2.7260 H   0  0  0  0  0  0  0  0  0  0  0  0
   -2.7195   -3.8319   -0.9968 H   0  0  0  0  0  0  0  0  0  0  0  0
   -3.2765   -3.2500   -2.5849 H   0  0  0  0  0  0  0  0  0  0  0  0
   -3.9850   -1.4756   -1.6869 H   0  0  0  0  0  0  0  0  0  0  0  0
   -1.7046   -0.7850   -2.2050 H   0  0  0  0  0  0  0  0  0  0  0  0
   -1.3319   -1.8743    0.6007 H   0  0  0  0  0  0  0  0  0  0  0  0
    0.5799   -2.2196   -1.6801 H   0  0  0  0  0  0  0  0  0  0  0  0
   -9.1505    1.4113   -1.1778 H   0  0  0  0  0  0  0  0  0  0  0  0
   -8.9213   -0.2950   -0.7367 H   0  0  0  0  0  0  0  0  0  0  0  0
   -7.5751    0.6291   -1.4266 H   0  0  0  0  0  0  0  0  0  0  0  0
    0.7865   -4.0547   -0.5413 H   0  0  0  0  0  0  0  0  0  0  0  0
   -0.8015   -4.4931   -0.7836 H   0  0  0  0  0  0  0  0  0  0  0  0
   -6.6375    3.5517    0.4433 H   0  0  0  0  0  0  0  0  0  0  0  0
   -8.7183    1.9684    0.9590 H   0  0  0  0  0  0  0  0  0  0  0  0
   -8.2452    0.3177    1.3577 H   0  0  0  0  0  0  0  0  0  0  0  0
    8.9553    1.0778    2.0561 H   0  0  0  0  0  0  0  0  0  0  0  0
    9.9961    1.1854    0.5806 H   0  0  0  0  0  0  0  0  0  0  0  0
    8.5003    3.1167    0.9751 H   0  0  0  0  0  0  0  0  0  0  0  0
    8.3131    2.3903   -0.6397 H   0  0  0  0  0  0  0  0  0  0  0  0
    9.0152   -1.1271    0.5917 H   0  0  0  0  0  0  0  0  0  0  0  0
    8.3765   -0.0810   -0.7348 H   0  0  0  0  0  0  0  0  0  0  0  0
    6.1555    2.8548    0.1367 H   0  0  0  0  0  0  0  0  0  0  0  0
    6.4698    2.1636    1.7785 H   0  0  0  0  0  0  0  0  0  0  0  0
    6.6218   -1.3704    0.4805 H   0  0  0  0  0  0  0  0  0  0  0  0
    6.9559   -0.3092    1.9586 H   0  0  0  0  0  0  0  0  0  0  0  0
    3.6005    2.3792   -0.4596 H   0  0  0  0  0  0  0  0  0  0  0  0
    2.9805    1.6339   -1.9502 H   0  0  0  0  0  0  0  0  0  0  0  0
    3.0698   -1.1218   -1.8462 H   0  0  0  0  0  0  0  0  0  0  0  0
    4.1202   -1.8542   -0.6288 H   0  0  0  0  0  0  0  0  0  0  0  0
    1.9455    1.3778    0.9144 H   0  0  0  0  0  0  0  0  0  0  0  0
    1.1099    2.0459   -0.5868 H   0  0  0  0  0  0  0  0  0  0  0  0
    2.5277   -0.5786    1.0722 H   0  0  0  0  0  0  0  0  0  0  0  0
    1.8250   -2.0211    0.3193 H   0  0  0  0  0  0  0  0  0  0  0  0
   -3.8618   -1.7390    1.5461 H   0  0  0  0  0  0  0  0  0  0  0  0
   -4.6553   -0.7578    2.7633 H   0  0  0  0  0  0  0  0  0  0  0  0
   -3.5335    1.1257    2.3193 H   0  0  0  0  0  0  0  0  0  0  0  0
   -2.3252   -0.0544    1.7966 H   0  0  0  0  0  0  0  0  0  0  0  0
   -6.4956   -0.6976    1.4808 H   0  0  0  0  0  0  0  0  0  0  0  0
   -5.6187   -1.3704    0.1079 H   0  0  0  0  0  0  0  0  0  0  0  0
   -4.6176    0.8150   -1.5505 H   0  0  0  0  0  0  0  0  0  0  0  0
   -4.7858    2.3050   -0.6581 H   0  0  0  0  0  0  0  0  0  0  0  0
   -0.9047    1.7100    0.2759 H   0  0  0  0  0  0  0  0  0  0  0  0
   -6.3836    1.9353    1.7510 H   0  0  0  0  0  0  0  0  0  0  0  0
    6.4409    0.6752   -0.8920 H   0  0  0  0  0  0  0  0  0  0  0  0
    4.8104    0.3764   -1.5624 H   0  0  0  0  0  0  0  0  0  0  0  0
    1.3144   -0.1585   -1.6248 H   0  0  0  0  0  0  0  0  0  0  0  0
   -0.0113   -0.1213    1.1521 H   0  0  0  0  0  0  0  0  0  0  0  0
   -2.8504    2.0187    0.3944 H   0  0  0  0  0  0  0  0  0  0  0  0
  1  2  1  0
  2  3  1  0
  3  4  1  0
  4  5  1  0
  1  6  1  0
  5  6  1  0
  6  8  1  0
  7 10  1  0
 11 12  1  0
 11 13  1  0
 12 14  1  0
 13 15  1  0
 16 18  1  0
 17 19  1  0
 20 21  1  0
 20 22  1  0
  9 26  1  0
 10 26  1  0
 14 27  1  0
 15 27  1  0
 25 27  1  0
 16 28  1  0
 17 28  1  0
 25 28  1  0
 18 29  1  0
 19 29  1  0
  5 30  1  0
 24 30  1  0
 29 30  1  0
 21 31  1  0
 23 31  1  0
  4 32  1  0
 24 32  1  0
 31 32  1  0
 22 33  1  0
 23 33  1  0
 26 33  1  0
  1 34  1  0
  2 35  1  0
  2 36  1  0
  3 37  1  0
  4 38  1  0
  5 39  1  0
  6 40  1  6
  7 41  1  0
  7 42  1  0
  7 43  1  0
  8 44  1  0
  8 45  1  0
  9 46  1  0
 10 47  1  0
 10 48  1  0
 11 49  1  0
 11 50  1  0
 12 51  1  0
 12 52  1  0
 13 53  1  0
 13 54  1  0
 14 55  1  0
 14 56  1  0
 15 57  1  0
 15 58  1  0
 16 59  1  0
 16 60  1  0
 17 61  1  0
 17 62  1  0
 18 63  1  0
 18 64  1  0
 19 65  1  0
 19 66  1  0
 20 67  1  0
 20 68  1  0
 21 69  1  0
 21 70  1  0
 22 71  1  0
 22 72  1  0
 23 73  1  0
 23 74  1  0
 24 75  1  0
 26 76  1  0
 27 77  1  0
 28 78  1  0
 29 79  1  0
 30 80  1  0
 31 81  1  1
M  END
>  <PDBID>  (1) 
5P9I

>  <PDB ID>  (1) 
5P9I

>  <Generic Name>  (1) 
Ibrutinib

>  <Brand Name>  (1) 
Imbruvica

>  <DrugBank ID>  (1) 
DB09053

>  <ATC Codes>  (1) 
L01XE27

>  <Ligand ID>  (1) 
100000000

>  <Target Name>  (1) 
Tyrosine-protein kinase BTK

>  <UniProt ID>  (1) 
Q06187

>  <PDB ID.1>  (1) 
5P9I

>  <Seq. Identity>  (1) 
100%

$$$$
