PDB_DB01092_02
     RDKit          3D

178188  0  0  0  0  0  0  0  0999 V2000
    1.1121   -1.8071   -0.2985 C   0  0  2  0  0  0  0  0  0  0  0  0
    2.6034   -1.7154   -0.3806 C   0  0  0  0  0  0  0  0  0  0  0  0
    3.1626   -0.4400   -0.8840 C   0  0  1  0  0  0  0  0  0  0  0  0
    2.1152    0.5278   -1.2521 C   0  0  0  0  0  0  0  0  0  0  0  0
    0.9864    0.7161   -0.2628 C   0  0  1  0  0  0  0  0  0  0  0  0
   -0.0142    1.4972   -1.0557 C   0  0  0  0  0  0  0  0  0  0  0  0
   -1.3157    1.8104   -0.4334 C   0  0  0  0  0  0  0  0  0  0  0  0
   -1.6000    0.7042    0.5957 C   0  0  2  0  0  0  0  0  0  0  0  0
   -1.0240   -0.5475    0.0481 C   0  0  1  0  0  0  0  0  0  0  0  0
    0.4624   -0.5713    0.3157 C   0  0  1  0  0  0  0  0  0  0  0  0
   -1.7655   -1.8017    0.3746 C   0  0  1  0  0  0  0  0  0  0  0  0
   -3.2188   -1.5628   -0.0154 C   0  0  0  0  0  0  0  0  0  0  0  0
   -3.8722   -0.4220    0.6446 C   0  0  1  0  0  0  0  0  0  0  0  0
   -2.9676    0.6755    1.1262 C   0  0  2  0  0  0  0  0  0  0  0  0
   -3.7690    1.9512    0.9116 C   0  0  0  0  0  0  0  0  0  0  0  0
   -5.1183    1.5361    0.3568 C   0  0  0  0  0  0  0  0  0  0  0  0
   -4.7594    0.2689   -0.3409 C   0  0  2  0  0  0  0  0  0  0  0  0
   -4.6659   -0.9804    1.8343 C   0  0  0  0  0  0  0  0  0  0  0  0
    0.8266   -0.6390    1.7691 C   0  0  0  0  0  0  0  0  0  0  0  0
   -5.8369   -0.4878   -0.9577 C   0  0  1  0  0  0  0  0  0  0  0  0
   -6.9036   -1.0922   -0.1742 C   0  0  0  0  0  0  0  0  0  0  0  0
   -6.5936    0.4156   -1.9132 C   0  0  0  0  0  0  0  0  0  0  0  0
   -7.8616   -0.4100   -2.0919 C   0  0  0  0  0  0  0  0  0  0  0  0
    5.4035    0.1464   -0.5750 C   0  0  2  0  0  0  0  0  0  0  0  0
    5.9587    1.5053   -0.7486 C   0  0  1  0  0  0  0  0  0  0  0  0
    7.4626    1.4014   -0.9396 C   0  0  1  0  0  0  0  0  0  0  0  0
    8.0005    0.9608    0.4155 C   0  0  2  0  0  0  0  0  0  0  0  0
    7.0395   -0.0422    1.0390 C   0  0  2  0  0  0  0  0  0  0  0  0
    7.7984   -0.9740    1.9216 C   0  0  0  0  0  0  0  0  0  0  0  0
    0.9195   -2.8540    0.6420 O   0  0  0  0  0  0  0  0  0  0  0  0
    4.1345    0.0820   -0.0474 O   0  0  0  0  0  0  0  0  0  0  0  0
    1.4753    1.5453    0.7650 O   0  0  0  0  0  0  0  0  0  0  0  0
   -1.3990   -2.8154   -0.5479 O   0  0  0  0  0  0  0  0  0  0  0  0
   -2.8938    0.5486    2.5418 O   0  0  0  0  0  0  0  0  0  0  0  0
    0.3738   -1.7710    2.4216 O   0  0  0  0  0  0  0  0  0  0  0  0
   -8.1148   -1.0204   -0.9024 O   0  0  0  0  0  0  0  0  0  0  0  0
   -8.9145    0.4139   -2.4369 O   0  0  0  0  0  0  0  0  0  0  0  0
    5.4749    2.1669   -1.8797 O   0  0  0  0  0  0  0  0  0  0  0  0
    7.8128    0.5238   -1.9443 O   0  0  0  0  0  0  0  0  0  0  0  0
    8.2096    2.0321    1.2483 O   0  0  0  0  0  0  0  0  0  0  0  0
    6.3051   -0.6905    0.0486 O   0  0  0  0  0  0  0  0  0  0  0  0
    1.0732   -1.8569   -0.3225 C   0  0  2  0  0  0  0  0  0  0  0  0
    2.5672   -1.7924   -0.4792 C   0  0  0  0  0  0  0  0  0  0  0  0
    3.1119   -0.5267   -1.0180 C   0  0  1  0  0  0  0  0  0  0  0  0
    2.0821    0.4852   -1.3175 C   0  0  0  0  0  0  0  0  0  0  0  0
    0.9929    0.6624   -0.2876 C   0  0  1  0  0  0  0  0  0  0  0  0
   -0.0279    1.4886   -1.0093 C   0  0  0  0  0  0  0  0  0  0  0  0
   -1.2980    1.7992   -0.3239 C   0  0  0  0  0  0  0  0  0  0  0  0
   -1.5922    0.6640    0.6675 C   0  0  2  0  0  0  0  0  0  0  0  0
   -1.0213   -0.5812    0.0816 C   0  0  1  0  0  0  0  0  0  0  0  0
    0.4760   -0.6141    0.2997 C   0  0  1  0  0  0  0  0  0  0  0  0
   -1.7701   -1.8201    0.3981 C   0  0  1  0  0  0  0  0  0  0  0  0
   -3.2279   -1.5520    0.0024 C   0  0  0  0  0  0  0  0  0  0  0  0
   -3.8795   -0.4533    0.7163 C   0  0  1  0  0  0  0  0  0  0  0  0
   -2.9451    0.6355    1.2293 C   0  0  2  0  0  0  0  0  0  0  0  0
   -3.7426    1.9127    1.0527 C   0  0  0  0  0  0  0  0  0  0  0  0
   -5.1213    1.5050    0.5434 C   0  0  0  0  0  0  0  0  0  0  0  0
   -4.7586    0.2911   -0.2353 C   0  0  2  0  0  0  0  0  0  0  0  0
   -4.6006   -0.9954    1.9180 C   0  0  0  0  0  0  0  0  0  0  0  0
    0.8783   -0.6659    1.7531 C   0  0  0  0  0  0  0  0  0  0  0  0
   -5.8062   -0.4094   -0.9593 C   0  0  0  0  0  0  0  0  0  0  0  0
   -6.8948   -1.1059   -0.3039 C   0  0  0  0  0  0  0  0  0  0  0  0
   -6.5158    0.5955   -1.8503 C   0  0  0  0  0  0  0  0  0  0  0  0
   -7.7779   -0.1688   -2.1629 C   0  0  0  0  0  0  0  0  0  0  0  0
    5.3338    0.1011   -0.7733 C   0  0  2  0  0  0  0  0  0  0  0  0
    5.8675    1.4603   -0.9776 C   0  0  1  0  0  0  0  0  0  0  0  0
    7.3845    1.4123   -0.9692 C   0  0  1  0  0  0  0  0  0  0  0  0
    7.8354    0.9711    0.4244 C   0  0  2  0  0  0  0  0  0  0  0  0
    6.8782   -0.1089    0.9237 C   0  0  2  0  0  0  0  0  0  0  0  0
    7.5869   -1.0583    1.8305 C   0  0  0  0  0  0  0  0  0  0  0  0
    0.8922   -2.8855    0.6340 O   0  0  0  0  0  0  0  0  0  0  0  0
    4.0843    0.0228   -0.1987 O   0  0  0  0  0  0  0  0  0  0  0  0
    1.5390    1.4934    0.7189 O   0  0  0  0  0  0  0  0  0  0  0  0
   -1.4405   -2.8559   -0.5125 O   0  0  0  0  0  0  0  0  0  0  0  0
   -2.8227    0.4978    2.6447 O   0  0  0  0  0  0  0  0  0  0  0  0
    0.4056   -1.7926    2.4235 O   0  0  0  0  0  0  0  0  0  0  0  0
   -7.9578   -1.1100   -1.2063 O   0  0  0  0  0  0  0  0  0  0  0  0
   -8.9042    0.6699   -2.1848 O   0  0  0  0  0  0  0  0  0  0  0  0
    5.5179    2.0164   -2.2161 O   0  0  0  0  0  0  0  0  0  0  0  0
    7.8570    0.5390   -1.9269 O   0  0  0  0  0  0  0  0  0  0  0  0
    7.8125    2.0095    1.3189 O   0  0  0  0  0  0  0  0  0  0  0  0
    6.2619   -0.7259   -0.1711 O   0  0  0  0  0  0  0  0  0  0  0  0
    0.6810   -2.0453   -1.2764 H   0  0  0  0  0  0  0  0  0  0  0  0
    3.1097   -1.9418    0.6064 H   0  0  0  0  0  0  0  0  0  0  0  0
    2.9104   -2.6093   -1.0071 H   0  0  0  0  0  0  0  0  0  0  0  0
    3.7042   -0.6896   -1.8479 H   0  0  0  0  0  0  0  0  0  0  0  0
    1.6738    0.2195   -2.2299 H   0  0  0  0  0  0  0  0  0  0  0  0
    2.5422    1.5474   -1.4237 H   0  0  0  0  0  0  0  0  0  0  0  0
   -0.1090    1.0032   -2.0674 H   0  0  0  0  0  0  0  0  0  0  0  0
    0.4900    2.4805   -1.2941 H   0  0  0  0  0  0  0  0  0  0  0  0
   -2.0656    1.8598   -1.2304 H   0  0  0  0  0  0  0  0  0  0  0  0
   -1.2803    2.8065    0.0721 H   0  0  0  0  0  0  0  0  0  0  0  0
   -0.9175    1.0546    1.4333 H   0  0  0  0  0  0  0  0  0  0  0  0
   -1.0908   -0.4894   -1.0856 H   0  0  0  0  0  0  0  0  0  0  0  0
   -1.7036   -2.1284    1.4047 H   0  0  0  0  0  0  0  0  0  0  0  0
   -3.7817   -2.5176    0.1915 H   0  0  0  0  0  0  0  0  0  0  0  0
   -3.2105   -1.4119   -1.1269 H   0  0  0  0  0  0  0  0  0  0  0  0
   -3.8861    2.5550    1.8339 H   0  0  0  0  0  0  0  0  0  0  0  0
   -3.3076    2.6317    0.1741 H   0  0  0  0  0  0  0  0  0  0  0  0
   -5.8765    1.4159    1.1535 H   0  0  0  0  0  0  0  0  0  0  0  0
   -5.4709    2.3218   -0.3644 H   0  0  0  0  0  0  0  0  0  0  0  0
   -4.0710    0.5771   -1.1864 H   0  0  0  0  0  0  0  0  0  0  0  0
   -5.1036   -1.9527    1.6378 H   0  0  0  0  0  0  0  0  0  0  0  0
   -5.3163   -0.2239    2.2883 H   0  0  0  0  0  0  0  0  0  0  0  0
   -3.8665   -1.1712    2.6162 H   0  0  0  0  0  0  0  0  0  0  0  0
    1.9558   -0.7484    1.7771 H   0  0  0  0  0  0  0  0  0  0  0  0
    0.6423    0.2320    2.3781 H   0  0  0  0  0  0  0  0  0  0  0  0
   -5.3810   -1.2784   -1.6278 H   0  0  0  0  0  0  0  0  0  0  0  0
   -7.1449   -0.6407    0.8039 H   0  0  0  0  0  0  0  0  0  0  0  0
   -6.7297   -2.2060   -0.0926 H   0  0  0  0  0  0  0  0  0  0  0  0
   -6.0572    0.5444   -2.8719 H   0  0  0  0  0  0  0  0  0  0  0  0
   -6.9065    1.3556   -1.4374 H   0  0  0  0  0  0  0  0  0  0  0  0
   -7.6908   -1.1121   -2.9418 H   0  0  0  0  0  0  0  0  0  0  0  0
    5.3046   -0.2775   -1.6245 H   0  0  0  0  0  0  0  0  0  0  0  0
    5.8395    2.1548    0.1698 H   0  0  0  0  0  0  0  0  0  0  0  0
    7.8632    2.4089   -1.1466 H   0  0  0  0  0  0  0  0  0  0  0  0
    8.9562    0.4376    0.2379 H   0  0  0  0  0  0  0  0  0  0  0  0
    6.3307    0.5378    1.6607 H   0  0  0  0  0  0  0  0  0  0  0  0
    8.7458   -0.4753    2.2304 H   0  0  0  0  0  0  0  0  0  0  0  0
    7.2368   -1.2194    2.8518 H   0  0  0  0  0  0  0  0  0  0  0  0
    8.0983   -1.9120    1.3914 H   0  0  0  0  0  0  0  0  0  0  0  0
    1.1422   -3.6812    0.1192 H   0  0  0  0  0  0  0  0  0  0  0  0
    0.9723    2.3854    0.7918 H   0  0  0  0  0  0  0  0  0  0  0  0
   -1.6753   -2.4701   -1.4325 H   0  0  0  0  0  0  0  0  0  0  0  0
   -2.0592    0.1428    2.8238 H   0  0  0  0  0  0  0  0  0  0  0  0
   -0.0613   -1.5918    3.2795 H   0  0  0  0  0  0  0  0  0  0  0  0
   -9.0520    1.1044   -1.7166 H   0  0  0  0  0  0  0  0  0  0  0  0
    5.1472    1.4558   -2.4881 H   0  0  0  0  0  0  0  0  0  0  0  0
    7.6469    0.9403   -2.8054 H   0  0  0  0  0  0  0  0  0  0  0  0
    7.7931    1.8364    2.1281 H   0  0  0  0  0  0  0  0  0  0  0  0
    0.6091   -2.0786   -1.2800 H   0  0  0  0  0  0  0  0  0  0  0  0
    3.1052   -2.0190    0.4857 H   0  0  0  0  0  0  0  0  0  0  0  0
    2.8303   -2.6917   -1.1159 H   0  0  0  0  0  0  0  0  0  0  0  0
    3.5950   -0.7862   -2.0114 H   0  0  0  0  0  0  0  0  0  0  0  0
    2.5539    1.4877   -1.4528 H   0  0  0  0  0  0  0  0  0  0  0  0
    1.5880    0.2198   -2.2818 H   0  0  0  0  0  0  0  0  0  0  0  0
   -0.1707    1.0279   -2.0306 H   0  0  0  0  0  0  0  0  0  0  0  0
    0.4814    2.4707   -1.2400 H   0  0  0  0  0  0  0  0  0  0  0  0
   -2.0571    1.9320   -1.0879 H   0  0  0  0  0  0  0  0  0  0  0  0
   -1.2257    2.7807    0.2139 H   0  0  0  0  0  0  0  0  0  0  0  0
   -0.8791    0.9694    1.5005 H   0  0  0  0  0  0  0  0  0  0  0  0
   -1.1185   -0.4859   -1.0481 H   0  0  0  0  0  0  0  0  0  0  0  0
   -1.7736   -2.1460    1.4265 H   0  0  0  0  0  0  0  0  0  0  0  0
   -3.7663   -2.5193    0.2280 H   0  0  0  0  0  0  0  0  0  0  0  0
   -3.2520   -1.4622   -1.1084 H   0  0  0  0  0  0  0  0  0  0  0  0
   -3.9198    2.4658    1.9951 H   0  0  0  0  0  0  0  0  0  0  0  0
   -3.2649    2.6435    0.3735 H   0  0  0  0  0  0  0  0  0  0  0  0
   -5.8349    1.3193    1.3696 H   0  0  0  0  0  0  0  0  0  0  0  0
   -5.4519    2.3776   -0.0907 H   0  0  0  0  0  0  0  0  0  0  0  0
   -4.0539    0.6672   -1.0439 H   0  0  0  0  0  0  0  0  0  0  0  0
   -5.4102   -1.6728    1.7601 H   0  0  0  0  0  0  0  0  0  0  0  0
   -4.8474   -0.1182    2.5848 H   0  0  0  0  0  0  0  0  0  0  0  0
   -3.8179   -1.5546    2.5140 H   0  0  0  0  0  0  0  0  0  0  0  0
    2.0016   -0.8498    1.7218 H   0  0  0  0  0  0  0  0  0  0  0  0
    0.8010    0.2629    2.3097 H   0  0  0  0  0  0  0  0  0  0  0  0
   -5.3067   -1.1230   -1.6822 H   0  0  0  0  0  0  0  0  0  0  0  0
   -7.2828   -0.6609    0.6316 H   0  0  0  0  0  0  0  0  0  0  0  0
   -6.6876   -2.2131   -0.1693 H   0  0  0  0  0  0  0  0  0  0  0  0
   -5.9295    0.7944   -2.7692 H   0  0  0  0  0  0  0  0  0  0  0  0
   -6.8234    1.5080   -1.3169 H   0  0  0  0  0  0  0  0  0  0  0  0
   -7.6749   -0.5625   -3.1997 H   0  0  0  0  0  0  0  0  0  0  0  0
    5.1966   -0.3389   -1.8127 H   0  0  0  0  0  0  0  0  0  0  0  0
    5.6004    2.1765   -0.1423 H   0  0  0  0  0  0  0  0  0  0  0  0
    7.7872    2.4397   -1.1284 H   0  0  0  0  0  0  0  0  0  0  0  0
    8.8283    0.5400    0.3641 H   0  0  0  0  0  0  0  0  0  0  0  0
    6.0848    0.4082    1.4958 H   0  0  0  0  0  0  0  0  0  0  0  0
    8.5281   -0.5623    2.1779 H   0  0  0  0  0  0  0  0  0  0  0  0
    7.0055   -1.2795    2.7489 H   0  0  0  0  0  0  0  0  0  0  0  0
    7.9260   -1.9987    1.3134 H   0  0  0  0  0  0  0  0  0  0  0  0
    1.4332   -3.6844    0.3660 H   0  0  0  0  0  0  0  0  0  0  0  0
    1.0120    2.3119    0.8475 H   0  0  0  0  0  0  0  0  0  0  0  0
   -1.7383   -2.5623   -1.4010 H   0  0  0  0  0  0  0  0  0  0  0  0
   -1.9023    0.2665    2.8941 H   0  0  0  0  0  0  0  0  0  0  0  0
   -0.0522   -1.5828    3.2602 H   0  0  0  0  0  0  0  0  0  0  0  0
   -8.8641    1.3661   -1.4802 H   0  0  0  0  0  0  0  0  0  0  0  0
    4.8620    1.3943   -2.6207 H   0  0  0  0  0  0  0  0  0  0  0  0
    8.4188    1.0355   -2.5586 H   0  0  0  0  0  0  0  0  0  0  0  0
    8.5242    1.9334    1.9835 H   0  0  0  0  0  0  0  0  0  0  0  0
  1  2  1  0
  2  3  1  0
  3  4  1  0
  4  5  1  0
  5  6  1  0
  6  7  1  0
  7  8  1  0
  8  9  1  0
  1 10  1  0
  5 10  1  0
  9 10  1  0
  9 11  1  0
 11 12  1  0
 12 13  1  0
  8 14  1  0
 13 14  1  0
 14 15  1  0
 15 16  1  0
 13 17  1  0
 16 17  1  0
 13 18  1  1
 10 19  1  1
 17 20  1  0
 20 21  1  0
 20 22  1  0
 22 23  1  0
 24 25  1  0
 25 26  1  0
 26 27  1  0
 27 28  1  0
 28 29  1  0
  1 30  1  0
  3 31  1  0
 24 31  1  0
  5 32  1  1
 11 33  1  0
 14 34  1  1
 19 35  1  0
 21 36  1  0
 23 36  1  0
 23 37  1  0
 25 38  1  0
 26 39  1  0
 27 40  1  0
 24 41  1  0
 28 41  1  0
 42 43  1  0
 43 44  1  0
 44 45  1  0
 45 46  1  0
 46 47  1  0
 47 48  1  0
 48 49  1  0
 49 50  1  0
 42 51  1  0
 46 51  1  0
 50 51  1  0
 50 52  1  0
 52 53  1  0
 53 54  1  0
 49 55  1  0
 54 55  1  0
 55 56  1  0
 56 57  1  0
 54 58  1  0
 57 58  1  0
 54 59  1  1
 51 60  1  1
 58 61  1  0
 61 62  1  0
 61 63  1  0
 63 64  1  0
 65 66  1  0
 66 67  1  0
 67 68  1  0
 68 69  1  0
 69 70  1  0
 42 71  1  0
 44 72  1  0
 65 72  1  0
 46 73  1  1
 52 74  1  0
 55 75  1  1
 60 76  1  0
 62 77  1  0
 64 77  1  0
 64 78  1  0
 66 79  1  0
 67 80  1  0
 68 81  1  0
 65 82  1  0
 69 82  1  0
  1 83  1  6
  2 84  1  0
  2 85  1  0
  3 86  1  6
  4 87  1  0
  4 88  1  0
  6 89  1  0
  6 90  1  0
  7 91  1  0
  7 92  1  0
  8 93  1  1
  9 94  1  6
 11 95  1  1
 12 96  1  0
 12 97  1  0
 15 98  1  0
 15 99  1  0
 16100  1  0
 16101  1  0
 17102  1  6
 18103  1  0
 18104  1  0
 18105  1  0
 19106  1  0
 19107  1  0
 20108  1  6
 21109  1  0
 21110  1  0
 22111  1  0
 22112  1  0
 23113  1  0
 24114  1  6
 25115  1  1
 26116  1  6
 27117  1  6
 28118  1  1
 29119  1  0
 29120  1  0
 29121  1  0
 30122  1  0
 32123  1  0
 33124  1  0
 34125  1  0
 35126  1  0
 37127  1  0
 38128  1  0
 39129  1  0
 40130  1  0
 42131  1  6
 43132  1  0
 43133  1  0
 44134  1  6
 45135  1  0
 45136  1  0
 47137  1  0
 47138  1  0
 48139  1  0
 48140  1  0
 49141  1  1
 50142  1  6
 52143  1  1
 53144  1  0
 53145  1  0
 56146  1  0
 56147  1  0
 57148  1  0
 57149  1  0
 58150  1  6
 59151  1  0
 59152  1  0
 59153  1  0
 60154  1  0
 60155  1  0
 61156  1  0
 62157  1  0
 62158  1  0
 63159  1  0
 63160  1  0
 64161  1  0
 65162  1  6
 66163  1  1
 67164  1  6
 68165  1  6
 69166  1  1
 70167  1  0
 70168  1  0
 70169  1  0
 71170  1  0
 73171  1  0
 74172  1  0
 75173  1  0
 76174  1  0
 78175  1  0
 79176  1  0
 80177  1  0
 81178  1  0
M  END
>  <PDBID>  (1) 
3N23

>  <PDB ID>  (1) 
3N23

>  <Generic Name>  (1) 
Ouabain

>  <Brand Name>  (1) 
Strodival

>  <DrugBank ID>  (1) 
DB01092

>  <ATC Codes>  (1) 
C01AC01

>  <Ligand ID>  (1) 
OBN

>  <Target Name>  (1) 
Sodium/potassium-transporting ATPase subunit alpha-1

>  <UniProt ID>  (1) 
P05023

>  <PDB ID.1>  (1) 
3N23

>  <Seq. Identity>  (1) 
95%

$$$$
