PDB_DB00282_08
     RDKit          3D

 28 27  0  0  0  0  0  0  0  0999 V2000
   -1.1586   -1.1334   -0.1125 P   0  0  0  0  0  0  0  0  0  0  0  0
   -2.5414   -1.4480   -1.0141 O   0  0  0  0  0  0  0  0  0  0  0  0
   -2.0762   -0.5753    0.9863 O   0  0  0  0  0  0  0  0  0  0  0  0
   -0.5589   -2.2125    0.9846 O   0  0  0  0  0  0  0  0  0  0  0  0
   -0.2035    0.2732   -0.5097 C   0  0  0  0  0  0  0  0  0  0  0  0
   -0.6481    1.7410    0.3484 P   0  0  0  0  0  0  0  0  0  0  0  0
   -2.1871    2.2170    0.3963 O   0  0  0  0  0  0  0  0  0  0  0  0
    0.6070    2.6439    1.0822 O   0  0  0  0  0  0  0  0  0  0  0  0
   -0.7347    0.9950    1.6991 O   0  0  0  0  0  0  0  0  0  0  0  0
   -0.1038    0.3787   -1.9231 O   0  0  0  0  0  0  0  0  0  0  0  0
    1.2296   -0.0306   -0.0620 C   0  0  0  0  0  0  0  0  0  0  0  0
    1.8068   -1.2221   -0.7376 C   0  0  0  0  0  0  0  0  0  0  0  0
    3.1745   -1.3591   -0.2003 N   0  0  0  0  0  0  0  0  0  0  0  0
   -0.6341   -1.9609   -0.9744 H   0  0  0  0  0  0  0  0  0  0  0  0
   -2.7013   -0.6246   -1.4870 H   0  0  0  0  0  0  0  0  0  0  0  0
   -2.7554   -1.0623    1.4744 H   0  0  0  0  0  0  0  0  0  0  0  0
   -1.1686   -2.9308    1.1501 H   0  0  0  0  0  0  0  0  0  0  0  0
   -0.3716    2.5223   -0.6222 H   0  0  0  0  0  0  0  0  0  0  0  0
   -2.4774    3.1147    0.2876 H   0  0  0  0  0  0  0  0  0  0  0  0
    0.1678    3.3554    1.5611 H   0  0  0  0  0  0  0  0  0  0  0  0
   -1.0665    1.4157    2.4996 H   0  0  0  0  0  0  0  0  0  0  0  0
    0.7765    0.6760   -2.2011 H   0  0  0  0  0  0  0  0  0  0  0  0
    1.2335   -0.1317    1.0421 H   0  0  0  0  0  0  0  0  0  0  0  0
    1.8542    0.8582   -0.2863 H   0  0  0  0  0  0  0  0  0  0  0  0
    1.3008   -2.1768   -0.4683 H   0  0  0  0  0  0  0  0  0  0  0  0
    1.9249   -1.1020   -1.8323 H   0  0  0  0  0  0  0  0  0  0  0  0
    3.5485   -0.3850   -0.1440 H   0  0  0  0  0  0  0  0  0  0  0  0
    3.7631   -1.8360   -0.9370 H   0  0  0  0  0  0  0  0  0  0  0  0
  1  2  1  0
  1  3  1  0
  1  4  1  0
  1  5  1  0
  5  6  1  0
  6  7  1  0
  6  8  1  0
  6  9  1  0
  5 10  1  0
  5 11  1  0
 11 12  1  0
 12 13  1  0
  1 14  1  0
  2 15  1  0
  3 16  1  0
  4 17  1  0
  6 18  1  0
  7 19  1  0
  8 20  1  0
  9 21  1  0
 10 22  1  0
 11 23  1  0
 11 24  1  0
 12 25  1  0
 12 26  1  0
 13 27  1  0
 13 28  1  0
M  END
>  <PDBID>  (1) 
2F89

>  <PDB ID>  (1) 
2F89

>  <Generic Name>  (1) 
Pamidronate

>  <Brand Name>  (1) 
Aredia#Aredia 30mg#Aredia 90mg#Aredia Liq Inj 3mg/ml#PMS-pamidronate#Pamidronate Disodium#Pamidronate Disodium Omega 3 mg/ml#Pamidronate Disodium Omega 6 mg/ml#Pamidronate Disodium Omega 9 mg/ml#Pamidronate Disodium for Injection#Val-pamidronate Disodium#Aminomux#Pamimed

>  <DrugBank ID>  (1) 
DB00282

>  <ATC Codes>  (1) 
M05BA03

>  <Ligand ID>  (1) 
210

>  <Target Name>  (1) 
Farnesyl pyrophosphate synthase

>  <UniProt ID>  (1) 
P14324

>  <PDB ID.1>  (1) 
2F89

>  <Seq. Identity>  (1) 
100%

$$$$
