PDB_DB00642_03
     RDKit          3D

288296  0  0  0  0  0  0  0  0999 V2000
   -0.7694    1.7576   -0.4439 C   0  0  0  0  0  0  0  0  0  0  0  0
    0.2854    2.0028    0.6759 C   0  0  0  0  0  0  0  0  0  0  0  0
    1.6323    1.9871    0.0207 C   0  0  0  0  0  0  0  0  0  0  0  0
    1.9423    0.7190   -0.7120 C   0  0  0  0  0  0  0  0  0  0  0  0
    0.8125    0.0202   -1.3493 C   0  0  0  0  0  0  0  0  0  0  0  0
   -0.5980    0.3865   -0.9360 C   0  0  0  0  0  0  0  0  0  0  0  0
   -2.0528    2.2137    0.0760 C   0  0  0  0  0  0  0  0  0  0  0  0
   -2.7023    1.5701    1.2310 C   0  0  0  0  0  0  0  0  0  0  0  0
   -3.3778    0.2454    0.9604 C   0  0  0  0  0  0  0  0  0  0  0  0
   -3.9410   -0.3367    2.2733 C   0  0  0  0  0  0  0  0  0  0  0  0
   -5.0813   -1.1344    1.7759 N   0  0  0  0  0  0  0  0  0  0  0  0
   -5.7907   -0.0896    1.0667 C   0  0  0  0  0  0  0  0  0  0  0  0
   -4.7431    0.6021    0.2846 C   0  0  0  0  0  0  0  0  0  0  0  0
   -4.7286    0.2597   -1.1733 C   0  0  0  0  0  0  0  0  0  0  0  0
   -5.2659    1.3062   -1.9206 O   0  0  0  0  0  0  0  0  0  0  0  0
   -5.4348   -0.9438   -1.5079 N   0  0  0  0  0  0  0  0  0  0  0  0
   -6.7374   -1.0644   -0.9498 C   0  0  0  0  0  0  0  0  0  0  0  0
   -6.9327   -0.5094    0.3408 N   0  0  0  0  0  0  0  0  0  0  0  0
   -7.2285   -2.4466   -1.0143 N   0  0  0  0  0  0  0  0  0  0  0  0
    2.6872   -0.1667    0.2882 C   0  0  0  0  0  0  0  0  0  0  0  0
    1.7745   -0.3657    1.3370 O   0  0  0  0  0  0  0  0  0  0  0  0
    3.2034   -1.3143   -0.2680 N   0  0  0  0  0  0  0  0  0  0  0  0
    4.4651   -1.8300   -0.1281 C   0  0  1  0  0  0  0  0  0  0  0  0
    5.6218   -1.0981   -0.6882 C   0  0  0  0  0  0  0  0  0  0  0  0
    5.9345    0.2690   -0.2393 C   0  0  0  0  0  0  0  0  0  0  0  0
    7.2473    0.7607   -0.8983 C   0  0  0  0  0  0  0  0  0  0  0  0
    7.5784    2.0321   -0.4877 O   0  0  0  0  0  0  0  0  0  0  0  0
    8.2936   -0.0948   -0.6432 O   0  0  0  0  0  0  0  0  0  0  0  0
    4.8418   -2.3053    1.2702 C   0  0  0  0  0  0  0  0  0  0  0  0
    4.7950   -1.3188    2.2094 O   0  0  0  0  0  0  0  0  0  0  0  0
    4.1216   -3.4273    1.6693 O   0  0  0  0  0  0  0  0  0  0  0  0
   -0.7694    1.7576   -0.4439 C   0  0  0  0  0  0  0  0  0  0  0  0
    0.2854    2.0028    0.6759 C   0  0  0  0  0  0  0  0  0  0  0  0
    1.6323    1.9871    0.0207 C   0  0  0  0  0  0  0  0  0  0  0  0
    1.9423    0.7190   -0.7120 C   0  0  0  0  0  0  0  0  0  0  0  0
    0.8125    0.0202   -1.3493 C   0  0  0  0  0  0  0  0  0  0  0  0
   -0.5980    0.3865   -0.9360 C   0  0  0  0  0  0  0  0  0  0  0  0
   -2.0528    2.2137    0.0760 C   0  0  0  0  0  0  0  0  0  0  0  0
   -2.7023    1.5701    1.2310 C   0  0  0  0  0  0  0  0  0  0  0  0
   -3.3778    0.2454    0.9604 C   0  0  0  0  0  0  0  0  0  0  0  0
   -3.9410   -0.3367    2.2733 C   0  0  0  0  0  0  0  0  0  0  0  0
   -5.0813   -1.1344    1.7759 N   0  0  0  0  0  0  0  0  0  0  0  0
   -5.7907   -0.0896    1.0667 C   0  0  0  0  0  0  0  0  0  0  0  0
   -4.7431    0.6021    0.2846 C   0  0  0  0  0  0  0  0  0  0  0  0
   -4.7286    0.2597   -1.1733 C   0  0  0  0  0  0  0  0  0  0  0  0
   -5.2659    1.3062   -1.9206 O   0  0  0  0  0  0  0  0  0  0  0  0
   -5.4348   -0.9438   -1.5079 N   0  0  0  0  0  0  0  0  0  0  0  0
   -6.7374   -1.0644   -0.9498 C   0  0  0  0  0  0  0  0  0  0  0  0
   -6.9327   -0.5094    0.3408 N   0  0  0  0  0  0  0  0  0  0  0  0
   -7.2285   -2.4466   -1.0143 N   0  0  0  0  0  0  0  0  0  0  0  0
    2.6872   -0.1667    0.2882 C   0  0  0  0  0  0  0  0  0  0  0  0
    1.7745   -0.3657    1.3370 O   0  0  0  0  0  0  0  0  0  0  0  0
    3.2034   -1.3143   -0.2680 N   0  0  0  0  0  0  0  0  0  0  0  0
    4.4651   -1.8300   -0.1281 C   0  0  1  0  0  0  0  0  0  0  0  0
    5.6218   -1.0981   -0.6882 C   0  0  0  0  0  0  0  0  0  0  0  0
    5.9345    0.2690   -0.2393 C   0  0  0  0  0  0  0  0  0  0  0  0
    7.2473    0.7607   -0.8983 C   0  0  0  0  0  0  0  0  0  0  0  0
    7.5784    2.0321   -0.4877 O   0  0  0  0  0  0  0  0  0  0  0  0
    8.2936   -0.0948   -0.6432 O   0  0  0  0  0  0  0  0  0  0  0  0
    4.8418   -2.3053    1.2702 C   0  0  0  0  0  0  0  0  0  0  0  0
    4.7950   -1.3188    2.2094 O   0  0  0  0  0  0  0  0  0  0  0  0
    4.1216   -3.4273    1.6693 O   0  0  0  0  0  0  0  0  0  0  0  0
   -0.7694    1.7576   -0.4439 C   0  0  0  0  0  0  0  0  0  0  0  0
    0.2854    2.0028    0.6759 C   0  0  0  0  0  0  0  0  0  0  0  0
    1.6323    1.9871    0.0207 C   0  0  0  0  0  0  0  0  0  0  0  0
    1.9423    0.7190   -0.7120 C   0  0  0  0  0  0  0  0  0  0  0  0
    0.8125    0.0202   -1.3493 C   0  0  0  0  0  0  0  0  0  0  0  0
   -0.5980    0.3865   -0.9360 C   0  0  0  0  0  0  0  0  0  0  0  0
   -2.0528    2.2137    0.0760 C   0  0  0  0  0  0  0  0  0  0  0  0
   -2.7023    1.5701    1.2310 C   0  0  0  0  0  0  0  0  0  0  0  0
   -3.3778    0.2454    0.9604 C   0  0  0  0  0  0  0  0  0  0  0  0
   -3.9410   -0.3367    2.2733 C   0  0  0  0  0  0  0  0  0  0  0  0
   -5.0813   -1.1344    1.7759 N   0  0  0  0  0  0  0  0  0  0  0  0
   -5.7907   -0.0896    1.0667 C   0  0  0  0  0  0  0  0  0  0  0  0
   -4.7431    0.6021    0.2846 C   0  0  0  0  0  0  0  0  0  0  0  0
   -4.7286    0.2597   -1.1733 C   0  0  0  0  0  0  0  0  0  0  0  0
   -5.2659    1.3062   -1.9206 O   0  0  0  0  0  0  0  0  0  0  0  0
   -5.4348   -0.9438   -1.5079 N   0  0  0  0  0  0  0  0  0  0  0  0
   -6.7374   -1.0644   -0.9498 C   0  0  0  0  0  0  0  0  0  0  0  0
   -6.9327   -0.5094    0.3408 N   0  0  0  0  0  0  0  0  0  0  0  0
   -7.2285   -2.4466   -1.0143 N   0  0  0  0  0  0  0  0  0  0  0  0
    2.6872   -0.1667    0.2882 C   0  0  0  0  0  0  0  0  0  0  0  0
    1.7745   -0.3657    1.3370 O   0  0  0  0  0  0  0  0  0  0  0  0
    3.2034   -1.3143   -0.2680 N   0  0  0  0  0  0  0  0  0  0  0  0
    4.4651   -1.8300   -0.1281 C   0  0  1  0  0  0  0  0  0  0  0  0
    5.6218   -1.0981   -0.6882 C   0  0  0  0  0  0  0  0  0  0  0  0
    5.9345    0.2690   -0.2393 C   0  0  0  0  0  0  0  0  0  0  0  0
    7.2473    0.7607   -0.8983 C   0  0  0  0  0  0  0  0  0  0  0  0
    7.5784    2.0321   -0.4877 O   0  0  0  0  0  0  0  0  0  0  0  0
    8.2936   -0.0948   -0.6432 O   0  0  0  0  0  0  0  0  0  0  0  0
    4.8418   -2.3053    1.2702 C   0  0  0  0  0  0  0  0  0  0  0  0
    4.7950   -1.3188    2.2094 O   0  0  0  0  0  0  0  0  0  0  0  0
    4.1216   -3.4273    1.6693 O   0  0  0  0  0  0  0  0  0  0  0  0
   -0.7694    1.7576   -0.4439 C   0  0  0  0  0  0  0  0  0  0  0  0
    0.2854    2.0028    0.6759 C   0  0  0  0  0  0  0  0  0  0  0  0
    1.6323    1.9871    0.0207 C   0  0  0  0  0  0  0  0  0  0  0  0
    1.9423    0.7190   -0.7120 C   0  0  0  0  0  0  0  0  0  0  0  0
    0.8125    0.0202   -1.3493 C   0  0  0  0  0  0  0  0  0  0  0  0
   -0.5980    0.3865   -0.9360 C   0  0  0  0  0  0  0  0  0  0  0  0
   -2.0528    2.2137    0.0760 C   0  0  0  0  0  0  0  0  0  0  0  0
   -2.7023    1.5701    1.2310 C   0  0  0  0  0  0  0  0  0  0  0  0
   -3.3778    0.2454    0.9604 C   0  0  0  0  0  0  0  0  0  0  0  0
   -3.9410   -0.3367    2.2733 C   0  0  0  0  0  0  0  0  0  0  0  0
   -5.0813   -1.1344    1.7759 N   0  0  0  0  0  0  0  0  0  0  0  0
   -5.7907   -0.0896    1.0667 C   0  0  0  0  0  0  0  0  0  0  0  0
   -4.7431    0.6021    0.2846 C   0  0  0  0  0  0  0  0  0  0  0  0
   -4.7286    0.2597   -1.1733 C   0  0  0  0  0  0  0  0  0  0  0  0
   -5.2659    1.3062   -1.9206 O   0  0  0  0  0  0  0  0  0  0  0  0
   -5.4348   -0.9438   -1.5079 N   0  0  0  0  0  0  0  0  0  0  0  0
   -6.7374   -1.0644   -0.9498 C   0  0  0  0  0  0  0  0  0  0  0  0
   -6.9327   -0.5094    0.3408 N   0  0  0  0  0  0  0  0  0  0  0  0
   -7.2285   -2.4466   -1.0143 N   0  0  0  0  0  0  0  0  0  0  0  0
    2.6872   -0.1667    0.2882 C   0  0  0  0  0  0  0  0  0  0  0  0
    1.7745   -0.3657    1.3370 O   0  0  0  0  0  0  0  0  0  0  0  0
    3.2034   -1.3143   -0.2680 N   0  0  0  0  0  0  0  0  0  0  0  0
    4.4651   -1.8300   -0.1281 C   0  0  1  0  0  0  0  0  0  0  0  0
    5.6218   -1.0981   -0.6882 C   0  0  0  0  0  0  0  0  0  0  0  0
    5.9345    0.2690   -0.2393 C   0  0  0  0  0  0  0  0  0  0  0  0
    7.2473    0.7607   -0.8983 C   0  0  0  0  0  0  0  0  0  0  0  0
    7.5784    2.0321   -0.4877 O   0  0  0  0  0  0  0  0  0  0  0  0
    8.2936   -0.0948   -0.6432 O   0  0  0  0  0  0  0  0  0  0  0  0
    4.8418   -2.3053    1.2702 C   0  0  0  0  0  0  0  0  0  0  0  0
    4.7950   -1.3188    2.2094 O   0  0  0  0  0  0  0  0  0  0  0  0
    4.1216   -3.4273    1.6693 O   0  0  0  0  0  0  0  0  0  0  0  0
   -0.4804    2.4579   -1.2930 H   0  0  0  0  0  0  0  0  0  0  0  0
    0.0162    2.9609    1.1211 H   0  0  0  0  0  0  0  0  0  0  0  0
    0.1118    1.2014    1.3806 H   0  0  0  0  0  0  0  0  0  0  0  0
    2.4035    2.3140    0.7035 H   0  0  0  0  0  0  0  0  0  0  0  0
    1.5564    2.7887   -0.7862 H   0  0  0  0  0  0  0  0  0  0  0  0
    2.7045    0.9896   -1.4965 H   0  0  0  0  0  0  0  0  0  0  0  0
    0.8644    0.1283   -2.4507 H   0  0  0  0  0  0  0  0  0  0  0  0
    0.8546   -1.1113   -1.1806 H   0  0  0  0  0  0  0  0  0  0  0  0
   -1.3541    0.1464   -1.6774 H   0  0  0  0  0  0  0  0  0  0  0  0
   -0.8267   -0.2798   -0.0309 H   0  0  0  0  0  0  0  0  0  0  0  0
   -2.8387    2.3284   -0.7581 H   0  0  0  0  0  0  0  0  0  0  0  0
   -1.9034    3.3258    0.3517 H   0  0  0  0  0  0  0  0  0  0  0  0
   -2.0289    1.4418    2.1181 H   0  0  0  0  0  0  0  0  0  0  0  0
   -3.5019    2.2656    1.6335 H   0  0  0  0  0  0  0  0  0  0  0  0
   -2.9248   -0.4558    0.3162 H   0  0  0  0  0  0  0  0  0  0  0  0
   -3.1815   -0.9387    2.7591 H   0  0  0  0  0  0  0  0  0  0  0  0
   -4.3407    0.4830    2.8759 H   0  0  0  0  0  0  0  0  0  0  0  0
   -4.6754   -1.8508    1.1717 H   0  0  0  0  0  0  0  0  0  0  0  0
   -6.1668    0.5894    1.8870 H   0  0  0  0  0  0  0  0  0  0  0  0
   -4.9143    1.7048    0.4002 H   0  0  0  0  0  0  0  0  0  0  0  0
   -3.6790    0.0967   -1.5314 H   0  0  0  0  0  0  0  0  0  0  0  0
   -5.6514    2.0073   -1.3303 H   0  0  0  0  0  0  0  0  0  0  0  0
   -4.8694   -1.8050   -1.5516 H   0  0  0  0  0  0  0  0  0  0  0  0
   -7.4271   -0.5126   -1.6693 H   0  0  0  0  0  0  0  0  0  0  0  0
   -7.6343    0.2707    0.3200 H   0  0  0  0  0  0  0  0  0  0  0  0
   -7.3592   -2.8606   -0.0861 H   0  0  0  0  0  0  0  0  0  0  0  0
   -6.6735   -3.0207   -1.6931 H   0  0  0  0  0  0  0  0  0  0  0  0
    3.4760    0.5185    0.7169 H   0  0  0  0  0  0  0  0  0  0  0  0
    1.5091   -1.2925    1.4363 H   0  0  0  0  0  0  0  0  0  0  0  0
    2.7826   -1.6142   -1.1917 H   0  0  0  0  0  0  0  0  0  0  0  0
    4.4836   -2.8310   -0.6978 H   0  0  0  0  0  0  0  0  0  0  0  0
    6.5489   -1.7384   -0.4639 H   0  0  0  0  0  0  0  0  0  0  0  0
    5.5939   -1.1131   -1.8134 H   0  0  0  0  0  0  0  0  0  0  0  0
    5.9802    0.4898    0.8070 H   0  0  0  0  0  0  0  0  0  0  0  0
    5.1766    0.9736   -0.7120 H   0  0  0  0  0  0  0  0  0  0  0  0
    7.0903    0.7880   -2.0125 H   0  0  0  0  0  0  0  0  0  0  0  0
    8.0234    1.9809    0.4101 H   0  0  0  0  0  0  0  0  0  0  0  0
    8.3695   -0.3644    0.2993 H   0  0  0  0  0  0  0  0  0  0  0  0
    5.8911   -2.6587    1.1913 H   0  0  0  0  0  0  0  0  0  0  0  0
    4.7390   -1.7377    3.1175 H   0  0  0  0  0  0  0  0  0  0  0  0
    4.4034   -3.7523    2.5353 H   0  0  0  0  0  0  0  0  0  0  0  0
   -0.4804    2.4579   -1.2930 H   0  0  0  0  0  0  0  0  0  0  0  0
    0.0162    2.9609    1.1211 H   0  0  0  0  0  0  0  0  0  0  0  0
    0.1118    1.2014    1.3806 H   0  0  0  0  0  0  0  0  0  0  0  0
    2.4035    2.3140    0.7035 H   0  0  0  0  0  0  0  0  0  0  0  0
    1.5564    2.7887   -0.7862 H   0  0  0  0  0  0  0  0  0  0  0  0
    2.7045    0.9896   -1.4965 H   0  0  0  0  0  0  0  0  0  0  0  0
    0.8644    0.1283   -2.4507 H   0  0  0  0  0  0  0  0  0  0  0  0
    0.8546   -1.1113   -1.1806 H   0  0  0  0  0  0  0  0  0  0  0  0
   -1.3541    0.1464   -1.6774 H   0  0  0  0  0  0  0  0  0  0  0  0
   -0.8267   -0.2798   -0.0309 H   0  0  0  0  0  0  0  0  0  0  0  0
   -2.8387    2.3284   -0.7581 H   0  0  0  0  0  0  0  0  0  0  0  0
   -1.9034    3.3258    0.3517 H   0  0  0  0  0  0  0  0  0  0  0  0
   -2.0289    1.4418    2.1181 H   0  0  0  0  0  0  0  0  0  0  0  0
   -3.5019    2.2656    1.6335 H   0  0  0  0  0  0  0  0  0  0  0  0
   -2.9248   -0.4558    0.3162 H   0  0  0  0  0  0  0  0  0  0  0  0
   -3.1815   -0.9387    2.7591 H   0  0  0  0  0  0  0  0  0  0  0  0
   -4.3407    0.4830    2.8759 H   0  0  0  0  0  0  0  0  0  0  0  0
   -4.6754   -1.8508    1.1717 H   0  0  0  0  0  0  0  0  0  0  0  0
   -6.1668    0.5894    1.8870 H   0  0  0  0  0  0  0  0  0  0  0  0
   -4.9143    1.7048    0.4002 H   0  0  0  0  0  0  0  0  0  0  0  0
   -3.6790    0.0967   -1.5314 H   0  0  0  0  0  0  0  0  0  0  0  0
   -5.6514    2.0073   -1.3303 H   0  0  0  0  0  0  0  0  0  0  0  0
   -4.8694   -1.8050   -1.5516 H   0  0  0  0  0  0  0  0  0  0  0  0
   -7.4271   -0.5126   -1.6693 H   0  0  0  0  0  0  0  0  0  0  0  0
   -7.6343    0.2707    0.3200 H   0  0  0  0  0  0  0  0  0  0  0  0
   -7.3592   -2.8606   -0.0861 H   0  0  0  0  0  0  0  0  0  0  0  0
   -6.6735   -3.0207   -1.6931 H   0  0  0  0  0  0  0  0  0  0  0  0
    3.4760    0.5185    0.7169 H   0  0  0  0  0  0  0  0  0  0  0  0
    1.5091   -1.2925    1.4363 H   0  0  0  0  0  0  0  0  0  0  0  0
    2.7826   -1.6142   -1.1917 H   0  0  0  0  0  0  0  0  0  0  0  0
    4.4836   -2.8310   -0.6978 H   0  0  0  0  0  0  0  0  0  0  0  0
    6.5489   -1.7384   -0.4639 H   0  0  0  0  0  0  0  0  0  0  0  0
    5.5939   -1.1131   -1.8134 H   0  0  0  0  0  0  0  0  0  0  0  0
    5.9802    0.4898    0.8070 H   0  0  0  0  0  0  0  0  0  0  0  0
    5.1766    0.9736   -0.7120 H   0  0  0  0  0  0  0  0  0  0  0  0
    7.0903    0.7880   -2.0125 H   0  0  0  0  0  0  0  0  0  0  0  0
    8.0234    1.9809    0.4101 H   0  0  0  0  0  0  0  0  0  0  0  0
    8.3695   -0.3644    0.2993 H   0  0  0  0  0  0  0  0  0  0  0  0
    5.8911   -2.6587    1.1913 H   0  0  0  0  0  0  0  0  0  0  0  0
    4.7390   -1.7377    3.1175 H   0  0  0  0  0  0  0  0  0  0  0  0
    4.4034   -3.7523    2.5353 H   0  0  0  0  0  0  0  0  0  0  0  0
   -0.4804    2.4579   -1.2930 H   0  0  0  0  0  0  0  0  0  0  0  0
    0.0162    2.9609    1.1211 H   0  0  0  0  0  0  0  0  0  0  0  0
    0.1118    1.2014    1.3806 H   0  0  0  0  0  0  0  0  0  0  0  0
    2.4035    2.3140    0.7035 H   0  0  0  0  0  0  0  0  0  0  0  0
    1.5564    2.7887   -0.7862 H   0  0  0  0  0  0  0  0  0  0  0  0
    2.7045    0.9896   -1.4965 H   0  0  0  0  0  0  0  0  0  0  0  0
    0.8644    0.1283   -2.4507 H   0  0  0  0  0  0  0  0  0  0  0  0
    0.8546   -1.1113   -1.1806 H   0  0  0  0  0  0  0  0  0  0  0  0
   -1.3541    0.1464   -1.6774 H   0  0  0  0  0  0  0  0  0  0  0  0
   -0.8267   -0.2798   -0.0309 H   0  0  0  0  0  0  0  0  0  0  0  0
   -2.8387    2.3284   -0.7581 H   0  0  0  0  0  0  0  0  0  0  0  0
   -1.9034    3.3258    0.3517 H   0  0  0  0  0  0  0  0  0  0  0  0
   -2.0289    1.4418    2.1181 H   0  0  0  0  0  0  0  0  0  0  0  0
   -3.5019    2.2656    1.6335 H   0  0  0  0  0  0  0  0  0  0  0  0
   -2.9248   -0.4558    0.3162 H   0  0  0  0  0  0  0  0  0  0  0  0
   -3.1815   -0.9387    2.7591 H   0  0  0  0  0  0  0  0  0  0  0  0
   -4.3407    0.4830    2.8759 H   0  0  0  0  0  0  0  0  0  0  0  0
   -4.6754   -1.8508    1.1717 H   0  0  0  0  0  0  0  0  0  0  0  0
   -6.1668    0.5894    1.8870 H   0  0  0  0  0  0  0  0  0  0  0  0
   -4.9143    1.7048    0.4002 H   0  0  0  0  0  0  0  0  0  0  0  0
   -3.6790    0.0967   -1.5314 H   0  0  0  0  0  0  0  0  0  0  0  0
   -5.6514    2.0073   -1.3303 H   0  0  0  0  0  0  0  0  0  0  0  0
   -4.8694   -1.8050   -1.5516 H   0  0  0  0  0  0  0  0  0  0  0  0
   -7.4271   -0.5126   -1.6693 H   0  0  0  0  0  0  0  0  0  0  0  0
   -7.6343    0.2707    0.3200 H   0  0  0  0  0  0  0  0  0  0  0  0
   -7.3592   -2.8606   -0.0861 H   0  0  0  0  0  0  0  0  0  0  0  0
   -6.6735   -3.0207   -1.6931 H   0  0  0  0  0  0  0  0  0  0  0  0
    3.4760    0.5185    0.7169 H   0  0  0  0  0  0  0  0  0  0  0  0
    1.5091   -1.2925    1.4363 H   0  0  0  0  0  0  0  0  0  0  0  0
    2.7826   -1.6142   -1.1917 H   0  0  0  0  0  0  0  0  0  0  0  0
    4.4836   -2.8310   -0.6978 H   0  0  0  0  0  0  0  0  0  0  0  0
    6.5489   -1.7384   -0.4639 H   0  0  0  0  0  0  0  0  0  0  0  0
    5.5939   -1.1131   -1.8134 H   0  0  0  0  0  0  0  0  0  0  0  0
    5.9802    0.4898    0.8070 H   0  0  0  0  0  0  0  0  0  0  0  0
    5.1766    0.9736   -0.7120 H   0  0  0  0  0  0  0  0  0  0  0  0
    7.0903    0.7880   -2.0125 H   0  0  0  0  0  0  0  0  0  0  0  0
    8.0234    1.9809    0.4101 H   0  0  0  0  0  0  0  0  0  0  0  0
    8.3695   -0.3644    0.2993 H   0  0  0  0  0  0  0  0  0  0  0  0
    5.8911   -2.6587    1.1913 H   0  0  0  0  0  0  0  0  0  0  0  0
    4.7390   -1.7377    3.1175 H   0  0  0  0  0  0  0  0  0  0  0  0
    4.4034   -3.7523    2.5353 H   0  0  0  0  0  0  0  0  0  0  0  0
   -0.4804    2.4579   -1.2930 H   0  0  0  0  0  0  0  0  0  0  0  0
    0.0162    2.9609    1.1211 H   0  0  0  0  0  0  0  0  0  0  0  0
    0.1118    1.2014    1.3806 H   0  0  0  0  0  0  0  0  0  0  0  0
    2.4035    2.3140    0.7035 H   0  0  0  0  0  0  0  0  0  0  0  0
    1.5564    2.7887   -0.7862 H   0  0  0  0  0  0  0  0  0  0  0  0
    2.7045    0.9896   -1.4965 H   0  0  0  0  0  0  0  0  0  0  0  0
    0.8644    0.1283   -2.4507 H   0  0  0  0  0  0  0  0  0  0  0  0
    0.8546   -1.1113   -1.1806 H   0  0  0  0  0  0  0  0  0  0  0  0
   -1.3541    0.1464   -1.6774 H   0  0  0  0  0  0  0  0  0  0  0  0
   -0.8267   -0.2798   -0.0309 H   0  0  0  0  0  0  0  0  0  0  0  0
   -2.8387    2.3284   -0.7581 H   0  0  0  0  0  0  0  0  0  0  0  0
   -1.9034    3.3258    0.3517 H   0  0  0  0  0  0  0  0  0  0  0  0
   -2.0289    1.4418    2.1181 H   0  0  0  0  0  0  0  0  0  0  0  0
   -3.5019    2.2656    1.6335 H   0  0  0  0  0  0  0  0  0  0  0  0
   -2.9248   -0.4558    0.3162 H   0  0  0  0  0  0  0  0  0  0  0  0
   -3.1815   -0.9387    2.7591 H   0  0  0  0  0  0  0  0  0  0  0  0
   -4.3407    0.4830    2.8759 H   0  0  0  0  0  0  0  0  0  0  0  0
   -4.6754   -1.8508    1.1717 H   0  0  0  0  0  0  0  0  0  0  0  0
   -6.1668    0.5894    1.8870 H   0  0  0  0  0  0  0  0  0  0  0  0
   -4.9143    1.7048    0.4002 H   0  0  0  0  0  0  0  0  0  0  0  0
   -3.6790    0.0967   -1.5314 H   0  0  0  0  0  0  0  0  0  0  0  0
   -5.6514    2.0073   -1.3303 H   0  0  0  0  0  0  0  0  0  0  0  0
   -4.8694   -1.8050   -1.5516 H   0  0  0  0  0  0  0  0  0  0  0  0
   -7.4271   -0.5126   -1.6693 H   0  0  0  0  0  0  0  0  0  0  0  0
   -7.6343    0.2707    0.3200 H   0  0  0  0  0  0  0  0  0  0  0  0
   -7.3592   -2.8606   -0.0861 H   0  0  0  0  0  0  0  0  0  0  0  0
   -6.6735   -3.0207   -1.6931 H   0  0  0  0  0  0  0  0  0  0  0  0
    3.4760    0.5185    0.7169 H   0  0  0  0  0  0  0  0  0  0  0  0
    1.5091   -1.2925    1.4363 H   0  0  0  0  0  0  0  0  0  0  0  0
    2.7826   -1.6142   -1.1917 H   0  0  0  0  0  0  0  0  0  0  0  0
    4.4836   -2.8310   -0.6978 H   0  0  0  0  0  0  0  0  0  0  0  0
    6.5489   -1.7384   -0.4639 H   0  0  0  0  0  0  0  0  0  0  0  0
    5.5939   -1.1131   -1.8134 H   0  0  0  0  0  0  0  0  0  0  0  0
    5.9802    0.4898    0.8070 H   0  0  0  0  0  0  0  0  0  0  0  0
    5.1766    0.9736   -0.7120 H   0  0  0  0  0  0  0  0  0  0  0  0
    7.0903    0.7880   -2.0125 H   0  0  0  0  0  0  0  0  0  0  0  0
    8.0234    1.9809    0.4101 H   0  0  0  0  0  0  0  0  0  0  0  0
    8.3695   -0.3644    0.2993 H   0  0  0  0  0  0  0  0  0  0  0  0
    5.8911   -2.6587    1.1913 H   0  0  0  0  0  0  0  0  0  0  0  0
    4.7390   -1.7377    3.1175 H   0  0  0  0  0  0  0  0  0  0  0  0
    4.4034   -3.7523    2.5353 H   0  0  0  0  0  0  0  0  0  0  0  0
  1  2  1  0
  2  3  1  0
  3  4  1  0
  4  5  1  0
  1  6  1  0
  5  6  1  0
  1  7  1  0
  7  8  1  0
  8  9  1  0
  9 10  1  0
 10 11  1  0
 11 12  1  0
  9 13  1  0
 12 13  1  0
 13 14  1  0
 14 15  1  0
 14 16  1  0
 16 17  1  0
 12 18  1  0
 17 18  1  0
 17 19  1  0
  4 20  1  0
 20 21  1  0
 20 22  1  0
 22 23  1  0
 23 24  1  0
 24 25  1  0
 25 26  1  0
 26 27  1  0
 26 28  1  0
 23 29  1  0
 29 30  1  0
 29 31  1  0
 32 33  1  0
 33 34  1  0
 34 35  1  0
 35 36  1  0
 32 37  1  0
 36 37  1  0
 32 38  1  0
 38 39  1  0
 39 40  1  0
 40 41  1  0
 41 42  1  0
 42 43  1  0
 40 44  1  0
 43 44  1  0
 44 45  1  0
 45 46  1  0
 45 47  1  0
 47 48  1  0
 43 49  1  0
 48 49  1  0
 48 50  1  0
 35 51  1  0
 51 52  1  0
 51 53  1  0
 53 54  1  0
 54 55  1  0
 55 56  1  0
 56 57  1  0
 57 58  1  0
 57 59  1  0
 54 60  1  0
 60 61  1  0
 60 62  1  0
 63 64  1  0
 64 65  1  0
 65 66  1  0
 66 67  1  0
 63 68  1  0
 67 68  1  0
 63 69  1  0
 69 70  1  0
 70 71  1  0
 71 72  1  0
 72 73  1  0
 73 74  1  0
 71 75  1  0
 74 75  1  0
 75 76  1  0
 76 77  1  0
 76 78  1  0
 78 79  1  0
 74 80  1  0
 79 80  1  0
 79 81  1  0
 66 82  1  0
 82 83  1  0
 82 84  1  0
 84 85  1  0
 85 86  1  0
 86 87  1  0
 87 88  1  0
 88 89  1  0
 88 90  1  0
 85 91  1  0
 91 92  1  0
 91 93  1  0
 94 95  1  0
 95 96  1  0
 96 97  1  0
 97 98  1  0
 94 99  1  0
 98 99  1  0
 94100  1  0
100101  1  0
101102  1  0
102103  1  0
103104  1  0
104105  1  0
102106  1  0
105106  1  0
106107  1  0
107108  1  0
107109  1  0
109110  1  0
105111  1  0
110111  1  0
110112  1  0
 97113  1  0
113114  1  0
113115  1  0
115116  1  0
116117  1  0
117118  1  0
118119  1  0
119120  1  0
119121  1  0
116122  1  0
122123  1  0
122124  1  0
  1125  1  0
  2126  1  0
  2127  1  0
  3128  1  0
  3129  1  0
  4130  1  0
  5131  1  0
  5132  1  0
  6133  1  0
  6134  1  0
  7135  1  0
  7136  1  0
  8137  1  0
  8138  1  0
  9139  1  0
 10140  1  0
 10141  1  0
 11142  1  0
 12143  1  0
 13144  1  0
 14145  1  0
 15146  1  0
 16147  1  0
 17148  1  0
 18149  1  0
 19150  1  0
 19151  1  0
 20152  1  0
 21153  1  0
 22154  1  0
 23155  1  6
 24156  1  0
 24157  1  0
 25158  1  0
 25159  1  0
 26160  1  0
 27161  1  0
 28162  1  0
 29163  1  0
 30164  1  0
 31165  1  0
 32166  1  0
 33167  1  0
 33168  1  0
 34169  1  0
 34170  1  0
 35171  1  0
 36172  1  0
 36173  1  0
 37174  1  0
 37175  1  0
 38176  1  0
 38177  1  0
 39178  1  0
 39179  1  0
 40180  1  0
 41181  1  0
 41182  1  0
 42183  1  0
 43184  1  0
 44185  1  0
 45186  1  0
 46187  1  0
 47188  1  0
 48189  1  0
 49190  1  0
 50191  1  0
 50192  1  0
 51193  1  0
 52194  1  0
 53195  1  0
 54196  1  6
 55197  1  0
 55198  1  0
 56199  1  0
 56200  1  0
 57201  1  0
 58202  1  0
 59203  1  0
 60204  1  0
 61205  1  0
 62206  1  0
 63207  1  0
 64208  1  0
 64209  1  0
 65210  1  0
 65211  1  0
 66212  1  0
 67213  1  0
 67214  1  0
 68215  1  0
 68216  1  0
 69217  1  0
 69218  1  0
 70219  1  0
 70220  1  0
 71221  1  0
 72222  1  0
 72223  1  0
 73224  1  0
 74225  1  0
 75226  1  0
 76227  1  0
 77228  1  0
 78229  1  0
 79230  1  0
 80231  1  0
 81232  1  0
 81233  1  0
 82234  1  0
 83235  1  0
 84236  1  0
 85237  1  6
 86238  1  0
 86239  1  0
 87240  1  0
 87241  1  0
 88242  1  0
 89243  1  0
 90244  1  0
 91245  1  0
 92246  1  0
 93247  1  0
 94248  1  0
 95249  1  0
 95250  1  0
 96251  1  0
 96252  1  0
 97253  1  0
 98254  1  0
 98255  1  0
 99256  1  0
 99257  1  0
100258  1  0
100259  1  0
101260  1  0
101261  1  0
102262  1  0
103263  1  0
103264  1  0
104265  1  0
105266  1  0
106267  1  0
107268  1  0
108269  1  0
109270  1  0
110271  1  0
111272  1  0
112273  1  0
112274  1  0
113275  1  0
114276  1  0
115277  1  0
116278  1  6
117279  1  0
117280  1  0
118281  1  0
118282  1  0
119283  1  0
120284  1  0
121285  1  0
122286  1  0
123287  1  0
124288  1  0
M  END
>  <PDBID>  (1) 
1JU6

>  <PDB ID>  (1) 
1JU6

>  <Generic Name>  (1) 
Pemetrexed

>  <Brand Name>  (1) 
Act Pemetrexed#Alimta#Pemetrexed#Pemetrexed Disodium for Injection#Taro-pemetrexed

>  <DrugBank ID>  (1) 
DB00642

>  <ATC Codes>  (1) 
L01BA04

>  <Ligand ID>  (1) 
LYA

>  <Target Name>  (1) 
Thymidylate synthase

>  <UniProt ID>  (1) 
P04818

>  <PDB ID.1>  (1) 
1JU6

>  <Seq. Identity>  (1) 
100%

$$$$
