PDB_DB01104_07
     RDKit          3D

 49 51  0  0  0  0  0  0  0  0999 V2000
    5.6832    1.0563    0.9702 Cl  0  0  0  0  0  0  0  0  0  0  0  0
    4.6705    0.3432   -0.3004 C   0  0  0  0  0  0  0  0  0  0  0  0
    4.1387   -0.9615    0.1832 C   0  0  0  0  0  0  0  0  0  0  0  0
    5.3724   -1.6292    1.3121 Cl  0  0  0  0  0  0  0  0  0  0  0  0
    3.6424    1.3022   -0.8229 C   0  0  0  0  0  0  0  0  0  0  0  0
    2.3490    0.4790   -0.9873 C   0  0  0  0  0  0  0  0  0  0  0  0
    1.8942    0.1406    0.3802 C   0  0  0  0  0  0  0  0  0  0  0  0
    2.8582   -0.8656    0.9700 C   0  0  0  0  0  0  0  0  0  0  0  0
    0.4786   -0.3033    0.5539 C   0  0  1  0  0  0  0  0  0  0  0  0
   -0.5858    0.7119    0.4683 C   0  0  0  0  0  0  0  0  0  0  0  0
   -0.5522    1.6871   -0.6455 C   0  0  0  0  0  0  0  0  0  0  0  0
   -1.6494    2.7205   -0.4889 C   0  0  0  0  0  0  0  0  0  0  0  0
   -2.8542    2.2410    0.2238 C   0  0  0  0  0  0  0  0  0  0  0  0
   -3.0106    0.7295   -0.1034 C   0  0  0  0  0  0  0  0  0  0  0  0
   -1.9433    0.0637    0.7086 C   0  0  0  0  0  0  0  0  0  0  0  0
   -1.9352   -1.4055    0.5685 C   0  0  1  0  0  0  0  0  0  0  0  0
   -3.1672   -2.0446    0.6844 N   0  0  0  0  0  0  0  0  0  0  0  0
   -4.2116   -1.9035   -0.2287 C   0  0  0  0  0  0  0  0  0  0  0  0
   -1.1784   -1.7363   -0.7092 C   0  0  0  0  0  0  0  0  0  0  0  0
    0.2707   -1.4673   -0.4115 C   0  0  0  0  0  0  0  0  0  0  0  0
    5.3709    0.1094   -1.1583 H   0  0  0  0  0  0  0  0  0  0  0  0
    4.0998   -1.6962   -0.6440 H   0  0  0  0  0  0  0  0  0  0  0  0
    3.4610    2.0734   -0.0533 H   0  0  0  0  0  0  0  0  0  0  0  0
    3.9247    1.7821   -1.7816 H   0  0  0  0  0  0  0  0  0  0  0  0
    2.7457   -0.4704   -1.5139 H   0  0  0  0  0  0  0  0  0  0  0  0
    1.6643    0.8879   -1.7018 H   0  0  0  0  0  0  0  0  0  0  0  0
    2.0235    1.0912    1.0065 H   0  0  0  0  0  0  0  0  0  0  0  0
    2.3936   -1.8674    0.9819 H   0  0  0  0  0  0  0  0  0  0  0  0
    3.0725   -0.6317    2.0411 H   0  0  0  0  0  0  0  0  0  0  0  0
    0.4190   -0.7507    1.5850 H   0  0  0  0  0  0  0  0  0  0  0  0
   -0.4311    1.3661    1.4134 H   0  0  0  0  0  0  0  0  0  0  0  0
   -0.6293    1.2620   -1.6436 H   0  0  0  0  0  0  0  0  0  0  0  0
    0.3912    2.2995   -0.4938 H   0  0  0  0  0  0  0  0  0  0  0  0
   -1.2842    3.6557    0.0261 H   0  0  0  0  0  0  0  0  0  0  0  0
   -1.9452    3.0664   -1.4999 H   0  0  0  0  0  0  0  0  0  0  0  0
   -2.8017    2.2782    1.3267 H   0  0  0  0  0  0  0  0  0  0  0  0
   -3.7884    2.7156   -0.1207 H   0  0  0  0  0  0  0  0  0  0  0  0
   -2.8971    0.6788   -1.1818 H   0  0  0  0  0  0  0  0  0  0  0  0
   -4.0132    0.4647    0.2900 H   0  0  0  0  0  0  0  0  0  0  0  0
   -2.2622    0.2620    1.7932 H   0  0  0  0  0  0  0  0  0  0  0  0
   -1.2811   -1.8951    1.3771 H   0  0  0  0  0  0  0  0  0  0  0  0
   -3.4442   -2.2778    1.6629 H   0  0  0  0  0  0  0  0  0  0  0  0
   -4.5172   -2.9738   -0.5361 H   0  0  0  0  0  0  0  0  0  0  0  0
   -4.0619   -1.3653   -1.1585 H   0  0  0  0  0  0  0  0  0  0  0  0
   -5.1469   -1.5738    0.3158 H   0  0  0  0  0  0  0  0  0  0  0  0
   -1.3839   -2.8016   -0.9150 H   0  0  0  0  0  0  0  0  0  0  0  0
   -1.4697   -1.1526   -1.5743 H   0  0  0  0  0  0  0  0  0  0  0  0
    0.8569   -1.3204   -1.3482 H   0  0  0  0  0  0  0  0  0  0  0  0
    0.6643   -2.3743    0.0805 H   0  0  0  0  0  0  0  0  0  0  0  0
  1  2  1  0
  2  3  1  0
  3  4  1  0
  2  5  1  0
  5  6  1  0
  6  7  1  0
  3  8  1  0
  7  8  1  0
  7  9  1  0
  9 10  1  0
 10 11  1  0
 11 12  1  0
 12 13  1  0
 13 14  1  0
 10 15  1  0
 14 15  1  0
 15 16  1  0
 16 17  1  0
 17 18  1  0
 16 19  1  0
  9 20  1  0
 19 20  1  0
  2 21  1  0
  3 22  1  0
  5 23  1  0
  5 24  1  0
  6 25  1  0
  6 26  1  0
  7 27  1  0
  8 28  1  0
  8 29  1  0
  9 30  1  1
 10 31  1  0
 11 32  1  0
 11 33  1  0
 12 34  1  0
 12 35  1  0
 13 36  1  0
 13 37  1  0
 14 38  1  0
 14 39  1  0
 15 40  1  0
 16 41  1  1
 17 42  1  0
 18 43  1  0
 18 44  1  0
 18 45  1  0
 19 46  1  0
 19 47  1  0
 20 48  1  0
 20 49  1  0
M  END
>  <PDBID>  (1) 
6AWO

>  <PDB ID>  (1) 
6AWO

>  <Generic Name>  (1) 
Sertraline

>  <Brand Name>  (1) 
Act Sertraline#Apo-sertraline#Auro-sertraline#Bio-sertraline#Dom-sertraline#Gd-sertraline#Ipg-sertraline#Jamp-sertraline#Mar-sertraline#Mint-sertraline#Mylan-sertraline#Nu-sertraline Capsules#PHL-sertraline#PMS-sertraline#Priva-sertraline#Q-sertraline#Ran-sertraline#Ratio-sertraline#Riva-sertraline#Sandoz Sertraline#Sertraline#Sertraline Hydrochloride#Sertraline Hydrochloride Tablets#Sertraline-100#Sertraline-25#Sertraline-50#Teva-sertraline#Van-sertraline#Zoloft#Zoloft Cap 100mg#Zoloft Cap 50mg#Lustral

>  <DrugBank ID>  (1) 
DB01104

>  <ATC Codes>  (1) 
N06AB06

>  <Ligand ID>  (1) 
SRE

>  <Target Name>  (1) 
Sodium-dependent serotonin transporter

>  <UniProt ID>  (1) 
P31645

>  <PDB ID.1>  (1) 
6AWO

>  <Seq. Identity>  (1) 
99%

$$$$
