PDB_DB04787_00
     RDKit          3D

104108  0  0  0  0  0  0  0  0999 V2000
    3.1527    1.5567    0.1782 C   0  0  0  0  0  0  0  0  0  0  0  0
    3.2150    0.4513   -0.8208 C   0  0  0  0  0  0  0  0  0  0  0  0
    2.0227   -0.4681   -0.7952 C   0  0  2  0  0  0  0  0  0  0  0  0
    0.7904    0.4106   -0.7393 C   0  0  0  0  0  0  0  0  0  0  0  0
   -0.3009   -0.4381   -0.1168 C   0  0  1  0  0  0  0  0  0  0  0  0
    0.0008   -0.5631    1.3354 C   0  0  0  0  0  0  0  0  0  0  0  0
    1.3445   -1.2157    1.5168 C   0  0  0  0  0  0  0  0  0  0  0  0
    2.0579   -1.5242    0.2377 C   0  0  0  0  0  0  0  0  0  0  0  0
    3.3802   -1.9899    0.5775 N   0  0  0  0  0  0  0  0  0  0  0  0
    4.4114   -1.0251    0.4386 C   0  0  0  0  0  0  0  0  0  0  0  0
    6.0033   -1.9112    0.4488 S   0  0  0  0  0  0  0  0  0  0  0  0
    4.3574   -0.3074   -0.7511 O   0  0  0  0  0  0  0  0  0  0  0  0
   -1.6210    0.1696   -0.4485 C   0  0  2  0  0  0  0  0  0  0  0  0
   -1.7483    1.5828    0.0734 C   0  0  0  0  0  0  0  0  0  0  0  0
   -3.2662    1.6613    0.2908 C   0  0  0  0  0  0  0  0  0  0  0  0
   -3.5106    0.3032    0.8892 C   0  0  0  0  0  0  0  0  0  0  0  0
   -2.7452   -0.5685    0.0664 N   0  0  0  0  0  0  0  0  0  0  0  0
   -3.4590   -1.1369   -1.0394 C   0  0  0  0  0  0  0  0  0  0  0  0
   -4.9537   -0.0462    1.0206 C   0  0  0  0  0  0  0  0  0  0  0  0
   -5.6673   -0.0645   -0.2259 N   0  0  0  0  0  0  0  0  0  0  0  0
    3.2134    1.1092   -2.2094 C   0  0  0  0  0  0  0  0  0  0  0  0
    3.5327    1.7702    0.0440 C   0  0  0  0  0  0  0  0  0  0  0  0
    3.0831    0.5407   -0.7572 C   0  0  0  0  0  0  0  0  0  0  0  0
    1.9082   -0.0873   -0.0981 C   0  0  0  0  0  0  0  0  0  0  0  0
    0.7552   -0.3541   -1.0541 C   0  0  0  0  0  0  0  0  0  0  0  0
   -0.4018   -0.8985   -0.2650 C   0  0  1  0  0  0  0  0  0  0  0  0
   -0.1613   -0.9011    1.2207 C   0  0  0  0  0  0  0  0  0  0  0  0
    1.0880   -1.6434    1.5642 C   0  0  0  0  0  0  0  0  0  0  0  0
    2.2088   -1.4023    0.5741 C   0  0  0  0  0  0  0  0  0  0  0  0
    3.5103   -1.4518    1.1708 N   0  0  0  0  0  0  0  0  0  0  0  0
    4.5012   -0.6991    0.4558 C   0  0  0  0  0  0  0  0  0  0  0  0
    6.0699   -1.6380    0.3111 S   0  0  0  0  0  0  0  0  0  0  0  0
    4.1145   -0.3837   -0.8491 O   0  0  0  0  0  0  0  0  0  0  0  0
   -1.6338   -0.1408   -0.6446 C   0  0  2  0  0  0  0  0  0  0  0  0
   -1.5150    1.3369   -0.3614 C   0  0  0  0  0  0  0  0  0  0  0  0
   -2.9528    1.6870    0.0270 C   0  0  0  0  0  0  0  0  0  0  0  0
   -3.3361    0.4573    0.7964 C   0  0  0  0  0  0  0  0  0  0  0  0
   -2.8233   -0.6096    0.0248 N   0  0  0  0  0  0  0  0  0  0  0  0
   -3.7114   -1.1529   -0.9532 C   0  0  0  0  0  0  0  0  0  0  0  0
   -4.7833    0.3852    1.1357 C   0  0  0  0  0  0  0  0  0  0  0  0
   -5.6678    0.3819    0.0253 N   0  0  0  0  0  0  0  0  0  0  0  0
    2.7798    1.0445   -2.1528 C   0  0  0  0  0  0  0  0  0  0  0  0
    2.6844    1.3187    1.1266 H   0  0  0  0  0  0  0  0  0  0  0  0
    2.6811    2.4689   -0.2770 H   0  0  0  0  0  0  0  0  0  0  0  0
    4.2111    1.8656    0.3974 H   0  0  0  0  0  0  0  0  0  0  0  0
    1.9924   -0.9489   -1.8192 H   0  0  0  0  0  0  0  0  0  0  0  0
    0.5173    0.7549   -1.7566 H   0  0  0  0  0  0  0  0  0  0  0  0
    1.0246    1.2514   -0.0569 H   0  0  0  0  0  0  0  0  0  0  0  0
   -0.2244   -1.4688   -0.5545 H   0  0  0  0  0  0  0  0  0  0  0  0
   -0.8102   -1.0789    1.9087 H   0  0  0  0  0  0  0  0  0  0  0  0
    0.0801    0.4483    1.7840 H   0  0  0  0  0  0  0  0  0  0  0  0
    1.9880   -0.6760    2.2618 H   0  0  0  0  0  0  0  0  0  0  0  0
    1.1395   -2.2099    2.0162 H   0  0  0  0  0  0  0  0  0  0  0  0
    1.5326   -2.4326   -0.1900 H   0  0  0  0  0  0  0  0  0  0  0  0
    3.6290   -2.8984    0.1334 H   0  0  0  0  0  0  0  0  0  0  0  0
    4.4179   -0.3598    1.3303 H   0  0  0  0  0  0  0  0  0  0  0  0
    7.0452   -1.0507    0.0295 H   0  0  0  0  0  0  0  0  0  0  0  0
   -1.6671    0.2526   -1.5673 H   0  0  0  0  0  0  0  0  0  0  0  0
   -1.4237    2.3284   -0.6823 H   0  0  0  0  0  0  0  0  0  0  0  0
   -1.3001    1.7489    1.0557 H   0  0  0  0  0  0  0  0  0  0  0  0
   -3.7244    1.8208   -0.6821 H   0  0  0  0  0  0  0  0  0  0  0  0
   -3.5035    2.4127    1.0558 H   0  0  0  0  0  0  0  0  0  0  0  0
   -3.0653    0.3077    1.9033 H   0  0  0  0  0  0  0  0  0  0  0  0
   -4.2186   -1.8770   -0.7564 H   0  0  0  0  0  0  0  0  0  0  0  0
   -3.8277   -0.3413   -1.7144 H   0  0  0  0  0  0  0  0  0  0  0  0
   -2.6982   -1.7050   -1.6510 H   0  0  0  0  0  0  0  0  0  0  0  0
   -5.0346   -1.0303    1.4981 H   0  0  0  0  0  0  0  0  0  0  0  0
   -5.4318    0.7030    1.6780 H   0  0  0  0  0  0  0  0  0  0  0  0
   -6.6798   -0.2625    0.0118 H   0  0  0  0  0  0  0  0  0  0  0  0
   -5.6684    0.8384   -0.7244 H   0  0  0  0  0  0  0  0  0  0  0  0
    2.5728    0.5579   -2.9168 H   0  0  0  0  0  0  0  0  0  0  0  0
    4.2319    1.1306   -2.6396 H   0  0  0  0  0  0  0  0  0  0  0  0
    2.8520    2.1453   -2.1663 H   0  0  0  0  0  0  0  0  0  0  0  0
    3.2533    1.5961    1.1226 H   0  0  0  0  0  0  0  0  0  0  0  0
    2.9097    2.6502   -0.2600 H   0  0  0  0  0  0  0  0  0  0  0  0
    4.6066    1.9543   -0.0508 H   0  0  0  0  0  0  0  0  0  0  0  0
    1.5021    0.6130    0.6731 H   0  0  0  0  0  0  0  0  0  0  0  0
    0.5224    0.6080   -1.5534 H   0  0  0  0  0  0  0  0  0  0  0  0
    1.1002   -1.1274   -1.7669 H   0  0  0  0  0  0  0  0  0  0  0  0
   -0.5951   -1.9756   -0.5467 H   0  0  0  0  0  0  0  0  0  0  0  0
   -1.0175   -1.4784    1.6720 H   0  0  0  0  0  0  0  0  0  0  0  0
   -0.1887    0.0875    1.6862 H   0  0  0  0  0  0  0  0  0  0  0  0
    1.4545   -1.2255    2.5469 H   0  0  0  0  0  0  0  0  0  0  0  0
    0.9281   -2.7214    1.7558 H   0  0  0  0  0  0  0  0  0  0  0  0
    2.1433   -2.2098   -0.2005 H   0  0  0  0  0  0  0  0  0  0  0  0
    3.8608   -2.4388    1.2375 H   0  0  0  0  0  0  0  0  0  0  0  0
    4.7429    0.2026    1.0556 H   0  0  0  0  0  0  0  0  0  0  0  0
    6.9491   -0.8905   -0.4955 H   0  0  0  0  0  0  0  0  0  0  0  0
   -1.7333   -0.2328   -1.7655 H   0  0  0  0  0  0  0  0  0  0  0  0
   -1.3063    1.9264   -1.2782 H   0  0  0  0  0  0  0  0  0  0  0  0
   -0.8613    1.5836    0.4760 H   0  0  0  0  0  0  0  0  0  0  0  0
   -3.5392    1.8078   -0.9081 H   0  0  0  0  0  0  0  0  0  0  0  0
   -2.9092    2.5852    0.6468 H   0  0  0  0  0  0  0  0  0  0  0  0
   -2.7687    0.4942    1.7637 H   0  0  0  0  0  0  0  0  0  0  0  0
   -4.5962   -1.6663   -0.5416 H   0  0  0  0  0  0  0  0  0  0  0  0
   -3.9630   -0.3968   -1.7317 H   0  0  0  0  0  0  0  0  0  0  0  0
   -3.1379   -1.9489   -1.5086 H   0  0  0  0  0  0  0  0  0  0  0  0
   -4.9596   -0.5044    1.7521 H   0  0  0  0  0  0  0  0  0  0  0  0
   -5.0271    1.2661    1.7724 H   0  0  0  0  0  0  0  0  0  0  0  0
   -6.6475    0.4914    0.3889 H   0  0  0  0  0  0  0  0  0  0  0  0
   -5.4932    1.1218   -0.6771 H   0  0  0  0  0  0  0  0  0  0  0  0
    2.3000    0.2824   -2.7852 H   0  0  0  0  0  0  0  0  0  0  0  0
    3.7352    1.3210   -2.6184 H   0  0  0  0  0  0  0  0  0  0  0  0
    2.1706    1.9841   -2.1132 H   0  0  0  0  0  0  0  0  0  0  0  0
  2  1  1  0
  2  3  1  0
  3  4  1  0
  4  5  1  0
  5  6  1  0
  6  7  1  0
  3  8  1  0
  7  8  1  0
  8  9  1  0
  9 10  1  0
 10 11  1  0
  2 12  1  0
 10 12  1  0
  5 13  1  0
 13 14  1  0
 14 15  1  0
 15 16  1  0
 13 17  1  0
 16 17  1  0
 17 18  1  0
 16 19  1  0
 19 20  1  0
  2 21  1  0
 23 22  1  0
 23 24  1  0
 24 25  1  0
 25 26  1  0
 26 27  1  0
 27 28  1  0
 24 29  1  0
 28 29  1  0
 29 30  1  0
 30 31  1  0
 31 32  1  0
 23 33  1  0
 31 33  1  0
 26 34  1  0
 34 35  1  0
 35 36  1  0
 36 37  1  0
 34 38  1  0
 37 38  1  0
 38 39  1  0
 37 40  1  0
 40 41  1  0
 23 42  1  0
  1 43  1  0
  1 44  1  0
  1 45  1  0
  3 46  1  6
  4 47  1  0
  4 48  1  0
  5 49  1  6
  6 50  1  0
  6 51  1  0
  7 52  1  0
  7 53  1  0
  8 54  1  0
  9 55  1  0
 10 56  1  0
 11 57  1  0
 13 58  1  6
 14 59  1  0
 14 60  1  0
 15 61  1  0
 15 62  1  0
 16 63  1  0
 18 64  1  0
 18 65  1  0
 18 66  1  0
 19 67  1  0
 19 68  1  0
 20 69  1  0
 20 70  1  0
 21 71  1  0
 21 72  1  0
 21 73  1  0
 22 74  1  0
 22 75  1  0
 22 76  1  0
 24 77  1  0
 25 78  1  0
 25 79  1  0
 26 80  1  6
 27 81  1  0
 27 82  1  0
 28 83  1  0
 28 84  1  0
 29 85  1  0
 30 86  1  0
 31 87  1  0
 32 88  1  0
 34 89  1  6
 35 90  1  0
 35 91  1  0
 36 92  1  0
 36 93  1  0
 37 94  1  0
 39 95  1  0
 39 96  1  0
 39 97  1  0
 40 98  1  0
 40 99  1  0
 41100  1  0
 41101  1  0
 42102  1  0
 42103  1  0
 42104  1  0
M  END
>  <PDBID>  (1) 
1ZUC

>  <PDB ID>  (1) 
1ZUC

>  <Generic Name>  (1) 
Tanaproget

>  <Brand Name>  (1) 
nan

>  <DrugBank ID>  (1) 
DB04787

>  <ATC Codes>  (1) 
nan

>  <Ligand ID>  (1) 
T98

>  <Target Name>  (1) 
Progesterone receptor

>  <UniProt ID>  (1) 
P06401

>  <PDB ID.1>  (1) 
1ZUC

>  <Seq. Identity>  (1) 
97%

$$$$
