PDB_DB01273_08
     RDKit          3D

195210  0  0  0  0  0  0  0  0999 V2000
   -2.6213    1.3499    0.4930 C   0  0  0  0  0  0  0  0  0  0  0  0
   -2.7716    1.1041   -0.8772 N   0  0  0  0  0  0  0  0  0  0  0  0
   -2.5352   -0.1735   -1.3923 C   0  0  0  0  0  0  0  0  0  0  0  0
   -2.1485   -1.2501   -0.4649 C   0  0  2  0  0  0  0  0  0  0  0  0
   -2.9096   -1.0215    0.8546 C   0  0  0  0  0  0  0  0  0  0  0  0
   -2.1199    0.2113    1.3247 C   0  0  1  0  0  0  0  0  0  0  0  0
   -0.6743   -0.0956    1.0331 C   0  0  0  0  0  0  0  0  0  0  0  0
    0.0442    1.1122    0.4461 C   0  0  0  0  0  0  0  0  0  0  0  0
    1.4553    0.7673    0.1154 C   0  0  0  0  0  0  0  0  0  0  0  0
    2.4020    1.1031    1.1580 N   0  0  0  0  0  0  0  0  0  0  0  0
    3.7268    0.7486    0.6942 C   0  0  0  0  0  0  0  0  0  0  0  0
    3.8251   -0.6705    0.2129 C   0  0  0  0  0  0  0  0  0  0  0  0
    2.7866   -1.0062   -0.7545 N   0  0  0  0  0  0  0  0  0  0  0  0
    1.5506   -0.7120   -0.1206 C   0  0  0  0  0  0  0  0  0  0  0  0
    0.3290   -1.1095   -0.9445 C   0  0  0  0  0  0  0  0  0  0  0  0
   -0.7612   -1.2225    0.0478 C   0  0  0  0  0  0  0  0  0  0  0  0
   -2.6213    1.3499    0.4930 C   0  0  0  0  0  0  0  0  0  0  0  0
   -2.7716    1.1041   -0.8772 N   0  0  0  0  0  0  0  0  0  0  0  0
   -2.5352   -0.1735   -1.3923 C   0  0  0  0  0  0  0  0  0  0  0  0
   -2.1485   -1.2501   -0.4649 C   0  0  2  0  0  0  0  0  0  0  0  0
   -2.9096   -1.0215    0.8546 C   0  0  0  0  0  0  0  0  0  0  0  0
   -2.1199    0.2113    1.3247 C   0  0  1  0  0  0  0  0  0  0  0  0
   -0.6743   -0.0956    1.0331 C   0  0  0  0  0  0  0  0  0  0  0  0
    0.0442    1.1122    0.4461 C   0  0  0  0  0  0  0  0  0  0  0  0
    1.4553    0.7673    0.1154 C   0  0  0  0  0  0  0  0  0  0  0  0
    2.4020    1.1031    1.1580 N   0  0  0  0  0  0  0  0  0  0  0  0
    3.7268    0.7486    0.6942 C   0  0  0  0  0  0  0  0  0  0  0  0
    3.8251   -0.6705    0.2129 C   0  0  0  0  0  0  0  0  0  0  0  0
    2.7866   -1.0062   -0.7545 N   0  0  0  0  0  0  0  0  0  0  0  0
    1.5506   -0.7120   -0.1206 C   0  0  0  0  0  0  0  0  0  0  0  0
    0.3290   -1.1095   -0.9445 C   0  0  0  0  0  0  0  0  0  0  0  0
   -0.7612   -1.2225    0.0478 C   0  0  0  0  0  0  0  0  0  0  0  0
   -2.6213    1.3499    0.4930 C   0  0  0  0  0  0  0  0  0  0  0  0
   -2.7716    1.1041   -0.8772 N   0  0  0  0  0  0  0  0  0  0  0  0
   -2.5352   -0.1735   -1.3923 C   0  0  0  0  0  0  0  0  0  0  0  0
   -2.1485   -1.2501   -0.4649 C   0  0  2  0  0  0  0  0  0  0  0  0
   -2.9096   -1.0215    0.8546 C   0  0  0  0  0  0  0  0  0  0  0  0
   -2.1199    0.2113    1.3247 C   0  0  1  0  0  0  0  0  0  0  0  0
   -0.6743   -0.0956    1.0331 C   0  0  0  0  0  0  0  0  0  0  0  0
    0.0442    1.1122    0.4461 C   0  0  0  0  0  0  0  0  0  0  0  0
    1.4553    0.7673    0.1154 C   0  0  0  0  0  0  0  0  0  0  0  0
    2.4020    1.1031    1.1580 N   0  0  0  0  0  0  0  0  0  0  0  0
    3.7268    0.7486    0.6942 C   0  0  0  0  0  0  0  0  0  0  0  0
    3.8251   -0.6705    0.2129 C   0  0  0  0  0  0  0  0  0  0  0  0
    2.7866   -1.0062   -0.7545 N   0  0  0  0  0  0  0  0  0  0  0  0
    1.5506   -0.7120   -0.1206 C   0  0  0  0  0  0  0  0  0  0  0  0
    0.3290   -1.1095   -0.9445 C   0  0  0  0  0  0  0  0  0  0  0  0
   -0.7612   -1.2225    0.0478 C   0  0  0  0  0  0  0  0  0  0  0  0
   -2.6213    1.3499    0.4930 C   0  0  0  0  0  0  0  0  0  0  0  0
   -2.7716    1.1041   -0.8772 N   0  0  0  0  0  0  0  0  0  0  0  0
   -2.5352   -0.1735   -1.3923 C   0  0  0  0  0  0  0  0  0  0  0  0
   -2.1485   -1.2501   -0.4649 C   0  0  2  0  0  0  0  0  0  0  0  0
   -2.9096   -1.0215    0.8546 C   0  0  0  0  0  0  0  0  0  0  0  0
   -2.1199    0.2113    1.3247 C   0  0  1  0  0  0  0  0  0  0  0  0
   -0.6743   -0.0956    1.0331 C   0  0  0  0  0  0  0  0  0  0  0  0
    0.0442    1.1122    0.4461 C   0  0  0  0  0  0  0  0  0  0  0  0
    1.4553    0.7673    0.1154 C   0  0  0  0  0  0  0  0  0  0  0  0
    2.4020    1.1031    1.1580 N   0  0  0  0  0  0  0  0  0  0  0  0
    3.7268    0.7486    0.6942 C   0  0  0  0  0  0  0  0  0  0  0  0
    3.8251   -0.6705    0.2129 C   0  0  0  0  0  0  0  0  0  0  0  0
    2.7866   -1.0062   -0.7545 N   0  0  0  0  0  0  0  0  0  0  0  0
    1.5506   -0.7120   -0.1206 C   0  0  0  0  0  0  0  0  0  0  0  0
    0.3290   -1.1095   -0.9445 C   0  0  0  0  0  0  0  0  0  0  0  0
   -0.7612   -1.2225    0.0478 C   0  0  0  0  0  0  0  0  0  0  0  0
   -2.6213    1.3499    0.4930 C   0  0  0  0  0  0  0  0  0  0  0  0
   -2.7716    1.1041   -0.8772 N   0  0  0  0  0  0  0  0  0  0  0  0
   -2.5352   -0.1735   -1.3923 C   0  0  0  0  0  0  0  0  0  0  0  0
   -2.1485   -1.2501   -0.4649 C   0  0  2  0  0  0  0  0  0  0  0  0
   -2.9096   -1.0215    0.8546 C   0  0  0  0  0  0  0  0  0  0  0  0
   -2.1199    0.2113    1.3247 C   0  0  1  0  0  0  0  0  0  0  0  0
   -0.6743   -0.0956    1.0331 C   0  0  0  0  0  0  0  0  0  0  0  0
    0.0442    1.1122    0.4461 C   0  0  0  0  0  0  0  0  0  0  0  0
    1.4553    0.7673    0.1154 C   0  0  0  0  0  0  0  0  0  0  0  0
    2.4020    1.1031    1.1580 N   0  0  0  0  0  0  0  0  0  0  0  0
    3.7268    0.7486    0.6942 C   0  0  0  0  0  0  0  0  0  0  0  0
    3.8251   -0.6705    0.2129 C   0  0  0  0  0  0  0  0  0  0  0  0
    2.7866   -1.0062   -0.7545 N   0  0  0  0  0  0  0  0  0  0  0  0
    1.5506   -0.7120   -0.1206 C   0  0  0  0  0  0  0  0  0  0  0  0
    0.3290   -1.1095   -0.9445 C   0  0  0  0  0  0  0  0  0  0  0  0
   -0.7612   -1.2225    0.0478 C   0  0  0  0  0  0  0  0  0  0  0  0
   -1.9963    2.2691    0.6984 H   0  0  0  0  0  0  0  0  0  0  0  0
   -3.6317    1.6255    0.9203 H   0  0  0  0  0  0  0  0  0  0  0  0
   -2.6047    1.8810   -1.5214 H   0  0  0  0  0  0  0  0  0  0  0  0
   -3.4633   -0.5128   -1.9442 H   0  0  0  0  0  0  0  0  0  0  0  0
   -1.7637   -0.0967   -2.2128 H   0  0  0  0  0  0  0  0  0  0  0  0
   -2.4115   -2.2344   -0.8987 H   0  0  0  0  0  0  0  0  0  0  0  0
   -2.7333   -1.8840    1.4971 H   0  0  0  0  0  0  0  0  0  0  0  0
   -3.9511   -0.7597    0.6759 H   0  0  0  0  0  0  0  0  0  0  0  0
   -2.2684    0.4041    2.3927 H   0  0  0  0  0  0  0  0  0  0  0  0
   -0.1016   -0.3669    1.9524 H   0  0  0  0  0  0  0  0  0  0  0  0
   -0.0013    1.9507    1.1368 H   0  0  0  0  0  0  0  0  0  0  0  0
   -0.4475    1.4516   -0.5035 H   0  0  0  0  0  0  0  0  0  0  0  0
    1.7880    1.3061   -0.8104 H   0  0  0  0  0  0  0  0  0  0  0  0
    2.3914    2.1564    1.2307 H   0  0  0  0  0  0  0  0  0  0  0  0
    4.4030    0.8423    1.5722 H   0  0  0  0  0  0  0  0  0  0  0  0
    4.1166    1.4191   -0.0800 H   0  0  0  0  0  0  0  0  0  0  0  0
    4.8294   -0.8495   -0.1580 H   0  0  0  0  0  0  0  0  0  0  0  0
    3.6183   -1.3246    1.1063 H   0  0  0  0  0  0  0  0  0  0  0  0
    2.9562   -0.5011   -1.6390 H   0  0  0  0  0  0  0  0  0  0  0  0
    1.5341   -1.2301    0.8664 H   0  0  0  0  0  0  0  0  0  0  0  0
    0.1991   -0.3745   -1.7353 H   0  0  0  0  0  0  0  0  0  0  0  0
    0.5572   -2.1274   -1.3383 H   0  0  0  0  0  0  0  0  0  0  0  0
   -0.5972   -2.1795    0.6248 H   0  0  0  0  0  0  0  0  0  0  0  0
   -1.9963    2.2691    0.6984 H   0  0  0  0  0  0  0  0  0  0  0  0
   -3.6317    1.6255    0.9203 H   0  0  0  0  0  0  0  0  0  0  0  0
   -2.6047    1.8810   -1.5214 H   0  0  0  0  0  0  0  0  0  0  0  0
   -3.4633   -0.5128   -1.9442 H   0  0  0  0  0  0  0  0  0  0  0  0
   -1.7637   -0.0967   -2.2128 H   0  0  0  0  0  0  0  0  0  0  0  0
   -2.4115   -2.2344   -0.8987 H   0  0  0  0  0  0  0  0  0  0  0  0
   -2.7333   -1.8840    1.4971 H   0  0  0  0  0  0  0  0  0  0  0  0
   -3.9511   -0.7597    0.6759 H   0  0  0  0  0  0  0  0  0  0  0  0
   -2.2684    0.4041    2.3927 H   0  0  0  0  0  0  0  0  0  0  0  0
   -0.1016   -0.3669    1.9524 H   0  0  0  0  0  0  0  0  0  0  0  0
   -0.0013    1.9507    1.1368 H   0  0  0  0  0  0  0  0  0  0  0  0
   -0.4475    1.4516   -0.5035 H   0  0  0  0  0  0  0  0  0  0  0  0
    1.7880    1.3061   -0.8104 H   0  0  0  0  0  0  0  0  0  0  0  0
    2.3914    2.1564    1.2307 H   0  0  0  0  0  0  0  0  0  0  0  0
    4.4030    0.8423    1.5722 H   0  0  0  0  0  0  0  0  0  0  0  0
    4.1166    1.4191   -0.0800 H   0  0  0  0  0  0  0  0  0  0  0  0
    4.8294   -0.8495   -0.1580 H   0  0  0  0  0  0  0  0  0  0  0  0
    3.6183   -1.3246    1.1063 H   0  0  0  0  0  0  0  0  0  0  0  0
    2.9562   -0.5011   -1.6390 H   0  0  0  0  0  0  0  0  0  0  0  0
    1.5341   -1.2301    0.8664 H   0  0  0  0  0  0  0  0  0  0  0  0
    0.1991   -0.3745   -1.7353 H   0  0  0  0  0  0  0  0  0  0  0  0
    0.5572   -2.1274   -1.3383 H   0  0  0  0  0  0  0  0  0  0  0  0
   -0.5972   -2.1795    0.6248 H   0  0  0  0  0  0  0  0  0  0  0  0
   -1.9963    2.2691    0.6984 H   0  0  0  0  0  0  0  0  0  0  0  0
   -3.6317    1.6255    0.9203 H   0  0  0  0  0  0  0  0  0  0  0  0
   -2.6047    1.8810   -1.5214 H   0  0  0  0  0  0  0  0  0  0  0  0
   -3.4633   -0.5128   -1.9442 H   0  0  0  0  0  0  0  0  0  0  0  0
   -1.7637   -0.0967   -2.2128 H   0  0  0  0  0  0  0  0  0  0  0  0
   -2.4115   -2.2344   -0.8987 H   0  0  0  0  0  0  0  0  0  0  0  0
   -2.7333   -1.8840    1.4971 H   0  0  0  0  0  0  0  0  0  0  0  0
   -3.9511   -0.7597    0.6759 H   0  0  0  0  0  0  0  0  0  0  0  0
   -2.2684    0.4041    2.3927 H   0  0  0  0  0  0  0  0  0  0  0  0
   -0.1016   -0.3669    1.9524 H   0  0  0  0  0  0  0  0  0  0  0  0
   -0.0013    1.9507    1.1368 H   0  0  0  0  0  0  0  0  0  0  0  0
   -0.4475    1.4516   -0.5035 H   0  0  0  0  0  0  0  0  0  0  0  0
    1.7880    1.3061   -0.8104 H   0  0  0  0  0  0  0  0  0  0  0  0
    2.3914    2.1564    1.2307 H   0  0  0  0  0  0  0  0  0  0  0  0
    4.4030    0.8423    1.5722 H   0  0  0  0  0  0  0  0  0  0  0  0
    4.1166    1.4191   -0.0800 H   0  0  0  0  0  0  0  0  0  0  0  0
    4.8294   -0.8495   -0.1580 H   0  0  0  0  0  0  0  0  0  0  0  0
    3.6183   -1.3246    1.1063 H   0  0  0  0  0  0  0  0  0  0  0  0
    2.9562   -0.5011   -1.6390 H   0  0  0  0  0  0  0  0  0  0  0  0
    1.5341   -1.2301    0.8664 H   0  0  0  0  0  0  0  0  0  0  0  0
    0.1991   -0.3745   -1.7353 H   0  0  0  0  0  0  0  0  0  0  0  0
    0.5572   -2.1274   -1.3383 H   0  0  0  0  0  0  0  0  0  0  0  0
   -0.5972   -2.1795    0.6248 H   0  0  0  0  0  0  0  0  0  0  0  0
   -1.9963    2.2691    0.6984 H   0  0  0  0  0  0  0  0  0  0  0  0
   -3.6317    1.6255    0.9203 H   0  0  0  0  0  0  0  0  0  0  0  0
   -2.6047    1.8810   -1.5214 H   0  0  0  0  0  0  0  0  0  0  0  0
   -3.4633   -0.5128   -1.9442 H   0  0  0  0  0  0  0  0  0  0  0  0
   -1.7637   -0.0967   -2.2128 H   0  0  0  0  0  0  0  0  0  0  0  0
   -2.4115   -2.2344   -0.8987 H   0  0  0  0  0  0  0  0  0  0  0  0
   -2.7333   -1.8840    1.4971 H   0  0  0  0  0  0  0  0  0  0  0  0
   -3.9511   -0.7597    0.6759 H   0  0  0  0  0  0  0  0  0  0  0  0
   -2.2684    0.4041    2.3927 H   0  0  0  0  0  0  0  0  0  0  0  0
   -0.1016   -0.3669    1.9524 H   0  0  0  0  0  0  0  0  0  0  0  0
   -0.0013    1.9507    1.1368 H   0  0  0  0  0  0  0  0  0  0  0  0
   -0.4475    1.4516   -0.5035 H   0  0  0  0  0  0  0  0  0  0  0  0
    1.7880    1.3061   -0.8104 H   0  0  0  0  0  0  0  0  0  0  0  0
    2.3914    2.1564    1.2307 H   0  0  0  0  0  0  0  0  0  0  0  0
    4.4030    0.8423    1.5722 H   0  0  0  0  0  0  0  0  0  0  0  0
    4.1166    1.4191   -0.0800 H   0  0  0  0  0  0  0  0  0  0  0  0
    4.8294   -0.8495   -0.1580 H   0  0  0  0  0  0  0  0  0  0  0  0
    3.6183   -1.3246    1.1063 H   0  0  0  0  0  0  0  0  0  0  0  0
    2.9562   -0.5011   -1.6390 H   0  0  0  0  0  0  0  0  0  0  0  0
    1.5341   -1.2301    0.8664 H   0  0  0  0  0  0  0  0  0  0  0  0
    0.1991   -0.3745   -1.7353 H   0  0  0  0  0  0  0  0  0  0  0  0
    0.5572   -2.1274   -1.3383 H   0  0  0  0  0  0  0  0  0  0  0  0
   -0.5972   -2.1795    0.6248 H   0  0  0  0  0  0  0  0  0  0  0  0
   -1.9963    2.2691    0.6984 H   0  0  0  0  0  0  0  0  0  0  0  0
   -3.6317    1.6255    0.9203 H   0  0  0  0  0  0  0  0  0  0  0  0
   -2.6047    1.8810   -1.5214 H   0  0  0  0  0  0  0  0  0  0  0  0
   -3.4633   -0.5128   -1.9442 H   0  0  0  0  0  0  0  0  0  0  0  0
   -1.7637   -0.0967   -2.2128 H   0  0  0  0  0  0  0  0  0  0  0  0
   -2.4115   -2.2344   -0.8987 H   0  0  0  0  0  0  0  0  0  0  0  0
   -2.7333   -1.8840    1.4971 H   0  0  0  0  0  0  0  0  0  0  0  0
   -3.9511   -0.7597    0.6759 H   0  0  0  0  0  0  0  0  0  0  0  0
   -2.2684    0.4041    2.3927 H   0  0  0  0  0  0  0  0  0  0  0  0
   -0.1016   -0.3669    1.9524 H   0  0  0  0  0  0  0  0  0  0  0  0
   -0.0013    1.9507    1.1368 H   0  0  0  0  0  0  0  0  0  0  0  0
   -0.4475    1.4516   -0.5035 H   0  0  0  0  0  0  0  0  0  0  0  0
    1.7880    1.3061   -0.8104 H   0  0  0  0  0  0  0  0  0  0  0  0
    2.3914    2.1564    1.2307 H   0  0  0  0  0  0  0  0  0  0  0  0
    4.4030    0.8423    1.5722 H   0  0  0  0  0  0  0  0  0  0  0  0
    4.1166    1.4191   -0.0800 H   0  0  0  0  0  0  0  0  0  0  0  0
    4.8294   -0.8495   -0.1580 H   0  0  0  0  0  0  0  0  0  0  0  0
    3.6183   -1.3246    1.1063 H   0  0  0  0  0  0  0  0  0  0  0  0
    2.9562   -0.5011   -1.6390 H   0  0  0  0  0  0  0  0  0  0  0  0
    1.5341   -1.2301    0.8664 H   0  0  0  0  0  0  0  0  0  0  0  0
    0.1991   -0.3745   -1.7353 H   0  0  0  0  0  0  0  0  0  0  0  0
    0.5572   -2.1274   -1.3383 H   0  0  0  0  0  0  0  0  0  0  0  0
   -0.5972   -2.1795    0.6248 H   0  0  0  0  0  0  0  0  0  0  0  0
  1  2  1  0
  2  3  1  0
  3  4  1  0
  4  5  1  0
  1  6  1  0
  5  6  1  0
  6  7  1  0
  7  8  1  0
  8  9  1  0
  9 10  1  0
 10 11  1  0
 11 12  1  0
 12 13  1  0
  9 14  1  0
 13 14  1  0
 14 15  1  0
  4 16  1  0
  7 16  1  0
 15 16  1  0
 17 18  1  0
 18 19  1  0
 19 20  1  0
 20 21  1  0
 17 22  1  0
 21 22  1  0
 22 23  1  0
 23 24  1  0
 24 25  1  0
 25 26  1  0
 26 27  1  0
 27 28  1  0
 28 29  1  0
 25 30  1  0
 29 30  1  0
 30 31  1  0
 20 32  1  0
 23 32  1  0
 31 32  1  0
 33 34  1  0
 34 35  1  0
 35 36  1  0
 36 37  1  0
 33 38  1  0
 37 38  1  0
 38 39  1  0
 39 40  1  0
 40 41  1  0
 41 42  1  0
 42 43  1  0
 43 44  1  0
 44 45  1  0
 41 46  1  0
 45 46  1  0
 46 47  1  0
 36 48  1  0
 39 48  1  0
 47 48  1  0
 49 50  1  0
 50 51  1  0
 51 52  1  0
 52 53  1  0
 49 54  1  0
 53 54  1  0
 54 55  1  0
 55 56  1  0
 56 57  1  0
 57 58  1  0
 58 59  1  0
 59 60  1  0
 60 61  1  0
 57 62  1  0
 61 62  1  0
 62 63  1  0
 52 64  1  0
 55 64  1  0
 63 64  1  0
 65 66  1  0
 66 67  1  0
 67 68  1  0
 68 69  1  0
 65 70  1  0
 69 70  1  0
 70 71  1  0
 71 72  1  0
 72 73  1  0
 73 74  1  0
 74 75  1  0
 75 76  1  0
 76 77  1  0
 73 78  1  0
 77 78  1  0
 78 79  1  0
 68 80  1  0
 71 80  1  0
 79 80  1  0
  1 81  1  0
  1 82  1  0
  2 83  1  0
  3 84  1  0
  3 85  1  0
  4 86  1  6
  5 87  1  0
  5 88  1  0
  6 89  1  1
  7 90  1  0
  8 91  1  0
  8 92  1  0
  9 93  1  0
 10 94  1  0
 11 95  1  0
 11 96  1  0
 12 97  1  0
 12 98  1  0
 13 99  1  0
 14100  1  0
 15101  1  0
 15102  1  0
 16103  1  0
 17104  1  0
 17105  1  0
 18106  1  0
 19107  1  0
 19108  1  0
 20109  1  6
 21110  1  0
 21111  1  0
 22112  1  1
 23113  1  0
 24114  1  0
 24115  1  0
 25116  1  0
 26117  1  0
 27118  1  0
 27119  1  0
 28120  1  0
 28121  1  0
 29122  1  0
 30123  1  0
 31124  1  0
 31125  1  0
 32126  1  0
 33127  1  0
 33128  1  0
 34129  1  0
 35130  1  0
 35131  1  0
 36132  1  6
 37133  1  0
 37134  1  0
 38135  1  1
 39136  1  0
 40137  1  0
 40138  1  0
 41139  1  0
 42140  1  0
 43141  1  0
 43142  1  0
 44143  1  0
 44144  1  0
 45145  1  0
 46146  1  0
 47147  1  0
 47148  1  0
 48149  1  0
 49150  1  0
 49151  1  0
 50152  1  0
 51153  1  0
 51154  1  0
 52155  1  6
 53156  1  0
 53157  1  0
 54158  1  1
 55159  1  0
 56160  1  0
 56161  1  0
 57162  1  0
 58163  1  0
 59164  1  0
 59165  1  0
 60166  1  0
 60167  1  0
 61168  1  0
 62169  1  0
 63170  1  0
 63171  1  0
 64172  1  0
 65173  1  0
 65174  1  0
 66175  1  0
 67176  1  0
 67177  1  0
 68178  1  6
 69179  1  0
 69180  1  0
 70181  1  1
 71182  1  0
 72183  1  0
 72184  1  0
 73185  1  0
 74186  1  0
 75187  1  0
 75188  1  0
 76189  1  0
 76190  1  0
 77191  1  0
 78192  1  0
 79193  1  0
 79194  1  0
 80195  1  0
M  END
>  <PDBID>  (1) 
4AFG

>  <PDB ID>  (1) 
4AFG

>  <Generic Name>  (1) 
Varenicline

>  <Brand Name>  (1) 
Champix#Chantix#Gd-varenicline

>  <DrugBank ID>  (1) 
DB01273

>  <ATC Codes>  (1) 
N07BA03

>  <Ligand ID>  (1) 
QMR

>  <Target Name>  (1) 
Neuronal acetylcholine receptor subunit alpha-4

>  <UniProt ID>  (1) 
P43681

>  <PDB ID.1>  (1) 
4AFG

>  <Seq. Identity>  (1) 
31%

$$$$
