PDB_DB00382_00
     RDKit          3D

 39 41  0  0  0  0  0  0  0  0999 V2000
   -3.7638    0.5525   -0.0978 C   0  0  0  0  0  0  0  0  0  0  0  0
   -2.5367    1.3593   -0.0134 C   0  0  0  0  0  0  0  0  0  0  0  0
   -1.3080    0.7642   -0.6021 C   0  0  0  0  0  0  0  0  0  0  0  0
   -1.1640   -0.6495   -0.0330 C   0  0  0  0  0  0  0  0  0  0  0  0
   -2.3115   -1.4288   -0.6424 C   0  0  0  0  0  0  0  0  0  0  0  0
   -3.6162   -0.9118   -0.1730 C   0  0  0  0  0  0  0  0  0  0  0  0
   -0.1694    1.5408   -0.1899 N   0  0  0  0  0  0  0  0  0  0  0  0
    1.0877    0.9948   -0.5963 C   0  0  2  0  0  0  0  0  0  0  0  0
    1.2695   -0.3405    0.0740 C   0  0  1  0  0  0  0  0  0  0  0  0
    0.1648   -1.2464   -0.3850 C   0  0  0  0  0  0  0  0  0  0  0  0
    2.1714    1.9790   -0.1682 C   0  0  0  0  0  0  0  0  0  0  0  0
    3.3489    1.2980    0.4568 C   0  0  0  0  0  0  0  0  0  0  0  0
    3.6921    0.0978   -0.4264 C   0  0  0  0  0  0  0  0  0  0  0  0
    2.6208   -0.9362   -0.2237 C   0  0  0  0  0  0  0  0  0  0  0  0
    0.2686   -2.5423    0.2112 N   0  0  0  0  0  0  0  0  0  0  0  0
   -4.3933    0.7870    0.8124 H   0  0  0  0  0  0  0  0  0  0  0  0
   -4.3928    0.9397   -0.9530 H   0  0  0  0  0  0  0  0  0  0  0  0
   -2.6959    2.3588   -0.5152 H   0  0  0  0  0  0  0  0  0  0  0  0
   -2.2941    1.6378    1.0528 H   0  0  0  0  0  0  0  0  0  0  0  0
   -1.3641    0.6456   -1.7054 H   0  0  0  0  0  0  0  0  0  0  0  0
   -1.2766   -0.5938    1.0811 H   0  0  0  0  0  0  0  0  0  0  0  0
   -2.2163   -2.4929   -0.3391 H   0  0  0  0  0  0  0  0  0  0  0  0
   -2.2077   -1.3490   -1.7469 H   0  0  0  0  0  0  0  0  0  0  0  0
   -3.8535   -1.4133    0.8105 H   0  0  0  0  0  0  0  0  0  0  0  0
   -4.4114   -1.3132   -0.8684 H   0  0  0  0  0  0  0  0  0  0  0  0
   -0.1781    1.5478    0.8657 H   0  0  0  0  0  0  0  0  0  0  0  0
    1.1777    0.8428   -1.6781 H   0  0  0  0  0  0  0  0  0  0  0  0
    1.1804   -0.2101    1.1780 H   0  0  0  0  0  0  0  0  0  0  0  0
    0.2188   -1.3461   -1.4899 H   0  0  0  0  0  0  0  0  0  0  0  0
    2.5110    2.5843   -1.0232 H   0  0  0  0  0  0  0  0  0  0  0  0
    1.7663    2.7022    0.5971 H   0  0  0  0  0  0  0  0  0  0  0  0
    4.1773    2.0230    0.5092 H   0  0  0  0  0  0  0  0  0  0  0  0
    3.0956    0.8611    1.4555 H   0  0  0  0  0  0  0  0  0  0  0  0
    3.6253    0.4576   -1.4735 H   0  0  0  0  0  0  0  0  0  0  0  0
    4.6973   -0.3068   -0.1878 H   0  0  0  0  0  0  0  0  0  0  0  0
    2.6068   -1.5810   -1.1355 H   0  0  0  0  0  0  0  0  0  0  0  0
    2.9496   -1.5860    0.6221 H   0  0  0  0  0  0  0  0  0  0  0  0
    0.8007   -3.2386   -0.3609 H   0  0  0  0  0  0  0  0  0  0  0  0
    0.7226   -2.4875    1.1676 H   0  0  0  0  0  0  0  0  0  0  0  0
  1  2  1  0
  2  3  1  0
  3  4  1  0
  4  5  1  0
  1  6  1  0
  5  6  1  0
  3  7  1  0
  7  8  1  0
  8  9  1  0
  4 10  1  0
  9 10  1  0
  8 11  1  0
 11 12  1  0
 12 13  1  0
  9 14  1  0
 13 14  1  0
 10 15  1  0
  1 16  1  0
  1 17  1  0
  2 18  1  0
  2 19  1  0
  3 20  1  0
  4 21  1  0
  5 22  1  0
  5 23  1  0
  6 24  1  0
  6 25  1  0
  7 26  1  0
  8 27  1  6
  9 28  1  1
 10 29  1  0
 11 30  1  0
 11 31  1  0
 12 32  1  0
 12 33  1  0
 13 34  1  0
 13 35  1  0
 14 36  1  0
 14 37  1  0
 15 38  1  0
 15 39  1  0
M  END
>  <PDBID>  (1) 
1ACJ

>  <PDB ID>  (1) 
1ACJ

>  <Generic Name>  (1) 
Tacrine

>  <Brand Name>  (1) 
Cognex#Talem

>  <DrugBank ID>  (1) 
DB00382

>  <ATC Codes>  (1) 
N06DA01

>  <Ligand ID>  (1) 
THA

>  <Target Name>  (1) 
Acetylcholinesterase

>  <UniProt ID>  (1) 
P22303

>  <PDB ID.1>  (1) 
1ACJ

>  <Seq. Identity>  (1) 
57%

$$$$
