PDB_DB00701_06
     RDKit          3D

 86 88  0  0  0  0  0  0  0  0999 V2000
   -2.0380    2.8101    1.7983 C   0  0  0  0  0  0  0  0  0  0  0  0
   -2.9416    4.6711    0.6631 C   0  0  0  0  0  0  0  0  0  0  0  0
   -2.7779    2.0117   -1.4006 C   0  0  2  0  0  0  0  0  0  0  0  0
   -2.3413    3.2990    0.4077 C   0  0  2  0  0  0  0  0  0  0  0  0
   -2.5455   -0.3795   -0.8087 C   0  0  2  0  0  0  0  0  0  0  0  0
   -1.0847   -0.5840   -0.7359 C   0  0  1  0  0  0  0  0  0  0  0  0
   -3.2247   -1.6411   -1.3540 C   0  0  0  0  0  0  0  0  0  0  0  0
   -3.0510   -2.8826   -0.5875 C   0  0  0  0  0  0  0  0  0  0  0  0
   -3.5426   -2.8409    0.8305 C   0  0  0  0  0  0  0  0  0  0  0  0
   -3.9817   -3.9226   -1.2957 C   0  0  0  0  0  0  0  0  0  0  0  0
   -4.8269   -3.5933    1.0647 C   0  0  0  0  0  0  0  0  0  0  0  0
   -3.8320   -5.2142   -0.5521 C   0  0  0  0  0  0  0  0  0  0  0  0
   -4.6877   -5.0656    0.7153 C   0  0  0  0  0  0  0  0  0  0  0  0
   -0.2292    0.4880   -0.1795 C   0  0  0  0  0  0  0  0  0  0  0  0
    1.7593   -0.1828   -1.4158 C   0  0  0  0  0  0  0  0  0  0  0  0
    2.0674    0.9503   -2.3198 C   0  0  0  0  0  0  0  0  0  0  0  0
    3.7132    0.4928    0.9312 C   0  0  0  0  0  0  0  0  0  0  0  0
    4.3079    1.1323    2.2194 C   0  0  0  0  0  0  0  0  0  0  0  0
    5.7246    1.5202    1.7951 C   0  0  0  0  0  0  0  0  0  0  0  0
    6.5160    0.2155    1.8365 C   0  0  0  0  0  0  0  0  0  0  0  0
    5.6486   -0.9725    1.5792 C   0  0  0  0  0  0  0  0  0  0  0  0
    4.5129   -0.7142    0.6071 C   0  0  0  0  0  0  0  0  0  0  0  0
    2.7538    0.3927   -3.6093 C   0  0  0  0  0  0  0  0  0  0  0  0
    0.8882    1.7145   -2.8650 C   0  0  0  0  0  0  0  0  0  0  0  0
   -2.9868    4.8048    2.1472 C   0  0  0  0  0  0  0  0  0  0  0  0
   -3.0067    0.6629   -1.6519 N   0  0  0  0  0  0  0  0  0  0  0  0
    1.1727    0.0258   -0.1592 N   0  0  0  0  0  0  0  0  0  0  0  0
    7.6983    0.2916    1.0331 N   0  0  0  0  0  0  0  0  0  0  0  0
   -3.2619    2.4362   -0.1560 O   0  0  0  0  0  0  0  0  0  0  0  0
   -3.6550    2.7434   -2.3116 O   0  0  0  0  0  0  0  0  0  0  0  0
   -0.8451   -1.6908    0.1652 O   0  0  0  0  0  0  0  0  0  0  0  0
    1.7791   -0.9388    2.2278 O   0  0  0  0  0  0  0  0  0  0  0  0
    1.5050    1.6926    1.8461 O   0  0  0  0  0  0  0  0  0  0  0  0
   -2.7042    3.5931    2.7090 O   0  0  0  0  0  0  0  0  0  0  0  0
    2.0330    0.3460    1.0471 S   0  0  0  0  0  0  0  0  0  0  0  0
   -2.2711    1.7250    1.9086 H   0  0  0  0  0  0  0  0  0  0  0  0
   -0.9501    2.9190    1.9778 H   0  0  0  0  0  0  0  0  0  0  0  0
   -2.3350    5.4715    0.2004 H   0  0  0  0  0  0  0  0  0  0  0  0
   -3.9666    4.7659    0.2238 H   0  0  0  0  0  0  0  0  0  0  0  0
   -1.8036    2.4379   -1.6729 H   0  0  0  0  0  0  0  0  0  0  0  0
   -1.4328    3.4600   -0.1829 H   0  0  0  0  0  0  0  0  0  0  0  0
   -2.9732   -0.2088    0.2484 H   0  0  0  0  0  0  0  0  0  0  0  0
   -0.7560   -1.0040   -1.7158 H   0  0  0  0  0  0  0  0  0  0  0  0
   -2.9123   -1.7193   -2.4187 H   0  0  0  0  0  0  0  0  0  0  0  0
   -4.3177   -1.3620   -1.4075 H   0  0  0  0  0  0  0  0  0  0  0  0
   -2.0528   -3.3527   -0.5970 H   0  0  0  0  0  0  0  0  0  0  0  0
   -2.7859   -3.3024    1.5358 H   0  0  0  0  0  0  0  0  0  0  0  0
   -3.6966   -1.8199    1.1692 H   0  0  0  0  0  0  0  0  0  0  0  0
   -5.0057   -3.5002   -1.2628 H   0  0  0  0  0  0  0  0  0  0  0  0
   -3.6982   -3.9947   -2.3677 H   0  0  0  0  0  0  0  0  0  0  0  0
   -5.7190   -3.1276    0.6033 H   0  0  0  0  0  0  0  0  0  0  0  0
   -5.0070   -3.5683    2.1678 H   0  0  0  0  0  0  0  0  0  0  0  0
   -2.7753   -5.3678   -0.2886 H   0  0  0  0  0  0  0  0  0  0  0  0
   -4.1908   -6.0622   -1.1668 H   0  0  0  0  0  0  0  0  0  0  0  0
   -4.2512   -5.6210    1.5670 H   0  0  0  0  0  0  0  0  0  0  0  0
   -5.6964   -5.4391    0.4636 H   0  0  0  0  0  0  0  0  0  0  0  0
   -0.2132    1.4649   -0.5842 H   0  0  0  0  0  0  0  0  0  0  0  0
   -0.4750    0.5030    0.9458 H   0  0  0  0  0  0  0  0  0  0  0  0
    1.2183   -1.0192   -1.9930 H   0  0  0  0  0  0  0  0  0  0  0  0
    2.7628   -0.6911   -1.2202 H   0  0  0  0  0  0  0  0  0  0  0  0
    2.8101    1.6350   -1.8979 H   0  0  0  0  0  0  0  0  0  0  0  0
    3.9449    1.2870    0.1608 H   0  0  0  0  0  0  0  0  0  0  0  0
    4.4179    0.3608    3.0080 H   0  0  0  0  0  0  0  0  0  0  0  0
    3.6975    1.9896    2.4959 H   0  0  0  0  0  0  0  0  0  0  0  0
    6.1932    2.2419    2.4868 H   0  0  0  0  0  0  0  0  0  0  0  0
    5.7032    1.9220    0.7420 H   0  0  0  0  0  0  0  0  0  0  0  0
    6.8617    0.1331    2.9095 H   0  0  0  0  0  0  0  0  0  0  0  0
    5.2909   -1.4523    2.5071 H   0  0  0  0  0  0  0  0  0  0  0  0
    6.2986   -1.7405    1.0749 H   0  0  0  0  0  0  0  0  0  0  0  0
    3.8722   -1.6150    0.6577 H   0  0  0  0  0  0  0  0  0  0  0  0
    4.9709   -0.6990   -0.4105 H   0  0  0  0  0  0  0  0  0  0  0  0
    1.9971    0.0227   -4.3119 H   0  0  0  0  0  0  0  0  0  0  0  0
    3.4346    1.1684   -4.0117 H   0  0  0  0  0  0  0  0  0  0  0  0
    3.3515   -0.4858   -3.2708 H   0  0  0  0  0  0  0  0  0  0  0  0
    0.6929    2.6515   -2.3007 H   0  0  0  0  0  0  0  0  0  0  0  0
   -0.0131    1.0800   -2.8497 H   0  0  0  0  0  0  0  0  0  0  0  0
    1.0547    1.9864   -3.9518 H   0  0  0  0  0  0  0  0  0  0  0  0
   -2.1867    5.5224    2.4941 H   0  0  0  0  0  0  0  0  0  0  0  0
   -3.9485    5.2545    2.4888 H   0  0  0  0  0  0  0  0  0  0  0  0
   -3.0288    0.4216   -2.6651 H   0  0  0  0  0  0  0  0  0  0  0  0
    8.5691    0.5269    1.5792 H   0  0  0  0  0  0  0  0  0  0  0  0
    7.8219   -0.4474    0.3364 H   0  0  0  0  0  0  0  0  0  0  0  0
   -3.2850    2.4631   -3.1955 H   0  0  0  0  0  0  0  0  0  0  0  0
   -1.0100   -1.2939    1.0769 H   0  0  0  0  0  0  0  0  0  0  0  0
    1.9921   -1.7360    1.6861 H   0  0  0  0  0  0  0  0  0  0  0  0
    1.2856    1.5445    2.8070 H   0  0  0  0  0  0  0  0  0  0  0  0
  1  4  1  0
  2  4  1  0
  5  6  1  0
  5  7  1  0
  7  8  1  0
  8  9  1  0
  8 10  1  0
  9 11  1  0
 10 12  1  0
 11 13  1  0
 12 13  1  0
  6 14  1  0
 15 16  1  0
 17 18  1  0
 18 19  1  0
 19 20  1  0
 20 21  1  0
 17 22  1  0
 21 22  1  0
 16 23  1  0
 16 24  1  0
  2 25  1  0
  3 26  1  0
  5 26  1  0
 14 27  1  0
 15 27  1  0
 20 28  1  0
  3 29  1  0
  4 29  1  0
  3 30  1  0
  6 31  1  0
  1 34  1  0
 25 34  1  0
 17 35  1  0
 27 35  1  0
 35 32  1  0
 33 35  1  0
  1 36  1  0
  1 37  1  0
  2 38  1  0
  2 39  1  0
  3 40  1  6
  4 41  1  6
  5 42  1  1
  6 43  1  6
  7 44  1  0
  7 45  1  0
  8 46  1  0
  9 47  1  0
  9 48  1  0
 10 49  1  0
 10 50  1  0
 11 51  1  0
 11 52  1  0
 12 53  1  0
 12 54  1  0
 13 55  1  0
 13 56  1  0
 14 57  1  0
 14 58  1  0
 15 59  1  0
 15 60  1  0
 16 61  1  0
 17 62  1  0
 18 63  1  0
 18 64  1  0
 19 65  1  0
 19 66  1  0
 20 67  1  0
 21 68  1  0
 21 69  1  0
 22 70  1  0
 22 71  1  0
 23 72  1  0
 23 73  1  0
 23 74  1  0
 24 75  1  0
 24 76  1  0
 24 77  1  0
 25 78  1  0
 25 79  1  0
 26 80  1  0
 28 81  1  0
 28 82  1  0
 30 83  1  0
 31 84  1  0
 32 85  1  0
 33 86  1  0
M  END
>  <PDBID>  (1) 
1HPV

>  <PDB ID>  (1) 
1HPV

>  <Generic Name>  (1) 
Amprenavir

>  <Brand Name>  (1) 
Agenerase#Agemerase#Prozei

>  <DrugBank ID>  (1) 
DB00701

>  <ATC Codes>  (1) 
J05AE05

>  <Ligand ID>  (1) 
478

>  <Target Name>  (1) 
Pol polyprotein

>  <UniProt ID>  (1) 
Q72874

>  <PDB ID.1>  (1) 
1HPV

>  <Seq. Identity>  (1) 
99%

$$$$
