PDB_DB00382_06
     RDKit          3D

 39 41  0  0  0  0  0  0  0  0999 V2000
   -3.4366   -1.0817   -0.1080 C   0  0  0  0  0  0  0  0  0  0  0  0
   -2.4685   -1.0544    1.0140 C   0  0  0  0  0  0  0  0  0  0  0  0
   -1.1910   -0.3755    0.7792 C   0  0  0  0  0  0  0  0  0  0  0  0
   -1.2438    0.8518   -0.0773 C   0  0  0  0  0  0  0  0  0  0  0  0
   -2.2353    0.6994   -1.2294 C   0  0  0  0  0  0  0  0  0  0  0  0
   -3.5998    0.2948   -0.7157 C   0  0  0  0  0  0  0  0  0  0  0  0
   -0.2601   -1.3304    0.1722 N   0  0  0  0  0  0  0  0  0  0  0  0
    1.0507   -0.7402    0.4371 C   0  0  2  0  0  0  0  0  0  0  0  0
    1.2062    0.3940   -0.5208 C   0  0  1  0  0  0  0  0  0  0  0  0
    0.0620    1.3367   -0.5637 C   0  0  0  0  0  0  0  0  0  0  0  0
    2.0891   -1.7842    0.2745 C   0  0  0  0  0  0  0  0  0  0  0  0
    3.4413   -1.2103   -0.0676 C   0  0  0  0  0  0  0  0  0  0  0  0
    3.5496    0.2116    0.3690 C   0  0  0  0  0  0  0  0  0  0  0  0
    2.5088    1.1180   -0.1790 C   0  0  0  0  0  0  0  0  0  0  0  0
    0.4698    2.5515    0.1211 N   0  0  0  0  0  0  0  0  0  0  0  0
   -4.4427   -1.3601    0.3124 H   0  0  0  0  0  0  0  0  0  0  0  0
   -3.1450   -1.8104   -0.8805 H   0  0  0  0  0  0  0  0  0  0  0  0
   -2.2565   -2.1260    1.3027 H   0  0  0  0  0  0  0  0  0  0  0  0
   -3.0004   -0.6415    1.9211 H   0  0  0  0  0  0  0  0  0  0  0  0
   -0.7499   -0.0831    1.7578 H   0  0  0  0  0  0  0  0  0  0  0  0
   -1.7014    1.6587    0.5667 H   0  0  0  0  0  0  0  0  0  0  0  0
   -1.8691    0.0196   -2.0059 H   0  0  0  0  0  0  0  0  0  0  0  0
   -2.3569    1.7128   -1.6800 H   0  0  0  0  0  0  0  0  0  0  0  0
   -3.9151    1.0126    0.0546 H   0  0  0  0  0  0  0  0  0  0  0  0
   -4.2753    0.2273   -1.5685 H   0  0  0  0  0  0  0  0  0  0  0  0
   -0.3580   -2.2792    0.5762 H   0  0  0  0  0  0  0  0  0  0  0  0
    1.0692   -0.3048    1.4717 H   0  0  0  0  0  0  0  0  0  0  0  0
    1.4019   -0.0668   -1.5346 H   0  0  0  0  0  0  0  0  0  0  0  0
   -0.0540    1.6571   -1.6437 H   0  0  0  0  0  0  0  0  0  0  0  0
    2.1933   -2.3277    1.2543 H   0  0  0  0  0  0  0  0  0  0  0  0
    1.8171   -2.5523   -0.4841 H   0  0  0  0  0  0  0  0  0  0  0  0
    3.6197   -1.3122   -1.1515 H   0  0  0  0  0  0  0  0  0  0  0  0
    4.2324   -1.7888    0.4435 H   0  0  0  0  0  0  0  0  0  0  0  0
    3.5267    0.2297    1.4933 H   0  0  0  0  0  0  0  0  0  0  0  0
    4.5577    0.5886    0.0777 H   0  0  0  0  0  0  0  0  0  0  0  0
    2.2381    1.8654    0.6129 H   0  0  0  0  0  0  0  0  0  0  0  0
    2.8759    1.7072   -1.0441 H   0  0  0  0  0  0  0  0  0  0  0  0
   -0.1111    2.7877    0.9320 H   0  0  0  0  0  0  0  0  0  0  0  0
    0.7608    3.3053   -0.4893 H   0  0  0  0  0  0  0  0  0  0  0  0
  1  2  1  0
  2  3  1  0
  3  4  1  0
  4  5  1  0
  1  6  1  0
  5  6  1  0
  3  7  1  0
  7  8  1  0
  8  9  1  0
  4 10  1  0
  9 10  1  0
  8 11  1  0
 11 12  1  0
 12 13  1  0
  9 14  1  0
 13 14  1  0
 10 15  1  0
  1 16  1  0
  1 17  1  0
  2 18  1  0
  2 19  1  0
  3 20  1  0
  4 21  1  0
  5 22  1  0
  5 23  1  0
  6 24  1  0
  6 25  1  0
  7 26  1  0
  8 27  1  1
  9 28  1  6
 10 29  1  0
 11 30  1  0
 11 31  1  0
 12 32  1  0
 12 33  1  0
 13 34  1  0
 13 35  1  0
 14 36  1  0
 14 37  1  0
 15 38  1  0
 15 39  1  0
M  END
>  <PDBID>  (1) 
1ACJ

>  <PDB ID>  (1) 
1ACJ

>  <Generic Name>  (1) 
Tacrine

>  <Brand Name>  (1) 
Cognex#Talem

>  <DrugBank ID>  (1) 
DB00382

>  <ATC Codes>  (1) 
N06DA01

>  <Ligand ID>  (1) 
THA

>  <Target Name>  (1) 
Acetylcholinesterase

>  <UniProt ID>  (1) 
P22303

>  <PDB ID.1>  (1) 
1ACJ

>  <Seq. Identity>  (1) 
57%

$$$$
