PDB_DB08906_08
     RDKit          3D

160168  0  0  0  0  0  0  0  0999 V2000
    1.5824   -2.6894    0.7232 C   0  0  0  0  0  0  0  0  0  0  0  0
    1.6835   -1.3823    1.4214 C   0  0  2  0  0  0  0  0  0  0  0  0
    0.2851   -1.1512    2.0365 C   0  0  0  0  0  0  0  0  0  0  0  0
   -0.3652   -0.5046    0.8923 C   0  0  1  0  0  0  0  0  0  0  0  0
   -1.7077    0.0932    1.0612 C   0  0  2  0  0  0  0  0  0  0  0  0
   -2.6574   -0.9836    1.5798 C   0  0  0  0  0  0  0  0  0  0  0  0
   -4.0169   -0.3294    1.6848 C   0  0  2  0  0  0  0  0  0  0  0  0
   -4.9418   -1.1429    2.2872 F   0  0  0  0  0  0  0  0  0  0  0  0
   -4.4835   -0.0437    0.2856 C   0  0  0  0  0  0  0  0  0  0  0  0
   -4.8187   -1.3332   -0.3836 C   0  0  0  0  0  0  0  0  0  0  0  0
   -5.7129   -1.0293   -1.5709 C   0  0  0  0  0  0  0  0  0  0  0  0
   -7.0353   -1.1533   -1.0942 O   0  0  0  0  0  0  0  0  0  0  0  0
   -5.4258    0.3533   -2.0556 C   0  0  0  0  0  0  0  0  0  0  0  0
   -3.9507    0.6797   -1.9701 C   0  0  0  0  0  0  0  0  0  0  0  0
   -3.5571    0.8390   -0.4933 C   0  0  1  0  0  0  0  0  0  0  0  0
   -3.8476    2.2649   -0.1315 C   0  0  0  0  0  0  0  0  0  0  0  0
   -2.1461    0.4241   -0.3743 C   0  0  2  0  0  0  0  0  0  0  0  0
   -2.0172   -0.8020   -1.0529 F   0  0  0  0  0  0  0  0  0  0  0  0
   -1.1897    1.3538   -1.0454 C   0  0  1  0  0  0  0  0  0  0  0  0
   -1.4969    2.7140   -0.8100 O   0  0  0  0  0  0  0  0  0  0  0  0
    0.2441    1.0894   -0.8162 C   0  0  0  0  0  0  0  0  0  0  0  0
    0.6303    0.6085    0.5459 C   0  0  1  0  0  0  0  0  0  0  0  0
    0.4910    1.6757    1.5443 C   0  0  0  0  0  0  0  0  0  0  0  0
    1.9395   -0.1711    0.5532 C   0  0  2  0  0  0  0  0  0  0  0  0
    2.2341   -0.3930   -0.7408 O   0  0  0  0  0  0  0  0  0  0  0  0
    3.2825   -1.0876   -1.1730 C   0  0  0  0  0  0  0  0  0  0  0  0
    2.8027   -2.1815   -1.9525 O   0  0  0  0  0  0  0  0  0  0  0  0
    4.1834   -0.3609   -2.1906 C   0  0  0  0  0  0  0  0  0  0  0  0
    5.3771   -1.2184   -2.5421 C   0  0  0  0  0  0  0  0  0  0  0  0
    6.3875   -0.8181   -1.5192 C   0  0  0  0  0  0  0  0  0  0  0  0
    5.9214    0.5426   -1.0714 C   0  0  0  0  0  0  0  0  0  0  0  0
    4.7419    0.7844   -1.7177 O   0  0  0  0  0  0  0  0  0  0  0  0
    3.0399    0.5957    1.2974 C   0  0  0  0  0  0  0  0  0  0  0  0
    3.3270    1.8225    0.7928 O   0  0  0  0  0  0  0  0  0  0  0  0
    2.6501    0.6171    3.0703 S   0  0  0  0  0  0  0  0  0  0  0  0
    3.9431    1.5127    3.9480 C   0  0  0  0  0  0  0  0  0  0  0  0
    3.8957    2.8516    3.5492 F   0  0  0  0  0  0  0  0  0  0  0  0
    1.5824   -2.6894    0.7232 C   0  0  0  0  0  0  0  0  0  0  0  0
    1.6835   -1.3823    1.4214 C   0  0  2  0  0  0  0  0  0  0  0  0
    0.2851   -1.1512    2.0365 C   0  0  0  0  0  0  0  0  0  0  0  0
   -0.3652   -0.5046    0.8923 C   0  0  1  0  0  0  0  0  0  0  0  0
   -1.7077    0.0932    1.0612 C   0  0  2  0  0  0  0  0  0  0  0  0
   -2.6574   -0.9836    1.5798 C   0  0  0  0  0  0  0  0  0  0  0  0
   -4.0169   -0.3294    1.6848 C   0  0  2  0  0  0  0  0  0  0  0  0
   -4.9418   -1.1429    2.2872 F   0  0  0  0  0  0  0  0  0  0  0  0
   -4.4835   -0.0437    0.2856 C   0  0  0  0  0  0  0  0  0  0  0  0
   -4.8187   -1.3332   -0.3836 C   0  0  0  0  0  0  0  0  0  0  0  0
   -5.7129   -1.0293   -1.5709 C   0  0  0  0  0  0  0  0  0  0  0  0
   -7.0353   -1.1533   -1.0942 O   0  0  0  0  0  0  0  0  0  0  0  0
   -5.4258    0.3533   -2.0556 C   0  0  0  0  0  0  0  0  0  0  0  0
   -3.9507    0.6797   -1.9701 C   0  0  0  0  0  0  0  0  0  0  0  0
   -3.5571    0.8390   -0.4933 C   0  0  1  0  0  0  0  0  0  0  0  0
   -3.8476    2.2649   -0.1315 C   0  0  0  0  0  0  0  0  0  0  0  0
   -2.1461    0.4241   -0.3743 C   0  0  2  0  0  0  0  0  0  0  0  0
   -2.0172   -0.8020   -1.0529 F   0  0  0  0  0  0  0  0  0  0  0  0
   -1.1897    1.3538   -1.0454 C   0  0  1  0  0  0  0  0  0  0  0  0
   -1.4969    2.7140   -0.8100 O   0  0  0  0  0  0  0  0  0  0  0  0
    0.2441    1.0894   -0.8162 C   0  0  0  0  0  0  0  0  0  0  0  0
    0.6303    0.6085    0.5459 C   0  0  1  0  0  0  0  0  0  0  0  0
    0.4910    1.6757    1.5443 C   0  0  0  0  0  0  0  0  0  0  0  0
    1.9395   -0.1711    0.5532 C   0  0  2  0  0  0  0  0  0  0  0  0
    2.2341   -0.3930   -0.7408 O   0  0  0  0  0  0  0  0  0  0  0  0
    3.2825   -1.0876   -1.1730 C   0  0  0  0  0  0  0  0  0  0  0  0
    2.8027   -2.1815   -1.9525 O   0  0  0  0  0  0  0  0  0  0  0  0
    4.1834   -0.3609   -2.1906 C   0  0  0  0  0  0  0  0  0  0  0  0
    5.3771   -1.2184   -2.5421 C   0  0  0  0  0  0  0  0  0  0  0  0
    6.3875   -0.8181   -1.5192 C   0  0  0  0  0  0  0  0  0  0  0  0
    5.9214    0.5426   -1.0714 C   0  0  0  0  0  0  0  0  0  0  0  0
    4.7419    0.7844   -1.7177 O   0  0  0  0  0  0  0  0  0  0  0  0
    3.0399    0.5957    1.2974 C   0  0  0  0  0  0  0  0  0  0  0  0
    3.3270    1.8225    0.7928 O   0  0  0  0  0  0  0  0  0  0  0  0
    2.6501    0.6171    3.0703 S   0  0  0  0  0  0  0  0  0  0  0  0
    3.9431    1.5127    3.9480 C   0  0  0  0  0  0  0  0  0  0  0  0
    3.8957    2.8516    3.5492 F   0  0  0  0  0  0  0  0  0  0  0  0
    2.5743   -3.1964    0.5554 H   0  0  0  0  0  0  0  0  0  0  0  0
    1.1136   -3.3918    1.4921 H   0  0  0  0  0  0  0  0  0  0  0  0
    0.8954   -2.7482   -0.1204 H   0  0  0  0  0  0  0  0  0  0  0  0
    2.4009   -1.4961    2.2604 H   0  0  0  0  0  0  0  0  0  0  0  0
    0.3489   -0.6167    2.9752 H   0  0  0  0  0  0  0  0  0  0  0  0
   -0.1769   -2.1440    2.2602 H   0  0  0  0  0  0  0  0  0  0  0  0
   -0.4106   -1.2083    0.0438 H   0  0  0  0  0  0  0  0  0  0  0  0
   -1.7930    0.9392    1.7325 H   0  0  0  0  0  0  0  0  0  0  0  0
   -2.6290   -1.8063    0.8506 H   0  0  0  0  0  0  0  0  0  0  0  0
   -2.3537   -1.2801    2.6008 H   0  0  0  0  0  0  0  0  0  0  0  0
   -3.8948    0.6367    2.2119 H   0  0  0  0  0  0  0  0  0  0  0  0
   -5.4534    0.5279    0.3898 H   0  0  0  0  0  0  0  0  0  0  0  0
   -5.3706   -1.9563    0.3808 H   0  0  0  0  0  0  0  0  0  0  0  0
   -3.9779   -1.9374   -0.7103 H   0  0  0  0  0  0  0  0  0  0  0  0
   -5.5594   -1.7908   -2.3622 H   0  0  0  0  0  0  0  0  0  0  0  0
   -7.0323   -1.9095   -0.4751 H   0  0  0  0  0  0  0  0  0  0  0  0
   -5.7353    0.4101   -3.1206 H   0  0  0  0  0  0  0  0  0  0  0  0
   -5.9623    1.1343   -1.5038 H   0  0  0  0  0  0  0  0  0  0  0  0
   -3.3900   -0.2128   -2.3493 H   0  0  0  0  0  0  0  0  0  0  0  0
   -3.7096    1.5962   -2.5281 H   0  0  0  0  0  0  0  0  0  0  0  0
   -4.9305    2.3304    0.1889 H   0  0  0  0  0  0  0  0  0  0  0  0
   -3.2701    2.6538    0.7099 H   0  0  0  0  0  0  0  0  0  0  0  0
   -3.8102    2.9316   -1.0416 H   0  0  0  0  0  0  0  0  0  0  0  0
   -1.3745    1.2387   -2.1577 H   0  0  0  0  0  0  0  0  0  0  0  0
   -0.8559    3.2598   -1.2915 H   0  0  0  0  0  0  0  0  0  0  0  0
    0.6080    0.3161   -1.5548 H   0  0  0  0  0  0  0  0  0  0  0  0
    0.8035    2.0197   -1.1108 H   0  0  0  0  0  0  0  0  0  0  0  0
   -0.3843    2.3129    1.2029 H   0  0  0  0  0  0  0  0  0  0  0  0
    0.1710    1.3567    2.5654 H   0  0  0  0  0  0  0  0  0  0  0  0
    1.2907    2.3945    1.6764 H   0  0  0  0  0  0  0  0  0  0  0  0
    3.9660   -1.5205   -0.4447 H   0  0  0  0  0  0  0  0  0  0  0  0
    2.2676   -1.7881   -2.6975 H   0  0  0  0  0  0  0  0  0  0  0  0
    3.5933   -0.1295   -3.1097 H   0  0  0  0  0  0  0  0  0  0  0  0
    5.6947   -1.0511   -3.5857 H   0  0  0  0  0  0  0  0  0  0  0  0
    5.1564   -2.3151   -2.3978 H   0  0  0  0  0  0  0  0  0  0  0  0
    7.3788   -0.7225   -1.9791 H   0  0  0  0  0  0  0  0  0  0  0  0
    6.4468   -1.5492   -0.6663 H   0  0  0  0  0  0  0  0  0  0  0  0
    6.6559    1.3311   -1.4108 H   0  0  0  0  0  0  0  0  0  0  0  0
    5.8976    0.6457    0.0232 H   0  0  0  0  0  0  0  0  0  0  0  0
    3.9428   -0.0478    1.2052 H   0  0  0  0  0  0  0  0  0  0  0  0
    2.9504    2.0483   -0.0671 H   0  0  0  0  0  0  0  0  0  0  0  0
    3.6901    1.5291    5.0467 H   0  0  0  0  0  0  0  0  0  0  0  0
    4.9556    1.1590    3.7451 H   0  0  0  0  0  0  0  0  0  0  0  0
    2.5743   -3.1964    0.5554 H   0  0  0  0  0  0  0  0  0  0  0  0
    1.1136   -3.3918    1.4921 H   0  0  0  0  0  0  0  0  0  0  0  0
    0.8954   -2.7482   -0.1204 H   0  0  0  0  0  0  0  0  0  0  0  0
    2.4009   -1.4961    2.2604 H   0  0  0  0  0  0  0  0  0  0  0  0
    0.3489   -0.6167    2.9752 H   0  0  0  0  0  0  0  0  0  0  0  0
   -0.1769   -2.1440    2.2602 H   0  0  0  0  0  0  0  0  0  0  0  0
   -0.4106   -1.2083    0.0438 H   0  0  0  0  0  0  0  0  0  0  0  0
   -1.7930    0.9392    1.7325 H   0  0  0  0  0  0  0  0  0  0  0  0
   -2.6290   -1.8063    0.8506 H   0  0  0  0  0  0  0  0  0  0  0  0
   -2.3537   -1.2801    2.6008 H   0  0  0  0  0  0  0  0  0  0  0  0
   -3.8948    0.6367    2.2119 H   0  0  0  0  0  0  0  0  0  0  0  0
   -5.4534    0.5279    0.3898 H   0  0  0  0  0  0  0  0  0  0  0  0
   -5.3706   -1.9563    0.3808 H   0  0  0  0  0  0  0  0  0  0  0  0
   -3.9779   -1.9374   -0.7103 H   0  0  0  0  0  0  0  0  0  0  0  0
   -5.5594   -1.7908   -2.3622 H   0  0  0  0  0  0  0  0  0  0  0  0
   -7.0323   -1.9095   -0.4751 H   0  0  0  0  0  0  0  0  0  0  0  0
   -5.7353    0.4101   -3.1206 H   0  0  0  0  0  0  0  0  0  0  0  0
   -5.9623    1.1343   -1.5038 H   0  0  0  0  0  0  0  0  0  0  0  0
   -3.3900   -0.2128   -2.3493 H   0  0  0  0  0  0  0  0  0  0  0  0
   -3.7096    1.5962   -2.5281 H   0  0  0  0  0  0  0  0  0  0  0  0
   -4.9305    2.3304    0.1889 H   0  0  0  0  0  0  0  0  0  0  0  0
   -3.2701    2.6538    0.7099 H   0  0  0  0  0  0  0  0  0  0  0  0
   -3.8102    2.9316   -1.0416 H   0  0  0  0  0  0  0  0  0  0  0  0
   -1.3745    1.2387   -2.1577 H   0  0  0  0  0  0  0  0  0  0  0  0
   -0.8559    3.2598   -1.2915 H   0  0  0  0  0  0  0  0  0  0  0  0
    0.6080    0.3161   -1.5548 H   0  0  0  0  0  0  0  0  0  0  0  0
    0.8035    2.0197   -1.1108 H   0  0  0  0  0  0  0  0  0  0  0  0
   -0.3843    2.3129    1.2029 H   0  0  0  0  0  0  0  0  0  0  0  0
    0.1710    1.3567    2.5654 H   0  0  0  0  0  0  0  0  0  0  0  0
    1.2907    2.3945    1.6764 H   0  0  0  0  0  0  0  0  0  0  0  0
    3.9660   -1.5205   -0.4447 H   0  0  0  0  0  0  0  0  0  0  0  0
    2.2676   -1.7881   -2.6975 H   0  0  0  0  0  0  0  0  0  0  0  0
    3.5933   -0.1295   -3.1097 H   0  0  0  0  0  0  0  0  0  0  0  0
    5.6947   -1.0511   -3.5857 H   0  0  0  0  0  0  0  0  0  0  0  0
    5.1564   -2.3151   -2.3978 H   0  0  0  0  0  0  0  0  0  0  0  0
    7.3788   -0.7225   -1.9791 H   0  0  0  0  0  0  0  0  0  0  0  0
    6.4468   -1.5492   -0.6663 H   0  0  0  0  0  0  0  0  0  0  0  0
    6.6559    1.3311   -1.4108 H   0  0  0  0  0  0  0  0  0  0  0  0
    5.8976    0.6457    0.0232 H   0  0  0  0  0  0  0  0  0  0  0  0
    3.9428   -0.0478    1.2052 H   0  0  0  0  0  0  0  0  0  0  0  0
    2.9504    2.0483   -0.0671 H   0  0  0  0  0  0  0  0  0  0  0  0
    3.6901    1.5291    5.0467 H   0  0  0  0  0  0  0  0  0  0  0  0
    4.9556    1.1590    3.7451 H   0  0  0  0  0  0  0  0  0  0  0  0
  1  2  1  0
  2  3  1  0
  3  4  1  0
  4  5  1  0
  5  6  1  0
  6  7  1  0
  7  8  1  0
  7  9  1  0
  9 10  1  0
 10 11  1  0
 11 12  1  0
 11 13  1  0
 13 14  1  0
  9 15  1  0
 14 15  1  0
 15 16  1  1
  5 17  1  0
 15 17  1  0
 17 18  1  6
 17 19  1  0
 19 20  1  0
 19 21  1  0
  4 22  1  0
 21 22  1  0
 22 23  1  1
  2 24  1  0
 22 24  1  0
 24 25  1  6
 25 26  1  0
 26 27  1  0
 26 28  1  0
 28 29  1  0
 29 30  1  0
 30 31  1  0
 28 32  1  0
 31 32  1  0
 24 33  1  0
 33 34  1  0
 33 35  1  0
 35 36  1  0
 36 37  1  0
 38 39  1  0
 39 40  1  0
 40 41  1  0
 41 42  1  0
 42 43  1  0
 43 44  1  0
 44 45  1  0
 44 46  1  0
 46 47  1  0
 47 48  1  0
 48 49  1  0
 48 50  1  0
 50 51  1  0
 46 52  1  0
 51 52  1  0
 52 53  1  1
 42 54  1  0
 52 54  1  0
 54 55  1  6
 54 56  1  0
 56 57  1  0
 56 58  1  0
 41 59  1  0
 58 59  1  0
 59 60  1  1
 39 61  1  0
 59 61  1  0
 61 62  1  6
 62 63  1  0
 63 64  1  0
 63 65  1  0
 65 66  1  0
 66 67  1  0
 67 68  1  0
 65 69  1  0
 68 69  1  0
 61 70  1  0
 70 71  1  0
 70 72  1  0
 72 73  1  0
 73 74  1  0
  1 75  1  0
  1 76  1  0
  1 77  1  0
  2 78  1  1
  3 79  1  0
  3 80  1  0
  4 81  1  6
  5 82  1  1
  6 83  1  0
  6 84  1  0
  7 85  1  1
  9 86  1  0
 10 87  1  0
 10 88  1  0
 11 89  1  0
 12 90  1  0
 13 91  1  0
 13 92  1  0
 14 93  1  0
 14 94  1  0
 16 95  1  0
 16 96  1  0
 16 97  1  0
 19 98  1  6
 20 99  1  0
 21100  1  0
 21101  1  0
 23102  1  0
 23103  1  0
 23104  1  0
 26105  1  0
 27106  1  0
 28107  1  0
 29108  1  0
 29109  1  0
 30110  1  0
 30111  1  0
 31112  1  0
 31113  1  0
 33114  1  0
 34115  1  0
 36116  1  0
 36117  1  0
 38118  1  0
 38119  1  0
 38120  1  0
 39121  1  1
 40122  1  0
 40123  1  0
 41124  1  6
 42125  1  1
 43126  1  0
 43127  1  0
 44128  1  1
 46129  1  0
 47130  1  0
 47131  1  0
 48132  1  0
 49133  1  0
 50134  1  0
 50135  1  0
 51136  1  0
 51137  1  0
 53138  1  0
 53139  1  0
 53140  1  0
 56141  1  6
 57142  1  0
 58143  1  0
 58144  1  0
 60145  1  0
 60146  1  0
 60147  1  0
 63148  1  0
 64149  1  0
 65150  1  0
 66151  1  0
 66152  1  0
 67153  1  0
 67154  1  0
 68155  1  0
 68156  1  0
 70157  1  0
 71158  1  0
 73159  1  0
 73160  1  0
M  END
>  <PDBID>  (1) 
3CLD

>  <PDB ID>  (1) 
3CLD

>  <Generic Name>  (1) 
Fluticasone furoate

>  <Brand Name>  (1) 
Arnuity Ellipta#Avamys#Breo Ellipta#Flonase Sensimist Allergy Relief#Veramyst

>  <DrugBank ID>  (1) 
DB08906

>  <ATC Codes>  (1) 
R03AK10#R01AD12#R03BA09

>  <Ligand ID>  (1) 
GW6

>  <Target Name>  (1) 
Glucocorticoid receptor

>  <UniProt ID>  (1) 
P04150

>  <PDB ID.1>  (1) 
3CLD

>  <Seq. Identity>  (1) 
99%

$$$$
