PDB_DB00884_06
     RDKit          3D

 38 38  0  0  0  0  0  0  0  0999 V2000
   -1.8682   -2.5416    0.7859 O   0  0  0  0  0  0  0  0  0  0  0  0
   -2.5767   -1.2693    1.2111 P   0  0  0  0  0  0  0  0  0  0  0  0
   -2.8317   -1.7615    2.7761 O   0  0  0  0  0  0  0  0  0  0  0  0
   -3.7246   -1.5424    0.0439 O   0  0  0  0  0  0  0  0  0  0  0  0
   -1.2499   -0.1206    0.9202 C   0  0  0  0  0  0  0  0  0  0  0  0
   -0.7770    0.1629    2.2012 O   0  0  0  0  0  0  0  0  0  0  0  0
   -1.8179    1.4568    0.2485 P   0  0  0  0  0  0  0  0  0  0  0  0
   -1.4673    1.6766   -1.3246 O   0  0  0  0  0  0  0  0  0  0  0  0
   -3.2513    1.0323   -0.2200 O   0  0  0  0  0  0  0  0  0  0  0  0
   -0.6191    2.3773    0.5796 O   0  0  0  0  0  0  0  0  0  0  0  0
   -0.1871   -0.6062   -0.0013 C   0  0  0  0  0  0  0  0  0  0  0  0
    0.9875    0.1580   -0.3276 C   0  0  1  0  0  0  0  0  0  0  0  0
    1.9546    0.5540    0.7242 C   0  0  0  0  0  0  0  0  0  0  0  0
    3.2313    0.9450   -0.0548 C   0  0  0  0  0  0  0  0  0  0  0  0
    3.9565   -0.3436   -0.3832 C   0  0  0  0  0  0  0  0  0  0  0  0
    2.9326   -1.2867   -0.7747 N   0  0  0  0  0  0  0  0  0  0  0  0
    1.7955   -0.6095   -1.3907 C   0  0  0  0  0  0  0  0  0  0  0  0
   -1.3773    0.7486    2.6961 H   0  0  0  0  0  0  0  0  0  0  0  0
   -0.7096   -0.9170   -0.9616 H   0  0  0  0  0  0  0  0  0  0  0  0
    0.1285   -1.6215    0.4021 H   0  0  0  0  0  0  0  0  0  0  0  0
    2.3032   -0.3281    1.3470 H   0  0  0  0  0  0  0  0  0  0  0  0
    3.8551    1.6371    0.5401 H   0  0  0  0  0  0  0  0  0  0  0  0
    4.7431   -0.2147   -1.1248 H   0  0  0  0  0  0  0  0  0  0  0  0
    1.1666   -1.4228   -1.8237 H   0  0  0  0  0  0  0  0  0  0  0  0
    3.2591   -2.0818   -1.3169 H   0  0  0  0  0  0  0  0  0  0  0  0
   -1.1437   -2.8747    1.3242 H   0  0  0  0  0  0  0  0  0  0  0  0
   -3.3559   -0.3036    1.5569 H   0  0  0  0  0  0  0  0  0  0  0  0
   -3.2315   -2.6130    2.9044 H   0  0  0  0  0  0  0  0  0  0  0  0
   -3.3563   -1.2206   -0.7841 H   0  0  0  0  0  0  0  0  0  0  0  0
   -2.5056    2.2544    1.1279 H   0  0  0  0  0  0  0  0  0  0  0  0
   -1.7872    2.5114   -1.6659 H   0  0  0  0  0  0  0  0  0  0  0  0
   -3.9022    1.5808   -0.6796 H   0  0  0  0  0  0  0  0  0  0  0  0
   -0.5126    3.3112    0.3475 H   0  0  0  0  0  0  0  0  0  0  0  0
    0.7144    1.1142   -0.8571 H   0  0  0  0  0  0  0  0  0  0  0  0
    1.7526    1.4273    1.3297 H   0  0  0  0  0  0  0  0  0  0  0  0
    2.9612    1.4220   -1.0193 H   0  0  0  0  0  0  0  0  0  0  0  0
    4.4026   -0.7087    0.5647 H   0  0  0  0  0  0  0  0  0  0  0  0
    2.1084    0.0181   -2.2268 H   0  0  0  0  0  0  0  0  0  0  0  0
  1  2  1  0
  2  3  1  0
  2  4  1  0
  2  5  1  0
  5  6  1  0
  5  7  1  0
  7  8  1  0
  7  9  1  0
  7 10  1  0
  5 11  1  0
 11 12  1  0
 12 13  1  0
 13 14  1  0
 14 15  1  0
 15 16  1  0
 12 17  1  0
 16 17  1  0
 18  6  1  0
 11 19  1  0
 11 20  1  0
 13 21  1  0
 14 22  1  0
 15 23  1  0
 17 24  1  0
 25 16  1  0
  1 26  1  0
  2 27  1  0
  3 28  1  0
  4 29  1  0
  7 30  1  0
  8 31  1  0
  9 32  1  0
 10 33  1  0
 12 34  1  6
 13 35  1  0
 14 36  1  0
 15 37  1  0
 17 38  1  0
M  END
>  <PDBID>  (1) 
5CG5

>  <PDB ID>  (1) 
5CG5

>  <Generic Name>  (1) 
Risedronate

>  <Brand Name>  (1) 
Actonel#Actonel Dr#Actonel Plus Calcium#Actonel Sachet Kit#Apo-risedronate#Atelvia#Auro-risedronate#Dom-risedronate#Jamp-risedronate#Mylan-risedronate#Ntp-risedronate#PHL-risedronate#PMS-risedronate#PMS-risedronate Plus Calcium#Pendo-risedronate#Q-risedronate#Ratio-risedronate#Risedronate#Risedronate Sodium#Risedronate-35#Riva-risedronate#Sandoz Risedronate#Teva-risedronate#Benet

>  <DrugBank ID>  (1) 
DB00884

>  <ATC Codes>  (1) 
M05BB02#M05BA07#M05BB04#M05BB07

>  <Ligand ID>  (1) 
RIS

>  <Target Name>  (1) 
Farnesyl pyrophosphate synthase

>  <UniProt ID>  (1) 
P14324

>  <PDB ID.1>  (1) 
5CG5

>  <Seq. Identity>  (1) 
100%

$$$$
