PDB_DB00624_02
     RDKit          3D

 53 56  0  0  0  0  0  0  0  0999 V2000
    2.4293    1.3263    0.8249 C   0  0  0  0  0  0  0  0  0  0  0  0
    3.8000    1.4703    0.1598 C   0  0  0  0  0  0  0  0  0  0  0  0
    4.4592    0.1293   -0.0477 C   0  0  0  0  0  0  0  0  0  0  0  0
    5.5858   -0.0589    0.7158 O   0  0  0  0  0  0  0  0  0  0  0  0
    3.4064   -0.9295    0.2168 C   0  0  0  0  0  0  0  0  0  0  0  0
    2.2073   -0.5680   -0.6706 C   0  0  0  0  0  0  0  0  0  0  0  0
    1.4502   -1.8025   -0.9345 C   0  0  0  0  0  0  0  0  0  0  0  0
    0.2591   -2.0400   -0.0740 C   0  0  0  0  0  0  0  0  0  0  0  0
   -0.5646   -0.7453   -0.1472 C   0  0  2  0  0  0  0  0  0  0  0  0
    0.2275    0.2677    0.6341 C   0  0  1  0  0  0  0  0  0  0  0  0
    1.4671    0.5839   -0.1152 C   0  0  1  0  0  0  0  0  0  0  0  0
   -0.5459    1.5091    0.9509 C   0  0  0  0  0  0  0  0  0  0  0  0
   -1.9037    1.1940    1.5587 C   0  0  0  0  0  0  0  0  0  0  0  0
   -2.6425    0.3475    0.5827 C   0  0  1  0  0  0  0  0  0  0  0  0
   -1.8853   -0.9621    0.4746 C   0  0  1  0  0  0  0  0  0  0  0  0
   -2.8362   -1.8249   -0.2610 C   0  0  0  0  0  0  0  0  0  0  0  0
   -4.2169   -1.3262    0.1295 C   0  0  0  0  0  0  0  0  0  0  0  0
   -3.9788   -0.1485    1.0849 C   0  0  2  0  0  0  0  0  0  0  0  0
   -4.9845    0.7907    0.9687 O   0  0  0  0  0  0  0  0  0  0  0  0
   -2.8568    1.0246   -0.7230 C   0  0  0  0  0  0  0  0  0  0  0  0
    1.1501    1.5944   -1.2265 C   0  0  0  0  0  0  0  0  0  0  0  0
    2.4970    0.8467    1.8032 H   0  0  0  0  0  0  0  0  0  0  0  0
    2.0394    2.3587    0.9454 H   0  0  0  0  0  0  0  0  0  0  0  0
    3.6663    1.9834   -0.8026 H   0  0  0  0  0  0  0  0  0  0  0  0
    4.4087    2.1028    0.8210 H   0  0  0  0  0  0  0  0  0  0  0  0
    4.7211    0.0198   -1.1409 H   0  0  0  0  0  0  0  0  0  0  0  0
    6.0941   -0.8114    0.3197 H   0  0  0  0  0  0  0  0  0  0  0  0
    3.1346   -1.0158    1.2668 H   0  0  0  0  0  0  0  0  0  0  0  0
    3.7760   -1.9153   -0.1623 H   0  0  0  0  0  0  0  0  0  0  0  0
    2.6778   -0.2350   -1.6435 H   0  0  0  0  0  0  0  0  0  0  0  0
    2.1242   -2.6992   -0.8225 H   0  0  0  0  0  0  0  0  0  0  0  0
    1.1147   -1.8362   -1.9985 H   0  0  0  0  0  0  0  0  0  0  0  0
   -0.3625   -2.8390   -0.4941 H   0  0  0  0  0  0  0  0  0  0  0  0
    0.5324   -2.2503    0.9926 H   0  0  0  0  0  0  0  0  0  0  0  0
   -0.6151   -0.4990   -1.2265 H   0  0  0  0  0  0  0  0  0  0  0  0
    0.5348   -0.2438    1.5931 H   0  0  0  0  0  0  0  0  0  0  0  0
   -0.7532    2.0535    0.0052 H   0  0  0  0  0  0  0  0  0  0  0  0
    0.0175    2.1441    1.6286 H   0  0  0  0  0  0  0  0  0  0  0  0
   -2.4004    2.1344    1.8318 H   0  0  0  0  0  0  0  0  0  0  0  0
   -1.7240    0.5634    2.4753 H   0  0  0  0  0  0  0  0  0  0  0  0
   -1.7408   -1.3231    1.5152 H   0  0  0  0  0  0  0  0  0  0  0  0
   -2.6914   -1.8098   -1.3601 H   0  0  0  0  0  0  0  0  0  0  0  0
   -2.7285   -2.8733    0.1114 H   0  0  0  0  0  0  0  0  0  0  0  0
   -4.7429   -1.0203   -0.7751 H   0  0  0  0  0  0  0  0  0  0  0  0
   -4.7969   -2.1249    0.6098 H   0  0  0  0  0  0  0  0  0  0  0  0
   -3.9093   -0.5758    2.0891 H   0  0  0  0  0  0  0  0  0  0  0  0
   -5.3897    0.7252    0.0826 H   0  0  0  0  0  0  0  0  0  0  0  0
   -3.8151    0.7434   -1.2146 H   0  0  0  0  0  0  0  0  0  0  0  0
   -2.9643    2.1293   -0.5111 H   0  0  0  0  0  0  0  0  0  0  0  0
   -2.0639    0.9163   -1.4589 H   0  0  0  0  0  0  0  0  0  0  0  0
    1.0378    2.6102   -0.7996 H   0  0  0  0  0  0  0  0  0  0  0  0
    0.2776    1.3000   -1.8155 H   0  0  0  0  0  0  0  0  0  0  0  0
    2.0173    1.6090   -1.9433 H   0  0  0  0  0  0  0  0  0  0  0  0
  1  2  1  0
  2  3  1  0
  3  4  1  0
  3  5  1  0
  5  6  1  0
  6  7  1  0
  7  8  1  0
  8  9  1  0
  9 10  1  0
  1 11  1  0
  6 11  1  0
 10 11  1  0
 10 12  1  0
 12 13  1  0
 13 14  1  0
  9 15  1  0
 14 15  1  0
 15 16  1  0
 16 17  1  0
 14 18  1  0
 17 18  1  0
 18 19  1  0
 14 20  1  6
 11 21  1  6
  1 22  1  0
  1 23  1  0
  2 24  1  0
  2 25  1  0
  3 26  1  0
  4 27  1  0
  5 28  1  0
  5 29  1  0
  6 30  1  0
  7 31  1  0
  7 32  1  0
  8 33  1  0
  8 34  1  0
  9 35  1  6
 10 36  1  1
 12 37  1  0
 12 38  1  0
 13 39  1  0
 13 40  1  0
 15 41  1  1
 16 42  1  0
 16 43  1  0
 17 44  1  0
 17 45  1  0
 18 46  1  1
 19 47  1  0
 20 48  1  0
 20 49  1  0
 20 50  1  0
 21 51  1  0
 21 52  1  0
 21 53  1  0
M  END
>  <PDBID>  (1) 
2AM9

>  <PDB ID>  (1) 
2AM9

>  <Generic Name>  (1) 
Testosterone

>  <Brand Name>  (1) 
Andriol#Androderm#Androgel#Aveed#Axiron#Delatestryl#Depo-testosterone#Depo-testosterone Inj 100mg/ml#Fortesta#Malogen Aqueous 100 Sus 100mg/ml#Malogex La200 Liq 200mg/ml#Natesto#Neo Pause Injection#PMS-testosterone#PMS-testosterone Enanthate Inj 200mg/ml USP#Scheinpharm Testone-cyp Inject.- Im 100mg/ml#Striant#Taro-testosterone#Testim#Testim 1%#Testopel#Testosterone#Testosterone Cypionate#Testosterone Cypionate Injection USP#Testosterone Cypionate Injection, USP#Testosterone Enanthate#Testosterone Enanthate Inj 200mg/ml#Vogelxo#Andronate 100#Andronate 200#Andropatch#Andropository 200#Andryl 200#Bio-T-Gel#Fortigel#Intrinsa#Livensa#Nebido#Sustanon#Testamone 100#Testaqua IM#Testoderm#Testoderm TTS#Testogel#Testolin#Testopatch#Testopel Pellets#Testrin-P.A#Testro AQ#Tostrelle#Tostrex#Virormone

>  <DrugBank ID>  (1) 
DB00624

>  <ATC Codes>  (1) 
G03EA02#G03BA03

>  <Ligand ID>  (1) 
TES

>  <Target Name>  (1) 
Androgen receptor

>  <UniProt ID>  (1) 
P10275

>  <PDB ID.1>  (1) 
2AM9

>  <Seq. Identity>  (1) 
100%

$$$$
