PDB_DB08882_03
     RDKit          3D

170178  0  0  0  0  0  0  0  0999 V2000
   -1.4422    0.3167   -0.7261 C   0  0  0  0  0  0  0  0  0  0  0  0
   -2.7167   -0.2356   -0.8524 N   0  0  0  0  0  0  0  0  0  0  0  0
   -1.2917    0.5468    0.7784 C   0  0  0  0  0  0  0  0  0  0  0  0
   -0.2830   -0.3033   -1.3427 C   0  0  0  0  0  0  0  0  0  0  0  0
   -3.3896   -0.3569    0.3898 C   0  0  0  0  0  0  0  0  0  0  0  0
   -2.9191   -1.2942   -1.7719 C   0  0  0  0  0  0  0  0  0  0  0  0
   -2.3836   -0.1269    1.3804 N   0  0  0  0  0  0  0  0  0  0  0  0
   -0.0849    0.0375    1.2896 N   0  0  0  0  0  0  0  0  0  0  0  0
    1.0170    0.1081   -0.7979 N   0  0  0  0  0  0  0  0  0  0  0  0
   -0.2077   -1.6769   -1.4200 O   0  0  0  0  0  0  0  0  0  0  0  0
   -4.5594    0.4833    0.5495 N   0  0  0  0  0  0  0  0  0  0  0  0
   -4.3879   -1.6435   -1.8544 C   0  0  0  0  0  0  0  0  0  0  0  0
    1.0315    0.4681    0.5259 C   0  0  0  0  0  0  0  0  0  0  0  0
   -0.0543   -1.2329    1.8861 C   0  0  0  0  0  0  0  0  0  0  0  0
    2.0818   -0.4979   -1.4745 C   0  0  0  0  0  0  0  0  0  0  0  0
   -5.1882    0.2237    1.8397 C   0  0  0  0  0  0  0  0  0  0  0  0
   -4.2539    1.8888    0.5030 C   0  0  0  0  0  0  0  0  0  0  0  0
   -4.5155   -2.7980   -2.8683 C   0  0  0  0  0  0  0  0  0  0  0  0
    1.0925    1.8706    0.6291 O   0  0  0  0  0  0  0  0  0  0  0  0
    3.4390    0.0113   -1.1764 C   0  0  0  0  0  0  0  0  0  0  0  0
   -5.3263    1.4390    2.7027 C   0  0  1  0  0  0  0  0  0  0  0  0
   -5.5615    2.6505    0.5638 C   0  0  0  0  0  0  0  0  0  0  0  0
   -5.9544   -3.2109   -3.0217 C   0  0  0  0  0  0  0  0  0  0  0  0
    3.8064   -0.1490    0.1919 N   0  0  0  0  0  0  0  0  0  0  0  0
    4.4020   -0.6728   -2.0593 N   0  0  0  0  0  0  0  0  0  0  0  0
   -6.1450    2.4636    1.9529 C   0  0  0  0  0  0  0  0  0  0  0  0
   -6.1296    1.0090    3.8650 N   0  0  0  0  0  0  0  0  0  0  0  0
    5.1396    0.4142    0.4465 C   0  0  0  0  0  0  0  0  0  0  0  0
    5.7485   -0.3036   -1.7789 C   0  0  0  0  0  0  0  0  0  0  0  0
    6.0809   -0.5243   -0.3196 C   0  0  0  0  0  0  0  0  0  0  0  0
    5.3930    0.3584    1.9171 C   0  0  0  0  0  0  0  0  0  0  0  0
    6.0967    1.1033   -2.1878 C   0  0  0  0  0  0  0  0  0  0  0  0
    7.5092   -0.2943    0.0260 C   0  0  0  0  0  0  0  0  0  0  0  0
    6.8419    0.6150    2.2617 C   0  0  0  0  0  0  0  0  0  0  0  0
    7.7056    0.8092    1.0491 C   0  0  0  0  0  0  0  0  0  0  0  0
   -1.4422    0.3167   -0.7261 C   0  0  0  0  0  0  0  0  0  0  0  0
   -2.7167   -0.2356   -0.8524 N   0  0  0  0  0  0  0  0  0  0  0  0
   -1.2917    0.5468    0.7784 C   0  0  0  0  0  0  0  0  0  0  0  0
   -0.2830   -0.3033   -1.3427 C   0  0  0  0  0  0  0  0  0  0  0  0
   -3.3896   -0.3569    0.3898 C   0  0  0  0  0  0  0  0  0  0  0  0
   -2.9191   -1.2942   -1.7719 C   0  0  0  0  0  0  0  0  0  0  0  0
   -2.3836   -0.1269    1.3804 N   0  0  0  0  0  0  0  0  0  0  0  0
   -0.0849    0.0375    1.2896 N   0  0  0  0  0  0  0  0  0  0  0  0
    1.0170    0.1081   -0.7979 N   0  0  0  0  0  0  0  0  0  0  0  0
   -0.2077   -1.6769   -1.4200 O   0  0  0  0  0  0  0  0  0  0  0  0
   -4.5594    0.4833    0.5495 N   0  0  0  0  0  0  0  0  0  0  0  0
   -4.3879   -1.6435   -1.8544 C   0  0  0  0  0  0  0  0  0  0  0  0
    1.0315    0.4681    0.5259 C   0  0  0  0  0  0  0  0  0  0  0  0
   -0.0543   -1.2329    1.8861 C   0  0  0  0  0  0  0  0  0  0  0  0
    2.0818   -0.4979   -1.4745 C   0  0  0  0  0  0  0  0  0  0  0  0
   -5.1882    0.2237    1.8397 C   0  0  0  0  0  0  0  0  0  0  0  0
   -4.2539    1.8888    0.5030 C   0  0  0  0  0  0  0  0  0  0  0  0
   -4.5155   -2.7980   -2.8683 C   0  0  0  0  0  0  0  0  0  0  0  0
    1.0925    1.8706    0.6291 O   0  0  0  0  0  0  0  0  0  0  0  0
    3.4390    0.0113   -1.1764 C   0  0  0  0  0  0  0  0  0  0  0  0
   -5.3263    1.4390    2.7027 C   0  0  1  0  0  0  0  0  0  0  0  0
   -5.5615    2.6505    0.5638 C   0  0  0  0  0  0  0  0  0  0  0  0
   -5.9544   -3.2109   -3.0217 C   0  0  0  0  0  0  0  0  0  0  0  0
    3.8064   -0.1490    0.1919 N   0  0  0  0  0  0  0  0  0  0  0  0
    4.4020   -0.6728   -2.0593 N   0  0  0  0  0  0  0  0  0  0  0  0
   -6.1450    2.4636    1.9529 C   0  0  0  0  0  0  0  0  0  0  0  0
   -6.1296    1.0090    3.8650 N   0  0  0  0  0  0  0  0  0  0  0  0
    5.1396    0.4142    0.4465 C   0  0  0  0  0  0  0  0  0  0  0  0
    5.7485   -0.3036   -1.7789 C   0  0  0  0  0  0  0  0  0  0  0  0
    6.0809   -0.5243   -0.3196 C   0  0  0  0  0  0  0  0  0  0  0  0
    5.3930    0.3584    1.9171 C   0  0  0  0  0  0  0  0  0  0  0  0
    6.0967    1.1033   -2.1878 C   0  0  0  0  0  0  0  0  0  0  0  0
    7.5092   -0.2943    0.0260 C   0  0  0  0  0  0  0  0  0  0  0  0
    6.8419    0.6150    2.2617 C   0  0  0  0  0  0  0  0  0  0  0  0
    7.7056    0.8092    1.0491 C   0  0  0  0  0  0  0  0  0  0  0  0
   -1.5306    1.3730   -1.1427 H   0  0  0  0  0  0  0  0  0  0  0  0
   -1.3427    1.6282    1.0540 H   0  0  0  0  0  0  0  0  0  0  0  0
   -0.2004    0.0561   -2.4191 H   0  0  0  0  0  0  0  0  0  0  0  0
   -3.7471   -1.4049    0.5976 H   0  0  0  0  0  0  0  0  0  0  0  0
   -2.4385   -2.2556   -1.4871 H   0  0  0  0  0  0  0  0  0  0  0  0
   -2.6429   -0.9395   -2.7873 H   0  0  0  0  0  0  0  0  0  0  0  0
   -2.7000    0.2460    2.2858 H   0  0  0  0  0  0  0  0  0  0  0  0
    0.0024   -2.0328   -2.3081 H   0  0  0  0  0  0  0  0  0  0  0  0
   -4.8146   -2.0658   -0.9298 H   0  0  0  0  0  0  0  0  0  0  0  0
   -4.9896   -0.8222   -2.2858 H   0  0  0  0  0  0  0  0  0  0  0  0
    1.9216    0.0959    1.0718 H   0  0  0  0  0  0  0  0  0  0  0  0
   -0.2744   -2.1062    1.2717 H   0  0  0  0  0  0  0  0  0  0  0  0
    0.9356   -1.3591    2.3906 H   0  0  0  0  0  0  0  0  0  0  0  0
   -0.8251   -1.2392    2.7158 H   0  0  0  0  0  0  0  0  0  0  0  0
    1.9215   -0.5579   -2.5894 H   0  0  0  0  0  0  0  0  0  0  0  0
    2.0643   -1.6126   -1.1923 H   0  0  0  0  0  0  0  0  0  0  0  0
   -4.5657   -0.5284    2.4104 H   0  0  0  0  0  0  0  0  0  0  0  0
   -6.1869   -0.2285    1.7075 H   0  0  0  0  0  0  0  0  0  0  0  0
   -3.7534    2.2106   -0.4387 H   0  0  0  0  0  0  0  0  0  0  0  0
   -3.6277    2.2657    1.3163 H   0  0  0  0  0  0  0  0  0  0  0  0
   -3.9316   -3.6242   -2.4130 H   0  0  0  0  0  0  0  0  0  0  0  0
   -4.0373   -2.5454   -3.8279 H   0  0  0  0  0  0  0  0  0  0  0  0
    0.5894    2.2717   -0.1219 H   0  0  0  0  0  0  0  0  0  0  0  0
    3.4524    1.0937   -1.4791 H   0  0  0  0  0  0  0  0  0  0  0  0
   -4.3916    1.8245    3.1271 H   0  0  0  0  0  0  0  0  0  0  0  0
   -6.2686    2.3952   -0.2437 H   0  0  0  0  0  0  0  0  0  0  0  0
   -5.2624    3.7412    0.5084 H   0  0  0  0  0  0  0  0  0  0  0  0
   -5.9568   -4.3041   -3.2911 H   0  0  0  0  0  0  0  0  0  0  0  0
   -6.5386   -3.1049   -2.1047 H   0  0  0  0  0  0  0  0  0  0  0  0
   -6.3510   -2.6867   -3.9089 H   0  0  0  0  0  0  0  0  0  0  0  0
    3.8922   -1.1660    0.3987 H   0  0  0  0  0  0  0  0  0  0  0  0
    4.1663   -0.3286   -3.0323 H   0  0  0  0  0  0  0  0  0  0  0  0
   -6.2036    3.4180    2.5180 H   0  0  0  0  0  0  0  0  0  0  0  0
   -7.1802    2.0789    1.8420 H   0  0  0  0  0  0  0  0  0  0  0  0
   -6.4610    1.8925    4.3256 H   0  0  0  0  0  0  0  0  0  0  0  0
   -5.4917    0.5502    4.5622 H   0  0  0  0  0  0  0  0  0  0  0  0
    5.1803    1.4129    0.0140 H   0  0  0  0  0  0  0  0  0  0  0  0
    6.4055   -0.9910   -2.3824 H   0  0  0  0  0  0  0  0  0  0  0  0
    5.7300   -1.5662   -0.0883 H   0  0  0  0  0  0  0  0  0  0  0  0
    5.0399   -0.6153    2.3079 H   0  0  0  0  0  0  0  0  0  0  0  0
    4.7423    1.1414    2.3860 H   0  0  0  0  0  0  0  0  0  0  0  0
    6.2894    1.1310   -3.2910 H   0  0  0  0  0  0  0  0  0  0  0  0
    5.3004    1.8364   -1.9758 H   0  0  0  0  0  0  0  0  0  0  0  0
    7.0180    1.4538   -1.6991 H   0  0  0  0  0  0  0  0  0  0  0  0
    7.8816   -1.2423    0.5160 H   0  0  0  0  0  0  0  0  0  0  0  0
    8.1732   -0.0942   -0.8329 H   0  0  0  0  0  0  0  0  0  0  0  0
    6.8971    1.5448    2.8700 H   0  0  0  0  0  0  0  0  0  0  0  0
    7.1869   -0.2151    2.9136 H   0  0  0  0  0  0  0  0  0  0  0  0
    8.7690    0.6658    1.4119 H   0  0  0  0  0  0  0  0  0  0  0  0
    7.5635    1.8132    0.6531 H   0  0  0  0  0  0  0  0  0  0  0  0
   -1.5306    1.3730   -1.1427 H   0  0  0  0  0  0  0  0  0  0  0  0
   -1.3427    1.6282    1.0540 H   0  0  0  0  0  0  0  0  0  0  0  0
   -0.2004    0.0561   -2.4191 H   0  0  0  0  0  0  0  0  0  0  0  0
   -3.7471   -1.4049    0.5976 H   0  0  0  0  0  0  0  0  0  0  0  0
   -2.4385   -2.2556   -1.4871 H   0  0  0  0  0  0  0  0  0  0  0  0
   -2.6429   -0.9395   -2.7873 H   0  0  0  0  0  0  0  0  0  0  0  0
   -2.7000    0.2460    2.2858 H   0  0  0  0  0  0  0  0  0  0  0  0
    0.0024   -2.0328   -2.3081 H   0  0  0  0  0  0  0  0  0  0  0  0
   -4.8146   -2.0658   -0.9298 H   0  0  0  0  0  0  0  0  0  0  0  0
   -4.9896   -0.8222   -2.2858 H   0  0  0  0  0  0  0  0  0  0  0  0
    1.9216    0.0959    1.0718 H   0  0  0  0  0  0  0  0  0  0  0  0
   -0.2744   -2.1062    1.2717 H   0  0  0  0  0  0  0  0  0  0  0  0
    0.9356   -1.3591    2.3906 H   0  0  0  0  0  0  0  0  0  0  0  0
   -0.8251   -1.2392    2.7158 H   0  0  0  0  0  0  0  0  0  0  0  0
    1.9215   -0.5579   -2.5894 H   0  0  0  0  0  0  0  0  0  0  0  0
    2.0643   -1.6126   -1.1923 H   0  0  0  0  0  0  0  0  0  0  0  0
   -4.5657   -0.5284    2.4104 H   0  0  0  0  0  0  0  0  0  0  0  0
   -6.1869   -0.2285    1.7075 H   0  0  0  0  0  0  0  0  0  0  0  0
   -3.7534    2.2106   -0.4387 H   0  0  0  0  0  0  0  0  0  0  0  0
   -3.6277    2.2657    1.3163 H   0  0  0  0  0  0  0  0  0  0  0  0
   -3.9316   -3.6242   -2.4130 H   0  0  0  0  0  0  0  0  0  0  0  0
   -4.0373   -2.5454   -3.8279 H   0  0  0  0  0  0  0  0  0  0  0  0
    0.5894    2.2717   -0.1219 H   0  0  0  0  0  0  0  0  0  0  0  0
    3.4524    1.0937   -1.4791 H   0  0  0  0  0  0  0  0  0  0  0  0
   -4.3916    1.8245    3.1271 H   0  0  0  0  0  0  0  0  0  0  0  0
   -6.2686    2.3952   -0.2437 H   0  0  0  0  0  0  0  0  0  0  0  0
   -5.2624    3.7412    0.5084 H   0  0  0  0  0  0  0  0  0  0  0  0
   -5.9568   -4.3041   -3.2911 H   0  0  0  0  0  0  0  0  0  0  0  0
   -6.5386   -3.1049   -2.1047 H   0  0  0  0  0  0  0  0  0  0  0  0
   -6.3510   -2.6867   -3.9089 H   0  0  0  0  0  0  0  0  0  0  0  0
    3.8922   -1.1660    0.3987 H   0  0  0  0  0  0  0  0  0  0  0  0
    4.1663   -0.3286   -3.0323 H   0  0  0  0  0  0  0  0  0  0  0  0
   -6.2036    3.4180    2.5180 H   0  0  0  0  0  0  0  0  0  0  0  0
   -7.1802    2.0789    1.8420 H   0  0  0  0  0  0  0  0  0  0  0  0
   -6.4610    1.8925    4.3256 H   0  0  0  0  0  0  0  0  0  0  0  0
   -5.4917    0.5502    4.5622 H   0  0  0  0  0  0  0  0  0  0  0  0
    5.1803    1.4129    0.0140 H   0  0  0  0  0  0  0  0  0  0  0  0
    6.4055   -0.9910   -2.3824 H   0  0  0  0  0  0  0  0  0  0  0  0
    5.7300   -1.5662   -0.0883 H   0  0  0  0  0  0  0  0  0  0  0  0
    5.0399   -0.6153    2.3079 H   0  0  0  0  0  0  0  0  0  0  0  0
    4.7423    1.1414    2.3860 H   0  0  0  0  0  0  0  0  0  0  0  0
    6.2894    1.1310   -3.2910 H   0  0  0  0  0  0  0  0  0  0  0  0
    5.3004    1.8364   -1.9758 H   0  0  0  0  0  0  0  0  0  0  0  0
    7.0180    1.4538   -1.6991 H   0  0  0  0  0  0  0  0  0  0  0  0
    7.8816   -1.2423    0.5160 H   0  0  0  0  0  0  0  0  0  0  0  0
    8.1732   -0.0942   -0.8329 H   0  0  0  0  0  0  0  0  0  0  0  0
    6.8971    1.5448    2.8700 H   0  0  0  0  0  0  0  0  0  0  0  0
    7.1869   -0.2151    2.9136 H   0  0  0  0  0  0  0  0  0  0  0  0
    8.7690    0.6658    1.4119 H   0  0  0  0  0  0  0  0  0  0  0  0
    7.5635    1.8132    0.6531 H   0  0  0  0  0  0  0  0  0  0  0  0
  1  2  1  0
  1  3  1  0
  1  4  1  0
  2  5  1  0
  2  6  1  0
  3  7  1  0
  5  7  1  0
  3  8  1  0
  4  9  1  0
  4 10  1  0
  5 11  1  0
  6 12  1  0
  8 13  1  0
  9 13  1  0
  8 14  1  0
  9 15  1  0
 11 16  1  0
 11 17  1  0
 12 18  1  0
 13 19  1  0
 15 20  1  0
 16 21  1  0
 17 22  1  0
 18 23  1  0
 20 24  1  0
 20 25  1  0
 21 26  1  0
 22 26  1  0
 21 27  1  0
 24 28  1  0
 25 29  1  0
 28 30  1  0
 29 30  1  0
 28 31  1  0
 29 32  1  0
 30 33  1  0
 31 34  1  0
 33 35  1  0
 34 35  1  0
 36 37  1  0
 36 38  1  0
 36 39  1  0
 37 40  1  0
 37 41  1  0
 38 42  1  0
 40 42  1  0
 38 43  1  0
 39 44  1  0
 39 45  1  0
 40 46  1  0
 41 47  1  0
 43 48  1  0
 44 48  1  0
 43 49  1  0
 44 50  1  0
 46 51  1  0
 46 52  1  0
 47 53  1  0
 48 54  1  0
 50 55  1  0
 51 56  1  0
 52 57  1  0
 53 58  1  0
 55 59  1  0
 55 60  1  0
 56 61  1  0
 57 61  1  0
 56 62  1  0
 59 63  1  0
 60 64  1  0
 63 65  1  0
 64 65  1  0
 63 66  1  0
 64 67  1  0
 65 68  1  0
 66 69  1  0
 68 70  1  0
 69 70  1  0
  1 71  1  0
  3 72  1  0
  4 73  1  0
  5 74  1  0
  6 75  1  0
  6 76  1  0
  7 77  1  0
 10 78  1  0
 12 79  1  0
 12 80  1  0
 13 81  1  0
 14 82  1  0
 14 83  1  0
 14 84  1  0
 15 85  1  0
 15 86  1  0
 16 87  1  0
 16 88  1  0
 17 89  1  0
 17 90  1  0
 18 91  1  0
 18 92  1  0
 19 93  1  0
 20 94  1  0
 21 95  1  1
 22 96  1  0
 22 97  1  0
 23 98  1  0
 23 99  1  0
 23100  1  0
 24101  1  0
 25102  1  0
 26103  1  0
 26104  1  0
 27105  1  0
 27106  1  0
 28107  1  0
 29108  1  0
 30109  1  0
 31110  1  0
 31111  1  0
 32112  1  0
 32113  1  0
 32114  1  0
 33115  1  0
 33116  1  0
 34117  1  0
 34118  1  0
 35119  1  0
 35120  1  0
 36121  1  0
 38122  1  0
 39123  1  0
 40124  1  0
 41125  1  0
 41126  1  0
 42127  1  0
 45128  1  0
 47129  1  0
 47130  1  0
 48131  1  0
 49132  1  0
 49133  1  0
 49134  1  0
 50135  1  0
 50136  1  0
 51137  1  0
 51138  1  0
 52139  1  0
 52140  1  0
 53141  1  0
 53142  1  0
 54143  1  0
 55144  1  0
 56145  1  1
 57146  1  0
 57147  1  0
 58148  1  0
 58149  1  0
 58150  1  0
 59151  1  0
 60152  1  0
 61153  1  0
 61154  1  0
 62155  1  0
 62156  1  0
 63157  1  0
 64158  1  0
 65159  1  0
 66160  1  0
 66161  1  0
 67162  1  0
 67163  1  0
 67164  1  0
 68165  1  0
 68166  1  0
 69167  1  0
 69168  1  0
 70169  1  0
 70170  1  0
M  END
>  <PDBID>  (1) 
2RGU

>  <PDB ID>  (1) 
2RGU

>  <Generic Name>  (1) 
Linagliptin

>  <Brand Name>  (1) 
Glyxambi#Jentadueto#Jentadueto XR#Tradjenta#Trajenta

>  <DrugBank ID>  (1) 
DB08882

>  <ATC Codes>  (1) 
A10BH05#A10BD19#A10BD11

>  <Ligand ID>  (1) 
356

>  <Target Name>  (1) 
Dipeptidyl peptidase 4

>  <UniProt ID>  (1) 
P27487

>  <PDB ID.1>  (1) 
2RGU

>  <Seq. Identity>  (1) 
100%

$$$$
