PDB_DB00990_08
     RDKit          3D

 56 59  0  0  0  0  0  0  0  0999 V2000
   -2.1603    2.8006   -0.8841 C   0  0  0  0  0  0  0  0  0  0  0  0
   -2.2106   -0.7988    1.2794 C   0  0  0  0  0  0  0  0  0  0  0  0
   -5.3989    0.0257    0.6386 O   0  0  0  0  0  0  0  0  0  0  0  0
   -3.5694   -1.3733    1.0123 C   0  0  0  0  0  0  0  0  0  0  0  0
    5.1709   -0.9311    0.8252 O   0  0  0  0  0  0  0  0  0  0  0  0
   -4.2594   -0.5231   -0.0003 C   0  0  0  0  0  0  0  0  0  0  0  0
   -3.4684    0.6194   -0.5173 C   0  0  0  0  0  0  0  0  0  0  0  0
   -2.0314    0.2821   -0.8857 C   0  0  0  0  0  0  0  0  0  0  0  0
   -1.3024    1.5776   -1.0275 C   0  0  0  0  0  0  0  0  0  0  0  0
   -0.1629    1.7387   -0.0157 C   0  0  0  0  0  0  0  0  0  0  0  0
    0.7391    0.5453   -0.3099 C   0  0  2  0  0  0  0  0  0  0  0  0
    0.0074   -0.6474    0.2967 C   0  0  1  0  0  0  0  0  0  0  0  0
   -1.4108   -0.7494   -0.0343 C   0  0  1  0  0  0  0  0  0  0  0  0
    0.8451   -1.8710   -0.0939 C   0  0  0  0  0  0  0  0  0  0  0  0
    2.1799   -1.7973    0.6655 C   0  0  0  0  0  0  0  0  0  0  0  0
    2.8714   -0.5646    0.2045 C   0  0  1  0  0  0  0  0  0  0  0  0
    2.0096    0.6870    0.4166 C   0  0  1  0  0  0  0  0  0  0  0  0
    2.9451    1.7372   -0.0294 C   0  0  0  0  0  0  0  0  0  0  0  0
    4.2628    1.2893    0.6189 C   0  0  0  0  0  0  0  0  0  0  0  0
    4.0577   -0.1560    1.0234 C   0  0  0  0  0  0  0  0  0  0  0  0
    3.3103   -0.7069   -1.2225 C   0  0  0  0  0  0  0  0  0  0  0  0
   -1.6417   -2.1390   -0.6573 C   0  0  0  0  0  0  0  0  0  0  0  0
   -3.0776    2.7973   -1.4679 H   0  0  0  0  0  0  0  0  0  0  0  0
   -2.3186    3.0841    0.1981 H   0  0  0  0  0  0  0  0  0  0  0  0
   -1.5453    3.6616   -1.2840 H   0  0  0  0  0  0  0  0  0  0  0  0
   -1.6590   -1.5197    1.9235 H   0  0  0  0  0  0  0  0  0  0  0  0
   -2.3037    0.1974    1.7295 H   0  0  0  0  0  0  0  0  0  0  0  0
   -5.4848    0.9808    0.4915 H   0  0  0  0  0  0  0  0  0  0  0  0
   -4.1014   -1.3965    2.0086 H   0  0  0  0  0  0  0  0  0  0  0  0
   -3.5420   -2.4105    0.6702 H   0  0  0  0  0  0  0  0  0  0  0  0
    5.2580   -1.3211   -0.0595 H   0  0  0  0  0  0  0  0  0  0  0  0
   -4.6996   -1.1184   -0.8540 H   0  0  0  0  0  0  0  0  0  0  0  0
   -3.5408    1.4537    0.1964 H   0  0  0  0  0  0  0  0  0  0  0  0
   -3.9987    0.9813   -1.4486 H   0  0  0  0  0  0  0  0  0  0  0  0
   -2.1088   -0.1455   -1.9328 H   0  0  0  0  0  0  0  0  0  0  0  0
   -0.7889    1.6745   -2.0306 H   0  0  0  0  0  0  0  0  0  0  0  0
   -0.5327    1.7265    1.0120 H   0  0  0  0  0  0  0  0  0  0  0  0
    0.3169    2.6951   -0.2137 H   0  0  0  0  0  0  0  0  0  0  0  0
    0.8166    0.4725   -1.3976 H   0  0  0  0  0  0  0  0  0  0  0  0
    0.1845   -0.5487    1.4098 H   0  0  0  0  0  0  0  0  0  0  0  0
    1.1034   -1.7690   -1.1535 H   0  0  0  0  0  0  0  0  0  0  0  0
    0.3840   -2.8106    0.2002 H   0  0  0  0  0  0  0  0  0  0  0  0
    2.7604   -2.6714    0.3091 H   0  0  0  0  0  0  0  0  0  0  0  0
    2.0361   -1.8728    1.7503 H   0  0  0  0  0  0  0  0  0  0  0  0
    1.8181    0.7843    1.4936 H   0  0  0  0  0  0  0  0  0  0  0  0
    3.0708    1.7831   -1.1283 H   0  0  0  0  0  0  0  0  0  0  0  0
    2.6393    2.7297    0.3461 H   0  0  0  0  0  0  0  0  0  0  0  0
    4.4087    1.9369    1.5262 H   0  0  0  0  0  0  0  0  0  0  0  0
    5.0676    1.4147   -0.1104 H   0  0  0  0  0  0  0  0  0  0  0  0
    3.7407   -0.1578    2.0910 H   0  0  0  0  0  0  0  0  0  0  0  0
    4.2145   -0.0703   -1.3912 H   0  0  0  0  0  0  0  0  0  0  0  0
    2.5625   -0.4127   -1.9656 H   0  0  0  0  0  0  0  0  0  0  0  0
    3.6090   -1.7371   -1.4282 H   0  0  0  0  0  0  0  0  0  0  0  0
   -1.6488   -2.9270    0.1225 H   0  0  0  0  0  0  0  0  0  0  0  0
   -0.8367   -2.3345   -1.4174 H   0  0  0  0  0  0  0  0  0  0  0  0
   -2.5865   -2.1952   -1.1979 H   0  0  0  0  0  0  0  0  0  0  0  0
  2  4  1  0
  3  6  1  0
  4  6  1  0
  6  7  1  0
  7  8  1  0
  1  9  1  0
  8  9  1  0
  9 10  1  0
 10 11  1  0
 11 12  1  0
  2 13  1  0
  8 13  1  0
 12 13  1  0
 12 14  1  0
 14 15  1  0
 15 16  1  0
 11 17  1  0
 16 17  1  0
 17 18  1  0
 18 19  1  0
  5 20  1  0
 16 20  1  0
 19 20  1  0
 16 21  1  6
 13 22  1  6
  1 23  1  0
  1 24  1  0
  1 25  1  0
  2 26  1  0
  2 27  1  0
  3 28  1  0
  4 29  1  0
  4 30  1  0
  5 31  1  0
  6 32  1  0
  7 33  1  0
  7 34  1  0
  8 35  1  0
  9 36  1  0
 10 37  1  0
 10 38  1  0
 11 39  1  6
 12 40  1  1
 14 41  1  0
 14 42  1  0
 15 43  1  0
 15 44  1  0
 17 45  1  1
 18 46  1  0
 18 47  1  0
 19 48  1  0
 19 49  1  0
 20 50  1  0
 21 51  1  0
 21 52  1  0
 21 53  1  0
 22 54  1  0
 22 55  1  0
 22 56  1  0
M  END
>  <PDBID>  (1) 
3S7S

>  <PDB ID>  (1) 
3S7S

>  <Generic Name>  (1) 
Exemestane

>  <Brand Name>  (1) 
Act Exemestane#Apo-exemestane#Aromasin#Exemestane#Gd-exemestane#Med-exemestane#Mylan-exemestane#Teva-exemestane#Exemestance

>  <DrugBank ID>  (1) 
DB00990

>  <ATC Codes>  (1) 
L02BG06

>  <Ligand ID>  (1) 
EXM

>  <Target Name>  (1) 
Aromatase

>  <UniProt ID>  (1) 
P11511

>  <PDB ID.1>  (1) 
3S7S

>  <Seq. Identity>  (1) 
98%

$$$$
