PDB_DB06290_06
     RDKit          3D

492516  0  0  0  0  0  0  0  0999 V2000
    0.3371   -1.8793    0.2762 C   0  0  0  0  0  0  0  0  0  0  0  0
   -1.1694   -1.5706    0.3002 C   0  0  2  0  0  0  0  0  0  0  0  0
   -1.1638   -0.2913    1.0600 C   0  0  1  0  0  0  0  0  0  0  0  0
   -0.0521    0.4765    0.3456 C   0  0  0  0  0  0  0  0  0  0  0  0
    0.8510   -0.5669   -0.2796 C   0  0  1  0  0  0  0  0  0  0  0  0
   -2.4467    0.4593    1.1118 C   0  0  1  0  0  0  0  0  0  0  0  0
   -2.1331    1.7620    1.5759 O   0  0  0  0  0  0  0  0  0  0  0  0
   -3.1346    0.5935   -0.1005 N   0  0  0  0  0  0  0  0  0  0  0  0
   -1.9541   -2.6810    0.9259 C   0  0  0  0  0  0  0  0  0  0  0  0
   -2.4738   -2.3610    2.1640 O   0  0  0  0  0  0  0  0  0  0  0  0
   -5.2175   -0.2141    0.6061 C   0  0  1  0  0  0  0  0  0  0  0  0
   -5.0283    1.4284   -1.3773 C   0  0  0  0  0  0  0  0  0  0  0  0
   -3.0668   -3.0998    0.0746 N   0  0  0  0  0  0  0  0  0  0  0  0
   -3.5353   -4.4089    0.4006 C   0  0  0  0  0  0  0  0  0  0  0  0
   -2.6228   -3.1421   -1.3297 C   0  0  0  0  0  0  0  0  0  0  0  0
   -4.5191    0.9688   -0.0211 C   0  0  2  0  0  0  0  0  0  0  0  0
   -5.3139    1.1577    1.1624 C   0  0  0  0  0  0  0  0  0  0  0  0
   -6.3385   -0.7517   -0.2154 C   0  0  0  0  0  0  0  0  0  0  0  0
   -4.3959   -4.5133    1.6032 C   0  0  0  0  0  0  0  0  0  0  0  0
   -5.6063   -3.6670    1.6403 C   0  0  0  0  0  0  0  0  0  0  0  0
   -6.1330   -3.2003    0.3258 C   0  0  0  0  0  0  0  0  0  0  0  0
   -6.9388   -1.9269    0.5256 C   0  0  0  0  0  0  0  0  0  0  0  0
    2.1822   -0.3444   -0.0156 O   0  0  0  0  0  0  0  0  0  0  0  0
    5.5375   -3.4087   -0.2118 C   0  0  0  0  0  0  0  0  0  0  0  0
    4.0468   -3.6786   -0.4543 C   0  0  0  0  0  0  0  0  0  0  0  0
    3.6087   -2.6202   -1.4649 C   0  0  0  0  0  0  0  0  0  0  0  0
    4.0686   -1.2495   -1.1055 C   0  0  0  0  0  0  0  0  0  0  0  0
    4.6441   -1.1091    0.2641 C   0  0  0  0  0  0  0  0  0  0  0  0
    5.5976   -2.1778    0.6657 C   0  0  0  0  0  0  0  0  0  0  0  0
    2.9157   -0.2409   -1.1963 C   0  0  0  0  0  0  0  0  0  0  0  0
    3.6078    1.1298   -1.1496 C   0  0  0  0  0  0  0  0  0  0  0  0
    4.2774    1.1984    0.2017 C   0  0  1  0  0  0  0  0  0  0  0  0
    5.2993    0.2076    0.3196 N   0  0  0  0  0  0  0  0  0  0  0  0
    4.7594    2.5897    0.5201 C   0  0  1  0  0  0  0  0  0  0  0  0
    5.5574    2.5803    2.1763 S   0  0  0  0  0  0  0  0  0  0  0  0
    7.0271    3.5881    1.7169 C   0  0  0  0  0  0  0  0  0  0  0  0
    6.5692    4.0522    0.3267 C   0  0  2  0  0  0  0  0  0  0  0  0
    5.9034    2.9542   -0.2958 N   0  0  0  0  0  0  0  0  0  0  0  0
    7.7828    4.3993   -0.4679 C   0  0  0  0  0  0  0  0  0  0  0  0
    7.3501    4.8590   -1.8429 C   0  0  0  0  0  0  0  0  0  0  0  0
    8.5411    5.5040    0.1992 C   0  0  0  0  0  0  0  0  0  0  0  0
    6.1263   -3.1059   -1.4294 O   0  0  0  0  0  0  0  0  0  0  0  0
    7.1495   -4.0263   -1.6478 C   0  0  0  0  0  0  0  0  0  0  0  0
    5.1915   -2.6414    2.0717 C   0  0  0  0  0  0  0  0  0  0  0  0
   -6.3357    2.0580   -1.3271 N   0  0  0  0  0  0  0  0  0  0  0  0
   -4.1679    2.4967   -1.7887 O   0  0  0  0  0  0  0  0  0  0  0  0
   -6.2182    3.7140   -0.8401 S   0  0  0  0  0  0  0  0  0  0  0  0
   -7.8016    4.1066   -0.1479 C   0  0  0  0  0  0  0  0  0  0  0  0
   -5.0900    3.7521    0.3041 O   0  0  0  0  0  0  0  0  0  0  0  0
   -5.9379    4.6523   -1.9635 O   0  0  0  0  0  0  0  0  0  0  0  0
   -8.6888    3.0840    0.3932 C   0  0  0  0  0  0  0  0  0  0  0  0
   -8.9922    3.7339   -0.9732 C   0  0  0  0  0  0  0  0  0  0  0  0
    0.4146   -1.6441    0.4551 C   0  0  0  0  0  0  0  0  0  0  0  0
   -1.0949   -1.4382    0.6479 C   0  0  2  0  0  0  0  0  0  0  0  0
   -1.0962   -0.1236    1.3958 C   0  0  1  0  0  0  0  0  0  0  0  0
    0.1057    0.6491    0.8460 C   0  0  0  0  0  0  0  0  0  0  0  0
    0.8112   -0.2944   -0.1049 C   0  0  1  0  0  0  0  0  0  0  0  0
   -2.3033    0.7209    1.1444 C   0  0  0  0  0  0  0  0  0  0  0  0
   -2.9970    0.9679    2.3457 O   0  0  0  0  0  0  0  0  0  0  0  0
   -3.1178    0.1079    0.1406 N   0  0  0  0  0  0  0  0  0  0  0  0
   -1.6885   -2.5754    1.4406 C   0  0  0  0  0  0  0  0  0  0  0  0
   -2.3013   -2.0558    2.5721 O   0  0  0  0  0  0  0  0  0  0  0  0
   -5.3325   -0.7598    0.1448 C   0  0  1  0  0  0  0  0  0  0  0  0
   -4.8714    1.7692   -0.3303 C   0  0  2  0  0  0  0  0  0  0  0  0
   -2.6638   -3.3396    0.7072 N   0  0  0  0  0  0  0  0  0  0  0  0
   -3.7043   -3.8523    1.5516 C   0  0  0  0  0  0  0  0  0  0  0  0
   -2.1231   -4.3981   -0.0847 C   0  0  0  0  0  0  0  0  0  0  0  0
   -4.5428    0.4574    0.2808 C   0  0  2  0  0  0  0  0  0  0  0  0
   -5.1933   -0.0716    1.4818 C   0  0  0  0  0  0  0  0  0  0  0  0
   -6.6475   -0.6643   -0.5613 C   0  0  0  0  0  0  0  0  0  0  0  0
   -4.8353   -4.4756    0.8101 C   0  0  0  0  0  0  0  0  0  0  0  0
   -6.1211   -3.6881    0.9129 C   0  0  0  0  0  0  0  0  0  0  0  0
   -6.6093   -3.1845   -0.4092 C   0  0  0  0  0  0  0  0  0  0  0  0
   -7.4503   -1.9439   -0.2842 C   0  0  0  0  0  0  0  0  0  0  0  0
    2.1776   -0.0670    0.0097 O   0  0  0  0  0  0  0  0  0  0  0  0
    5.2869   -3.1514   -0.6991 C   0  0  0  0  0  0  0  0  0  0  0  0
    3.7861   -3.2356   -0.8795 C   0  0  0  0  0  0  0  0  0  0  0  0
    3.3882   -2.1067   -1.8073 C   0  0  0  0  0  0  0  0  0  0  0  0
    3.9073   -0.7803   -1.3756 C   0  0  0  0  0  0  0  0  0  0  0  0
    4.6228   -0.8136   -0.0434 C   0  0  0  0  0  0  0  0  0  0  0  0
    5.5980   -1.9312    0.0988 C   0  0  0  0  0  0  0  0  0  0  0  0
    2.7891    0.2599   -1.1996 C   0  0  0  0  0  0  0  0  0  0  0  0
    3.5132    1.6007   -1.0958 C   0  0  0  0  0  0  0  0  0  0  0  0
    4.5268    1.5993   -0.0040 C   0  0  0  0  0  0  0  0  0  0  0  0
    5.3701    0.4384    0.0453 N   0  0  0  0  0  0  0  0  0  0  0  0
    5.4666    2.7980   -0.1987 C   0  0  0  0  0  0  0  0  0  0  0  0
    6.2554    2.5752   -1.8428 S   0  0  0  0  0  0  0  0  0  0  0  0
    7.9511    2.3570   -1.2064 C   0  0  0  0  0  0  0  0  0  0  0  0
    7.7794    2.9751    0.1634 C   0  0  0  0  0  0  0  0  0  0  0  0
    6.5355    2.6516    0.7131 N   0  0  0  0  0  0  0  0  0  0  0  0
    8.1529    4.4293    0.1476 C   0  0  0  0  0  0  0  0  0  0  0  0
    7.3585    5.2788   -0.7778 C   0  0  0  0  0  0  0  0  0  0  0  0
    8.0919    5.0284    1.5341 C   0  0  0  0  0  0  0  0  0  0  0  0
    5.9168   -3.0066   -1.9482 O   0  0  0  0  0  0  0  0  0  0  0  0
    6.8548   -4.0397   -2.0671 C   0  0  0  0  0  0  0  0  0  0  0  0
    5.6128   -2.3289    1.5807 C   0  0  0  0  0  0  0  0  0  0  0  0
   -6.1966    2.2522   -0.0512 N   0  0  0  0  0  0  0  0  0  0  0  0
   -4.5921    1.7808   -1.6800 O   0  0  0  0  0  0  0  0  0  0  0  0
   -6.3938    3.7715   -0.8391 S   0  0  0  0  0  0  0  0  0  0  0  0
   -8.0740    4.0726   -0.9432 C   0  0  0  0  0  0  0  0  0  0  0  0
   -5.8084    4.9181    0.2441 O   0  0  0  0  0  0  0  0  0  0  0  0
   -5.6406    3.8658   -2.1562 O   0  0  0  0  0  0  0  0  0  0  0  0
   -8.8480    3.8440    0.3628 C   0  0  0  0  0  0  0  0  0  0  0  0
   -9.0973    3.0252   -0.8772 C   0  0  0  0  0  0  0  0  0  0  0  0
    0.4169   -1.4542    0.2826 C   0  0  0  0  0  0  0  0  0  0  0  0
   -1.0787   -1.2197    0.4551 C   0  0  2  0  0  0  0  0  0  0  0  0
   -1.1007    0.1789    1.0285 C   0  0  1  0  0  0  0  0  0  0  0  0
    0.1368    0.8718    0.4817 C   0  0  0  0  0  0  0  0  0  0  0  0
    0.8624   -0.1686   -0.3702 C   0  0  1  0  0  0  0  0  0  0  0  0
   -2.3508    0.9433    0.6582 C   0  0  0  0  0  0  0  0  0  0  0  0
   -2.9605    1.5057    1.7824 O   0  0  0  0  0  0  0  0  0  0  0  0
   -3.2727    0.2037   -0.1427 N   0  0  0  0  0  0  0  0  0  0  0  0
   -1.5539   -2.2702    1.4340 C   0  0  0  0  0  0  0  0  0  0  0  0
   -1.9163   -1.6073    2.6055 O   0  0  0  0  0  0  0  0  0  0  0  0
   -5.4173   -0.6985    0.3655 C   0  0  1  0  0  0  0  0  0  0  0  0
   -5.1392    1.7609   -0.4990 C   0  0  2  0  0  0  0  0  0  0  0  0
   -2.6303   -3.0640    0.9373 N   0  0  0  0  0  0  0  0  0  0  0  0
   -3.5188   -3.5770    1.9558 C   0  0  0  0  0  0  0  0  0  0  0  0
   -2.2504   -4.1465    0.0750 C   0  0  0  0  0  0  0  0  0  0  0  0
   -4.6718    0.5434    0.1951 C   0  0  2  0  0  0  0  0  0  0  0  0
   -5.0377    0.1600    1.5707 C   0  0  0  0  0  0  0  0  0  0  0  0
   -6.8547   -0.7117   -0.0657 C   0  0  0  0  0  0  0  0  0  0  0  0
   -4.7208   -4.2587    1.4148 C   0  0  0  0  0  0  0  0  0  0  0  0
   -6.0070   -3.4922    1.5834 C   0  0  0  0  0  0  0  0  0  0  0  0
   -6.7020   -3.2076    0.2897 C   0  0  0  0  0  0  0  0  0  0  0  0
   -7.5582   -1.9891    0.3493 C   0  0  0  0  0  0  0  0  0  0  0  0
    2.2380    0.0280   -0.2991 O   0  0  0  0  0  0  0  0  0  0  0  0
    5.3905   -3.0883   -0.7179 C   0  0  0  0  0  0  0  0  0  0  0  0
    3.8844   -3.2059   -0.8025 C   0  0  0  0  0  0  0  0  0  0  0  0
    3.4217   -2.2081   -1.8591 C   0  0  0  0  0  0  0  0  0  0  0  0
    3.9703   -0.8472   -1.5995 C   0  0  0  0  0  0  0  0  0  0  0  0
    4.6255   -0.7777   -0.2300 C   0  0  0  0  0  0  0  0  0  0  0  0
    5.7558   -1.7675   -0.1047 C   0  0  0  0  0  0  0  0  0  0  0  0
    2.8441    0.1662   -1.5477 C   0  0  0  0  0  0  0  0  0  0  0  0
    3.5346    1.5181   -1.5737 C   0  0  0  0  0  0  0  0  0  0  0  0
    4.7240    1.6123   -0.6884 C   0  0  0  0  0  0  0  0  0  0  0  0
    4.9574    0.5316    0.2005 N   0  0  0  0  0  0  0  0  0  0  0  0
    6.0060    1.9046   -1.4293 C   0  0  0  0  0  0  0  0  0  0  0  0
    5.8971    3.4952   -2.3423 S   0  0  0  0  0  0  0  0  0  0  0  0
    7.0947    4.4253   -1.2967 C   0  0  0  0  0  0  0  0  0  0  0  0
    7.0666    3.4921   -0.0759 C   0  0  1  0  0  0  0  0  0  0  0  0
    7.1128    2.1584   -0.5609 N   0  0  0  0  0  0  0  0  0  0  0  0
    8.3225    3.7639    0.7185 C   0  0  0  0  0  0  0  0  0  0  0  0
    8.3911    5.2060    1.1799 C   0  0  0  0  0  0  0  0  0  0  0  0
    8.3858    2.9040    1.9627 C   0  0  0  0  0  0  0  0  0  0  0  0
    5.8649   -3.1072   -2.0475 O   0  0  0  0  0  0  0  0  0  0  0  0
    6.7116   -4.1971   -2.2475 C   0  0  0  0  0  0  0  0  0  0  0  0
    6.1091   -1.9138    1.3731 C   0  0  0  0  0  0  0  0  0  0  0  0
   -6.4684    2.1864   -0.1420 N   0  0  0  0  0  0  0  0  0  0  0  0
   -5.0683    1.5707   -1.8779 O   0  0  0  0  0  0  0  0  0  0  0  0
   -6.8079    3.6706   -1.0786 S   0  0  0  0  0  0  0  0  0  0  0  0
   -8.5038    3.7734   -1.0144 C   0  0  0  0  0  0  0  0  0  0  0  0
   -6.1394    4.8660   -0.3775 O   0  0  0  0  0  0  0  0  0  0  0  0
   -6.2743    3.3745   -2.5395 O   0  0  0  0  0  0  0  0  0  0  0  0
   -9.1695    3.2476    0.2438 C   0  0  0  0  0  0  0  0  0  0  0  0
   -9.3569    2.5462   -1.0627 C   0  0  0  0  0  0  0  0  0  0  0  0
    0.5667   -1.6911    0.4683 C   0  0  0  0  0  0  0  0  0  0  0  0
   -0.9245   -1.4592    0.7531 C   0  0  2  0  0  0  0  0  0  0  0  0
   -0.8503   -0.1813    1.5596 C   0  0  1  0  0  0  0  0  0  0  0  0
    0.3594    0.5756    1.0202 C   0  0  0  0  0  0  0  0  0  0  0  0
    0.9309   -0.3056   -0.0785 C   0  0  1  0  0  0  0  0  0  0  0  0
   -2.0504    0.7170    1.3583 C   0  0  0  0  0  0  0  0  0  0  0  0
   -2.7519    0.9044    2.5488 O   0  0  0  0  0  0  0  0  0  0  0  0
   -2.8392    0.1938    0.2901 N   0  0  0  0  0  0  0  0  0  0  0  0
   -1.5150   -2.6177    1.5054 C   0  0  0  0  0  0  0  0  0  0  0  0
   -2.0893   -2.1522    2.6838 O   0  0  0  0  0  0  0  0  0  0  0  0
   -5.0269   -0.7405    0.2402 C   0  0  1  0  0  0  0  0  0  0  0  0
   -4.6263    1.8172   -0.1415 C   0  0  0  0  0  0  0  0  0  0  0  0
   -2.4061   -3.4227    0.7152 N   0  0  0  0  0  0  0  0  0  0  0  0
   -3.3447   -4.1782    1.5056 C   0  0  0  0  0  0  0  0  0  0  0  0
   -1.7032   -4.3524   -0.1470 C   0  0  0  0  0  0  0  0  0  0  0  0
   -4.2754    0.4916    0.4273 C   0  0  2  0  0  0  0  0  0  0  0  0
   -4.9187   -0.0847    1.6150 C   0  0  0  0  0  0  0  0  0  0  0  0
   -6.3887   -0.6654   -0.3490 C   0  0  0  0  0  0  0  0  0  0  0  0
   -4.5526   -4.6243    0.7506 C   0  0  0  0  0  0  0  0  0  0  0  0
   -5.7565   -3.7782    0.9232 C   0  0  0  0  0  0  0  0  0  0  0  0
   -6.2708   -3.1861   -0.3674 C   0  0  0  0  0  0  0  0  0  0  0  0
   -7.1330   -1.9928   -0.1424 C   0  0  0  0  0  0  0  0  0  0  0  0
    2.2964   -0.1545   -0.1968 O   0  0  0  0  0  0  0  0  0  0  0  0
    4.9049   -3.5566   -1.2417 C   0  0  0  0  0  0  0  0  0  0  0  0
    3.3821   -3.4485   -1.2006 C   0  0  0  0  0  0  0  0  0  0  0  0
    3.0269   -2.3174   -2.1527 C   0  0  0  0  0  0  0  0  0  0  0  0
    3.7240   -1.0446   -1.8041 C   0  0  0  0  0  0  0  0  0  0  0  0
    4.5739   -1.1590   -0.5564 C   0  0  0  0  0  0  0  0  0  0  0  0
    5.4674   -2.3500   -0.5632 C   0  0  0  0  0  0  0  0  0  0  0  0
    2.7244    0.0839   -1.5061 C   0  0  0  0  0  0  0  0  0  0  0  0
    3.5807    1.3554   -1.5310 C   0  0  0  0  0  0  0  0  0  0  0  0
    4.5872    1.2224   -0.4048 C   0  0  1  0  0  0  0  0  0  0  0  0
    5.3882    0.0391   -0.4881 N   0  0  0  0  0  0  0  0  0  0  0  0
    5.5268    2.4282   -0.4407 C   0  0  1  0  0  0  0  0  0  0  0  0
    4.4580    3.9084   -0.2286 S   0  0  0  0  0  0  0  0  0  0  0  0
    5.3895    4.6457    1.1678 C   0  0  0  0  0  0  0  0  0  0  0  0
    6.6089    3.7700    1.1516 C   0  0  0  0  0  0  0  0  0  0  0  0
    6.2714    2.4535    0.7678 N   0  0  0  0  0  0  0  0  0  0  0  0
    7.7760    4.3763    0.4268 C   0  0  0  0  0  0  0  0  0  0  0  0
    7.5499    4.6952   -1.0044 C   0  0  0  0  0  0  0  0  0  0  0  0
    8.1488    5.6502    1.1583 C   0  0  0  0  0  0  0  0  0  0  0  0
    5.3215   -3.5297   -2.5748 O   0  0  0  0  0  0  0  0  0  0  0  0
    6.0649   -4.6559   -2.8718 C   0  0  0  0  0  0  0  0  0  0  0  0
    5.7355   -2.7250    0.8979 C   0  0  0  0  0  0  0  0  0  0  0  0
   -5.9958    2.2057   -0.0542 N   0  0  0  0  0  0  0  0  0  0  0  0
   -3.8764    2.7868    0.5646 O   0  0  0  0  0  0  0  0  0  0  0  0
   -6.0335    3.8037   -0.8136 S   0  0  0  0  0  0  0  0  0  0  0  0
   -7.7308    4.1806   -0.8720 C   0  0  0  0  0  0  0  0  0  0  0  0
   -5.5339    4.8078    0.5437 O   0  0  0  0  0  0  0  0  0  0  0  0
   -5.2796    4.0050   -1.9444 O   0  0  0  0  0  0  0  0  0  0  0  0
   -8.5588    3.8504    0.3134 C   0  0  0  0  0  0  0  0  0  0  0  0
   -8.7633    3.1416   -0.9838 C   0  0  0  0  0  0  0  0  0  0  0  0
    0.5616   -2.7410   -0.3463 H   0  0  0  0  0  0  0  0  0  0  0  0
    0.7233   -1.9719    1.3208 H   0  0  0  0  0  0  0  0  0  0  0  0
   -1.4412   -1.4007   -0.7492 H   0  0  0  0  0  0  0  0  0  0  0  0
   -0.8039   -0.4244    2.1019 H   0  0  0  0  0  0  0  0  0  0  0  0
   -0.4582    1.0962   -0.4660 H   0  0  0  0  0  0  0  0  0  0  0  0
    0.5082    1.1234    1.0486 H   0  0  0  0  0  0  0  0  0  0  0  0
    0.6860   -0.6099   -1.3945 H   0  0  0  0  0  0  0  0  0  0  0  0
   -3.0506    0.0199    1.9507 H   0  0  0  0  0  0  0  0  0  0  0  0
   -1.8872    1.7570    2.5174 H   0  0  0  0  0  0  0  0  0  0  0  0
   -2.8611    0.0463   -0.9072 H   0  0  0  0  0  0  0  0  0  0  0  0
   -1.2910   -3.5562    1.0517 H   0  0  0  0  0  0  0  0  0  0  0  0
   -1.8373   -2.4872    2.9092 H   0  0  0  0  0  0  0  0  0  0  0  0
   -4.5942   -0.9874    1.0847 H   0  0  0  0  0  0  0  0  0  0  0  0
   -4.9316    0.6342   -2.1036 H   0  0  0  0  0  0  0  0  0  0  0  0
   -2.6166   -5.0352    0.6061 H   0  0  0  0  0  0  0  0  0  0  0  0
   -3.9995   -4.9226   -0.4896 H   0  0  0  0  0  0  0  0  0  0  0  0
   -1.5532   -3.3293   -1.4133 H   0  0  0  0  0  0  0  0  0  0  0  0
   -2.9547   -2.2038   -1.8559 H   0  0  0  0  0  0  0  0  0  0  0  0
   -3.1554   -3.9643   -1.8513 H   0  0  0  0  0  0  0  0  0  0  0  0
   -6.3370    1.5785    1.1082 H   0  0  0  0  0  0  0  0  0  0  0  0
   -4.9074    1.2588    2.1926 H   0  0  0  0  0  0  0  0  0  0  0  0
   -5.9626   -1.0278   -1.2200 H   0  0  0  0  0  0  0  0  0  0  0  0
   -7.1656   -0.0265   -0.3785 H   0  0  0  0  0  0  0  0  0  0  0  0
   -4.6598   -5.5930    1.7285 H   0  0  0  0  0  0  0  0  0  0  0  0
   -3.7509   -4.2879    2.4993 H   0  0  0  0  0  0  0  0  0  0  0  0
   -5.4541   -2.8195    2.3680 H   0  0  0  0  0  0  0  0  0  0  0  0
   -6.4359   -4.2671    2.1208 H   0  0  0  0  0  0  0  0  0  0  0  0
   -5.3842   -3.0797   -0.4642 H   0  0  0  0  0  0  0  0  0  0  0  0
   -6.8664   -3.9611   -0.0758 H   0  0  0  0  0  0  0  0  0  0  0  0
   -6.9500   -1.6576    1.5945 H   0  0  0  0  0  0  0  0  0  0  0  0
   -7.9954   -2.0362    0.2156 H   0  0  0  0  0  0  0  0  0  0  0  0
    5.9777   -4.2669    0.3002 H   0  0  0  0  0  0  0  0  0  0  0  0
    3.9910   -4.6549   -0.9807 H   0  0  0  0  0  0  0  0  0  0  0  0
    3.4635   -3.6475    0.4665 H   0  0  0  0  0  0  0  0  0  0  0  0
    4.1436   -2.9049   -2.4187 H   0  0  0  0  0  0  0  0  0  0  0  0
    2.5352   -2.6974   -1.7082 H   0  0  0  0  0  0  0  0  0  0  0  0
    4.8400   -0.8453   -1.8250 H   0  0  0  0  0  0  0  0  0  0  0  0
    3.7753   -1.0111    0.9785 H   0  0  0  0  0  0  0  0  0  0  0  0
    6.6269   -1.7845    0.7758 H   0  0  0  0  0  0  0  0  0  0  0  0
    2.3302   -0.3538   -2.1065 H   0  0  0  0  0  0  0  0  0  0  0  0
    2.8894    1.9524   -1.2909 H   0  0  0  0  0  0  0  0  0  0  0  0
    4.3729    1.0944   -1.9583 H   0  0  0  0  0  0  0  0  0  0  0  0
    3.4863    0.9513    0.9543 H   0  0  0  0  0  0  0  0  0  0  0  0
    5.9643    0.2006   -0.5050 H   0  0  0  0  0  0  0  0  0  0  0  0
    3.9891    3.3509    0.4370 H   0  0  0  0  0  0  0  0  0  0  0  0
    7.9256    2.9813    1.6372 H   0  0  0  0  0  0  0  0  0  0  0  0
    7.0596    4.4066    2.4379 H   0  0  0  0  0  0  0  0  0  0  0  0
    5.8570    4.8945    0.4049 H   0  0  0  0  0  0  0  0  0  0  0  0
    6.5396    2.1568   -0.4902 H   0  0  0  0  0  0  0  0  0  0  0  0
    8.4457    3.5112   -0.5113 H   0  0  0  0  0  0  0  0  0  0  0  0
    6.7373    5.7656   -1.7138 H   0  0  0  0  0  0  0  0  0  0  0  0
    6.8302    4.0325   -2.3602 H   0  0  0  0  0  0  0  0  0  0  0  0
    8.2848    5.1588   -2.3776 H   0  0  0  0  0  0  0  0  0  0  0  0
    8.2248    5.5804    1.2468 H   0  0  0  0  0  0  0  0  0  0  0  0
    8.2759    6.4618   -0.2880 H   0  0  0  0  0  0  0  0  0  0  0  0
    9.6362    5.3158    0.1815 H   0  0  0  0  0  0  0  0  0  0  0  0
    7.9001   -3.9530   -0.8288 H   0  0  0  0  0  0  0  0  0  0  0  0
    7.6460   -3.7518   -2.6047 H   0  0  0  0  0  0  0  0  0  0  0  0
    6.7694   -5.0703   -1.6932 H   0  0  0  0  0  0  0  0  0  0  0  0
    5.5993   -1.9907    2.8524 H   0  0  0  0  0  0  0  0  0  0  0  0
    4.0836   -2.5876    2.0954 H   0  0  0  0  0  0  0  0  0  0  0  0
    5.4498   -3.7115    2.2044 H   0  0  0  0  0  0  0  0  0  0  0  0
   -6.6756    2.0905   -2.3139 H   0  0  0  0  0  0  0  0  0  0  0  0
   -3.5330    2.6700   -1.0581 H   0  0  0  0  0  0  0  0  0  0  0  0
   -7.8377    5.1590    0.2521 H   0  0  0  0  0  0  0  0  0  0  0  0
   -5.3172    4.1949    1.1470 H   0  0  0  0  0  0  0  0  0  0  0  0
   -5.3138    4.5795   -2.7012 H   0  0  0  0  0  0  0  0  0  0  0  0
   -9.3818    3.4171    1.1980 H   0  0  0  0  0  0  0  0  0  0  0  0
   -8.5279    2.0054    0.3500 H   0  0  0  0  0  0  0  0  0  0  0  0
   -8.8678    3.0922   -1.8604 H   0  0  0  0  0  0  0  0  0  0  0  0
   -9.8256    4.4543   -1.0136 H   0  0  0  0  0  0  0  0  0  0  0  0
    0.6198   -2.4650   -0.2612 H   0  0  0  0  0  0  0  0  0  0  0  0
    0.9069   -1.7730    1.4279 H   0  0  0  0  0  0  0  0  0  0  0  0
   -1.5479   -1.2904   -0.3304 H   0  0  0  0  0  0  0  0  0  0  0  0
   -0.9365   -0.3401    2.4725 H   0  0  0  0  0  0  0  0  0  0  0  0
   -0.1978    1.5372    0.2748 H   0  0  0  0  0  0  0  0  0  0  0  0
    0.7873    0.9084    1.6754 H   0  0  0  0  0  0  0  0  0  0  0  0
    0.4330   -0.1766   -1.1304 H   0  0  0  0  0  0  0  0  0  0  0  0
   -2.0419    1.7536    0.7667 H   0  0  0  0  0  0  0  0  0  0  0  0
   -2.2774    1.2161    3.0008 H   0  0  0  0  0  0  0  0  0  0  0  0
   -2.8078    0.3749   -0.8214 H   0  0  0  0  0  0  0  0  0  0  0  0
   -0.8595   -3.2789    1.7037 H   0  0  0  0  0  0  0  0  0  0  0  0
   -2.1300   -2.6097    3.3688 H   0  0  0  0  0  0  0  0  0  0  0  0
   -4.8025   -1.7130   -0.0572 H   0  0  0  0  0  0  0  0  0  0  0  0
   -4.1699    2.5272    0.1313 H   0  0  0  0  0  0  0  0  0  0  0  0
   -4.0489   -2.9980    2.2005 H   0  0  0  0  0  0  0  0  0  0  0  0
   -3.2903   -4.5888    2.2694 H   0  0  0  0  0  0  0  0  0  0  0  0
   -1.0119   -4.4447   -0.0604 H   0  0  0  0  0  0  0  0  0  0  0  0
   -2.4959   -4.3661   -1.1489 H   0  0  0  0  0  0  0  0  0  0  0  0
   -2.4740   -5.3668    0.3235 H   0  0  0  0  0  0  0  0  0  0  0  0
   -6.1452    0.3276    1.8818 H   0  0  0  0  0  0  0  0  0  0  0  0
   -4.6460   -0.6766    2.2247 H   0  0  0  0  0  0  0  0  0  0  0  0
   -6.5507   -0.5855   -1.6503 H   0  0  0  0  0  0  0  0  0  0  0  0
   -7.3033    0.1561   -0.1784 H   0  0  0  0  0  0  0  0  0  0  0  0
   -4.6302   -4.6098   -0.2772 H   0  0  0  0  0  0  0  0  0  0  0  0
   -5.0081   -5.4958    1.2047 H   0  0  0  0  0  0  0  0  0  0  0  0
   -5.9547   -2.8973    1.6730 H   0  0  0  0  0  0  0  0  0  0  0  0
   -6.9208   -4.3399    1.3539 H   0  0  0  0  0  0  0  0  0  0  0  0
   -5.8195   -3.0710   -1.1766 H   0  0  0  0  0  0  0  0  0  0  0  0
   -7.2943   -3.9780   -0.8331 H   0  0  0  0  0  0  0  0  0  0  0  0
   -7.9456   -1.8796    0.7077 H   0  0  0  0  0  0  0  0  0  0  0  0
   -8.2632   -1.9536   -1.0417 H   0  0  0  0  0  0  0  0  0  0  0  0
    5.6891   -4.0273   -0.1482 H   0  0  0  0  0  0  0  0  0  0  0  0
    3.5405   -4.1972   -1.3748 H   0  0  0  0  0  0  0  0  0  0  0  0
    3.2714   -3.1103    0.0746 H   0  0  0  0  0  0  0  0  0  0  0  0
    3.8731   -2.3511   -2.7982 H   0  0  0  0  0  0  0  0  0  0  0  0
    2.2957   -2.1206   -2.0235 H   0  0  0  0  0  0  0  0  0  0  0  0
    4.6141   -0.3132   -2.1058 H   0  0  0  0  0  0  0  0  0  0  0  0
    3.8489   -0.7873    0.7404 H   0  0  0  0  0  0  0  0  0  0  0  0
    6.6599   -1.6065   -0.1078 H   0  0  0  0  0  0  0  0  0  0  0  0
    2.1106    0.2869   -2.0508 H   0  0  0  0  0  0  0  0  0  0  0  0
    2.7848    2.4066   -0.8899 H   0  0  0  0  0  0  0  0  0  0  0  0
    3.9714    1.7825   -2.0918 H   0  0  0  0  0  0  0  0  0  0  0  0
    4.0543    1.7155    0.9811 H   0  0  0  0  0  0  0  0  0  0  0  0
    6.0375    0.4057   -0.7839 H   0  0  0  0  0  0  0  0  0  0  0  0
    4.8756    3.7050   -0.1418 H   0  0  0  0  0  0  0  0  0  0  0  0
    8.2371    1.2949   -1.1360 H   0  0  0  0  0  0  0  0  0  0  0  0
    8.6785    2.9614   -1.7851 H   0  0  0  0  0  0  0  0  0  0  0  0
    8.5727    2.4748    0.8000 H   0  0  0  0  0  0  0  0  0  0  0  0
    6.5008    1.7722    1.2825 H   0  0  0  0  0  0  0  0  0  0  0  0
    9.2271    4.4913   -0.1754 H   0  0  0  0  0  0  0  0  0  0  0  0
    7.3302    4.8834   -1.8180 H   0  0  0  0  0  0  0  0  0  0  0  0
    6.3588    5.5707   -0.3974 H   0  0  0  0  0  0  0  0  0  0  0  0
    7.9178    6.2571   -0.8744 H   0  0  0  0  0  0  0  0  0  0  0  0
    7.0883    4.8910    1.9526 H   0  0  0  0  0  0  0  0  0  0  0  0
    8.3624    6.1012    1.4631 H   0  0  0  0  0  0  0  0  0  0  0  0
    8.8785    4.5599    2.1703 H   0  0  0  0  0  0  0  0  0  0  0  0
    7.6150   -3.9924   -1.2602 H   0  0  0  0  0  0  0  0  0  0  0  0
    7.4022   -3.8781   -3.0188 H   0  0  0  0  0  0  0  0  0  0  0  0
    6.3765   -5.0399   -2.0465 H   0  0  0  0  0  0  0  0  0  0  0  0
    6.1201   -1.5835    2.1996 H   0  0  0  0  0  0  0  0  0  0  0  0
    4.5485   -2.3901    1.9131 H   0  0  0  0  0  0  0  0  0  0  0  0
    6.0662   -3.3409    1.6282 H   0  0  0  0  0  0  0  0  0  0  0  0
   -6.3861    2.4243    0.9385 H   0  0  0  0  0  0  0  0  0  0  0  0
   -3.6173    1.9491   -1.8327 H   0  0  0  0  0  0  0  0  0  0  0  0
   -8.3490    5.0275   -1.4345 H   0  0  0  0  0  0  0  0  0  0  0  0
   -5.6928    4.4742    1.1230 H   0  0  0  0  0  0  0  0  0  0  0  0
   -6.1153    4.1166   -2.9860 H   0  0  0  0  0  0  0  0  0  0  0  0
   -8.3317    3.2945    1.1710 H   0  0  0  0  0  0  0  0  0  0  0  0
   -9.5775    4.6016    0.6833 H   0  0  0  0  0  0  0  0  0  0  0  0
   -8.8528    1.9406   -0.8640 H   0  0  0  0  0  0  0  0  0  0  0  0
  -10.0867    3.2228   -1.3535 H   0  0  0  0  0  0  0  0  0  0  0  0
    0.5834   -2.3503   -0.3120 H   0  0  0  0  0  0  0  0  0  0  0  0
    0.8177   -1.5471    1.3243 H   0  0  0  0  0  0  0  0  0  0  0  0
   -1.6206   -1.2049   -0.4878 H   0  0  0  0  0  0  0  0  0  0  0  0
   -0.9800    0.1492    2.1327 H   0  0  0  0  0  0  0  0  0  0  0  0
   -0.1680    1.6733   -0.2410 H   0  0  0  0  0  0  0  0  0  0  0  0
    0.7953    1.2537    1.2798 H   0  0  0  0  0  0  0  0  0  0  0  0
    0.4942   -0.1782   -1.4043 H   0  0  0  0  0  0  0  0  0  0  0  0
   -2.0355    1.8327    0.0353 H   0  0  0  0  0  0  0  0  0  0  0  0
   -2.4686    1.3217    2.6052 H   0  0  0  0  0  0  0  0  0  0  0  0
   -3.1065    0.2498   -1.1661 H   0  0  0  0  0  0  0  0  0  0  0  0
   -0.7359   -2.9765    1.7400 H   0  0  0  0  0  0  0  0  0  0  0  0
   -1.6332   -2.0827    3.4146 H   0  0  0  0  0  0  0  0  0  0  0  0
   -4.9024   -1.6588    0.1888 H   0  0  0  0  0  0  0  0  0  0  0  0
   -4.4338    2.6188   -0.2874 H   0  0  0  0  0  0  0  0  0  0  0  0
   -3.8017   -2.6846    2.5891 H   0  0  0  0  0  0  0  0  0  0  0  0
   -2.9934   -4.2584    2.6541 H   0  0  0  0  0  0  0  0  0  0  0  0
   -1.1907   -4.1022   -0.2457 H   0  0  0  0  0  0  0  0  0  0  0  0
   -2.9417   -4.2379   -0.8097 H   0  0  0  0  0  0  0  0  0  0  0  0
   -2.3620   -5.0957    0.6369 H   0  0  0  0  0  0  0  0  0  0  0  0
   -5.9121    0.5645    2.0978 H   0  0  0  0  0  0  0  0  0  0  0  0
   -4.3188   -0.3409    2.2363 H   0  0  0  0  0  0  0  0  0  0  0  0
   -6.9894   -0.5525   -1.1350 H   0  0  0  0  0  0  0  0  0  0  0  0
   -7.3949    0.1002    0.4885 H   0  0  0  0  0  0  0  0  0  0  0  0
   -4.6331   -4.4612    0.3069 H   0  0  0  0  0  0  0  0  0  0  0  0
   -4.8185   -5.2630    1.8664 H   0  0  0  0  0  0  0  0  0  0  0  0
   -5.7993   -2.5919    2.1975 H   0  0  0  0  0  0  0  0  0  0  0  0
   -6.6856   -4.1095    2.2081 H   0  0  0  0  0  0  0  0  0  0  0  0
   -6.0228   -3.1703   -0.5834 H   0  0  0  0  0  0  0  0  0  0  0  0
   -7.3800   -4.0860    0.0731 H   0  0  0  0  0  0  0  0  0  0  0  0
   -8.0353   -1.8933    1.3594 H   0  0  0  0  0  0  0  0  0  0  0  0
   -8.4105   -2.1208   -0.3578 H   0  0  0  0  0  0  0  0  0  0  0  0
    5.8110   -3.9503   -0.1552 H   0  0  0  0  0  0  0  0  0  0  0  0
    3.6526   -4.2088   -1.2198 H   0  0  0  0  0  0  0  0  0  0  0  0
    3.3709   -3.0985    0.1523 H   0  0  0  0  0  0  0  0  0  0  0  0
    3.8099   -2.6323   -2.8324 H   0  0  0  0  0  0  0  0  0  0  0  0
    2.3259   -2.2493   -1.9508 H   0  0  0  0  0  0  0  0  0  0  0  0
    4.6691   -0.5934   -2.4188 H   0  0  0  0  0  0  0  0  0  0  0  0
    3.8277   -1.1472    0.4850 H   0  0  0  0  0  0  0  0  0  0  0  0
    6.6829   -1.4207   -0.6021 H   0  0  0  0  0  0  0  0  0  0  0  0
    2.1360    0.0888   -2.3776 H   0  0  0  0  0  0  0  0  0  0  0  0
    2.7286    2.2696   -1.3358 H   0  0  0  0  0  0  0  0  0  0  0  0
    3.8320    1.7067   -2.6373 H   0  0  0  0  0  0  0  0  0  0  0  0
    4.5539    2.5252   -0.0377 H   0  0  0  0  0  0  0  0  0  0  0  0
    5.9531    0.5563    0.5152 H   0  0  0  0  0  0  0  0  0  0  0  0
    6.3007    1.1394   -2.1555 H   0  0  0  0  0  0  0  0  0  0  0  0
    8.0858    4.4336   -1.7553 H   0  0  0  0  0  0  0  0  0  0  0  0
    6.6815    5.4015   -1.0388 H   0  0  0  0  0  0  0  0  0  0  0  0
    6.1512    3.6850    0.4785 H   0  0  0  0  0  0  0  0  0  0  0  0
    8.0252    1.8411   -0.9026 H   0  0  0  0  0  0  0  0  0  0  0  0
    9.1973    3.5464    0.0718 H   0  0  0  0  0  0  0  0  0  0  0  0
    8.3763    5.9306    0.3639 H   0  0  0  0  0  0  0  0  0  0  0  0
    7.5750    5.3693    1.9211 H   0  0  0  0  0  0  0  0  0  0  0  0
    9.3448    5.3242    1.7352 H   0  0  0  0  0  0  0  0  0  0  0  0
    7.6114    2.1168    1.8841 H   0  0  0  0  0  0  0  0  0  0  0  0
    8.1247    3.5018    2.8812 H   0  0  0  0  0  0  0  0  0  0  0  0
    9.3981    2.5003    2.1580 H   0  0  0  0  0  0  0  0  0  0  0  0
    7.0518   -4.1718   -3.2854 H   0  0  0  0  0  0  0  0  0  0  0  0
    6.1072   -5.1042   -2.0964 H   0  0  0  0  0  0  0  0  0  0  0  0
    7.5660   -4.1947   -1.5499 H   0  0  0  0  0  0  0  0  0  0  0  0
    6.7620   -1.0390    1.6229 H   0  0  0  0  0  0  0  0  0  0  0  0
    5.2152   -1.9622    2.0094 H   0  0  0  0  0  0  0  0  0  0  0  0
    6.7762   -2.8078    1.4833 H   0  0  0  0  0  0  0  0  0  0  0  0
   -6.5367    2.5454    0.8316 H   0  0  0  0  0  0  0  0  0  0  0  0
   -4.1310    1.7525   -2.1701 H   0  0  0  0  0  0  0  0  0  0  0  0
   -8.9565    4.6464   -1.5412 H   0  0  0  0  0  0  0  0  0  0  0  0
   -5.6057    4.7557    0.4705 H   0  0  0  0  0  0  0  0  0  0  0  0
   -6.7853    3.7003   -3.3210 H   0  0  0  0  0  0  0  0  0  0  0  0
   -9.9713    3.9051    0.6581 H   0  0  0  0  0  0  0  0  0  0  0  0
   -8.5558    2.7734    1.0102 H   0  0  0  0  0  0  0  0  0  0  0  0
   -8.9049    1.5380   -1.1361 H   0  0  0  0  0  0  0  0  0  0  0  0
  -10.3674    2.5989   -1.5411 H   0  0  0  0  0  0  0  0  0  0  0  0
    0.7236   -2.4851   -0.2570 H   0  0  0  0  0  0  0  0  0  0  0  0
    1.1053   -1.8317    1.4278 H   0  0  0  0  0  0  0  0  0  0  0  0
   -1.4152   -1.2337   -0.1945 H   0  0  0  0  0  0  0  0  0  0  0  0
   -0.6604   -0.3854    2.6340 H   0  0  0  0  0  0  0  0  0  0  0  0
    0.0762    1.5267    0.5377 H   0  0  0  0  0  0  0  0  0  0  0  0
    1.1402    0.7188    1.7762 H   0  0  0  0  0  0  0  0  0  0  0  0
    0.3855   -0.2146   -1.0310 H   0  0  0  0  0  0  0  0  0  0  0  0
   -1.7436    1.7587    1.0426 H   0  0  0  0  0  0  0  0  0  0  0  0
   -2.2124    1.5560    3.1000 H   0  0  0  0  0  0  0  0  0  0  0  0
   -2.5274    0.5670   -0.6563 H   0  0  0  0  0  0  0  0  0  0  0  0
   -0.6854   -3.3107    1.8353 H   0  0  0  0  0  0  0  0  0  0  0  0
   -1.5968   -2.3965    3.4886 H   0  0  0  0  0  0  0  0  0  0  0  0
   -4.4700   -1.6747    0.0418 H   0  0  0  0  0  0  0  0  0  0  0  0
   -4.2876    1.9093   -1.1931 H   0  0  0  0  0  0  0  0  0  0  0  0
   -3.6234   -3.5182    2.3804 H   0  0  0  0  0  0  0  0  0  0  0  0
   -2.8816   -5.0692    1.9789 H   0  0  0  0  0  0  0  0  0  0  0  0
   -0.7781   -4.7548    0.3112 H   0  0  0  0  0  0  0  0  0  0  0  0
   -1.5064   -3.9080   -1.1544 H   0  0  0  0  0  0  0  0  0  0  0  0
   -2.3708   -5.2190   -0.3313 H   0  0  0  0  0  0  0  0  0  0  0  0
   -5.8428    0.3813    2.0563 H   0  0  0  0  0  0  0  0  0  0  0  0
   -4.4064   -0.7242    2.3388 H   0  0  0  0  0  0  0  0  0  0  0  0
   -6.4234   -0.4098   -1.4167 H   0  0  0  0  0  0  0  0  0  0  0  0
   -7.0389    0.0853    0.1779 H   0  0  0  0  0  0  0  0  0  0  0  0
   -4.3566   -4.6749   -0.3640 H   0  0  0  0  0  0  0  0  0  0  0  0
   -4.7971   -5.6722    1.0203 H   0  0  0  0  0  0  0  0  0  0  0  0
   -5.5454   -3.0180    1.7004 H   0  0  0  0  0  0  0  0  0  0  0  0
   -6.5786   -4.3927    1.3456 H   0  0  0  0  0  0  0  0  0  0  0  0
   -5.4888   -2.9985   -1.1157 H   0  0  0  0  0  0  0  0  0  0  0  0
   -6.9270   -3.9796   -0.8341 H   0  0  0  0  0  0  0  0  0  0  0  0
   -7.6252   -1.9973    0.8639 H   0  0  0  0  0  0  0  0  0  0  0  0
   -7.9678   -1.9803   -0.8785 H   0  0  0  0  0  0  0  0  0  0  0  0
    5.2537   -4.4589   -0.7194 H   0  0  0  0  0  0  0  0  0  0  0  0
    2.8828   -4.3585   -1.5388 H   0  0  0  0  0  0  0  0  0  0  0  0
    3.0502   -3.1266   -0.1944 H   0  0  0  0  0  0  0  0  0  0  0  0
    3.4338   -2.6442   -3.1550 H   0  0  0  0  0  0  0  0  0  0  0  0
    1.9535   -2.1885   -2.2934 H   0  0  0  0  0  0  0  0  0  0  0  0
    4.3784   -0.6684   -2.6171 H   0  0  0  0  0  0  0  0  0  0  0  0
    3.8800   -1.1608    0.3161 H   0  0  0  0  0  0  0  0  0  0  0  0
    6.4724   -2.1071   -0.9852 H   0  0  0  0  0  0  0  0  0  0  0  0
    1.9187    0.1144   -2.2393 H   0  0  0  0  0  0  0  0  0  0  0  0
    2.9252    2.1932   -1.2893 H   0  0  0  0  0  0  0  0  0  0  0  0
    4.0629    1.4285   -2.5049 H   0  0  0  0  0  0  0  0  0  0  0  0
    4.0131    1.1951    0.5412 H   0  0  0  0  0  0  0  0  0  0  0  0
    6.0272    0.0983   -1.3095 H   0  0  0  0  0  0  0  0  0  0  0  0
    6.0911    2.4526   -1.3679 H   0  0  0  0  0  0  0  0  0  0  0  0
    5.6481    5.6988    0.9639 H   0  0  0  0  0  0  0  0  0  0  0  0
    4.8355    4.5211    2.1043 H   0  0  0  0  0  0  0  0  0  0  0  0
    6.9371    3.7082    2.2347 H   0  0  0  0  0  0  0  0  0  0  0  0
    5.7245    2.0033    1.5484 H   0  0  0  0  0  0  0  0  0  0  0  0
    8.6322    3.6777    0.4979 H   0  0  0  0  0  0  0  0  0  0  0  0
    7.9577    3.9210   -1.7032 H   0  0  0  0  0  0  0  0  0  0  0  0
    6.5293    4.9219   -1.3032 H   0  0  0  0  0  0  0  0  0  0  0  0
    8.1538    5.6176   -1.2550 H   0  0  0  0  0  0  0  0  0  0  0  0
    7.6257    6.4875    0.6184 H   0  0  0  0  0  0  0  0  0  0  0  0
    9.2356    5.8703    1.0631 H   0  0  0  0  0  0  0  0  0  0  0  0
    7.7782    5.6782    2.1869 H   0  0  0  0  0  0  0  0  0  0  0  0
    6.9675   -4.7637   -2.2639 H   0  0  0  0  0  0  0  0  0  0  0  0
    6.3626   -4.6114   -3.9427 H   0  0  0  0  0  0  0  0  0  0  0  0
    5.3762   -5.5383   -2.7702 H   0  0  0  0  0  0  0  0  0  0  0  0
    6.3241   -1.8898    1.3247 H   0  0  0  0  0  0  0  0  0  0  0  0
    4.7363   -2.6928    1.3939 H   0  0  0  0  0  0  0  0  0  0  0  0
    6.2275   -3.7092    0.9822 H   0  0  0  0  0  0  0  0  0  0  0  0
   -6.3572    2.2950    0.9024 H   0  0  0  0  0  0  0  0  0  0  0  0
   -4.3122    2.9835    1.4533 H   0  0  0  0  0  0  0  0  0  0  0  0
   -7.9406    5.1689   -1.3285 H   0  0  0  0  0  0  0  0  0  0  0  0
   -5.3532    5.6809    0.1308 H   0  0  0  0  0  0  0  0  0  0  0  0
   -4.5473    4.5010   -2.3464 H   0  0  0  0  0  0  0  0  0  0  0  0
   -8.1626    3.2156    1.1330 H   0  0  0  0  0  0  0  0  0  0  0  0
   -9.3302    4.5982    0.6522 H   0  0  0  0  0  0  0  0  0  0  0  0
   -8.5292    2.0695   -1.0920 H   0  0  0  0  0  0  0  0  0  0  0  0
   -9.7052    3.4287   -1.5292 H   0  0  0  0  0  0  0  0  0  0  0  0
  1  2  1  0
  2  3  1  0
  3  4  1  0
  1  5  1  0
  4  5  1  0
  3  6  1  0
  6  7  1  0
  6  8  1  0
  2  9  1  0
  9 10  1  0
  9 13  1  0
 13 14  1  0
 13 15  1  0
  8 16  1  0
 11 16  1  0
 16 12  1  6
 11 17  1  0
 16 17  1  0
 11 18  1  0
 14 19  1  0
 19 20  1  0
 20 21  1  0
 18 22  1  0
 21 22  1  0
  5 23  1  0
 24 25  1  0
 25 26  1  0
 26 27  1  0
 27 28  1  0
 24 29  1  0
 28 29  1  0
 23 30  1  0
 27 30  1  0
 30 31  1  0
 31 32  1  0
 28 33  1  0
 32 33  1  0
 32 34  1  0
 34 35  1  0
 35 36  1  0
 36 37  1  0
 34 38  1  0
 37 38  1  0
 37 39  1  0
 39 40  1  0
 39 41  1  0
 24 42  1  0
 42 43  1  0
 29 44  1  0
 12 45  1  0
 12 46  1  0
 45 47  1  0
 47 48  1  0
 47 49  1  0
 47 50  1  0
 48 51  1  0
 48 52  1  0
 51 52  1  0
 53 54  1  0
 54 55  1  0
 55 56  1  0
 53 57  1  0
 56 57  1  0
 55 58  1  0
 58 59  1  0
 58 60  1  0
 54 61  1  0
 61 62  1  0
 61 65  1  0
 65 66  1  0
 65 67  1  0
 68 60  1  1
 63 68  1  0
 64 68  1  0
 63 69  1  0
 68 69  1  0
 63 70  1  0
 66 71  1  0
 71 72  1  0
 72 73  1  0
 70 74  1  0
 73 74  1  0
 57 75  1  0
 76 77  1  0
 77 78  1  0
 78 79  1  0
 79 80  1  0
 76 81  1  0
 80 81  1  0
 75 82  1  0
 79 82  1  0
 82 83  1  0
 83 84  1  0
 80 85  1  0
 84 85  1  0
 84 86  1  0
 86 87  1  0
 87 88  1  0
 88 89  1  0
 86 90  1  0
 89 90  1  0
 89 91  1  0
 91 92  1  0
 91 93  1  0
 76 94  1  0
 94 95  1  0
 81 96  1  0
 64 97  1  0
 64 98  1  0
 97 99  1  0
 99100  1  0
 99101  1  0
 99102  1  0
100103  1  0
100104  1  0
103104  1  0
105106  1  0
106107  1  0
107108  1  0
105109  1  0
108109  1  0
107110  1  0
110111  1  0
110112  1  0
106113  1  0
113114  1  0
113117  1  0
117118  1  0
117119  1  0
120112  1  1
115120  1  0
116120  1  0
115121  1  0
120121  1  0
115122  1  0
118123  1  0
123124  1  0
124125  1  0
122126  1  0
125126  1  0
109127  1  0
128129  1  0
129130  1  0
130131  1  0
131132  1  0
128133  1  0
132133  1  0
127134  1  0
131134  1  0
134135  1  0
135136  1  0
132137  1  0
136137  1  0
136138  1  0
138139  1  0
139140  1  0
140141  1  0
138142  1  0
141142  1  0
141143  1  0
143144  1  0
143145  1  0
128146  1  0
146147  1  0
133148  1  0
116149  1  0
116150  1  0
149151  1  0
151152  1  0
151153  1  0
151154  1  0
152155  1  0
152156  1  0
155156  1  0
157158  1  0
158159  1  0
159160  1  0
157161  1  0
160161  1  0
159162  1  0
162163  1  0
162164  1  0
158165  1  0
165166  1  0
165169  1  0
169170  1  0
169171  1  0
164172  1  0
167172  1  0
172168  1  6
167173  1  0
172173  1  0
167174  1  0
170175  1  0
175176  1  0
176177  1  0
174178  1  0
177178  1  0
161179  1  0
180181  1  0
181182  1  0
182183  1  0
183184  1  0
180185  1  0
184185  1  0
179186  1  0
183186  1  0
186187  1  0
187188  1  0
184189  1  0
188189  1  0
188190  1  0
190191  1  0
191192  1  0
192193  1  0
190194  1  0
193194  1  0
193195  1  0
195196  1  0
195197  1  0
180198  1  0
198199  1  0
185200  1  0
168201  1  0
168202  1  0
201203  1  0
203204  1  0
203205  1  0
203206  1  0
204207  1  0
204208  1  0
207208  1  0
  1209  1  0
  1210  1  0
  2211  1  6
  3212  1  1
  4213  1  0
  4214  1  0
  5215  1  6
  6216  1  1
  7217  1  0
  8218  1  0
  9219  1  0
 10220  1  0
 11221  1  1
 12222  1  0
 14223  1  0
 14224  1  0
 15225  1  0
 15226  1  0
 15227  1  0
 17228  1  0
 17229  1  0
 18230  1  0
 18231  1  0
 19232  1  0
 19233  1  0
 20234  1  0
 20235  1  0
 21236  1  0
 21237  1  0
 22238  1  0
 22239  1  0
 24240  1  0
 25241  1  0
 25242  1  0
 26243  1  0
 26244  1  0
 27245  1  0
 28246  1  0
 29247  1  0
 30248  1  0
 31249  1  0
 31250  1  0
 32251  1  1
 33252  1  0
 34253  1  1
 36254  1  0
 36255  1  0
 37256  1  1
 38257  1  0
 39258  1  0
 40259  1  0
 40260  1  0
 40261  1  0
 41262  1  0
 41263  1  0
 41264  1  0
 43265  1  0
 43266  1  0
 43267  1  0
 44268  1  0
 44269  1  0
 44270  1  0
 45271  1  0
 46272  1  0
 48273  1  0
 49274  1  0
 50275  1  0
 51276  1  0
 51277  1  0
 52278  1  0
 52279  1  0
 53280  1  0
 53281  1  0
 54282  1  6
 55283  1  1
 56284  1  0
 56285  1  0
 57286  1  6
 58287  1  0
 59288  1  0
 60289  1  0
 61290  1  0
 62291  1  0
 63292  1  1
 64293  1  1
 66294  1  0
 66295  1  0
 67296  1  0
 67297  1  0
 67298  1  0
 69299  1  0
 69300  1  0
 70301  1  0
 70302  1  0
 71303  1  0
 71304  1  0
 72305  1  0
 72306  1  0
 73307  1  0
 73308  1  0
 74309  1  0
 74310  1  0
 76311  1  0
 77312  1  0
 77313  1  0
 78314  1  0
 78315  1  0
 79316  1  0
 80317  1  0
 81318  1  0
 82319  1  0
 83320  1  0
 83321  1  0
 84322  1  0
 85323  1  0
 86324  1  0
 88325  1  0
 88326  1  0
 89327  1  0
 90328  1  0
 91329  1  0
 92330  1  0
 92331  1  0
 92332  1  0
 93333  1  0
 93334  1  0
 93335  1  0
 95336  1  0
 95337  1  0
 95338  1  0
 96339  1  0
 96340  1  0
 96341  1  0
 97342  1  0
 98343  1  0
100344  1  0
101345  1  0
102346  1  0
103347  1  0
103348  1  0
104349  1  0
104350  1  0
105351  1  0
105352  1  0
106353  1  6
107354  1  1
108355  1  0
108356  1  0
109357  1  6
110358  1  0
111359  1  0
112360  1  0
113361  1  0
114362  1  0
115363  1  1
116364  1  6
118365  1  0
118366  1  0
119367  1  0
119368  1  0
119369  1  0
121370  1  0
121371  1  0
122372  1  0
122373  1  0
123374  1  0
123375  1  0
124376  1  0
124377  1  0
125378  1  0
125379  1  0
126380  1  0
126381  1  0
128382  1  0
129383  1  0
129384  1  0
130385  1  0
130386  1  0
131387  1  0
132388  1  0
133389  1  0
134390  1  0
135391  1  0
135392  1  0
136393  1  0
137394  1  0
138395  1  0
140396  1  0
140397  1  0
141398  1  1
142399  1  0
143400  1  0
144401  1  0
144402  1  0
144403  1  0
145404  1  0
145405  1  0
145406  1  0
147407  1  0
147408  1  0
147409  1  0
148410  1  0
148411  1  0
148412  1  0
149413  1  0
150414  1  0
152415  1  0
153416  1  0
154417  1  0
155418  1  0
155419  1  0
156420  1  0
156421  1  0
157422  1  0
157423  1  0
158424  1  6
159425  1  1
160426  1  0
160427  1  0
161428  1  6
162429  1  0
163430  1  0
164431  1  0
165432  1  0
166433  1  0
167434  1  1
168435  1  0
170436  1  0
170437  1  0
171438  1  0
171439  1  0
171440  1  0
173441  1  0
173442  1  0
174443  1  0
174444  1  0
175445  1  0
175446  1  0
176447  1  0
176448  1  0
177449  1  0
177450  1  0
178451  1  0
178452  1  0
180453  1  0
181454  1  0
181455  1  0
182456  1  0
182457  1  0
183458  1  0
184459  1  0
185460  1  0
186461  1  0
187462  1  0
187463  1  0
188464  1  1
189465  1  0
190466  1  6
192467  1  0
192468  1  0
193469  1  0
194470  1  0
195471  1  0
196472  1  0
196473  1  0
196474  1  0
197475  1  0
197476  1  0
197477  1  0
199478  1  0
199479  1  0
199480  1  0
200481  1  0
200482  1  0
200483  1  0
201484  1  0
202485  1  0
204486  1  0
205487  1  0
206488  1  0
207489  1  0
207490  1  0
208491  1  0
208492  1  0
M  END
>  <PDBID>  (1) 
3KEE

>  <PDB ID>  (1) 
3KEE

>  <Generic Name>  (1) 
Simeprevir

>  <Brand Name>  (1) 
Galexos#Olysio

>  <DrugBank ID>  (1) 
DB06290

>  <ATC Codes>  (1) 
J05AE14

>  <Ligand ID>  (1) 
30B

>  <Target Name>  (1) 
NS3 protease

>  <UniProt ID>  (1) 
Q91RS4

>  <PDB ID.1>  (1) 
3KEE

>  <Seq. Identity>  (1) 
82%

$$$$
