PDB_DB00320_01
     RDKit          3D

100107  0  0  0  0  0  0  0  0999 V2000
   -3.4602   -1.0910    0.3495 C   0  0  0  0  0  0  0  0  0  0  0  0
   -4.2970    0.1399    0.3712 C   0  0  2  0  0  0  0  0  0  0  0  0
   -5.7389   -0.0711    0.6830 C   0  0  2  0  0  0  0  0  0  0  0  0
   -6.3198    1.3058    0.8660 C   0  0  2  0  0  0  0  0  0  0  0  0
   -6.0140   -0.9115    1.8952 C   0  0  0  0  0  0  0  0  0  0  0  0
   -7.4935   -0.7713    2.1983 C   0  0  0  0  0  0  0  0  0  0  0  0
   -8.2649   -0.1542    1.0509 C   0  0  0  0  0  0  0  0  0  0  0  0
   -7.8522    1.2562    0.7941 C   0  0  0  0  0  0  0  0  0  0  0  0
   -8.0693    1.6688   -0.5789 N   0  0  0  0  0  0  0  0  0  0  0  0
   -7.1692    2.8140   -0.7055 C   0  0  0  0  0  0  0  0  0  0  0  0
   -5.8578    2.3368   -0.0625 C   0  0  0  0  0  0  0  0  0  0  0  0
   -4.8434    2.0236   -1.0646 C   0  0  0  0  0  0  0  0  0  0  0  0
   -4.2727    0.6561   -1.0785 C   0  0  1  0  0  0  0  0  0  0  0  0
   -3.0091    0.4874   -1.6636 N   0  0  0  0  0  0  0  0  0  0  0  0
   -2.8605    0.4526   -3.0526 C   0  0  0  0  0  0  0  0  0  0  0  0
   -1.8770    0.4029   -0.8263 C   0  0  0  0  0  0  0  0  0  0  0  0
   -2.0085   -0.4946    0.3701 C   0  0  2  0  0  0  0  0  0  0  0  0
   -1.0374   -1.5967    0.5072 C   0  0  0  0  0  0  0  0  0  0  0  0
   -1.0830   -2.5130   -0.5542 O   0  0  0  0  0  0  0  0  0  0  0  0
    0.1944   -1.3300    1.0422 N   0  0  0  0  0  0  0  0  0  0  0  0
    1.2063   -0.5198    0.5595 C   0  0  2  0  0  0  0  0  0  0  0  0
    0.9190    0.9356    0.5113 C   0  0  0  0  0  0  0  0  0  0  0  0
    1.7305   -0.9749   -0.6830 O   0  0  0  0  0  0  0  0  0  0  0  0
    2.4129   -0.6669    1.5091 C   0  0  0  0  0  0  0  0  0  0  0  0
    2.1372   -1.4397    2.6085 O   0  0  0  0  0  0  0  0  0  0  0  0
    3.3849   -1.3440    0.6765 N   0  0  0  0  0  0  0  0  0  0  0  0
    2.4999   -2.0421   -0.2295 C   0  0  1  0  0  0  0  0  0  0  0  0
    1.7626   -2.9569    0.5301 O   0  0  0  0  0  0  0  0  0  0  0  0
    3.1730   -2.7962   -1.3116 C   0  0  2  0  0  0  0  0  0  0  0  0
    3.5605   -4.1702   -0.8791 C   0  0  0  0  0  0  0  0  0  0  0  0
    4.6773   -4.5180   -1.8396 C   0  0  0  0  0  0  0  0  0  0  0  0
    5.1962   -3.2150   -2.3578 C   0  0  0  0  0  0  0  0  0  0  0  0
    4.3162   -2.1772   -1.8714 N   0  0  0  0  0  0  0  0  0  0  0  0
    5.0538   -1.2914   -1.0339 C   0  0  0  0  0  0  0  0  0  0  0  0
    6.0768   -1.9402   -0.3417 O   0  0  0  0  0  0  0  0  0  0  0  0
    4.2265   -0.4653   -0.0819 C   0  0  2  0  0  0  0  0  0  0  0  0
    5.1734    0.3223    0.7861 C   0  0  0  0  0  0  0  0  0  0  0  0
    6.0411    1.2276   -0.0478 C   0  0  0  0  0  0  0  0  0  0  0  0
    6.9630    2.0013    0.8816 C   0  0  0  0  0  0  0  0  0  0  0  0
    6.2357    3.0556    1.6469 C   0  0  0  0  0  0  0  0  0  0  0  0
    5.3451    3.9329    0.8237 C   0  0  0  0  0  0  0  0  0  0  0  0
    5.6682    3.6348   -0.6369 C   0  0  0  0  0  0  0  0  0  0  0  0
    5.2975    2.1871   -0.9093 C   0  0  0  0  0  0  0  0  0  0  0  0
   -3.5189   -1.6984    1.2551 H   0  0  0  0  0  0  0  0  0  0  0  0
   -3.6008   -1.6596   -0.5915 H   0  0  0  0  0  0  0  0  0  0  0  0
   -3.8789    0.8997    1.0567 H   0  0  0  0  0  0  0  0  0  0  0  0
   -6.1942   -0.5536   -0.2241 H   0  0  0  0  0  0  0  0  0  0  0  0
   -6.1109    1.5782    1.9440 H   0  0  0  0  0  0  0  0  0  0  0  0
   -5.3906   -0.5723    2.7509 H   0  0  0  0  0  0  0  0  0  0  0  0
   -5.7568   -1.9558    1.6631 H   0  0  0  0  0  0  0  0  0  0  0  0
   -7.9002   -1.7946    2.3339 H   0  0  0  0  0  0  0  0  0  0  0  0
   -7.5770   -0.1587    3.1243 H   0  0  0  0  0  0  0  0  0  0  0  0
   -9.3393   -0.1577    1.3912 H   0  0  0  0  0  0  0  0  0  0  0  0
   -8.1731   -0.8270    0.1755 H   0  0  0  0  0  0  0  0  0  0  0  0
   -8.3255    1.9403    1.4954 H   0  0  0  0  0  0  0  0  0  0  0  0
   -7.7955    0.9150   -1.2437 H   0  0  0  0  0  0  0  0  0  0  0  0
   -6.9942    3.0966   -1.7494 H   0  0  0  0  0  0  0  0  0  0  0  0
   -7.6073    3.6684   -0.1468 H   0  0  0  0  0  0  0  0  0  0  0  0
   -5.5098    3.2294    0.5381 H   0  0  0  0  0  0  0  0  0  0  0  0
   -3.9703    2.7428   -1.0282 H   0  0  0  0  0  0  0  0  0  0  0  0
   -5.2789    2.2152   -2.0911 H   0  0  0  0  0  0  0  0  0  0  0  0
   -4.9984   -0.0160   -1.6119 H   0  0  0  0  0  0  0  0  0  0  0  0
   -2.0368   -0.2618   -3.3145 H   0  0  0  0  0  0  0  0  0  0  0  0
   -2.5413    1.4409   -3.4976 H   0  0  0  0  0  0  0  0  0  0  0  0
   -3.7798    0.1352   -3.5606 H   0  0  0  0  0  0  0  0  0  0  0  0
   -1.6751    1.4676   -0.4905 H   0  0  0  0  0  0  0  0  0  0  0  0
   -1.0173    0.1567   -1.4832 H   0  0  0  0  0  0  0  0  0  0  0  0
   -2.0187    0.1164    1.2790 H   0  0  0  0  0  0  0  0  0  0  0  0
   -1.5643   -2.2633    1.3255 H   0  0  0  0  0  0  0  0  0  0  0  0
   -0.9354   -2.1262   -1.4222 H   0  0  0  0  0  0  0  0  0  0  0  0
    0.3864   -1.7654    1.9931 H   0  0  0  0  0  0  0  0  0  0  0  0
    1.7573    1.5556    0.9448 H   0  0  0  0  0  0  0  0  0  0  0  0
    0.7719    1.3726   -0.4935 H   0  0  0  0  0  0  0  0  0  0  0  0
    0.0558    1.1706    1.1557 H   0  0  0  0  0  0  0  0  0  0  0  0
    2.7732    0.3097    1.8770 H   0  0  0  0  0  0  0  0  0  0  0  0
    2.1487   -0.9201    3.4659 H   0  0  0  0  0  0  0  0  0  0  0  0
    2.3767   -3.3057    1.2220 H   0  0  0  0  0  0  0  0  0  0  0  0
    2.4166   -2.9255   -2.1365 H   0  0  0  0  0  0  0  0  0  0  0  0
    2.6940   -4.8648   -0.9935 H   0  0  0  0  0  0  0  0  0  0  0  0
    3.8745   -4.2246    0.1782 H   0  0  0  0  0  0  0  0  0  0  0  0
    5.4536   -5.1537   -1.3682 H   0  0  0  0  0  0  0  0  0  0  0  0
    4.1853   -5.0431   -2.7001 H   0  0  0  0  0  0  0  0  0  0  0  0
    6.2377   -3.0877   -2.0177 H   0  0  0  0  0  0  0  0  0  0  0  0
    5.2159   -3.1925   -3.4851 H   0  0  0  0  0  0  0  0  0  0  0  0
    5.5162   -0.5312   -1.7406 H   0  0  0  0  0  0  0  0  0  0  0  0
    5.8180   -2.8355   -0.0404 H   0  0  0  0  0  0  0  0  0  0  0  0
    3.5648    0.2076   -0.6908 H   0  0  0  0  0  0  0  0  0  0  0  0
    4.6511    0.9781    1.5094 H   0  0  0  0  0  0  0  0  0  0  0  0
    5.7747   -0.3818    1.3845 H   0  0  0  0  0  0  0  0  0  0  0  0
    6.7265    0.6353   -0.7118 H   0  0  0  0  0  0  0  0  0  0  0  0
    7.8099    2.4053    0.2697 H   0  0  0  0  0  0  0  0  0  0  0  0
    7.4362    1.3217    1.6182 H   0  0  0  0  0  0  0  0  0  0  0  0
    7.0266    3.6737    2.1624 H   0  0  0  0  0  0  0  0  0  0  0  0
    5.6797    2.5773    2.4842 H   0  0  0  0  0  0  0  0  0  0  0  0
    4.2739    3.7999    0.9968 H   0  0  0  0  0  0  0  0  0  0  0  0
    5.5949    5.0059    1.0411 H   0  0  0  0  0  0  0  0  0  0  0  0
    6.7504    3.8102   -0.7709 H   0  0  0  0  0  0  0  0  0  0  0  0
    5.0749    4.2949   -1.2724 H   0  0  0  0  0  0  0  0  0  0  0  0
    4.1947    2.1341   -0.8338 H   0  0  0  0  0  0  0  0  0  0  0  0
    5.5260    2.0315   -2.0051 H   0  0  0  0  0  0  0  0  0  0  0  0
  1  2  1  0
  2  3  1  0
  3  4  1  0
  3  5  1  0
  5  6  1  0
  6  7  1  0
  4  8  1  0
  7  8  1  0
  8  9  1  0
  9 10  1  0
  4 11  1  0
 10 11  1  0
 11 12  1  0
  2 13  1  0
 12 13  1  0
 13 14  1  0
 14 15  1  0
 14 16  1  0
  1 17  1  0
 16 17  1  0
 17 18  1  0
 18 19  1  0
 18 20  1  0
 21 20  1  1
 21 22  1  0
 21 23  1  0
 21 24  1  0
 24 25  1  0
 24 26  1  0
 23 27  1  0
 26 27  1  0
 27 28  1  1
 27 29  1  0
 29 30  1  0
 30 31  1  0
 31 32  1  0
 29 33  1  0
 32 33  1  0
 33 34  1  0
 34 35  1  0
 26 36  1  0
 34 36  1  0
 36 37  1  0
 37 38  1  0
 38 39  1  0
 39 40  1  0
 40 41  1  0
 41 42  1  0
 38 43  1  0
 42 43  1  0
  1 44  1  0
  1 45  1  0
  2 46  1  1
  3 47  1  6
  4 48  1  1
  5 49  1  0
  5 50  1  0
  6 51  1  0
  6 52  1  0
  7 53  1  0
  7 54  1  0
  8 55  1  0
  9 56  1  0
 10 57  1  0
 10 58  1  0
 11 59  1  0
 12 60  1  0
 12 61  1  0
 13 62  1  6
 15 63  1  0
 15 64  1  0
 15 65  1  0
 16 66  1  0
 16 67  1  0
 17 68  1  1
 18 69  1  0
 19 70  1  0
 20 71  1  0
 22 72  1  0
 22 73  1  0
 22 74  1  0
 24 75  1  0
 25 76  1  0
 28 77  1  0
 29 78  1  6
 30 79  1  0
 30 80  1  0
 31 81  1  0
 31 82  1  0
 32 83  1  0
 32 84  1  0
 34 85  1  0
 35 86  1  0
 36 87  1  6
 37 88  1  0
 37 89  1  0
 38 90  1  0
 39 91  1  0
 39 92  1  0
 40 93  1  0
 40 94  1  0
 41 95  1  0
 41 96  1  0
 42 97  1  0
 42 98  1  0
 43 99  1  0
 43100  1  0
M  END
>  <PDBID>  (1) 
4IAQ

>  <PDB ID>  (1) 
4IAQ

>  <Generic Name>  (1) 
Dihydroergotamine

>  <Brand Name>  (1) 
D.H.E. 45#Dihydroergotamine (dhe), 1mg/ml#Dihydroergotamine Mesylate#Dihydroergotamine Mesylate Injection USP#Migranal#Migranal Nasal Spray 4mg/ml#PMS-dihydroergotamine#Dihydergot#Ergont#Ergotonin#Ikaran#Orstanorm#Verladyn

>  <DrugBank ID>  (1) 
DB00320

>  <ATC Codes>  (1) 
N02CA01#N02CA51

>  <Ligand ID>  (1) 
2GM

>  <Target Name>  (1) 
5-hydroxytryptamine receptor 1D

>  <UniProt ID>  (1) 
P28221

>  <PDB ID.1>  (1) 
4IAQ

>  <Seq. Identity>  (1) 
55%

$$$$
