PDB_DB00196_09
     RDKit          3D

 48 50  0  0  0  0  0  0  0  0999 V2000
    0.3250    0.5240    1.3642 O   0  0  0  0  0  0  0  0  0  0  0  0
    0.1403    0.3341    0.0365 C   0  0  0  0  0  0  0  0  0  0  0  0
   -0.6223    1.4613   -0.6335 C   0  0  0  0  0  0  0  0  0  0  0  0
    1.5134    0.4266   -0.6702 C   0  0  0  0  0  0  0  0  0  0  0  0
   -0.4691   -1.0117   -0.2919 C   0  0  0  0  0  0  0  0  0  0  0  0
   -1.9060    1.7496   -0.1684 N   0  0  0  0  0  0  0  0  0  0  0  0
   -2.0517    2.4228    1.0805 C   0  0  0  0  0  0  0  0  0  0  0  0
   -2.6463    2.4213   -1.1365 N   0  0  0  0  0  0  0  0  0  0  0  0
   -3.3587    3.0822    0.9034 N   0  0  0  0  0  0  0  0  0  0  0  0
   -3.2638    3.5454   -0.4551 C   0  0  0  0  0  0  0  0  0  0  0  0
    2.4804   -0.4794   -0.1002 N   0  0  0  0  0  0  0  0  0  0  0  0
    3.5564   -0.6305   -1.0844 C   0  0  0  0  0  0  0  0  0  0  0  0
    3.1219    0.0993    1.0156 N   0  0  0  0  0  0  0  0  0  0  0  0
    4.7664   -0.1603   -0.5101 N   0  0  0  0  0  0  0  0  0  0  0  0
    4.3441    0.7034    0.5773 C   0  0  0  0  0  0  0  0  0  0  0  0
    0.4216   -2.0836    0.1979 C   0  0  0  0  0  0  0  0  0  0  0  0
   -1.9066   -1.1020    0.0643 C   0  0  0  0  0  0  0  0  0  0  0  0
   -0.2286   -3.4110    0.4948 C   0  0  0  0  0  0  0  0  0  0  0  0
   -1.5578   -3.4971   -0.2373 C   0  0  0  0  0  0  0  0  0  0  0  0
   -1.4433   -3.3337   -1.5853 F   0  0  0  0  0  0  0  0  0  0  0  0
   -2.4286   -2.4557    0.4252 C   0  0  0  0  0  0  0  0  0  0  0  0
   -2.6752   -0.6796   -1.0249 F   0  0  0  0  0  0  0  0  0  0  0  0
    0.2421    1.4131    1.7347 H   0  0  0  0  0  0  0  0  0  0  0  0
    0.0202    2.3749   -0.3976 H   0  0  0  0  0  0  0  0  0  0  0  0
   -0.5466    1.3494   -1.7157 H   0  0  0  0  0  0  0  0  0  0  0  0
    1.3256    0.1827   -1.7217 H   0  0  0  0  0  0  0  0  0  0  0  0
    1.8508    1.4626   -0.4938 H   0  0  0  0  0  0  0  0  0  0  0  0
   -0.4148   -1.0551   -1.4288 H   0  0  0  0  0  0  0  0  0  0  0  0
   -2.1386    1.7799    1.9610 H   0  0  0  0  0  0  0  0  0  0  0  0
   -1.3067    3.2421    1.2269 H   0  0  0  0  0  0  0  0  0  0  0  0
   -2.1120    2.6598   -1.9743 H   0  0  0  0  0  0  0  0  0  0  0  0
   -3.4768    3.8881    1.5586 H   0  0  0  0  0  0  0  0  0  0  0  0
   -4.2532    3.6868   -0.9439 H   0  0  0  0  0  0  0  0  0  0  0  0
   -2.5747    4.3920   -0.5844 H   0  0  0  0  0  0  0  0  0  0  0  0
    3.6169   -1.7550   -1.2291 H   0  0  0  0  0  0  0  0  0  0  0  0
    3.2790   -0.2366   -2.0586 H   0  0  0  0  0  0  0  0  0  0  0  0
    3.3751   -0.6884    1.6496 H   0  0  0  0  0  0  0  0  0  0  0  0
    5.4374   -0.9019   -0.2101 H   0  0  0  0  0  0  0  0  0  0  0  0
    5.1773    0.6472    1.3249 H   0  0  0  0  0  0  0  0  0  0  0  0
    4.2431    1.7103    0.1491 H   0  0  0  0  0  0  0  0  0  0  0  0
    1.1939   -2.3512   -0.5900 H   0  0  0  0  0  0  0  0  0  0  0  0
    0.8993   -1.7388    1.1364 H   0  0  0  0  0  0  0  0  0  0  0  0
   -2.1005   -0.4479    0.9513 H   0  0  0  0  0  0  0  0  0  0  0  0
    0.4037   -4.2863    0.2150 H   0  0  0  0  0  0  0  0  0  0  0  0
   -0.4501   -3.4896    1.5695 H   0  0  0  0  0  0  0  0  0  0  0  0
   -1.9759   -4.4974   -0.0174 H   0  0  0  0  0  0  0  0  0  0  0  0
   -2.3630   -2.6191    1.5159 H   0  0  0  0  0  0  0  0  0  0  0  0
   -3.4627   -2.6469    0.1104 H   0  0  0  0  0  0  0  0  0  0  0  0
  2  1  1  0
  2  3  1  0
  2  4  1  0
  2  5  1  0
  3  6  1  0
  6  7  1  0
  6  8  1  0
  7  9  1  0
  8 10  1  0
  9 10  1  0
  4 11  1  0
 11 12  1  0
 11 13  1  0
 12 14  1  0
 13 15  1  0
 15 14  1  0
  5 16  1  0
  5 17  1  0
 16 18  1  0
 18 19  1  0
 19 20  1  0
 17 21  1  0
 19 21  1  0
 17 22  1  0
  1 23  1  0
  3 24  1  0
  3 25  1  0
  4 26  1  0
  4 27  1  0
  5 28  1  0
  7 29  1  0
  7 30  1  0
  8 31  1  0
  9 32  1  0
 10 33  1  0
 10 34  1  0
 12 35  1  0
 12 36  1  0
 13 37  1  0
 14 38  1  0
 15 39  1  0
 15 40  1  0
 16 41  1  0
 16 42  1  0
 17 43  1  0
 18 44  1  0
 18 45  1  0
 19 46  1  0
 21 47  1  0
 21 48  1  0
M  END
>  <PDBID>  (1) 
5ESM

>  <PDB ID>  (1) 
5ESM

>  <Generic Name>  (1) 
Fluconazole

>  <Brand Name>  (1) 
Act Fluconazole#Apo-fluconazole#Apo-fluconazole-150#Canesoral#Canesoral Combi-pak#Clotrimaderm-fluconazole Combi-pack#Clotrimazole-fluconazole Combi-pack#Co Fluconazole-150#Diflucan#Diflucan Inj 2mg/ml#Diflucan One#Diflucan Pws 50mg/5ml#Diflucan Tab 100mg#Diflucan Tab 50mg#Dom-fluconazole#Fluconazole#Fluconazole 150#Fluconazole In Sodium Chloride Injection USP#Fluconazole Injection#Fluconazole Injection Sdz#Fluconazole Omega#Fluconazole-150#Jamp-fluconazole#Mar-fluconazole-150#Monicure#Monicure Combo#Mylan-fluconazole#Novo-fluconazole#Novo-fluconazole-150#Nu-fluconazole-150#PHL-fluconazole#PMS-fluconazole#PMS-fluconazole-150#Priva-fluconazole#Pro-fluconazole#Riva-fluconazole#Taro-fluconazole#Teva-fluconazole#Elazor#Flucazol#Flucostat#Flunizol#Pritenzol#Trican#Triflucan

>  <DrugBank ID>  (1) 
DB00196

>  <ATC Codes>  (1) 
D01AC15#J02AC01#J01RA07

>  <Ligand ID>  (1) 
TPF

>  <Target Name>  (1) 
Lanosterol 14-alpha demethylase

>  <UniProt ID>  (1) 
P10613

>  <PDB ID.1>  (1) 
5ESM

>  <Seq. Identity>  (1) 
65%

$$$$
