PDB_DB01076_00
     RDKit          3D

408420  0  0  0  0  0  0  0  0999 V2000
   -3.4175   -1.7196   -1.1766 C   0  0  0  0  0  0  0  0  0  0  0  0
   -1.9642   -1.6355   -1.0257 C   0  0  0  0  0  0  0  0  0  0  0  0
   -1.5707   -3.1385   -1.0225 C   0  0  0  0  0  0  0  0  0  0  0  0
   -2.4056   -4.0029   -0.1713 C   0  0  0  0  0  0  0  0  0  0  0  0
   -3.4840   -3.4109    0.6513 C   0  0  0  0  0  0  0  0  0  0  0  0
   -4.1582   -2.2223    0.0393 C   0  0  0  0  0  0  0  0  0  0  0  0
    1.6264   -2.8027    2.8227 C   0  0  0  0  0  0  0  0  0  0  0  0
    0.4989   -2.5515    1.7920 C   0  0  0  0  0  0  0  0  0  0  0  0
    1.1309   -1.6646    0.7378 C   0  0  0  0  0  0  0  0  0  0  0  0
    2.1588   -2.6200    0.0647 C   0  0  0  0  0  0  0  0  0  0  0  0
    2.2803   -3.9510    0.7399 C   0  0  0  0  0  0  0  0  0  0  0  0
    2.5864   -3.7774    2.1871 C   0  0  0  0  0  0  0  0  0  0  0  0
    2.6120   -4.9794    2.8746 F   0  0  0  0  0  0  0  0  0  0  0  0
    0.2635   -1.1071   -0.2848 C   0  0  0  0  0  0  0  0  0  0  0  0
   -4.5931    1.9175    0.0646 C   0  0  0  0  0  0  0  0  0  0  0  0
   -4.2784    3.3914    0.2014 C   0  0  0  0  0  0  0  0  0  0  0  0
   -5.5372    4.1287   -0.2781 C   0  0  0  0  0  0  0  0  0  0  0  0
   -6.7597    3.2923   -0.1065 C   0  0  0  0  0  0  0  0  0  0  0  0
   -6.7532    2.3717    1.0670 C   0  0  0  0  0  0  0  0  0  0  0  0
   -5.4972    1.5486    1.2094 C   0  0  0  0  0  0  0  0  0  0  0  0
    7.6662    0.8667    1.9226 O   0  0  0  0  0  0  0  0  0  0  0  0
    8.6560    0.3546   -0.0305 O   0  0  0  0  0  0  0  0  0  0  0  0
    6.2517    2.1249   -1.8030 O   0  0  0  0  0  0  0  0  0  0  0  0
    7.6311    1.0669    0.5441 C   0  0  0  0  0  0  0  0  0  0  0  0
    6.2544    0.6209    0.0723 C   0  0  0  0  0  0  0  0  0  0  0  0
    6.1094    0.7951   -1.4032 C   0  0  1  0  0  0  0  0  0  0  0  0
    4.9414    0.0891   -1.9784 C   0  0  0  0  0  0  0  0  0  0  0  0
    3.5954    0.6668   -1.6666 C   0  0  1  0  0  0  0  0  0  0  0  0
    2.5415   -0.1787   -2.3593 C   0  0  0  0  0  0  0  0  0  0  0  0
    1.1454    0.2326   -2.1278 C   0  0  0  0  0  0  0  0  0  0  0  0
    0.6207    0.1837   -0.8205 N   0  0  0  0  0  0  0  0  0  0  0  0
   -1.2452   -1.0140    0.0420 C   0  0  0  0  0  0  0  0  0  0  0  0
   -1.2677    0.3820    0.4776 C   0  0  0  0  0  0  0  0  0  0  0  0
   -2.5061    1.0234    0.9277 C   0  0  0  0  0  0  0  0  0  0  0  0
   -3.4722    1.0756   -0.1317 N   0  0  0  0  0  0  0  0  0  0  0  0
   -2.3580    2.2995    1.4265 O   0  0  0  0  0  0  0  0  0  0  0  0
   -0.4974    1.0870   -0.6099 C   0  0  0  0  0  0  0  0  0  0  0  0
   -0.0192    2.4073   -0.1520 C   0  0  0  0  0  0  0  0  0  0  0  0
    0.7716    2.3100    1.1251 C   0  0  0  0  0  0  0  0  0  0  0  0
    0.7722    3.2179   -1.1619 C   0  0  0  0  0  0  0  0  0  0  0  0
    3.3435    0.8238   -0.3303 O   0  0  0  0  0  0  0  0  0  0  0  0
   -3.4175   -1.7196   -1.1766 C   0  0  0  0  0  0  0  0  0  0  0  0
   -1.9642   -1.6355   -1.0257 C   0  0  0  0  0  0  0  0  0  0  0  0
   -1.5707   -3.1385   -1.0225 C   0  0  0  0  0  0  0  0  0  0  0  0
   -2.4056   -4.0029   -0.1713 C   0  0  0  0  0  0  0  0  0  0  0  0
   -3.4840   -3.4109    0.6513 C   0  0  0  0  0  0  0  0  0  0  0  0
   -4.1582   -2.2223    0.0393 C   0  0  0  0  0  0  0  0  0  0  0  0
    1.6264   -2.8027    2.8227 C   0  0  0  0  0  0  0  0  0  0  0  0
    0.4989   -2.5515    1.7920 C   0  0  0  0  0  0  0  0  0  0  0  0
    1.1309   -1.6646    0.7378 C   0  0  0  0  0  0  0  0  0  0  0  0
    2.1588   -2.6200    0.0647 C   0  0  0  0  0  0  0  0  0  0  0  0
    2.2803   -3.9510    0.7399 C   0  0  0  0  0  0  0  0  0  0  0  0
    2.5864   -3.7774    2.1871 C   0  0  0  0  0  0  0  0  0  0  0  0
    2.6120   -4.9794    2.8746 F   0  0  0  0  0  0  0  0  0  0  0  0
    0.2635   -1.1071   -0.2848 C   0  0  0  0  0  0  0  0  0  0  0  0
   -4.5931    1.9175    0.0646 C   0  0  0  0  0  0  0  0  0  0  0  0
   -4.2784    3.3914    0.2014 C   0  0  0  0  0  0  0  0  0  0  0  0
   -5.5372    4.1287   -0.2781 C   0  0  0  0  0  0  0  0  0  0  0  0
   -6.7597    3.2923   -0.1065 C   0  0  0  0  0  0  0  0  0  0  0  0
   -6.7532    2.3717    1.0670 C   0  0  0  0  0  0  0  0  0  0  0  0
   -5.4972    1.5486    1.2094 C   0  0  0  0  0  0  0  0  0  0  0  0
    7.6662    0.8667    1.9226 O   0  0  0  0  0  0  0  0  0  0  0  0
    8.6560    0.3546   -0.0305 O   0  0  0  0  0  0  0  0  0  0  0  0
    6.2517    2.1249   -1.8030 O   0  0  0  0  0  0  0  0  0  0  0  0
    7.6311    1.0669    0.5441 C   0  0  0  0  0  0  0  0  0  0  0  0
    6.2544    0.6209    0.0723 C   0  0  0  0  0  0  0  0  0  0  0  0
    6.1094    0.7951   -1.4032 C   0  0  1  0  0  0  0  0  0  0  0  0
    4.9414    0.0891   -1.9784 C   0  0  0  0  0  0  0  0  0  0  0  0
    3.5954    0.6668   -1.6666 C   0  0  1  0  0  0  0  0  0  0  0  0
    2.5415   -0.1787   -2.3593 C   0  0  0  0  0  0  0  0  0  0  0  0
    1.1454    0.2326   -2.1278 C   0  0  0  0  0  0  0  0  0  0  0  0
    0.6207    0.1837   -0.8205 N   0  0  0  0  0  0  0  0  0  0  0  0
   -1.2452   -1.0140    0.0420 C   0  0  0  0  0  0  0  0  0  0  0  0
   -1.2677    0.3820    0.4776 C   0  0  0  0  0  0  0  0  0  0  0  0
   -2.5061    1.0234    0.9277 C   0  0  0  0  0  0  0  0  0  0  0  0
   -3.4722    1.0756   -0.1317 N   0  0  0  0  0  0  0  0  0  0  0  0
   -2.3580    2.2995    1.4265 O   0  0  0  0  0  0  0  0  0  0  0  0
   -0.4974    1.0870   -0.6099 C   0  0  0  0  0  0  0  0  0  0  0  0
   -0.0192    2.4073   -0.1520 C   0  0  0  0  0  0  0  0  0  0  0  0
    0.7716    2.3100    1.1251 C   0  0  0  0  0  0  0  0  0  0  0  0
    0.7722    3.2179   -1.1619 C   0  0  0  0  0  0  0  0  0  0  0  0
    3.3435    0.8238   -0.3303 O   0  0  0  0  0  0  0  0  0  0  0  0
   -3.4175   -1.7196   -1.1766 C   0  0  0  0  0  0  0  0  0  0  0  0
   -1.9642   -1.6355   -1.0257 C   0  0  0  0  0  0  0  0  0  0  0  0
   -1.5707   -3.1385   -1.0225 C   0  0  0  0  0  0  0  0  0  0  0  0
   -2.4056   -4.0029   -0.1713 C   0  0  0  0  0  0  0  0  0  0  0  0
   -3.4840   -3.4109    0.6513 C   0  0  0  0  0  0  0  0  0  0  0  0
   -4.1582   -2.2223    0.0393 C   0  0  0  0  0  0  0  0  0  0  0  0
    1.6264   -2.8027    2.8227 C   0  0  0  0  0  0  0  0  0  0  0  0
    0.4989   -2.5515    1.7920 C   0  0  0  0  0  0  0  0  0  0  0  0
    1.1309   -1.6646    0.7378 C   0  0  0  0  0  0  0  0  0  0  0  0
    2.1588   -2.6200    0.0647 C   0  0  0  0  0  0  0  0  0  0  0  0
    2.2803   -3.9510    0.7399 C   0  0  0  0  0  0  0  0  0  0  0  0
    2.5864   -3.7774    2.1871 C   0  0  0  0  0  0  0  0  0  0  0  0
    2.6120   -4.9794    2.8746 F   0  0  0  0  0  0  0  0  0  0  0  0
    0.2635   -1.1071   -0.2848 C   0  0  0  0  0  0  0  0  0  0  0  0
   -4.5931    1.9175    0.0646 C   0  0  0  0  0  0  0  0  0  0  0  0
   -4.2784    3.3914    0.2014 C   0  0  0  0  0  0  0  0  0  0  0  0
   -5.5372    4.1287   -0.2781 C   0  0  0  0  0  0  0  0  0  0  0  0
   -6.7597    3.2923   -0.1065 C   0  0  0  0  0  0  0  0  0  0  0  0
   -6.7532    2.3717    1.0670 C   0  0  0  0  0  0  0  0  0  0  0  0
   -5.4972    1.5486    1.2094 C   0  0  0  0  0  0  0  0  0  0  0  0
    7.6662    0.8667    1.9226 O   0  0  0  0  0  0  0  0  0  0  0  0
    8.6560    0.3546   -0.0305 O   0  0  0  0  0  0  0  0  0  0  0  0
    6.2517    2.1249   -1.8030 O   0  0  0  0  0  0  0  0  0  0  0  0
    7.6311    1.0669    0.5441 C   0  0  0  0  0  0  0  0  0  0  0  0
    6.2544    0.6209    0.0723 C   0  0  0  0  0  0  0  0  0  0  0  0
    6.1094    0.7951   -1.4032 C   0  0  1  0  0  0  0  0  0  0  0  0
    4.9414    0.0891   -1.9784 C   0  0  0  0  0  0  0  0  0  0  0  0
    3.5954    0.6668   -1.6666 C   0  0  1  0  0  0  0  0  0  0  0  0
    2.5415   -0.1787   -2.3593 C   0  0  0  0  0  0  0  0  0  0  0  0
    1.1454    0.2326   -2.1278 C   0  0  0  0  0  0  0  0  0  0  0  0
    0.6207    0.1837   -0.8205 N   0  0  0  0  0  0  0  0  0  0  0  0
   -1.2452   -1.0140    0.0420 C   0  0  0  0  0  0  0  0  0  0  0  0
   -1.2677    0.3820    0.4776 C   0  0  0  0  0  0  0  0  0  0  0  0
   -2.5061    1.0234    0.9277 C   0  0  0  0  0  0  0  0  0  0  0  0
   -3.4722    1.0756   -0.1317 N   0  0  0  0  0  0  0  0  0  0  0  0
   -2.3580    2.2995    1.4265 O   0  0  0  0  0  0  0  0  0  0  0  0
   -0.4974    1.0870   -0.6099 C   0  0  0  0  0  0  0  0  0  0  0  0
   -0.0192    2.4073   -0.1520 C   0  0  0  0  0  0  0  0  0  0  0  0
    0.7716    2.3100    1.1251 C   0  0  0  0  0  0  0  0  0  0  0  0
    0.7722    3.2179   -1.1619 C   0  0  0  0  0  0  0  0  0  0  0  0
    3.3435    0.8238   -0.3303 O   0  0  0  0  0  0  0  0  0  0  0  0
   -3.4175   -1.7196   -1.1766 C   0  0  0  0  0  0  0  0  0  0  0  0
   -1.9642   -1.6355   -1.0257 C   0  0  0  0  0  0  0  0  0  0  0  0
   -1.5707   -3.1385   -1.0225 C   0  0  0  0  0  0  0  0  0  0  0  0
   -2.4056   -4.0029   -0.1713 C   0  0  0  0  0  0  0  0  0  0  0  0
   -3.4840   -3.4109    0.6513 C   0  0  0  0  0  0  0  0  0  0  0  0
   -4.1582   -2.2223    0.0393 C   0  0  0  0  0  0  0  0  0  0  0  0
    1.6264   -2.8027    2.8227 C   0  0  0  0  0  0  0  0  0  0  0  0
    0.4989   -2.5515    1.7920 C   0  0  0  0  0  0  0  0  0  0  0  0
    1.1309   -1.6646    0.7378 C   0  0  0  0  0  0  0  0  0  0  0  0
    2.1588   -2.6200    0.0647 C   0  0  0  0  0  0  0  0  0  0  0  0
    2.2803   -3.9510    0.7399 C   0  0  0  0  0  0  0  0  0  0  0  0
    2.5864   -3.7774    2.1871 C   0  0  0  0  0  0  0  0  0  0  0  0
    2.6120   -4.9794    2.8746 F   0  0  0  0  0  0  0  0  0  0  0  0
    0.2635   -1.1071   -0.2848 C   0  0  0  0  0  0  0  0  0  0  0  0
   -4.5931    1.9175    0.0646 C   0  0  0  0  0  0  0  0  0  0  0  0
   -4.2784    3.3914    0.2014 C   0  0  0  0  0  0  0  0  0  0  0  0
   -5.5372    4.1287   -0.2781 C   0  0  0  0  0  0  0  0  0  0  0  0
   -6.7597    3.2923   -0.1065 C   0  0  0  0  0  0  0  0  0  0  0  0
   -6.7532    2.3717    1.0670 C   0  0  0  0  0  0  0  0  0  0  0  0
   -5.4972    1.5486    1.2094 C   0  0  0  0  0  0  0  0  0  0  0  0
    7.6662    0.8667    1.9226 O   0  0  0  0  0  0  0  0  0  0  0  0
    8.6560    0.3546   -0.0305 O   0  0  0  0  0  0  0  0  0  0  0  0
    6.2517    2.1249   -1.8030 O   0  0  0  0  0  0  0  0  0  0  0  0
    7.6311    1.0669    0.5441 C   0  0  0  0  0  0  0  0  0  0  0  0
    6.2544    0.6209    0.0723 C   0  0  0  0  0  0  0  0  0  0  0  0
    6.1094    0.7951   -1.4032 C   0  0  1  0  0  0  0  0  0  0  0  0
    4.9414    0.0891   -1.9784 C   0  0  0  0  0  0  0  0  0  0  0  0
    3.5954    0.6668   -1.6666 C   0  0  1  0  0  0  0  0  0  0  0  0
    2.5415   -0.1787   -2.3593 C   0  0  0  0  0  0  0  0  0  0  0  0
    1.1454    0.2326   -2.1278 C   0  0  0  0  0  0  0  0  0  0  0  0
    0.6207    0.1837   -0.8205 N   0  0  0  0  0  0  0  0  0  0  0  0
   -1.2452   -1.0140    0.0420 C   0  0  0  0  0  0  0  0  0  0  0  0
   -1.2677    0.3820    0.4776 C   0  0  0  0  0  0  0  0  0  0  0  0
   -2.5061    1.0234    0.9277 C   0  0  0  0  0  0  0  0  0  0  0  0
   -3.4722    1.0756   -0.1317 N   0  0  0  0  0  0  0  0  0  0  0  0
   -2.3580    2.2995    1.4265 O   0  0  0  0  0  0  0  0  0  0  0  0
   -0.4974    1.0870   -0.6099 C   0  0  0  0  0  0  0  0  0  0  0  0
   -0.0192    2.4073   -0.1520 C   0  0  0  0  0  0  0  0  0  0  0  0
    0.7716    2.3100    1.1251 C   0  0  0  0  0  0  0  0  0  0  0  0
    0.7722    3.2179   -1.1619 C   0  0  0  0  0  0  0  0  0  0  0  0
    3.3435    0.8238   -0.3303 O   0  0  0  0  0  0  0  0  0  0  0  0
   -3.5836   -2.5924   -1.9208 H   0  0  0  0  0  0  0  0  0  0  0  0
   -3.9611   -0.9333   -1.7034 H   0  0  0  0  0  0  0  0  0  0  0  0
   -1.5629   -1.2524   -2.0167 H   0  0  0  0  0  0  0  0  0  0  0  0
   -1.6760   -3.4356   -2.1207 H   0  0  0  0  0  0  0  0  0  0  0  0
   -0.5301   -3.3176   -0.7990 H   0  0  0  0  0  0  0  0  0  0  0  0
   -2.8295   -4.8245   -0.8417 H   0  0  0  0  0  0  0  0  0  0  0  0
   -1.7183   -4.6128    0.4944 H   0  0  0  0  0  0  0  0  0  0  0  0
   -4.2701   -4.2024    0.7956 H   0  0  0  0  0  0  0  0  0  0  0  0
   -3.1184   -3.1854    1.6704 H   0  0  0  0  0  0  0  0  0  0  0  0
   -4.1706   -1.4063    0.7772 H   0  0  0  0  0  0  0  0  0  0  0  0
   -5.2115   -2.4342   -0.2236 H   0  0  0  0  0  0  0  0  0  0  0  0
    1.2273   -3.1238    3.7829 H   0  0  0  0  0  0  0  0  0  0  0  0
    2.1437   -1.8102    2.9456 H   0  0  0  0  0  0  0  0  0  0  0  0
    0.1691   -3.5251    1.4578 H   0  0  0  0  0  0  0  0  0  0  0  0
   -0.2584   -1.9785    2.4064 H   0  0  0  0  0  0  0  0  0  0  0  0
    1.7304   -0.9289    1.2790 H   0  0  0  0  0  0  0  0  0  0  0  0
    3.1571   -2.1836    0.0146 H   0  0  0  0  0  0  0  0  0  0  0  0
    1.7962   -2.8415   -0.9725 H   0  0  0  0  0  0  0  0  0  0  0  0
    3.1765   -4.4426    0.2213 H   0  0  0  0  0  0  0  0  0  0  0  0
    1.4634   -4.6682    0.5082 H   0  0  0  0  0  0  0  0  0  0  0  0
    3.6349   -3.3688    2.2586 H   0  0  0  0  0  0  0  0  0  0  0  0
    0.3887   -1.7549   -1.2209 H   0  0  0  0  0  0  0  0  0  0  0  0
   -5.2294    1.8205   -0.8654 H   0  0  0  0  0  0  0  0  0  0  0  0
   -4.1905    3.7102    1.2797 H   0  0  0  0  0  0  0  0  0  0  0  0
   -3.3952    3.6506   -0.3934 H   0  0  0  0  0  0  0  0  0  0  0  0
   -5.3812    4.3176   -1.3573 H   0  0  0  0  0  0  0  0  0  0  0  0
   -5.5921    5.1273    0.2032 H   0  0  0  0  0  0  0  0  0  0  0  0
   -7.6162    4.0089    0.0520 H   0  0  0  0  0  0  0  0  0  0  0  0
   -7.0352    2.7532   -1.0519 H   0  0  0  0  0  0  0  0  0  0  0  0
   -7.5875    1.6315    0.9027 H   0  0  0  0  0  0  0  0  0  0  0  0
   -7.0169    2.9098    2.0083 H   0  0  0  0  0  0  0  0  0  0  0  0
   -5.6715    0.4569    1.2103 H   0  0  0  0  0  0  0  0  0  0  0  0
   -5.0036    1.7938    2.1835 H   0  0  0  0  0  0  0  0  0  0  0  0
    6.8243    1.1679    2.3515 H   0  0  0  0  0  0  0  0  0  0  0  0
    9.2594    0.9537   -0.5582 H   0  0  0  0  0  0  0  0  0  0  0  0
    5.6445    2.7269   -1.3231 H   0  0  0  0  0  0  0  0  0  0  0  0
    7.7137    2.1699    0.3588 H   0  0  0  0  0  0  0  0  0  0  0  0
    6.1333   -0.4312    0.3348 H   0  0  0  0  0  0  0  0  0  0  0  0
    5.5424    1.2480    0.6540 H   0  0  0  0  0  0  0  0  0  0  0  0
    7.0297    0.2808   -1.8479 H   0  0  0  0  0  0  0  0  0  0  0  0
    4.9684   -0.9767   -1.6186 H   0  0  0  0  0  0  0  0  0  0  0  0
    5.0400   -0.0092   -3.0984 H   0  0  0  0  0  0  0  0  0  0  0  0
    3.5660    1.7197   -2.1078 H   0  0  0  0  0  0  0  0  0  0  0  0
    2.7434   -0.0063   -3.4981 H   0  0  0  0  0  0  0  0  0  0  0  0
    2.7991   -1.2268   -2.2311 H   0  0  0  0  0  0  0  0  0  0  0  0
    0.4855   -0.4411   -2.8072 H   0  0  0  0  0  0  0  0  0  0  0  0
    0.9442    1.2335   -2.6087 H   0  0  0  0  0  0  0  0  0  0  0  0
   -1.4575   -1.6237    0.9852 H   0  0  0  0  0  0  0  0  0  0  0  0
   -0.5635    0.4100    1.3774 H   0  0  0  0  0  0  0  0  0  0  0  0
   -2.9537    0.4765    1.8289 H   0  0  0  0  0  0  0  0  0  0  0  0
   -3.0645    1.2368   -1.0721 H   0  0  0  0  0  0  0  0  0  0  0  0
   -2.1441    2.3405    2.3864 H   0  0  0  0  0  0  0  0  0  0  0  0
   -1.1125    1.1579   -1.5530 H   0  0  0  0  0  0  0  0  0  0  0  0
   -0.8812    3.1032    0.1000 H   0  0  0  0  0  0  0  0  0  0  0  0
    1.6344    3.0657    1.1025 H   0  0  0  0  0  0  0  0  0  0  0  0
    0.2259    2.5857    2.0362 H   0  0  0  0  0  0  0  0  0  0  0  0
    1.2176    1.3229    1.3203 H   0  0  0  0  0  0  0  0  0  0  0  0
    1.8226    2.9308   -1.2402 H   0  0  0  0  0  0  0  0  0  0  0  0
    0.2256    3.3655   -2.0985 H   0  0  0  0  0  0  0  0  0  0  0  0
    0.8211    4.2794   -0.7229 H   0  0  0  0  0  0  0  0  0  0  0  0
    3.5852    0.0804    0.2368 H   0  0  0  0  0  0  0  0  0  0  0  0
   -3.5836   -2.5924   -1.9208 H   0  0  0  0  0  0  0  0  0  0  0  0
   -3.9611   -0.9333   -1.7034 H   0  0  0  0  0  0  0  0  0  0  0  0
   -1.5629   -1.2524   -2.0167 H   0  0  0  0  0  0  0  0  0  0  0  0
   -1.6760   -3.4356   -2.1207 H   0  0  0  0  0  0  0  0  0  0  0  0
   -0.5301   -3.3176   -0.7990 H   0  0  0  0  0  0  0  0  0  0  0  0
   -2.8295   -4.8245   -0.8417 H   0  0  0  0  0  0  0  0  0  0  0  0
   -1.7183   -4.6128    0.4944 H   0  0  0  0  0  0  0  0  0  0  0  0
   -4.2701   -4.2024    0.7956 H   0  0  0  0  0  0  0  0  0  0  0  0
   -3.1184   -3.1854    1.6704 H   0  0  0  0  0  0  0  0  0  0  0  0
   -4.1706   -1.4063    0.7772 H   0  0  0  0  0  0  0  0  0  0  0  0
   -5.2115   -2.4342   -0.2236 H   0  0  0  0  0  0  0  0  0  0  0  0
    1.2273   -3.1238    3.7829 H   0  0  0  0  0  0  0  0  0  0  0  0
    2.1437   -1.8102    2.9456 H   0  0  0  0  0  0  0  0  0  0  0  0
    0.1691   -3.5251    1.4578 H   0  0  0  0  0  0  0  0  0  0  0  0
   -0.2584   -1.9785    2.4064 H   0  0  0  0  0  0  0  0  0  0  0  0
    1.7304   -0.9289    1.2790 H   0  0  0  0  0  0  0  0  0  0  0  0
    3.1571   -2.1836    0.0146 H   0  0  0  0  0  0  0  0  0  0  0  0
    1.7962   -2.8415   -0.9725 H   0  0  0  0  0  0  0  0  0  0  0  0
    3.1765   -4.4426    0.2213 H   0  0  0  0  0  0  0  0  0  0  0  0
    1.4634   -4.6682    0.5082 H   0  0  0  0  0  0  0  0  0  0  0  0
    3.6349   -3.3688    2.2586 H   0  0  0  0  0  0  0  0  0  0  0  0
    0.3887   -1.7549   -1.2209 H   0  0  0  0  0  0  0  0  0  0  0  0
   -5.2294    1.8205   -0.8654 H   0  0  0  0  0  0  0  0  0  0  0  0
   -4.1905    3.7102    1.2797 H   0  0  0  0  0  0  0  0  0  0  0  0
   -3.3952    3.6506   -0.3934 H   0  0  0  0  0  0  0  0  0  0  0  0
   -5.3812    4.3176   -1.3573 H   0  0  0  0  0  0  0  0  0  0  0  0
   -5.5921    5.1273    0.2032 H   0  0  0  0  0  0  0  0  0  0  0  0
   -7.6162    4.0089    0.0520 H   0  0  0  0  0  0  0  0  0  0  0  0
   -7.0352    2.7532   -1.0519 H   0  0  0  0  0  0  0  0  0  0  0  0
   -7.5875    1.6315    0.9027 H   0  0  0  0  0  0  0  0  0  0  0  0
   -7.0169    2.9098    2.0083 H   0  0  0  0  0  0  0  0  0  0  0  0
   -5.6715    0.4569    1.2103 H   0  0  0  0  0  0  0  0  0  0  0  0
   -5.0036    1.7938    2.1835 H   0  0  0  0  0  0  0  0  0  0  0  0
    6.8243    1.1679    2.3515 H   0  0  0  0  0  0  0  0  0  0  0  0
    9.2594    0.9537   -0.5582 H   0  0  0  0  0  0  0  0  0  0  0  0
    5.6445    2.7269   -1.3231 H   0  0  0  0  0  0  0  0  0  0  0  0
    7.7137    2.1699    0.3588 H   0  0  0  0  0  0  0  0  0  0  0  0
    6.1333   -0.4312    0.3348 H   0  0  0  0  0  0  0  0  0  0  0  0
    5.5424    1.2480    0.6540 H   0  0  0  0  0  0  0  0  0  0  0  0
    7.0297    0.2808   -1.8479 H   0  0  0  0  0  0  0  0  0  0  0  0
    4.9684   -0.9767   -1.6186 H   0  0  0  0  0  0  0  0  0  0  0  0
    5.0400   -0.0092   -3.0984 H   0  0  0  0  0  0  0  0  0  0  0  0
    3.5660    1.7197   -2.1078 H   0  0  0  0  0  0  0  0  0  0  0  0
    2.7434   -0.0063   -3.4981 H   0  0  0  0  0  0  0  0  0  0  0  0
    2.7991   -1.2268   -2.2311 H   0  0  0  0  0  0  0  0  0  0  0  0
    0.4855   -0.4411   -2.8072 H   0  0  0  0  0  0  0  0  0  0  0  0
    0.9442    1.2335   -2.6087 H   0  0  0  0  0  0  0  0  0  0  0  0
   -1.4575   -1.6237    0.9852 H   0  0  0  0  0  0  0  0  0  0  0  0
   -0.5635    0.4100    1.3774 H   0  0  0  0  0  0  0  0  0  0  0  0
   -2.9537    0.4765    1.8289 H   0  0  0  0  0  0  0  0  0  0  0  0
   -3.0645    1.2368   -1.0721 H   0  0  0  0  0  0  0  0  0  0  0  0
   -2.1441    2.3405    2.3864 H   0  0  0  0  0  0  0  0  0  0  0  0
   -1.1125    1.1579   -1.5530 H   0  0  0  0  0  0  0  0  0  0  0  0
   -0.8812    3.1032    0.1000 H   0  0  0  0  0  0  0  0  0  0  0  0
    1.6344    3.0657    1.1025 H   0  0  0  0  0  0  0  0  0  0  0  0
    0.2259    2.5857    2.0362 H   0  0  0  0  0  0  0  0  0  0  0  0
    1.2176    1.3229    1.3203 H   0  0  0  0  0  0  0  0  0  0  0  0
    1.8226    2.9308   -1.2402 H   0  0  0  0  0  0  0  0  0  0  0  0
    0.2256    3.3655   -2.0985 H   0  0  0  0  0  0  0  0  0  0  0  0
    0.8211    4.2794   -0.7229 H   0  0  0  0  0  0  0  0  0  0  0  0
    3.5852    0.0804    0.2368 H   0  0  0  0  0  0  0  0  0  0  0  0
   -3.5836   -2.5924   -1.9208 H   0  0  0  0  0  0  0  0  0  0  0  0
   -3.9611   -0.9333   -1.7034 H   0  0  0  0  0  0  0  0  0  0  0  0
   -1.5629   -1.2524   -2.0167 H   0  0  0  0  0  0  0  0  0  0  0  0
   -1.6760   -3.4356   -2.1207 H   0  0  0  0  0  0  0  0  0  0  0  0
   -0.5301   -3.3176   -0.7990 H   0  0  0  0  0  0  0  0  0  0  0  0
   -2.8295   -4.8245   -0.8417 H   0  0  0  0  0  0  0  0  0  0  0  0
   -1.7183   -4.6128    0.4944 H   0  0  0  0  0  0  0  0  0  0  0  0
   -4.2701   -4.2024    0.7956 H   0  0  0  0  0  0  0  0  0  0  0  0
   -3.1184   -3.1854    1.6704 H   0  0  0  0  0  0  0  0  0  0  0  0
   -4.1706   -1.4063    0.7772 H   0  0  0  0  0  0  0  0  0  0  0  0
   -5.2115   -2.4342   -0.2236 H   0  0  0  0  0  0  0  0  0  0  0  0
    1.2273   -3.1238    3.7829 H   0  0  0  0  0  0  0  0  0  0  0  0
    2.1437   -1.8102    2.9456 H   0  0  0  0  0  0  0  0  0  0  0  0
    0.1691   -3.5251    1.4578 H   0  0  0  0  0  0  0  0  0  0  0  0
   -0.2584   -1.9785    2.4064 H   0  0  0  0  0  0  0  0  0  0  0  0
    1.7304   -0.9289    1.2790 H   0  0  0  0  0  0  0  0  0  0  0  0
    3.1571   -2.1836    0.0146 H   0  0  0  0  0  0  0  0  0  0  0  0
    1.7962   -2.8415   -0.9725 H   0  0  0  0  0  0  0  0  0  0  0  0
    3.1765   -4.4426    0.2213 H   0  0  0  0  0  0  0  0  0  0  0  0
    1.4634   -4.6682    0.5082 H   0  0  0  0  0  0  0  0  0  0  0  0
    3.6349   -3.3688    2.2586 H   0  0  0  0  0  0  0  0  0  0  0  0
    0.3887   -1.7549   -1.2209 H   0  0  0  0  0  0  0  0  0  0  0  0
   -5.2294    1.8205   -0.8654 H   0  0  0  0  0  0  0  0  0  0  0  0
   -4.1905    3.7102    1.2797 H   0  0  0  0  0  0  0  0  0  0  0  0
   -3.3952    3.6506   -0.3934 H   0  0  0  0  0  0  0  0  0  0  0  0
   -5.3812    4.3176   -1.3573 H   0  0  0  0  0  0  0  0  0  0  0  0
   -5.5921    5.1273    0.2032 H   0  0  0  0  0  0  0  0  0  0  0  0
   -7.6162    4.0089    0.0520 H   0  0  0  0  0  0  0  0  0  0  0  0
   -7.0352    2.7532   -1.0519 H   0  0  0  0  0  0  0  0  0  0  0  0
   -7.5875    1.6315    0.9027 H   0  0  0  0  0  0  0  0  0  0  0  0
   -7.0169    2.9098    2.0083 H   0  0  0  0  0  0  0  0  0  0  0  0
   -5.6715    0.4569    1.2103 H   0  0  0  0  0  0  0  0  0  0  0  0
   -5.0036    1.7938    2.1835 H   0  0  0  0  0  0  0  0  0  0  0  0
    6.8243    1.1679    2.3515 H   0  0  0  0  0  0  0  0  0  0  0  0
    9.2594    0.9537   -0.5582 H   0  0  0  0  0  0  0  0  0  0  0  0
    5.6445    2.7269   -1.3231 H   0  0  0  0  0  0  0  0  0  0  0  0
    7.7137    2.1699    0.3588 H   0  0  0  0  0  0  0  0  0  0  0  0
    6.1333   -0.4312    0.3348 H   0  0  0  0  0  0  0  0  0  0  0  0
    5.5424    1.2480    0.6540 H   0  0  0  0  0  0  0  0  0  0  0  0
    7.0297    0.2808   -1.8479 H   0  0  0  0  0  0  0  0  0  0  0  0
    4.9684   -0.9767   -1.6186 H   0  0  0  0  0  0  0  0  0  0  0  0
    5.0400   -0.0092   -3.0984 H   0  0  0  0  0  0  0  0  0  0  0  0
    3.5660    1.7197   -2.1078 H   0  0  0  0  0  0  0  0  0  0  0  0
    2.7434   -0.0063   -3.4981 H   0  0  0  0  0  0  0  0  0  0  0  0
    2.7991   -1.2268   -2.2311 H   0  0  0  0  0  0  0  0  0  0  0  0
    0.4855   -0.4411   -2.8072 H   0  0  0  0  0  0  0  0  0  0  0  0
    0.9442    1.2335   -2.6087 H   0  0  0  0  0  0  0  0  0  0  0  0
   -1.4575   -1.6237    0.9852 H   0  0  0  0  0  0  0  0  0  0  0  0
   -0.5635    0.4100    1.3774 H   0  0  0  0  0  0  0  0  0  0  0  0
   -2.9537    0.4765    1.8289 H   0  0  0  0  0  0  0  0  0  0  0  0
   -3.0645    1.2368   -1.0721 H   0  0  0  0  0  0  0  0  0  0  0  0
   -2.1441    2.3405    2.3864 H   0  0  0  0  0  0  0  0  0  0  0  0
   -1.1125    1.1579   -1.5530 H   0  0  0  0  0  0  0  0  0  0  0  0
   -0.8812    3.1032    0.1000 H   0  0  0  0  0  0  0  0  0  0  0  0
    1.6344    3.0657    1.1025 H   0  0  0  0  0  0  0  0  0  0  0  0
    0.2259    2.5857    2.0362 H   0  0  0  0  0  0  0  0  0  0  0  0
    1.2176    1.3229    1.3203 H   0  0  0  0  0  0  0  0  0  0  0  0
    1.8226    2.9308   -1.2402 H   0  0  0  0  0  0  0  0  0  0  0  0
    0.2256    3.3655   -2.0985 H   0  0  0  0  0  0  0  0  0  0  0  0
    0.8211    4.2794   -0.7229 H   0  0  0  0  0  0  0  0  0  0  0  0
    3.5852    0.0804    0.2368 H   0  0  0  0  0  0  0  0  0  0  0  0
   -3.5836   -2.5924   -1.9208 H   0  0  0  0  0  0  0  0  0  0  0  0
   -3.9611   -0.9333   -1.7034 H   0  0  0  0  0  0  0  0  0  0  0  0
   -1.5629   -1.2524   -2.0167 H   0  0  0  0  0  0  0  0  0  0  0  0
   -1.6760   -3.4356   -2.1207 H   0  0  0  0  0  0  0  0  0  0  0  0
   -0.5301   -3.3176   -0.7990 H   0  0  0  0  0  0  0  0  0  0  0  0
   -2.8295   -4.8245   -0.8417 H   0  0  0  0  0  0  0  0  0  0  0  0
   -1.7183   -4.6128    0.4944 H   0  0  0  0  0  0  0  0  0  0  0  0
   -4.2701   -4.2024    0.7956 H   0  0  0  0  0  0  0  0  0  0  0  0
   -3.1184   -3.1854    1.6704 H   0  0  0  0  0  0  0  0  0  0  0  0
   -4.1706   -1.4063    0.7772 H   0  0  0  0  0  0  0  0  0  0  0  0
   -5.2115   -2.4342   -0.2236 H   0  0  0  0  0  0  0  0  0  0  0  0
    1.2273   -3.1238    3.7829 H   0  0  0  0  0  0  0  0  0  0  0  0
    2.1437   -1.8102    2.9456 H   0  0  0  0  0  0  0  0  0  0  0  0
    0.1691   -3.5251    1.4578 H   0  0  0  0  0  0  0  0  0  0  0  0
   -0.2584   -1.9785    2.4064 H   0  0  0  0  0  0  0  0  0  0  0  0
    1.7304   -0.9289    1.2790 H   0  0  0  0  0  0  0  0  0  0  0  0
    3.1571   -2.1836    0.0146 H   0  0  0  0  0  0  0  0  0  0  0  0
    1.7962   -2.8415   -0.9725 H   0  0  0  0  0  0  0  0  0  0  0  0
    3.1765   -4.4426    0.2213 H   0  0  0  0  0  0  0  0  0  0  0  0
    1.4634   -4.6682    0.5082 H   0  0  0  0  0  0  0  0  0  0  0  0
    3.6349   -3.3688    2.2586 H   0  0  0  0  0  0  0  0  0  0  0  0
    0.3887   -1.7549   -1.2209 H   0  0  0  0  0  0  0  0  0  0  0  0
   -5.2294    1.8205   -0.8654 H   0  0  0  0  0  0  0  0  0  0  0  0
   -4.1905    3.7102    1.2797 H   0  0  0  0  0  0  0  0  0  0  0  0
   -3.3952    3.6506   -0.3934 H   0  0  0  0  0  0  0  0  0  0  0  0
   -5.3812    4.3176   -1.3573 H   0  0  0  0  0  0  0  0  0  0  0  0
   -5.5921    5.1273    0.2032 H   0  0  0  0  0  0  0  0  0  0  0  0
   -7.6162    4.0089    0.0520 H   0  0  0  0  0  0  0  0  0  0  0  0
   -7.0352    2.7532   -1.0519 H   0  0  0  0  0  0  0  0  0  0  0  0
   -7.5875    1.6315    0.9027 H   0  0  0  0  0  0  0  0  0  0  0  0
   -7.0169    2.9098    2.0083 H   0  0  0  0  0  0  0  0  0  0  0  0
   -5.6715    0.4569    1.2103 H   0  0  0  0  0  0  0  0  0  0  0  0
   -5.0036    1.7938    2.1835 H   0  0  0  0  0  0  0  0  0  0  0  0
    6.8243    1.1679    2.3515 H   0  0  0  0  0  0  0  0  0  0  0  0
    9.2594    0.9537   -0.5582 H   0  0  0  0  0  0  0  0  0  0  0  0
    5.6445    2.7269   -1.3231 H   0  0  0  0  0  0  0  0  0  0  0  0
    7.7137    2.1699    0.3588 H   0  0  0  0  0  0  0  0  0  0  0  0
    6.1333   -0.4312    0.3348 H   0  0  0  0  0  0  0  0  0  0  0  0
    5.5424    1.2480    0.6540 H   0  0  0  0  0  0  0  0  0  0  0  0
    7.0297    0.2808   -1.8479 H   0  0  0  0  0  0  0  0  0  0  0  0
    4.9684   -0.9767   -1.6186 H   0  0  0  0  0  0  0  0  0  0  0  0
    5.0400   -0.0092   -3.0984 H   0  0  0  0  0  0  0  0  0  0  0  0
    3.5660    1.7197   -2.1078 H   0  0  0  0  0  0  0  0  0  0  0  0
    2.7434   -0.0063   -3.4981 H   0  0  0  0  0  0  0  0  0  0  0  0
    2.7991   -1.2268   -2.2311 H   0  0  0  0  0  0  0  0  0  0  0  0
    0.4855   -0.4411   -2.8072 H   0  0  0  0  0  0  0  0  0  0  0  0
    0.9442    1.2335   -2.6087 H   0  0  0  0  0  0  0  0  0  0  0  0
   -1.4575   -1.6237    0.9852 H   0  0  0  0  0  0  0  0  0  0  0  0
   -0.5635    0.4100    1.3774 H   0  0  0  0  0  0  0  0  0  0  0  0
   -2.9537    0.4765    1.8289 H   0  0  0  0  0  0  0  0  0  0  0  0
   -3.0645    1.2368   -1.0721 H   0  0  0  0  0  0  0  0  0  0  0  0
   -2.1441    2.3405    2.3864 H   0  0  0  0  0  0  0  0  0  0  0  0
   -1.1125    1.1579   -1.5530 H   0  0  0  0  0  0  0  0  0  0  0  0
   -0.8812    3.1032    0.1000 H   0  0  0  0  0  0  0  0  0  0  0  0
    1.6344    3.0657    1.1025 H   0  0  0  0  0  0  0  0  0  0  0  0
    0.2259    2.5857    2.0362 H   0  0  0  0  0  0  0  0  0  0  0  0
    1.2176    1.3229    1.3203 H   0  0  0  0  0  0  0  0  0  0  0  0
    1.8226    2.9308   -1.2402 H   0  0  0  0  0  0  0  0  0  0  0  0
    0.2256    3.3655   -2.0985 H   0  0  0  0  0  0  0  0  0  0  0  0
    0.8211    4.2794   -0.7229 H   0  0  0  0  0  0  0  0  0  0  0  0
    3.5852    0.0804    0.2368 H   0  0  0  0  0  0  0  0  0  0  0  0
  1  2  1  0
  2  3  1  0
  3  4  1  0
  4  5  1  0
  1  6  1  0
  5  6  1  0
  7  8  1  0
  8  9  1  0
  9 10  1  0
 10 11  1  0
  7 12  1  0
 11 12  1  0
 12 13  1  0
  9 14  1  0
 15 16  1  0
 16 17  1  0
 17 18  1  0
 18 19  1  0
 15 20  1  0
 19 20  1  0
 21 24  1  0
 22 24  1  0
 24 25  1  0
 23 26  1  0
 25 26  1  0
 26 27  1  0
 27 28  1  0
 28 29  1  0
 29 30  1  0
 14 31  1  0
 30 31  1  0
  2 32  1  0
 14 32  1  0
 32 33  1  0
 33 34  1  0
 15 35  1  0
 34 35  1  0
 34 36  1  0
 31 37  1  0
 33 37  1  0
 37 38  1  0
 38 39  1  0
 38 40  1  0
 28 41  1  0
 42 43  1  0
 43 44  1  0
 44 45  1  0
 45 46  1  0
 42 47  1  0
 46 47  1  0
 48 49  1  0
 49 50  1  0
 50 51  1  0
 51 52  1  0
 48 53  1  0
 52 53  1  0
 53 54  1  0
 50 55  1  0
 56 57  1  0
 57 58  1  0
 58 59  1  0
 59 60  1  0
 56 61  1  0
 60 61  1  0
 62 65  1  0
 63 65  1  0
 65 66  1  0
 64 67  1  0
 66 67  1  0
 67 68  1  0
 68 69  1  0
 69 70  1  0
 70 71  1  0
 55 72  1  0
 71 72  1  0
 43 73  1  0
 55 73  1  0
 73 74  1  0
 74 75  1  0
 56 76  1  0
 75 76  1  0
 75 77  1  0
 72 78  1  0
 74 78  1  0
 78 79  1  0
 79 80  1  0
 79 81  1  0
 69 82  1  0
 83 84  1  0
 84 85  1  0
 85 86  1  0
 86 87  1  0
 83 88  1  0
 87 88  1  0
 89 90  1  0
 90 91  1  0
 91 92  1  0
 92 93  1  0
 89 94  1  0
 93 94  1  0
 94 95  1  0
 91 96  1  0
 97 98  1  0
 98 99  1  0
 99100  1  0
100101  1  0
 97102  1  0
101102  1  0
103106  1  0
104106  1  0
106107  1  0
105108  1  0
107108  1  0
108109  1  0
109110  1  0
110111  1  0
111112  1  0
 96113  1  0
112113  1  0
 84114  1  0
 96114  1  0
114115  1  0
115116  1  0
 97117  1  0
116117  1  0
116118  1  0
113119  1  0
115119  1  0
119120  1  0
120121  1  0
120122  1  0
110123  1  0
124125  1  0
125126  1  0
126127  1  0
127128  1  0
124129  1  0
128129  1  0
130131  1  0
131132  1  0
132133  1  0
133134  1  0
130135  1  0
134135  1  0
135136  1  0
132137  1  0
138139  1  0
139140  1  0
140141  1  0
141142  1  0
138143  1  0
142143  1  0
144147  1  0
145147  1  0
147148  1  0
146149  1  0
148149  1  0
149150  1  0
150151  1  0
151152  1  0
152153  1  0
137154  1  0
153154  1  0
125155  1  0
137155  1  0
155156  1  0
156157  1  0
138158  1  0
157158  1  0
157159  1  0
154160  1  0
156160  1  0
160161  1  0
161162  1  0
161163  1  0
151164  1  0
  1165  1  0
  1166  1  0
  2167  1  0
  3168  1  0
  3169  1  0
  4170  1  0
  4171  1  0
  5172  1  0
  5173  1  0
  6174  1  0
  6175  1  0
  7176  1  0
  7177  1  0
  8178  1  0
  8179  1  0
  9180  1  0
 10181  1  0
 10182  1  0
 11183  1  0
 11184  1  0
 12185  1  0
 14186  1  0
 15187  1  0
 16188  1  0
 16189  1  0
 17190  1  0
 17191  1  0
 18192  1  0
 18193  1  0
 19194  1  0
 19195  1  0
 20196  1  0
 20197  1  0
 21198  1  0
 22199  1  0
 23200  1  0
 24201  1  0
 25202  1  0
 25203  1  0
 26204  1  6
 27205  1  0
 27206  1  0
 28207  1  6
 29208  1  0
 29209  1  0
 30210  1  0
 30211  1  0
 32212  1  0
 33213  1  0
 34214  1  0
 35215  1  0
 36216  1  0
 37217  1  0
 38218  1  0
 39219  1  0
 39220  1  0
 39221  1  0
 40222  1  0
 40223  1  0
 40224  1  0
 41225  1  0
 42226  1  0
 42227  1  0
 43228  1  0
 44229  1  0
 44230  1  0
 45231  1  0
 45232  1  0
 46233  1  0
 46234  1  0
 47235  1  0
 47236  1  0
 48237  1  0
 48238  1  0
 49239  1  0
 49240  1  0
 50241  1  0
 51242  1  0
 51243  1  0
 52244  1  0
 52245  1  0
 53246  1  0
 55247  1  0
 56248  1  0
 57249  1  0
 57250  1  0
 58251  1  0
 58252  1  0
 59253  1  0
 59254  1  0
 60255  1  0
 60256  1  0
 61257  1  0
 61258  1  0
 62259  1  0
 63260  1  0
 64261  1  0
 65262  1  0
 66263  1  0
 66264  1  0
 67265  1  6
 68266  1  0
 68267  1  0
 69268  1  6
 70269  1  0
 70270  1  0
 71271  1  0
 71272  1  0
 73273  1  0
 74274  1  0
 75275  1  0
 76276  1  0
 77277  1  0
 78278  1  0
 79279  1  0
 80280  1  0
 80281  1  0
 80282  1  0
 81283  1  0
 81284  1  0
 81285  1  0
 82286  1  0
 83287  1  0
 83288  1  0
 84289  1  0
 85290  1  0
 85291  1  0
 86292  1  0
 86293  1  0
 87294  1  0
 87295  1  0
 88296  1  0
 88297  1  0
 89298  1  0
 89299  1  0
 90300  1  0
 90301  1  0
 91302  1  0
 92303  1  0
 92304  1  0
 93305  1  0
 93306  1  0
 94307  1  0
 96308  1  0
 97309  1  0
 98310  1  0
 98311  1  0
 99312  1  0
 99313  1  0
100314  1  0
100315  1  0
101316  1  0
101317  1  0
102318  1  0
102319  1  0
103320  1  0
104321  1  0
105322  1  0
106323  1  0
107324  1  0
107325  1  0
108326  1  6
109327  1  0
109328  1  0
110329  1  6
111330  1  0
111331  1  0
112332  1  0
112333  1  0
114334  1  0
115335  1  0
116336  1  0
117337  1  0
118338  1  0
119339  1  0
120340  1  0
121341  1  0
121342  1  0
121343  1  0
122344  1  0
122345  1  0
122346  1  0
123347  1  0
124348  1  0
124349  1  0
125350  1  0
126351  1  0
126352  1  0
127353  1  0
127354  1  0
128355  1  0
128356  1  0
129357  1  0
129358  1  0
130359  1  0
130360  1  0
131361  1  0
131362  1  0
132363  1  0
133364  1  0
133365  1  0
134366  1  0
134367  1  0
135368  1  0
137369  1  0
138370  1  0
139371  1  0
139372  1  0
140373  1  0
140374  1  0
141375  1  0
141376  1  0
142377  1  0
142378  1  0
143379  1  0
143380  1  0
144381  1  0
145382  1  0
146383  1  0
147384  1  0
148385  1  0
148386  1  0
149387  1  6
150388  1  0
150389  1  0
151390  1  6
152391  1  0
152392  1  0
153393  1  0
153394  1  0
155395  1  0
156396  1  0
157397  1  0
158398  1  0
159399  1  0
160400  1  0
161401  1  0
162402  1  0
162403  1  0
162404  1  0
163405  1  0
163406  1  0
163407  1  0
164408  1  0
M  END
>  <PDBID>  (1) 
1HWK

>  <PDB ID>  (1) 
1HWK

>  <Generic Name>  (1) 
Atorvastatin

>  <Brand Name>  (1) 
Ach-atorvastatin Calcium#Act Atorvastatin#Amlodipine Besylate and Atorvastatin Calcium#Amlodipine Besylate/atorvastatin Calcium#Apo-amlodipine-atorvastatin#Apo-atorvastatin#Atorvastatin#Atorvastatin Calcium#Atorvastatin-10#Atorvastatin-20#Atorvastatin-40#Atorvastatin-80#Auro-atorvastatin#Ava-atorvastatin#Caduet#Dom-atorvastatin#Gd-amlodipine/atorvastatin#Gd-atorvastatin#Jamp-atorvastatin#Lipitor#Liptruzet#Mar-atorvastatin#Mylan-amlodipine/atorvastatin#Mylan-atorvastatin#Novo-atorvastatin#Ntp-atorvastatin#PMS-amlodipine-atorvastatin#PMS-atorvastatin#Pendo-amlodipine-atorvastatin#Q-gen Atorvastatin#Ran-atorvastatin#Ratio-atorvastatin#Rbx-atorvastatin#Reddy-atorvastatin#Riva-atorvastatin#Sandoz Atorvastatin#Atogal#Cardyl#Faboxim#Hipolixan#Lipotropic#Liprimar#Lowden#Normalip#Sincol#Sortis#Torvacard#Torvast#Totalip#Tulip#Vastina#Xanator#Xarator#Zurinel

>  <DrugBank ID>  (1) 
DB01076

>  <ATC Codes>  (1) 
C10AA05#C10BA05#C10BX06#C10BX11#C10BX03#C10BX08

>  <Ligand ID>  (1) 
117

>  <Target Name>  (1) 
3-hydroxy-3-methylglutaryl-coenzyme A reductase

>  <UniProt ID>  (1) 
P04035

>  <PDB ID.1>  (1) 
1HWK

>  <Seq. Identity>  (1) 
97%

$$$$
