PDB_DB01157_01
     RDKit          3D

264272  0  0  0  0  0  0  0  0999 V2000
    5.5436   -0.5549    0.6630 N   0  0  0  0  0  0  0  0  0  0  0  0
    5.9397    0.3007   -0.4425 C   0  0  1  0  0  0  0  0  0  0  0  0
    5.0194    1.3739   -0.6486 N   0  0  0  0  0  0  0  0  0  0  0  0
    3.7317    0.9081   -1.1891 C   0  0  2  0  0  0  0  0  0  0  0  0
    4.1011   -0.4398    0.7823 C   0  0  0  0  0  0  0  0  0  0  0  0
    3.4855   -0.4838   -0.5816 C   0  0  0  0  0  0  0  0  0  0  0  0
    2.0689   -0.9100   -0.6604 C   0  0  0  0  0  0  0  0  0  0  0  0
    1.5532   -1.7049    0.4873 C   0  0  0  0  0  0  0  0  0  0  0  0
    2.1287   -1.3091    1.8280 C   0  0  0  0  0  0  0  0  0  0  0  0
    3.6416   -1.5456    1.6950 C   0  0  0  0  0  0  0  0  0  0  0  0
    0.0707   -1.7235    0.6099 C   0  0  0  0  0  0  0  0  0  0  0  0
   -0.5374   -0.4505    0.7893 N   0  0  0  0  0  0  0  0  0  0  0  0
   -1.9606   -0.4982    0.9029 C   0  0  0  0  0  0  0  0  0  0  0  0
   -2.6031    0.8326    1.0959 C   0  0  0  0  0  0  0  0  0  0  0  0
   -3.2964    1.3709   -0.1174 C   0  0  0  0  0  0  0  0  0  0  0  0
   -4.3496    0.4544   -0.6680 C   0  0  0  0  0  0  0  0  0  0  0  0
   -4.1216   -0.9542   -0.1036 C   0  0  0  0  0  0  0  0  0  0  0  0
   -2.6326   -1.2021   -0.2468 C   0  0  0  0  0  0  0  0  0  0  0  0
    1.1248    0.2327   -1.0680 C   0  0  0  0  0  0  0  0  0  0  0  0
   -3.9057    2.5659    0.2276 O   0  0  0  0  0  0  0  0  0  0  0  0
   -5.6315    0.8874   -0.4542 O   0  0  0  0  0  0  0  0  0  0  0  0
   -4.4516   -0.9959    1.2285 O   0  0  0  0  0  0  0  0  0  0  0  0
   -3.3865    3.6537   -0.4613 C   0  0  0  0  0  0  0  0  0  0  0  0
   -6.3074    1.0608   -1.6510 C   0  0  0  0  0  0  0  0  0  0  0  0
   -5.3940   -1.9515    1.5484 C   0  0  0  0  0  0  0  0  0  0  0  0
    7.2270    0.8554   -0.1150 N   0  0  0  0  0  0  0  0  0  0  0  0
    3.8699    0.8609   -2.6093 N   0  0  0  0  0  0  0  0  0  0  0  0
    5.6072   -0.6121    0.6507 N   0  0  0  0  0  0  0  0  0  0  0  0
    6.0016    0.3086   -0.3975 C   0  0  1  0  0  0  0  0  0  0  0  0
    5.0937    1.4179   -0.5223 N   0  0  0  0  0  0  0  0  0  0  0  0
    3.8070    0.9919   -1.0967 C   0  0  0  0  0  0  0  0  0  0  0  0
    4.1521   -0.4671    0.7876 C   0  0  0  0  0  0  0  0  0  0  0  0
    3.5288   -0.4242   -0.5621 C   0  0  0  0  0  0  0  0  0  0  0  0
    2.0970   -0.7974   -0.6508 C   0  0  1  0  0  0  0  0  0  0  0  0
    1.5481   -1.5815    0.4764 C   0  0  0  0  0  0  0  0  0  0  0  0
    2.1389   -1.2327    1.8291 C   0  0  0  0  0  0  0  0  0  0  0  0
    3.6182   -1.5565    1.6822 C   0  0  0  0  0  0  0  0  0  0  0  0
    0.0687   -1.5862    0.6189 C   0  0  0  0  0  0  0  0  0  0  0  0
   -0.5412   -0.3198    0.8191 N   0  0  0  0  0  0  0  0  0  0  0  0
   -1.9719   -0.4447    0.9446 C   0  0  0  0  0  0  0  0  0  0  0  0
   -2.6542    0.8798    1.1578 C   0  0  0  0  0  0  0  0  0  0  0  0
   -3.3690    1.3859   -0.0530 C   0  0  0  0  0  0  0  0  0  0  0  0
   -4.3500    0.3961   -0.6333 C   0  0  0  0  0  0  0  0  0  0  0  0
   -4.1189   -0.9951   -0.0253 C   0  0  0  0  0  0  0  0  0  0  0  0
   -2.6201   -1.2059   -0.1604 C   0  0  0  0  0  0  0  0  0  0  0  0
    1.2059    0.3940   -1.0215 C   0  0  0  0  0  0  0  0  0  0  0  0
   -4.0744    2.5309    0.2807 O   0  0  0  0  0  0  0  0  0  0  0  0
   -5.6532    0.7882   -0.5413 O   0  0  0  0  0  0  0  0  0  0  0  0
   -4.4265   -1.0442    1.3086 O   0  0  0  0  0  0  0  0  0  0  0  0
   -3.6126    3.6628   -0.3748 C   0  0  0  0  0  0  0  0  0  0  0  0
   -6.2048    0.9109   -1.8133 C   0  0  0  0  0  0  0  0  0  0  0  0
   -5.3416   -2.0232    1.6508 C   0  0  0  0  0  0  0  0  0  0  0  0
    7.2990    0.8481   -0.0340 N   0  0  0  0  0  0  0  0  0  0  0  0
    3.9771    1.0012   -2.5207 N   0  0  0  0  0  0  0  0  0  0  0  0
    5.5512   -0.3719    0.7550 N   0  0  0  0  0  0  0  0  0  0  0  0
    6.0596    0.4845   -0.2766 C   0  0  0  0  0  0  0  0  0  0  0  0
    5.4175    0.2560   -1.5565 N   0  0  0  0  0  0  0  0  0  0  0  0
    3.9684    0.4470   -1.4335 C   0  0  2  0  0  0  0  0  0  0  0  0
    4.1180   -0.1648    0.9051 C   0  0  0  0  0  0  0  0  0  0  0  0
    3.4672   -0.5221   -0.3886 C   0  0  0  0  0  0  0  0  0  0  0  0
    1.9697   -0.6110   -0.3210 C   0  0  1  0  0  0  0  0  0  0  0  0
    1.4983   -1.2805    0.9329 C   0  0  0  0  0  0  0  0  0  0  0  0
    2.1246   -0.6674    2.1796 C   0  0  0  0  0  0  0  0  0  0  0  0
    3.6080   -0.9652    2.0842 C   0  0  0  0  0  0  0  0  0  0  0  0
    0.0266   -1.4298    1.0293 C   0  0  0  0  0  0  0  0  0  0  0  0
   -0.6988   -0.1844    1.0020 N   0  0  0  0  0  0  0  0  0  0  0  0
   -2.1332   -0.3769    1.0915 C   0  0  0  0  0  0  0  0  0  0  0  0
   -2.7596    1.0083    1.0501 C   0  0  0  0  0  0  0  0  0  0  0  0
   -3.3219    1.2884   -0.3441 C   0  0  0  0  0  0  0  0  0  0  0  0
   -4.4180    0.3064   -0.7050 C   0  0  0  0  0  0  0  0  0  0  0  0
   -4.1769   -1.0612   -0.0740 C   0  0  0  0  0  0  0  0  0  0  0  0
   -2.6724   -1.2475   -0.0200 C   0  0  0  0  0  0  0  0  0  0  0  0
    1.2767    0.7071   -0.5901 C   0  0  0  0  0  0  0  0  0  0  0  0
   -3.7862    2.5952   -0.3358 O   0  0  0  0  0  0  0  0  0  0  0  0
   -5.6675    0.7967   -0.4245 O   0  0  0  0  0  0  0  0  0  0  0  0
   -4.6713   -1.1590    1.1989 O   0  0  0  0  0  0  0  0  0  0  0  0
   -3.0649    3.4212   -1.1820 C   0  0  0  0  0  0  0  0  0  0  0  0
   -6.4268    0.9334   -1.5842 C   0  0  0  0  0  0  0  0  0  0  0  0
   -5.6181   -2.1640    1.3558 C   0  0  0  0  0  0  0  0  0  0  0  0
    7.4782    0.1865   -0.4719 N   0  0  0  0  0  0  0  0  0  0  0  0
    3.4242    0.1840   -2.7478 N   0  0  0  0  0  0  0  0  0  0  0  0
    5.5512   -0.3719    0.7550 N   0  0  0  0  0  0  0  0  0  0  0  0
    6.0596    0.4845   -0.2766 C   0  0  0  0  0  0  0  0  0  0  0  0
    5.4175    0.2560   -1.5565 N   0  0  0  0  0  0  0  0  0  0  0  0
    3.9684    0.4470   -1.4335 C   0  0  2  0  0  0  0  0  0  0  0  0
    4.1180   -0.1648    0.9051 C   0  0  0  0  0  0  0  0  0  0  0  0
    3.4672   -0.5221   -0.3886 C   0  0  0  0  0  0  0  0  0  0  0  0
    1.9697   -0.6110   -0.3210 C   0  0  1  0  0  0  0  0  0  0  0  0
    1.4983   -1.2805    0.9329 C   0  0  0  0  0  0  0  0  0  0  0  0
    2.1246   -0.6674    2.1796 C   0  0  0  0  0  0  0  0  0  0  0  0
    3.6080   -0.9652    2.0842 C   0  0  0  0  0  0  0  0  0  0  0  0
    0.0266   -1.4298    1.0293 C   0  0  0  0  0  0  0  0  0  0  0  0
   -0.6988   -0.1844    1.0020 N   0  0  0  0  0  0  0  0  0  0  0  0
   -2.1332   -0.3769    1.0915 C   0  0  0  0  0  0  0  0  0  0  0  0
   -2.7596    1.0083    1.0501 C   0  0  0  0  0  0  0  0  0  0  0  0
   -3.3219    1.2884   -0.3441 C   0  0  0  0  0  0  0  0  0  0  0  0
   -4.4180    0.3064   -0.7050 C   0  0  0  0  0  0  0  0  0  0  0  0
   -4.1769   -1.0612   -0.0740 C   0  0  0  0  0  0  0  0  0  0  0  0
   -2.6724   -1.2475   -0.0200 C   0  0  0  0  0  0  0  0  0  0  0  0
    1.2767    0.7071   -0.5901 C   0  0  0  0  0  0  0  0  0  0  0  0
   -3.7862    2.5952   -0.3358 O   0  0  0  0  0  0  0  0  0  0  0  0
   -5.6675    0.7967   -0.4245 O   0  0  0  0  0  0  0  0  0  0  0  0
   -4.6713   -1.1590    1.1989 O   0  0  0  0  0  0  0  0  0  0  0  0
   -3.0649    3.4212   -1.1820 C   0  0  0  0  0  0  0  0  0  0  0  0
   -6.4268    0.9334   -1.5842 C   0  0  0  0  0  0  0  0  0  0  0  0
   -5.6181   -2.1640    1.3558 C   0  0  0  0  0  0  0  0  0  0  0  0
    7.4782    0.1865   -0.4719 N   0  0  0  0  0  0  0  0  0  0  0  0
    3.4242    0.1840   -2.7478 N   0  0  0  0  0  0  0  0  0  0  0  0
    5.8795   -1.5182    0.5712 H   0  0  0  0  0  0  0  0  0  0  0  0
    6.0170   -0.3186   -1.3581 H   0  0  0  0  0  0  0  0  0  0  0  0
    4.8871    1.9278    0.2256 H   0  0  0  0  0  0  0  0  0  0  0  0
    2.9917    1.6441   -0.8261 H   0  0  0  0  0  0  0  0  0  0  0  0
    3.8394    0.5178    1.2622 H   0  0  0  0  0  0  0  0  0  0  0  0
    4.1637   -1.1532   -1.1944 H   0  0  0  0  0  0  0  0  0  0  0  0
    1.9956   -1.6006   -1.5617 H   0  0  0  0  0  0  0  0  0  0  0  0
    1.8736   -2.7824    0.3464 H   0  0  0  0  0  0  0  0  0  0  0  0
    2.0128   -0.2514    2.0581 H   0  0  0  0  0  0  0  0  0  0  0  0
    1.7211   -1.9856    2.5841 H   0  0  0  0  0  0  0  0  0  0  0  0
    3.7805   -2.5467    1.2765 H   0  0  0  0  0  0  0  0  0  0  0  0
    4.1448   -1.3945    2.6687 H   0  0  0  0  0  0  0  0  0  0  0  0
   -0.4365   -2.2327   -0.2350 H   0  0  0  0  0  0  0  0  0  0  0  0
   -0.1793   -2.3450    1.5142 H   0  0  0  0  0  0  0  0  0  0  0  0
   -0.1708    0.0946    1.5975 H   0  0  0  0  0  0  0  0  0  0  0  0
   -2.1928   -1.1157    1.8204 H   0  0  0  0  0  0  0  0  0  0  0  0
   -3.2647    0.8590    2.0108 H   0  0  0  0  0  0  0  0  0  0  0  0
   -1.7829    1.5624    1.3420 H   0  0  0  0  0  0  0  0  0  0  0  0
   -2.5239    1.5965   -0.8814 H   0  0  0  0  0  0  0  0  0  0  0  0
   -4.1874    0.3549   -1.7611 H   0  0  0  0  0  0  0  0  0  0  0  0
   -4.6773   -1.7059   -0.6988 H   0  0  0  0  0  0  0  0  0  0  0  0
   -2.4780   -2.2816   -0.2565 H   0  0  0  0  0  0  0  0  0  0  0  0
   -2.2485   -0.7125   -1.1882 H   0  0  0  0  0  0  0  0  0  0  0  0
    1.5889    0.7119   -1.9642 H   0  0  0  0  0  0  0  0  0  0  0  0
    1.0092    0.9864   -0.2993 H   0  0  0  0  0  0  0  0  0  0  0  0
    0.2032   -0.2389   -1.4480 H   0  0  0  0  0  0  0  0  0  0  0  0
   -3.5011    3.5577   -1.5576 H   0  0  0  0  0  0  0  0  0  0  0  0
   -3.9618    4.5481   -0.1368 H   0  0  0  0  0  0  0  0  0  0  0  0
   -2.3347    3.8488   -0.2440 H   0  0  0  0  0  0  0  0  0  0  0  0
   -6.3665    0.1067   -2.2305 H   0  0  0  0  0  0  0  0  0  0  0  0
   -7.3581    1.3857   -1.4550 H   0  0  0  0  0  0  0  0  0  0  0  0
   -5.7917    1.7923   -2.3254 H   0  0  0  0  0  0  0  0  0  0  0  0
   -5.0695   -2.9768    1.3018 H   0  0  0  0  0  0  0  0  0  0  0  0
   -6.3915   -1.6876    1.1630 H   0  0  0  0  0  0  0  0  0  0  0  0
   -5.4925   -1.9339    2.6712 H   0  0  0  0  0  0  0  0  0  0  0  0
    7.2088    1.8599    0.1144 H   0  0  0  0  0  0  0  0  0  0  0  0
    7.6969    0.3692    0.6797 H   0  0  0  0  0  0  0  0  0  0  0  0
    3.6237    1.8013   -3.0000 H   0  0  0  0  0  0  0  0  0  0  0  0
    4.8445    0.6231   -2.9004 H   0  0  0  0  0  0  0  0  0  0  0  0
    5.7370   -1.5990    0.2775 H   0  0  0  0  0  0  0  0  0  0  0  0
    6.0518   -0.1921   -1.3875 H   0  0  0  0  0  0  0  0  0  0  0  0
    4.9759    1.9801    0.3293 H   0  0  0  0  0  0  0  0  0  0  0  0
    3.0709    1.7187   -0.7267 H   0  0  0  0  0  0  0  0  0  0  0  0
    3.9867    0.4945    1.3164 H   0  0  0  0  0  0  0  0  0  0  0  0
    4.1789   -1.0763   -1.2235 H   0  0  0  0  0  0  0  0  0  0  0  0
    1.9934   -1.4532   -1.5740 H   0  0  0  0  0  0  0  0  0  0  0  0
    1.8525   -2.6619    0.3205 H   0  0  0  0  0  0  0  0  0  0  0  0
    2.0801   -0.1538    2.0552 H   0  0  0  0  0  0  0  0  0  0  0  0
    1.6388   -1.8719    2.5736 H   0  0  0  0  0  0  0  0  0  0  0  0
    4.1608   -1.4924    2.6423 H   0  0  0  0  0  0  0  0  0  0  0  0
    3.7503   -2.5119    1.1585 H   0  0  0  0  0  0  0  0  0  0  0  0
   -0.4337   -2.1237   -0.2181 H   0  0  0  0  0  0  0  0  0  0  0  0
   -0.1580   -2.2144    1.5296 H   0  0  0  0  0  0  0  0  0  0  0  0
   -0.2101    0.1525    1.6899 H   0  0  0  0  0  0  0  0  0  0  0  0
   -2.1454   -1.0360    1.8924 H   0  0  0  0  0  0  0  0  0  0  0  0
   -3.3395    0.8947    2.0235 H   0  0  0  0  0  0  0  0  0  0  0  0
   -1.8663    1.6521    1.3998 H   0  0  0  0  0  0  0  0  0  0  0  0
   -2.5889    1.7004   -0.7897 H   0  0  0  0  0  0  0  0  0  0  0  0
   -4.0815    0.2806   -1.7033 H   0  0  0  0  0  0  0  0  0  0  0  0
   -4.6484   -1.7478   -0.6398 H   0  0  0  0  0  0  0  0  0  0  0  0
   -2.4613   -2.3001   -0.1229 H   0  0  0  0  0  0  0  0  0  0  0  0
   -2.2563   -0.7852   -1.1430 H   0  0  0  0  0  0  0  0  0  0  0  0
    1.6820    0.8355   -1.9263 H   0  0  0  0  0  0  0  0  0  0  0  0
    1.0675    1.0927   -0.2079 H   0  0  0  0  0  0  0  0  0  0  0  0
    0.2532   -0.0425   -1.3941 H   0  0  0  0  0  0  0  0  0  0  0  0
   -3.6939    3.5427   -1.4866 H   0  0  0  0  0  0  0  0  0  0  0  0
   -4.3517    4.4790   -0.1338 H   0  0  0  0  0  0  0  0  0  0  0  0
   -2.6369    4.0084   -0.0386 H   0  0  0  0  0  0  0  0  0  0  0  0
   -6.1737   -0.0601   -2.3782 H   0  0  0  0  0  0  0  0  0  0  0  0
   -7.2796    1.1895   -1.7788 H   0  0  0  0  0  0  0  0  0  0  0  0
   -5.6800    1.6572   -2.4422 H   0  0  0  0  0  0  0  0  0  0  0  0
   -4.9537   -3.0450    1.3814 H   0  0  0  0  0  0  0  0  0  0  0  0
   -6.3504   -1.8567    1.2680 H   0  0  0  0  0  0  0  0  0  0  0  0
   -5.4093   -2.0274    2.7614 H   0  0  0  0  0  0  0  0  0  0  0  0
    7.7551    1.3550   -0.8092 H   0  0  0  0  0  0  0  0  0  0  0  0
    7.9202    0.0326    0.2062 H   0  0  0  0  0  0  0  0  0  0  0  0
    3.6164    1.8478   -2.9874 H   0  0  0  0  0  0  0  0  0  0  0  0
    3.7421    0.1117   -2.9866 H   0  0  0  0  0  0  0  0  0  0  0  0
    5.7413   -1.3540    0.4860 H   0  0  0  0  0  0  0  0  0  0  0  0
    5.9556    1.5546   -0.0175 H   0  0  0  0  0  0  0  0  0  0  0  0
    5.6666   -0.6370   -1.9909 H   0  0  0  0  0  0  0  0  0  0  0  0
    3.8436    1.4918   -1.0999 H   0  0  0  0  0  0  0  0  0  0  0  0
    3.9362    0.9023    1.1156 H   0  0  0  0  0  0  0  0  0  0  0  0
    3.8697   -1.5331   -0.6895 H   0  0  0  0  0  0  0  0  0  0  0  0
    1.6605   -1.2880   -1.1731 H   0  0  0  0  0  0  0  0  0  0  0  0
    1.9231   -2.3290    0.8964 H   0  0  0  0  0  0  0  0  0  0  0  0
    2.0353    0.4469    2.1616 H   0  0  0  0  0  0  0  0  0  0  0  0
    1.6467   -1.1323    3.0409 H   0  0  0  0  0  0  0  0  0  0  0  0
    4.1695   -0.6185    2.9703 H   0  0  0  0  0  0  0  0  0  0  0  0
    3.7629   -2.0299    1.8561 H   0  0  0  0  0  0  0  0  0  0  0  0
   -0.3178   -2.0867    0.2056 H   0  0  0  0  0  0  0  0  0  0  0  0
   -0.2593   -1.9475    1.9679 H   0  0  0  0  0  0  0  0  0  0  0  0
   -0.4554    0.4410    1.8030 H   0  0  0  0  0  0  0  0  0  0  0  0
   -2.4440   -0.8394    2.0510 H   0  0  0  0  0  0  0  0  0  0  0  0
   -3.5397    1.1275    1.8283 H   0  0  0  0  0  0  0  0  0  0  0  0
   -2.0081    1.8048    1.2338 H   0  0  0  0  0  0  0  0  0  0  0  0
   -2.4648    1.2381   -1.0483 H   0  0  0  0  0  0  0  0  0  0  0  0
   -4.3427    0.1462   -1.8003 H   0  0  0  0  0  0  0  0  0  0  0  0
   -4.6569   -1.8313   -0.7215 H   0  0  0  0  0  0  0  0  0  0  0  0
   -2.4987   -2.3182    0.1967 H   0  0  0  0  0  0  0  0  0  0  0  0
   -2.2410   -0.9425   -0.9988 H   0  0  0  0  0  0  0  0  0  0  0  0
    1.8393    1.2822   -1.3633 H   0  0  0  0  0  0  0  0  0  0  0  0
    1.1811    1.3401    0.3078 H   0  0  0  0  0  0  0  0  0  0  0  0
    0.2671    0.5650   -1.0298 H   0  0  0  0  0  0  0  0  0  0  0  0
   -3.1013    3.0884   -2.2389 H   0  0  0  0  0  0  0  0  0  0  0  0
   -3.5875    4.4158   -1.1703 H   0  0  0  0  0  0  0  0  0  0  0  0
   -2.0409    3.6043   -0.8272 H   0  0  0  0  0  0  0  0  0  0  0  0
   -6.5461   -0.0577   -2.0888 H   0  0  0  0  0  0  0  0  0  0  0  0
   -7.4535    1.2229   -1.2517 H   0  0  0  0  0  0  0  0  0  0  0  0
   -5.9825    1.6282   -2.2956 H   0  0  0  0  0  0  0  0  0  0  0  0
   -5.1201   -3.1180    1.0931 H   0  0  0  0  0  0  0  0  0  0  0  0
   -6.5515   -1.9919    0.8230 H   0  0  0  0  0  0  0  0  0  0  0  0
   -5.8530   -2.2185    2.4391 H   0  0  0  0  0  0  0  0  0  0  0  0
    7.9739    0.2526    0.4443 H   0  0  0  0  0  0  0  0  0  0  0  0
    7.8567    0.8385   -1.1789 H   0  0  0  0  0  0  0  0  0  0  0  0
    3.6121    1.0546   -3.3169 H   0  0  0  0  0  0  0  0  0  0  0  0
    3.9510   -0.5809   -3.2214 H   0  0  0  0  0  0  0  0  0  0  0  0
    5.7413   -1.3540    0.4860 H   0  0  0  0  0  0  0  0  0  0  0  0
    5.9556    1.5546   -0.0175 H   0  0  0  0  0  0  0  0  0  0  0  0
    5.6666   -0.6370   -1.9909 H   0  0  0  0  0  0  0  0  0  0  0  0
    3.8436    1.4918   -1.0999 H   0  0  0  0  0  0  0  0  0  0  0  0
    3.9362    0.9023    1.1156 H   0  0  0  0  0  0  0  0  0  0  0  0
    3.8697   -1.5331   -0.6895 H   0  0  0  0  0  0  0  0  0  0  0  0
    1.6605   -1.2880   -1.1731 H   0  0  0  0  0  0  0  0  0  0  0  0
    1.9231   -2.3290    0.8964 H   0  0  0  0  0  0  0  0  0  0  0  0
    2.0353    0.4469    2.1616 H   0  0  0  0  0  0  0  0  0  0  0  0
    1.6467   -1.1323    3.0409 H   0  0  0  0  0  0  0  0  0  0  0  0
    4.1695   -0.6185    2.9703 H   0  0  0  0  0  0  0  0  0  0  0  0
    3.7629   -2.0299    1.8561 H   0  0  0  0  0  0  0  0  0  0  0  0
   -0.3178   -2.0867    0.2056 H   0  0  0  0  0  0  0  0  0  0  0  0
   -0.2593   -1.9475    1.9679 H   0  0  0  0  0  0  0  0  0  0  0  0
   -0.4554    0.4410    1.8030 H   0  0  0  0  0  0  0  0  0  0  0  0
   -2.4440   -0.8394    2.0510 H   0  0  0  0  0  0  0  0  0  0  0  0
   -3.5397    1.1275    1.8283 H   0  0  0  0  0  0  0  0  0  0  0  0
   -2.0081    1.8048    1.2338 H   0  0  0  0  0  0  0  0  0  0  0  0
   -2.4648    1.2381   -1.0483 H   0  0  0  0  0  0  0  0  0  0  0  0
   -4.3427    0.1462   -1.8003 H   0  0  0  0  0  0  0  0  0  0  0  0
   -4.6569   -1.8313   -0.7215 H   0  0  0  0  0  0  0  0  0  0  0  0
   -2.4987   -2.3182    0.1967 H   0  0  0  0  0  0  0  0  0  0  0  0
   -2.2410   -0.9425   -0.9988 H   0  0  0  0  0  0  0  0  0  0  0  0
    1.8393    1.2822   -1.3633 H   0  0  0  0  0  0  0  0  0  0  0  0
    1.1811    1.3401    0.3078 H   0  0  0  0  0  0  0  0  0  0  0  0
    0.2671    0.5650   -1.0298 H   0  0  0  0  0  0  0  0  0  0  0  0
   -3.1013    3.0884   -2.2389 H   0  0  0  0  0  0  0  0  0  0  0  0
   -3.5875    4.4158   -1.1703 H   0  0  0  0  0  0  0  0  0  0  0  0
   -2.0409    3.6043   -0.8272 H   0  0  0  0  0  0  0  0  0  0  0  0
   -6.5461   -0.0577   -2.0888 H   0  0  0  0  0  0  0  0  0  0  0  0
   -7.4535    1.2229   -1.2517 H   0  0  0  0  0  0  0  0  0  0  0  0
   -5.9825    1.6282   -2.2956 H   0  0  0  0  0  0  0  0  0  0  0  0
   -5.1201   -3.1180    1.0931 H   0  0  0  0  0  0  0  0  0  0  0  0
   -6.5515   -1.9919    0.8230 H   0  0  0  0  0  0  0  0  0  0  0  0
   -5.8530   -2.2185    2.4391 H   0  0  0  0  0  0  0  0  0  0  0  0
    7.9739    0.2526    0.4443 H   0  0  0  0  0  0  0  0  0  0  0  0
    7.8567    0.8385   -1.1789 H   0  0  0  0  0  0  0  0  0  0  0  0
    3.6121    1.0546   -3.3169 H   0  0  0  0  0  0  0  0  0  0  0  0
    3.9510   -0.5809   -3.2214 H   0  0  0  0  0  0  0  0  0  0  0  0
  1  2  1  0
  2  3  1  0
  3  4  1  0
  1  5  1  0
  4  6  1  0
  5  6  1  0
  6  7  1  0
  7  8  1  0
  8  9  1  0
  5 10  1  0
  9 10  1  0
  8 11  1  0
 11 12  1  0
 12 13  1  0
 13 14  1  0
 14 15  1  0
 15 16  1  0
 16 17  1  0
 13 18  1  0
 17 18  1  0
  7 19  1  0
 15 20  1  0
 16 21  1  0
 17 22  1  0
 20 23  1  0
 21 24  1  0
 22 25  1  0
  2 26  1  0
  4 27  1  0
 28 29  1  0
 29 30  1  0
 30 31  1  0
 28 32  1  0
 31 33  1  0
 32 33  1  0
 33 34  1  0
 34 35  1  0
 35 36  1  0
 32 37  1  0
 36 37  1  0
 35 38  1  0
 38 39  1  0
 39 40  1  0
 40 41  1  0
 41 42  1  0
 42 43  1  0
 43 44  1  0
 40 45  1  0
 44 45  1  0
 34 46  1  0
 42 47  1  0
 43 48  1  0
 44 49  1  0
 47 50  1  0
 48 51  1  0
 49 52  1  0
 29 53  1  0
 31 54  1  0
 55 56  1  0
 56 57  1  0
 57 58  1  0
 55 59  1  0
 58 60  1  0
 59 60  1  0
 60 61  1  0
 61 62  1  0
 62 63  1  0
 59 64  1  0
 63 64  1  0
 62 65  1  0
 65 66  1  0
 66 67  1  0
 67 68  1  0
 68 69  1  0
 69 70  1  0
 70 71  1  0
 67 72  1  0
 71 72  1  0
 61 73  1  0
 69 74  1  0
 70 75  1  0
 71 76  1  0
 74 77  1  0
 75 78  1  0
 76 79  1  0
 56 80  1  0
 58 81  1  0
 82 83  1  0
 83 84  1  0
 84 85  1  0
 82 86  1  0
 85 87  1  0
 86 87  1  0
 87 88  1  0
 88 89  1  0
 89 90  1  0
 86 91  1  0
 90 91  1  0
 89 92  1  0
 92 93  1  0
 93 94  1  0
 94 95  1  0
 95 96  1  0
 96 97  1  0
 97 98  1  0
 94 99  1  0
 98 99  1  0
 88100  1  0
 96101  1  0
 97102  1  0
 98103  1  0
101104  1  0
102105  1  0
103106  1  0
 83107  1  0
 85108  1  0
  1109  1  0
  2110  1  6
  3111  1  0
  4112  1  6
  5113  1  0
  6114  1  0
  7115  1  0
  8116  1  0
  9117  1  0
  9118  1  0
 10119  1  0
 10120  1  0
 11121  1  0
 11122  1  0
 12123  1  0
 13124  1  0
 14125  1  0
 14126  1  0
 15127  1  0
 16128  1  0
 17129  1  0
 18130  1  0
 18131  1  0
 19132  1  0
 19133  1  0
 19134  1  0
 23135  1  0
 23136  1  0
 23137  1  0
 24138  1  0
 24139  1  0
 24140  1  0
 25141  1  0
 25142  1  0
 25143  1  0
 26144  1  0
 26145  1  0
 27146  1  0
 27147  1  0
 28148  1  0
 29149  1  6
 30150  1  0
 31151  1  0
 32152  1  0
 33153  1  0
 34154  1  6
 35155  1  0
 36156  1  0
 36157  1  0
 37158  1  0
 37159  1  0
 38160  1  0
 38161  1  0
 39162  1  0
 40163  1  0
 41164  1  0
 41165  1  0
 42166  1  0
 43167  1  0
 44168  1  0
 45169  1  0
 45170  1  0
 46171  1  0
 46172  1  0
 46173  1  0
 50174  1  0
 50175  1  0
 50176  1  0
 51177  1  0
 51178  1  0
 51179  1  0
 52180  1  0
 52181  1  0
 52182  1  0
 53183  1  0
 53184  1  0
 54185  1  0
 54186  1  0
 55187  1  0
 56188  1  0
 57189  1  0
 58190  1  1
 59191  1  0
 60192  1  0
 61193  1  6
 62194  1  0
 63195  1  0
 63196  1  0
 64197  1  0
 64198  1  0
 65199  1  0
 65200  1  0
 66201  1  0
 67202  1  0
 68203  1  0
 68204  1  0
 69205  1  0
 70206  1  0
 71207  1  0
 72208  1  0
 72209  1  0
 73210  1  0
 73211  1  0
 73212  1  0
 77213  1  0
 77214  1  0
 77215  1  0
 78216  1  0
 78217  1  0
 78218  1  0
 79219  1  0
 79220  1  0
 79221  1  0
 80222  1  0
 80223  1  0
 81224  1  0
 81225  1  0
 82226  1  0
 83227  1  0
 84228  1  0
 85229  1  1
 86230  1  0
 87231  1  0
 88232  1  6
 89233  1  0
 90234  1  0
 90235  1  0
 91236  1  0
 91237  1  0
 92238  1  0
 92239  1  0
 93240  1  0
 94241  1  0
 95242  1  0
 95243  1  0
 96244  1  0
 97245  1  0
 98246  1  0
 99247  1  0
 99248  1  0
100249  1  0
100250  1  0
100251  1  0
104252  1  0
104253  1  0
104254  1  0
105255  1  0
105256  1  0
105257  1  0
106258  1  0
106259  1  0
106260  1  0
107261  1  0
107262  1  0
108263  1  0
108264  1  0
M  END
>  <PDBID>  (1) 
4M2X

>  <PDB ID>  (1) 
4M2X

>  <Generic Name>  (1) 
Trimetrexate

>  <Brand Name>  (1) 
Neutrexin Pws IV 25mg/vial#Neutrexin

>  <DrugBank ID>  (1) 
DB01157

>  <ATC Codes>  (1) 
P01AX07

>  <Ligand ID>  (1) 
TMQ

>  <Target Name>  (1) 
Dihydrofolate reductase

>  <UniProt ID>  (1) 
P00374

>  <PDB ID.1>  (1) 
4M2X

>  <Seq. Identity>  (1) 
31%

$$$$
