PDB_DB05812_08
     RDKit          3D

268284  0  0  0  0  0  0  0  0999 V2000
   -3.3047   -1.9268    0.3751 C   0  0  0  0  0  0  0  0  0  0  0  0
   -4.5855   -1.6299    1.1037 C   0  0  0  0  0  0  0  0  0  0  0  0
   -5.6635   -1.0824    0.2064 C   0  0  2  0  0  0  0  0  0  0  0  0
   -6.2616   -2.0819   -0.5632 O   0  0  0  0  0  0  0  0  0  0  0  0
   -5.1618    0.0625   -0.6453 C   0  0  0  0  0  0  0  0  0  0  0  0
   -3.7687    0.3850   -0.2056 C   0  0  0  0  0  0  0  0  0  0  0  0
   -3.2682    1.6904   -0.8250 C   0  0  0  0  0  0  0  0  0  0  0  0
   -2.0385    2.0624    0.0168 C   0  0  0  0  0  0  0  0  0  0  0  0
   -0.9894    1.0371   -0.3358 C   0  0  2  0  0  0  0  0  0  0  0  0
   -1.4446   -0.3608    0.1032 C   0  0  1  0  0  0  0  0  0  0  0  0
   -2.7887   -0.7343   -0.4109 C   0  0  1  0  0  0  0  0  0  0  0  0
   -0.4339   -1.3942   -0.2196 C   0  0  0  0  0  0  0  0  0  0  0  0
    0.9972   -1.0398    0.0816 C   0  0  0  0  0  0  0  0  0  0  0  0
    1.3236    0.3382   -0.3744 C   0  0  1  0  0  0  0  0  0  0  0  0
    0.3061    1.2457    0.3419 C   0  0  1  0  0  0  0  0  0  0  0  0
    0.9117    2.5849    0.2590 C   0  0  0  0  0  0  0  0  0  0  0  0
    2.3273    2.2496    0.7611 C   0  0  0  0  0  0  0  0  0  0  0  0
    2.6040    0.9280    0.0233 C   0  0  0  0  0  0  0  0  0  0  0  0
    1.1180    0.4753   -1.8786 C   0  0  0  0  0  0  0  0  0  0  0  0
   -2.6710   -1.1635   -1.8431 C   0  0  0  0  0  0  0  0  0  0  0  0
    3.5959    0.0943    0.7422 C   0  0  0  0  0  0  0  0  0  0  0  0
    4.0721   -1.0693   -0.0872 C   0  0  0  0  0  0  0  0  0  0  0  0
    5.5286   -1.0815   -0.2000 N   0  0  0  0  0  0  0  0  0  0  0  0
    6.0756   -1.1582    1.1303 C   0  0  0  0  0  0  0  0  0  0  0  0
    5.8780    0.1996    1.7727 C   0  0  0  0  0  0  0  0  0  0  0  0
    4.8008    0.9889    1.0449 C   0  0  0  0  0  0  0  0  0  0  0  0
   -3.3047   -1.9268    0.3751 C   0  0  0  0  0  0  0  0  0  0  0  0
   -4.5855   -1.6299    1.1037 C   0  0  0  0  0  0  0  0  0  0  0  0
   -5.6635   -1.0824    0.2064 C   0  0  2  0  0  0  0  0  0  0  0  0
   -6.2616   -2.0819   -0.5632 O   0  0  0  0  0  0  0  0  0  0  0  0
   -5.1618    0.0625   -0.6453 C   0  0  0  0  0  0  0  0  0  0  0  0
   -3.7687    0.3850   -0.2056 C   0  0  0  0  0  0  0  0  0  0  0  0
   -3.2682    1.6904   -0.8250 C   0  0  0  0  0  0  0  0  0  0  0  0
   -2.0385    2.0624    0.0168 C   0  0  0  0  0  0  0  0  0  0  0  0
   -0.9894    1.0371   -0.3358 C   0  0  2  0  0  0  0  0  0  0  0  0
   -1.4446   -0.3608    0.1032 C   0  0  1  0  0  0  0  0  0  0  0  0
   -2.7887   -0.7343   -0.4109 C   0  0  1  0  0  0  0  0  0  0  0  0
   -0.4339   -1.3942   -0.2196 C   0  0  0  0  0  0  0  0  0  0  0  0
    0.9972   -1.0398    0.0816 C   0  0  0  0  0  0  0  0  0  0  0  0
    1.3236    0.3382   -0.3744 C   0  0  1  0  0  0  0  0  0  0  0  0
    0.3061    1.2457    0.3419 C   0  0  1  0  0  0  0  0  0  0  0  0
    0.9117    2.5849    0.2590 C   0  0  0  0  0  0  0  0  0  0  0  0
    2.3273    2.2496    0.7611 C   0  0  0  0  0  0  0  0  0  0  0  0
    2.6040    0.9280    0.0233 C   0  0  0  0  0  0  0  0  0  0  0  0
    1.1180    0.4753   -1.8786 C   0  0  0  0  0  0  0  0  0  0  0  0
   -2.6710   -1.1635   -1.8431 C   0  0  0  0  0  0  0  0  0  0  0  0
    3.5959    0.0943    0.7422 C   0  0  0  0  0  0  0  0  0  0  0  0
    4.0721   -1.0693   -0.0872 C   0  0  0  0  0  0  0  0  0  0  0  0
    5.5286   -1.0815   -0.2000 N   0  0  0  0  0  0  0  0  0  0  0  0
    6.0756   -1.1582    1.1303 C   0  0  0  0  0  0  0  0  0  0  0  0
    5.8780    0.1996    1.7727 C   0  0  0  0  0  0  0  0  0  0  0  0
    4.8008    0.9889    1.0449 C   0  0  0  0  0  0  0  0  0  0  0  0
   -3.3019   -0.1991    1.5834 C   0  0  0  0  0  0  0  0  0  0  0  0
   -4.5523    0.6280    1.6311 C   0  0  0  0  0  0  0  0  0  0  0  0
   -5.5319    0.3078    0.5460 C   0  0  2  0  0  0  0  0  0  0  0  0
   -6.1769   -0.8780    0.8277 O   0  0  0  0  0  0  0  0  0  0  0  0
   -4.8503    0.3097   -0.8031 C   0  0  0  0  0  0  0  0  0  0  0  0
   -3.4328    0.7493   -0.6530 C   0  0  0  0  0  0  0  0  0  0  0  0
   -2.7931    0.9865   -1.9851 C   0  0  0  0  0  0  0  0  0  0  0  0
   -1.3405    1.4422   -1.7822 C   0  0  0  0  0  0  0  0  0  0  0  0
   -0.6577    0.2820   -1.1059 C   0  0  2  0  0  0  0  0  0  0  0  0
   -1.2687    0.1827    0.2945 C   0  0  1  0  0  0  0  0  0  0  0  0
   -2.7038   -0.2736    0.1912 C   0  0  1  0  0  0  0  0  0  0  0  0
   -0.4433   -0.5498    1.2691 C   0  0  0  0  0  0  0  0  0  0  0  0
    0.6765   -1.3752    0.7376 C   0  0  0  0  0  0  0  0  0  0  0  0
    1.3063   -0.9295   -0.5057 C   0  0  1  0  0  0  0  0  0  0  0  0
    0.7953    0.4711   -0.8652 C   0  0  1  0  0  0  0  0  0  0  0  0
    1.6326    0.8537   -2.0010 C   0  0  0  0  0  0  0  0  0  0  0  0
    2.9742    0.2536   -1.6979 C   0  0  0  0  0  0  0  0  0  0  0  0
    2.7450   -0.8050   -0.6096 C   0  0  1  0  0  0  0  0  0  0  0  0
    0.8244   -1.8261   -1.6617 C   0  0  0  0  0  0  0  0  0  0  0  0
   -2.8654   -1.6254   -0.4120 C   0  0  0  0  0  0  0  0  0  0  0  0
    3.5853   -0.5062    0.5626 C   0  0  1  0  0  0  0  0  0  0  0  0
    5.0349   -0.4685    0.0548 C   0  0  0  0  0  0  0  0  0  0  0  0
    5.7638    0.6578    0.5334 N   0  0  0  0  0  0  0  0  0  0  0  0
    5.6966    0.6769    1.9693 C   0  0  0  0  0  0  0  0  0  0  0  0
    4.3021    1.0148    2.3695 C   0  0  0  0  0  0  0  0  0  0  0  0
    3.2701    0.7676    1.2870 C   0  0  0  0  0  0  0  0  0  0  0  0
   -3.3464    1.6796   -0.1063 C   0  0  0  0  0  0  0  0  0  0  0  0
   -4.4868    1.4712   -1.0283 C   0  0  0  0  0  0  0  0  0  0  0  0
   -5.4749    0.4401   -0.6114 C   0  0  2  0  0  0  0  0  0  0  0  0
   -6.4259    1.0439    0.2356 O   0  0  0  0  0  0  0  0  0  0  0  0
   -4.9058   -0.7354    0.1010 C   0  0  0  0  0  0  0  0  0  0  0  0
   -3.4071   -0.8354   -0.0001 C   0  0  1  0  0  0  0  0  0  0  0  0
   -3.0477   -1.2472   -1.3819 C   0  0  0  0  0  0  0  0  0  0  0  0
   -1.6806   -0.7421   -1.8261 C   0  0  0  0  0  0  0  0  0  0  0  0
   -0.8338   -0.7698   -0.5782 C   0  0  2  0  0  0  0  0  0  0  0  0
   -1.2707    0.4060    0.2746 C   0  0  1  0  0  0  0  0  0  0  0  0
   -2.7446    0.4388    0.4750 C   0  0  1  0  0  0  0  0  0  0  0  0
   -0.5002    0.4859    1.5642 C   0  0  0  0  0  0  0  0  0  0  0  0
    0.9745    0.3007    1.3972 C   0  0  0  0  0  0  0  0  0  0  0  0
    1.3213   -0.8028    0.4727 C   0  0  1  0  0  0  0  0  0  0  0  0
    0.6248   -0.5463   -0.8447 C   0  0  1  0  0  0  0  0  0  0  0  0
    1.2644   -1.5278   -1.7428 C   0  0  0  0  0  0  0  0  0  0  0  0
    2.7239   -1.3753   -1.4065 C   0  0  0  0  0  0  0  0  0  0  0  0
    2.7204   -1.0012    0.0901 C   0  0  0  0  0  0  0  0  0  0  0  0
    0.7547   -2.1121    1.0971 C   0  0  0  0  0  0  0  0  0  0  0  0
   -3.0499    0.4848    1.9837 C   0  0  0  0  0  0  0  0  0  0  0  0
    3.7278    0.0349    0.3916 C   0  0  0  0  0  0  0  0  0  0  0  0
    5.1235   -0.5703    0.0363 C   0  0  0  0  0  0  0  0  0  0  0  0
    6.0866    0.4783   -0.1163 N   0  0  0  0  0  0  0  0  0  0  0  0
    5.8421    1.5857    0.7728 C   0  0  0  0  0  0  0  0  0  0  0  0
    4.5689    2.2999    0.3432 C   0  0  0  0  0  0  0  0  0  0  0  0
    3.6926    1.2926   -0.4210 C   0  0  0  0  0  0  0  0  0  0  0  0
   -2.5626   -2.2365    1.1422 H   0  0  0  0  0  0  0  0  0  0  0  0
   -3.4613   -2.8204   -0.2683 H   0  0  0  0  0  0  0  0  0  0  0  0
   -4.4354   -1.0065    2.0069 H   0  0  0  0  0  0  0  0  0  0  0  0
   -4.9641   -2.6144    1.4842 H   0  0  0  0  0  0  0  0  0  0  0  0
   -6.4614   -0.6833    0.8671 H   0  0  0  0  0  0  0  0  0  0  0  0
   -5.6583   -2.4565   -1.2366 H   0  0  0  0  0  0  0  0  0  0  0  0
   -5.7681    0.9982   -0.4620 H   0  0  0  0  0  0  0  0  0  0  0  0
   -5.2723   -0.1485   -1.7139 H   0  0  0  0  0  0  0  0  0  0  0  0
   -3.8086    0.5824    0.8925 H   0  0  0  0  0  0  0  0  0  0  0  0
   -2.9114    1.5000   -1.8500 H   0  0  0  0  0  0  0  0  0  0  0  0
   -4.0624    2.4340   -0.7437 H   0  0  0  0  0  0  0  0  0  0  0  0
   -1.6509    3.0513   -0.2605 H   0  0  0  0  0  0  0  0  0  0  0  0
   -2.2690    1.9771    1.0948 H   0  0  0  0  0  0  0  0  0  0  0  0
   -0.9433    0.9951   -1.4397 H   0  0  0  0  0  0  0  0  0  0  0  0
   -1.5189   -0.2925    1.2214 H   0  0  0  0  0  0  0  0  0  0  0  0
   -0.6622   -2.3056    0.4096 H   0  0  0  0  0  0  0  0  0  0  0  0
   -0.4712   -1.7683   -1.2669 H   0  0  0  0  0  0  0  0  0  0  0  0
    1.6098   -1.8434   -0.3820 H   0  0  0  0  0  0  0  0  0  0  0  0
    1.1264   -1.0921    1.1789 H   0  0  0  0  0  0  0  0  0  0  0  0
    0.2740    0.8740    1.3820 H   0  0  0  0  0  0  0  0  0  0  0  0
    0.9202    2.9981   -0.7451 H   0  0  0  0  0  0  0  0  0  0  0  0
    0.4196    3.2515    1.0198 H   0  0  0  0  0  0  0  0  0  0  0  0
    2.2002    2.0560    1.8484 H   0  0  0  0  0  0  0  0  0  0  0  0
    3.0478    3.0276    0.5191 H   0  0  0  0  0  0  0  0  0  0  0  0
    3.1488    1.2918   -0.9087 H   0  0  0  0  0  0  0  0  0  0  0  0
    2.1177    0.2679   -2.3425 H   0  0  0  0  0  0  0  0  0  0  0  0
    0.4263   -0.2525   -2.2933 H   0  0  0  0  0  0  0  0  0  0  0  0
    0.8811    1.5181   -2.1741 H   0  0  0  0  0  0  0  0  0  0  0  0
   -3.6299   -1.1411   -2.3976 H   0  0  0  0  0  0  0  0  0  0  0  0
   -1.9432   -0.5798   -2.4315 H   0  0  0  0  0  0  0  0  0  0  0  0
   -2.3618   -2.2474   -1.8541 H   0  0  0  0  0  0  0  0  0  0  0  0
    3.2416   -0.2967    1.7194 H   0  0  0  0  0  0  0  0  0  0  0  0
    3.7123   -1.0490   -1.1365 H   0  0  0  0  0  0  0  0  0  0  0  0
    3.8350   -2.0563    0.4100 H   0  0  0  0  0  0  0  0  0  0  0  0
    5.8993   -0.3204   -0.7789 H   0  0  0  0  0  0  0  0  0  0  0  0
    7.1297   -1.4787    1.1312 H   0  0  0  0  0  0  0  0  0  0  0  0
    5.4125   -1.8665    1.7058 H   0  0  0  0  0  0  0  0  0  0  0  0
    6.8263    0.7657    1.6246 H   0  0  0  0  0  0  0  0  0  0  0  0
    5.7032    0.1394    2.8560 H   0  0  0  0  0  0  0  0  0  0  0  0
    4.5373    1.8313    1.6990 H   0  0  0  0  0  0  0  0  0  0  0  0
    5.1884    1.3773    0.0995 H   0  0  0  0  0  0  0  0  0  0  0  0
   -2.5626   -2.2365    1.1422 H   0  0  0  0  0  0  0  0  0  0  0  0
   -3.4613   -2.8204   -0.2683 H   0  0  0  0  0  0  0  0  0  0  0  0
   -4.4354   -1.0065    2.0069 H   0  0  0  0  0  0  0  0  0  0  0  0
   -4.9641   -2.6144    1.4842 H   0  0  0  0  0  0  0  0  0  0  0  0
   -6.4614   -0.6833    0.8671 H   0  0  0  0  0  0  0  0  0  0  0  0
   -5.6583   -2.4565   -1.2366 H   0  0  0  0  0  0  0  0  0  0  0  0
   -5.7681    0.9982   -0.4620 H   0  0  0  0  0  0  0  0  0  0  0  0
   -5.2723   -0.1485   -1.7139 H   0  0  0  0  0  0  0  0  0  0  0  0
   -3.8086    0.5824    0.8925 H   0  0  0  0  0  0  0  0  0  0  0  0
   -2.9114    1.5000   -1.8500 H   0  0  0  0  0  0  0  0  0  0  0  0
   -4.0624    2.4340   -0.7437 H   0  0  0  0  0  0  0  0  0  0  0  0
   -1.6509    3.0513   -0.2605 H   0  0  0  0  0  0  0  0  0  0  0  0
   -2.2690    1.9771    1.0948 H   0  0  0  0  0  0  0  0  0  0  0  0
   -0.9433    0.9951   -1.4397 H   0  0  0  0  0  0  0  0  0  0  0  0
   -1.5189   -0.2925    1.2214 H   0  0  0  0  0  0  0  0  0  0  0  0
   -0.6622   -2.3056    0.4096 H   0  0  0  0  0  0  0  0  0  0  0  0
   -0.4712   -1.7683   -1.2669 H   0  0  0  0  0  0  0  0  0  0  0  0
    1.6098   -1.8434   -0.3820 H   0  0  0  0  0  0  0  0  0  0  0  0
    1.1264   -1.0921    1.1789 H   0  0  0  0  0  0  0  0  0  0  0  0
    0.2740    0.8740    1.3820 H   0  0  0  0  0  0  0  0  0  0  0  0
    0.9202    2.9981   -0.7451 H   0  0  0  0  0  0  0  0  0  0  0  0
    0.4196    3.2515    1.0198 H   0  0  0  0  0  0  0  0  0  0  0  0
    2.2002    2.0560    1.8484 H   0  0  0  0  0  0  0  0  0  0  0  0
    3.0478    3.0276    0.5191 H   0  0  0  0  0  0  0  0  0  0  0  0
    3.1488    1.2918   -0.9087 H   0  0  0  0  0  0  0  0  0  0  0  0
    2.1177    0.2679   -2.3425 H   0  0  0  0  0  0  0  0  0  0  0  0
    0.4263   -0.2525   -2.2933 H   0  0  0  0  0  0  0  0  0  0  0  0
    0.8811    1.5181   -2.1741 H   0  0  0  0  0  0  0  0  0  0  0  0
   -3.6299   -1.1411   -2.3976 H   0  0  0  0  0  0  0  0  0  0  0  0
   -1.9432   -0.5798   -2.4315 H   0  0  0  0  0  0  0  0  0  0  0  0
   -2.3618   -2.2474   -1.8541 H   0  0  0  0  0  0  0  0  0  0  0  0
    3.2416   -0.2967    1.7194 H   0  0  0  0  0  0  0  0  0  0  0  0
    3.7123   -1.0490   -1.1365 H   0  0  0  0  0  0  0  0  0  0  0  0
    3.8350   -2.0563    0.4100 H   0  0  0  0  0  0  0  0  0  0  0  0
    5.8993   -0.3204   -0.7789 H   0  0  0  0  0  0  0  0  0  0  0  0
    7.1297   -1.4787    1.1312 H   0  0  0  0  0  0  0  0  0  0  0  0
    5.4125   -1.8665    1.7058 H   0  0  0  0  0  0  0  0  0  0  0  0
    6.8263    0.7657    1.6246 H   0  0  0  0  0  0  0  0  0  0  0  0
    5.7032    0.1394    2.8560 H   0  0  0  0  0  0  0  0  0  0  0  0
    4.5373    1.8313    1.6990 H   0  0  0  0  0  0  0  0  0  0  0  0
    5.1884    1.3773    0.0995 H   0  0  0  0  0  0  0  0  0  0  0  0
   -2.5929    0.2279    2.3207 H   0  0  0  0  0  0  0  0  0  0  0  0
   -3.5530   -1.2254    1.8993 H   0  0  0  0  0  0  0  0  0  0  0  0
   -4.3442    1.7278    1.7121 H   0  0  0  0  0  0  0  0  0  0  0  0
   -5.0611    0.3771    2.6076 H   0  0  0  0  0  0  0  0  0  0  0  0
   -6.3100    1.1104    0.5572 H   0  0  0  0  0  0  0  0  0  0  0  0
   -6.7331   -0.7347    1.6276 H   0  0  0  0  0  0  0  0  0  0  0  0
   -4.9720   -0.6859   -1.2411 H   0  0  0  0  0  0  0  0  0  0  0  0
   -5.3595    1.0264   -1.4874 H   0  0  0  0  0  0  0  0  0  0  0  0
   -3.4502    1.7410   -0.1219 H   0  0  0  0  0  0  0  0  0  0  0  0
   -2.7236    0.0646   -2.5961 H   0  0  0  0  0  0  0  0  0  0  0  0
   -3.3587    1.7551   -2.5101 H   0  0  0  0  0  0  0  0  0  0  0  0
   -0.9162    1.5901   -2.7940 H   0  0  0  0  0  0  0  0  0  0  0  0
   -1.3525    2.3524   -1.1670 H   0  0  0  0  0  0  0  0  0  0  0  0
   -0.9491   -0.6263   -1.6305 H   0  0  0  0  0  0  0  0  0  0  0  0
   -1.3331    1.2629    0.6284 H   0  0  0  0  0  0  0  0  0  0  0  0
   -1.1360   -1.2122    1.8709 H   0  0  0  0  0  0  0  0  0  0  0  0
   -0.0163    0.1361    2.0608 H   0  0  0  0  0  0  0  0  0  0  0  0
    0.2632   -2.4221    0.5973 H   0  0  0  0  0  0  0  0  0  0  0  0
    1.4096   -1.5383    1.5860 H   0  0  0  0  0  0  0  0  0  0  0  0
    0.9194    1.1888   -0.0441 H   0  0  0  0  0  0  0  0  0  0  0  0
    1.7743    1.9749   -1.9785 H   0  0  0  0  0  0  0  0  0  0  0  0
    1.2536    0.6336   -3.0085 H   0  0  0  0  0  0  0  0  0  0  0  0
    3.3841   -0.1562   -2.6178 H   0  0  0  0  0  0  0  0  0  0  0  0
    3.7082    1.0183   -1.3325 H   0  0  0  0  0  0  0  0  0  0  0  0
    3.1622   -1.7586   -1.0583 H   0  0  0  0  0  0  0  0  0  0  0  0
    1.6484   -2.5819   -1.8292 H   0  0  0  0  0  0  0  0  0  0  0  0
   -0.0495   -2.4332   -1.3569 H   0  0  0  0  0  0  0  0  0  0  0  0
    0.7180   -1.2871   -2.5966 H   0  0  0  0  0  0  0  0  0  0  0  0
   -3.8337   -2.0495   -0.0141 H   0  0  0  0  0  0  0  0  0  0  0  0
   -2.9177   -1.6488   -1.5066 H   0  0  0  0  0  0  0  0  0  0  0  0
   -2.0899   -2.3518   -0.0961 H   0  0  0  0  0  0  0  0  0  0  0  0
    3.5432   -1.3267    1.2888 H   0  0  0  0  0  0  0  0  0  0  0  0
    5.0871   -0.4578   -1.0545 H   0  0  0  0  0  0  0  0  0  0  0  0
    5.5854   -1.4032    0.3536 H   0  0  0  0  0  0  0  0  0  0  0  0
    5.5741    1.5555    0.0747 H   0  0  0  0  0  0  0  0  0  0  0  0
    6.4240    1.4655    2.3100 H   0  0  0  0  0  0  0  0  0  0  0  0
    6.0288   -0.3220    2.3328 H   0  0  0  0  0  0  0  0  0  0  0  0
    4.2877    2.0958    2.6621 H   0  0  0  0  0  0  0  0  0  0  0  0
    4.0561    0.4478    3.3011 H   0  0  0  0  0  0  0  0  0  0  0  0
    2.3078    0.6651    1.8292 H   0  0  0  0  0  0  0  0  0  0  0  0
    3.2282    1.6577    0.6465 H   0  0  0  0  0  0  0  0  0  0  0  0
   -2.5426    2.2270   -0.6825 H   0  0  0  0  0  0  0  0  0  0  0  0
   -3.6575    2.4257    0.6773 H   0  0  0  0  0  0  0  0  0  0  0  0
   -4.0833    1.3272   -2.0589 H   0  0  0  0  0  0  0  0  0  0  0  0
   -5.0486    2.4511   -1.0945 H   0  0  0  0  0  0  0  0  0  0  0  0
   -6.0588    0.1487   -1.5333 H   0  0  0  0  0  0  0  0  0  0  0  0
   -6.3998    0.6807    1.1406 H   0  0  0  0  0  0  0  0  0  0  0  0
   -5.3107   -1.6580   -0.4111 H   0  0  0  0  0  0  0  0  0  0  0  0
   -5.2644   -0.8339    1.1556 H   0  0  0  0  0  0  0  0  0  0  0  0
   -3.1028   -1.6248    0.7504 H   0  0  0  0  0  0  0  0  0  0  0  0
   -2.9420   -2.3739   -1.3702 H   0  0  0  0  0  0  0  0  0  0  0  0
   -3.8310   -1.0552   -2.1440 H   0  0  0  0  0  0  0  0  0  0  0  0
   -1.2561   -1.4580   -2.5602 H   0  0  0  0  0  0  0  0  0  0  0  0
   -1.7525    0.2834   -2.2581 H   0  0  0  0  0  0  0  0  0  0  0  0
   -1.0397   -1.6919   -0.0382 H   0  0  0  0  0  0  0  0  0  0  0  0
   -0.9662    1.3204   -0.3175 H   0  0  0  0  0  0  0  0  0  0  0  0
   -0.6483    1.5426    1.9406 H   0  0  0  0  0  0  0  0  0  0  0  0
   -0.8719   -0.1536    2.3619 H   0  0  0  0  0  0  0  0  0  0  0  0
    1.3644    0.0637    2.4397 H   0  0  0  0  0  0  0  0  0  0  0  0
    1.3971    1.2576    1.1042 H   0  0  0  0  0  0  0  0  0  0  0  0
    0.8261    0.4688   -1.1666 H   0  0  0  0  0  0  0  0  0  0  0  0
    1.1221   -1.2238   -2.8259 H   0  0  0  0  0  0  0  0  0  0  0  0
    0.9028   -2.5683   -1.6244 H   0  0  0  0  0  0  0  0  0  0  0  0
    3.0836   -0.4860   -2.0022 H   0  0  0  0  0  0  0  0  0  0  0  0
    3.3152   -2.2704   -1.6123 H   0  0  0  0  0  0  0  0  0  0  0  0
    3.0894   -1.9512    0.5901 H   0  0  0  0  0  0  0  0  0  0  0  0
   -0.0914   -1.9190    1.7495 H   0  0  0  0  0  0  0  0  0  0  0  0
    0.6367   -2.8983    0.3501 H   0  0  0  0  0  0  0  0  0  0  0  0
    1.5982   -2.4505    1.7688 H   0  0  0  0  0  0  0  0  0  0  0  0
   -2.8809   -0.4829    2.4631 H   0  0  0  0  0  0  0  0  0  0  0  0
   -2.6055    1.3497    2.4702 H   0  0  0  0  0  0  0  0  0  0  0  0
   -4.1676    0.6503    2.0234 H   0  0  0  0  0  0  0  0  0  0  0  0
    3.7768    0.2801    1.4454 H   0  0  0  0  0  0  0  0  0  0  0  0
    5.0372   -1.1202   -0.9220 H   0  0  0  0  0  0  0  0  0  0  0  0
    5.4520   -1.2644    0.8065 H   0  0  0  0  0  0  0  0  0  0  0  0
    6.2600    0.7617   -1.0950 H   0  0  0  0  0  0  0  0  0  0  0  0
    6.7202    2.2508    0.7446 H   0  0  0  0  0  0  0  0  0  0  0  0
    5.7378    1.1684    1.7973 H   0  0  0  0  0  0  0  0  0  0  0  0
    4.8694    3.0811   -0.3833 H   0  0  0  0  0  0  0  0  0  0  0  0
    4.0712    2.6836    1.2311 H   0  0  0  0  0  0  0  0  0  0  0  0
    2.7489    1.7156   -0.6862 H   0  0  0  0  0  0  0  0  0  0  0  0
    4.2610    1.1692   -1.3956 H   0  0  0  0  0  0  0  0  0  0  0  0
  1  2  1  0
  2  3  1  0
  3  4  1  0
  3  5  1  0
  5  6  1  0
  6  7  1  0
  7  8  1  0
  8  9  1  0
  9 10  1  0
  1 11  1  0
  6 11  1  0
 10 11  1  0
 10 12  1  0
 12 13  1  0
 13 14  1  0
  9 15  1  0
 14 15  1  0
 15 16  1  0
 16 17  1  0
 14 18  1  0
 17 18  1  0
 14 19  1  6
 11 20  1  6
 18 21  1  0
 21 22  1  0
 22 23  1  0
 24 23  1  0
 24 25  1  0
 21 26  1  0
 25 26  1  0
 27 28  1  0
 28 29  1  0
 29 30  1  0
 29 31  1  0
 31 32  1  0
 32 33  1  0
 33 34  1  0
 34 35  1  0
 35 36  1  0
 27 37  1  0
 32 37  1  0
 36 37  1  0
 36 38  1  0
 38 39  1  0
 39 40  1  0
 35 41  1  0
 40 41  1  0
 41 42  1  0
 42 43  1  0
 40 44  1  0
 43 44  1  0
 40 45  1  6
 37 46  1  6
 44 47  1  0
 47 48  1  0
 48 49  1  0
 50 49  1  0
 50 51  1  0
 47 52  1  0
 51 52  1  0
 53 54  1  0
 54 55  1  0
 55 56  1  0
 55 57  1  0
 57 58  1  0
 58 59  1  0
 59 60  1  0
 60 61  1  0
 61 62  1  0
 53 63  1  0
 58 63  1  0
 62 63  1  0
 62 64  1  0
 64 65  1  0
 65 66  1  0
 61 67  1  0
 66 67  1  0
 67 68  1  0
 68 69  1  0
 66 70  1  0
 69 70  1  0
 66 71  1  6
 63 72  1  6
 70 73  1  0
 73 74  1  0
 74 75  1  0
 76 75  1  0
 76 77  1  0
 73 78  1  0
 77 78  1  0
 79 80  1  0
 80 81  1  0
 81 82  1  0
 81 83  1  0
 83 84  1  0
 84 85  1  0
 85 86  1  0
 86 87  1  0
 87 88  1  0
 79 89  1  0
 84 89  1  0
 88 89  1  0
 88 90  1  0
 90 91  1  0
 91 92  1  0
 87 93  1  0
 92 93  1  0
 93 94  1  0
 94 95  1  0
 92 96  1  0
 95 96  1  0
 92 97  1  1
 89 98  1  1
 96 99  1  0
 99100  1  0
100101  1  0
102101  1  0
102103  1  0
 99104  1  0
103104  1  0
  1105  1  0
  1106  1  0
  2107  1  0
  2108  1  0
  3109  1  1
  4110  1  0
  5111  1  0
  5112  1  0
  6113  1  0
  7114  1  0
  7115  1  0
  8116  1  0
  8117  1  0
  9118  1  6
 10119  1  1
 12120  1  0
 12121  1  0
 13122  1  0
 13123  1  0
 15124  1  1
 16125  1  0
 16126  1  0
 17127  1  0
 17128  1  0
 18129  1  0
 19130  1  0
 19131  1  0
 19132  1  0
 20133  1  0
 20134  1  0
 20135  1  0
 21136  1  0
 22137  1  0
 22138  1  0
 23139  1  0
 24140  1  0
 24141  1  0
 25142  1  0
 25143  1  0
 26144  1  0
 26145  1  0
 27146  1  0
 27147  1  0
 28148  1  0
 28149  1  0
 29150  1  1
 30151  1  0
 31152  1  0
 31153  1  0
 32154  1  0
 33155  1  0
 33156  1  0
 34157  1  0
 34158  1  0
 35159  1  6
 36160  1  1
 38161  1  0
 38162  1  0
 39163  1  0
 39164  1  0
 41165  1  1
 42166  1  0
 42167  1  0
 43168  1  0
 43169  1  0
 44170  1  0
 45171  1  0
 45172  1  0
 45173  1  0
 46174  1  0
 46175  1  0
 46176  1  0
 47177  1  0
 48178  1  0
 48179  1  0
 49180  1  0
 50181  1  0
 50182  1  0
 51183  1  0
 51184  1  0
 52185  1  0
 52186  1  0
 53187  1  0
 53188  1  0
 54189  1  0
 54190  1  0
 55191  1  6
 56192  1  0
 57193  1  0
 57194  1  0
 58195  1  0
 59196  1  0
 59197  1  0
 60198  1  0
 60199  1  0
 61200  1  6
 62201  1  1
 64202  1  0
 64203  1  0
 65204  1  0
 65205  1  0
 67206  1  1
 68207  1  0
 68208  1  0
 69209  1  0
 69210  1  0
 70211  1  6
 71212  1  0
 71213  1  0
 71214  1  0
 72215  1  0
 72216  1  0
 72217  1  0
 73218  1  1
 74219  1  0
 74220  1  0
 75221  1  0
 76222  1  0
 76223  1  0
 77224  1  0
 77225  1  0
 78226  1  0
 78227  1  0
 79228  1  0
 79229  1  0
 80230  1  0
 80231  1  0
 81232  1  6
 82233  1  0
 83234  1  0
 83235  1  0
 84236  1  1
 85237  1  0
 85238  1  0
 86239  1  0
 86240  1  0
 87241  1  1
 88242  1  6
 90243  1  0
 90244  1  0
 91245  1  0
 91246  1  0
 93247  1  6
 94248  1  0
 94249  1  0
 95250  1  0
 95251  1  0
 96252  1  0
 97253  1  0
 97254  1  0
 97255  1  0
 98256  1  0
 98257  1  0
 98258  1  0
 99259  1  0
100260  1  0
100261  1  0
101262  1  0
102263  1  0
102264  1  0
103265  1  0
103266  1  0
104267  1  0
104268  1  0
M  END
>  <PDBID>  (1) 
3RUK

>  <PDB ID>  (1) 
3RUK

>  <Generic Name>  (1) 
Abiraterone

>  <Brand Name>  (1) 
Zytiga

>  <DrugBank ID>  (1) 
DB05812

>  <ATC Codes>  (1) 
L02BX03

>  <Ligand ID>  (1) 
AER

>  <Target Name>  (1) 
Steroid 17-alpha-hydroxylase/17,20 lyase

>  <UniProt ID>  (1) 
P05093

>  <PDB ID.1>  (1) 
3RUK

>  <Seq. Identity>  (1) 
97%

$$$$
