PDB_DB00755_07
     RDKit          3D

124124  0  0  0  0  0  0  0  0999 V2000
   -3.3705   -1.0728    0.5268 C   0  0  0  0  0  0  0  0  0  0  0  0
   -4.8000   -0.9948    0.1013 C   0  0  0  0  0  0  0  0  0  0  0  0
   -5.0184   -0.5024   -1.2924 C   0  0  0  0  0  0  0  0  0  0  0  0
   -4.2553    0.7439   -1.6149 C   0  0  0  0  0  0  0  0  0  0  0  0
   -3.4093    1.2195   -0.4491 C   0  0  0  0  0  0  0  0  0  0  0  0
   -2.5163    0.0931    0.0646 C   0  0  0  0  0  0  0  0  0  0  0  0
   -1.7109    0.6226    1.1815 C   0  0  0  0  0  0  0  0  0  0  0  0
   -0.7753    1.7372    0.9302 C   0  0  0  0  0  0  0  0  0  0  0  0
    0.3732    1.5095    0.0344 C   0  0  1  0  0  0  0  0  0  0  0  0
    1.2677    0.3797    0.5462 C   0  0  0  0  0  0  0  0  0  0  0  0
    2.4252    0.2091   -0.4232 C   0  0  0  0  0  0  0  0  0  0  0  0
    3.3495   -0.9033    0.0392 C   0  0  0  0  0  0  0  0  0  0  0  0
    4.4758   -1.0373   -0.9531 C   0  0  0  0  0  0  0  0  0  0  0  0
    5.3063    0.1815   -1.1232 C   0  0  0  0  0  0  0  0  0  0  0  0
    5.9948    0.6758    0.1014 C   0  0  0  0  0  0  0  0  0  0  0  0
   -3.2639   -1.3774    1.9871 C   0  0  0  0  0  0  0  0  0  0  0  0
   -2.7964   -2.3168   -0.1848 C   0  0  0  0  0  0  0  0  0  0  0  0
   -4.2269    1.8776    0.6103 C   0  0  0  0  0  0  0  0  0  0  0  0
    0.1451    1.4336   -1.4196 C   0  0  0  0  0  0  0  0  0  0  0  0
    5.2766   -2.2817   -0.6565 C   0  0  0  0  0  0  0  0  0  0  0  0
    5.1757    1.0202    1.1441 O   0  0  0  0  0  0  0  0  0  0  0  0
    6.9782   -0.2540    0.4820 O   0  0  0  0  0  0  0  0  0  0  0  0
   -3.9395   -0.8722    0.3407 C   0  0  0  0  0  0  0  0  0  0  0  0
   -5.2611   -0.1896    0.4453 C   0  0  0  0  0  0  0  0  0  0  0  0
   -5.0757    1.2794    0.8193 C   0  0  0  0  0  0  0  0  0  0  0  0
   -4.3308    1.8793   -0.3345 C   0  0  0  0  0  0  0  0  0  0  0  0
   -2.9450    1.2669   -0.4108 C   0  0  0  0  0  0  0  0  0  0  0  0
   -2.9651   -0.2096   -0.6299 C   0  0  0  0  0  0  0  0  0  0  0  0
   -1.6581   -0.9032   -0.4441 C   0  0  0  0  0  0  0  0  0  0  0  0
   -0.5064   -0.4607   -1.2871 C   0  0  0  0  0  0  0  0  0  0  0  0
    0.6741   -1.3781   -0.9281 C   0  0  0  0  0  0  0  0  0  0  0  0
    1.8905   -1.0818   -1.6971 C   0  0  0  0  0  0  0  0  0  0  0  0
    2.5341    0.2301   -1.6185 C   0  0  0  0  0  0  0  0  0  0  0  0
    3.2001    0.6663   -0.3682 C   0  0  0  0  0  0  0  0  0  0  0  0
    4.4557    0.0006    0.0178 C   0  0  0  0  0  0  0  0  0  0  0  0
    5.0147    0.5242    1.3398 C   0  0  0  0  0  0  0  0  0  0  0  0
    5.3135    1.9921    1.2875 C   0  0  0  0  0  0  0  0  0  0  0  0
   -3.2844   -1.0224    1.7157 C   0  0  0  0  0  0  0  0  0  0  0  0
   -4.1996   -2.2975   -0.1316 C   0  0  0  0  0  0  0  0  0  0  0  0
   -2.1823    2.0204   -1.5196 C   0  0  0  0  0  0  0  0  0  0  0  0
    0.7646   -1.4577    0.5490 C   0  0  0  0  0  0  0  0  0  0  0  0
    4.6364   -1.4511   -0.0367 C   0  0  0  0  0  0  0  0  0  0  0  0
    5.8169    2.3465    2.5513 O   0  0  0  0  0  0  0  0  0  0  0  0
    6.3179    2.2533    0.3640 O   0  0  0  0  0  0  0  0  0  0  0  0
   -5.4679   -0.4740    0.8366 H   0  0  0  0  0  0  0  0  0  0  0  0
   -5.2071   -2.0544    0.1089 H   0  0  0  0  0  0  0  0  0  0  0  0
   -6.1112   -0.2456   -1.3792 H   0  0  0  0  0  0  0  0  0  0  0  0
   -4.8307   -1.3373   -2.0061 H   0  0  0  0  0  0  0  0  0  0  0  0
   -4.8953    1.5991   -1.9103 H   0  0  0  0  0  0  0  0  0  0  0  0
   -3.5947    0.5230   -2.4821 H   0  0  0  0  0  0  0  0  0  0  0  0
   -2.7400    1.9881   -0.8640 H   0  0  0  0  0  0  0  0  0  0  0  0
   -1.8755   -0.1986   -0.7766 H   0  0  0  0  0  0  0  0  0  0  0  0
   -2.3227    0.9058    2.0776 H   0  0  0  0  0  0  0  0  0  0  0  0
   -1.0956   -0.2500    1.5746 H   0  0  0  0  0  0  0  0  0  0  0  0
   -1.3749    2.5952    0.5032 H   0  0  0  0  0  0  0  0  0  0  0  0
   -0.3691    2.1508    1.9054 H   0  0  0  0  0  0  0  0  0  0  0  0
    1.0572    2.4315    0.2010 H   0  0  0  0  0  0  0  0  0  0  0  0
    1.6097    0.6368    1.5562 H   0  0  0  0  0  0  0  0  0  0  0  0
    0.7304   -0.5817    0.5983 H   0  0  0  0  0  0  0  0  0  0  0  0
    2.0549   -0.0387   -1.4361 H   0  0  0  0  0  0  0  0  0  0  0  0
    2.9651    1.1742   -0.4970 H   0  0  0  0  0  0  0  0  0  0  0  0
    2.7905   -1.8848   -0.0190 H   0  0  0  0  0  0  0  0  0  0  0  0
    3.6786   -0.7595    1.0774 H   0  0  0  0  0  0  0  0  0  0  0  0
    3.9783   -1.2279   -1.9495 H   0  0  0  0  0  0  0  0  0  0  0  0
    6.1051    0.0257   -1.9085 H   0  0  0  0  0  0  0  0  0  0  0  0
    4.6719    0.9894   -1.5672 H   0  0  0  0  0  0  0  0  0  0  0  0
    6.5641    1.5948   -0.1905 H   0  0  0  0  0  0  0  0  0  0  0  0
   -2.2401   -1.7450    2.2908 H   0  0  0  0  0  0  0  0  0  0  0  0
   -3.5346   -0.5835    2.6761 H   0  0  0  0  0  0  0  0  0  0  0  0
   -3.9230   -2.2718    2.1886 H   0  0  0  0  0  0  0  0  0  0  0  0
   -2.6632   -2.0196   -1.2493 H   0  0  0  0  0  0  0  0  0  0  0  0
   -1.8328   -2.5869    0.2905 H   0  0  0  0  0  0  0  0  0  0  0  0
   -3.5599   -3.1065   -0.0830 H   0  0  0  0  0  0  0  0  0  0  0  0
   -4.2247    1.4163    1.5936 H   0  0  0  0  0  0  0  0  0  0  0  0
   -5.3032    1.8415    0.2621 H   0  0  0  0  0  0  0  0  0  0  0  0
   -4.0290    2.9889    0.6625 H   0  0  0  0  0  0  0  0  0  0  0  0
   -0.6551    2.0747   -1.7804 H   0  0  0  0  0  0  0  0  0  0  0  0
    1.0696    1.8219   -1.9516 H   0  0  0  0  0  0  0  0  0  0  0  0
    0.1037    0.3717   -1.7941 H   0  0  0  0  0  0  0  0  0  0  0  0
    4.6890   -3.1582   -1.0197 H   0  0  0  0  0  0  0  0  0  0  0  0
    5.4075   -2.4494    0.4427 H   0  0  0  0  0  0  0  0  0  0  0  0
    6.2289   -2.2998   -1.1998 H   0  0  0  0  0  0  0  0  0  0  0  0
    5.6841    1.0006    1.9911 H   0  0  0  0  0  0  0  0  0  0  0  0
    7.8366    0.1803    0.7029 H   0  0  0  0  0  0  0  0  0  0  0  0
   -5.7734   -0.2297   -0.5199 H   0  0  0  0  0  0  0  0  0  0  0  0
   -5.8554   -0.7138    1.1957 H   0  0  0  0  0  0  0  0  0  0  0  0
   -4.4962    1.3924    1.7555 H   0  0  0  0  0  0  0  0  0  0  0  0
   -6.0754    1.7050    0.9501 H   0  0  0  0  0  0  0  0  0  0  0  0
   -4.1874    2.9579   -0.1126 H   0  0  0  0  0  0  0  0  0  0  0  0
   -4.8878    1.7050   -1.2749 H   0  0  0  0  0  0  0  0  0  0  0  0
   -2.4320    1.5448    0.5337 H   0  0  0  0  0  0  0  0  0  0  0  0
   -3.4070   -0.3981   -1.6426 H   0  0  0  0  0  0  0  0  0  0  0  0
   -1.8241   -2.0265   -0.5373 H   0  0  0  0  0  0  0  0  0  0  0  0
   -1.4138   -0.8134    0.6594 H   0  0  0  0  0  0  0  0  0  0  0  0
   -0.6442   -0.5940   -2.3688 H   0  0  0  0  0  0  0  0  0  0  0  0
   -0.2359    0.5798   -0.9814 H   0  0  0  0  0  0  0  0  0  0  0  0
    0.3087   -2.3933   -1.2783 H   0  0  0  0  0  0  0  0  0  0  0  0
    2.6382   -1.8760   -1.4245 H   0  0  0  0  0  0  0  0  0  0  0  0
    1.7044   -1.3440   -2.8036 H   0  0  0  0  0  0  0  0  0  0  0  0
    3.3820    0.2204   -2.3989 H   0  0  0  0  0  0  0  0  0  0  0  0
    1.8954    1.0629   -2.0491 H   0  0  0  0  0  0  0  0  0  0  0  0
    2.4695    0.4989    0.4854 H   0  0  0  0  0  0  0  0  0  0  0  0
    3.3136    1.7959   -0.3586 H   0  0  0  0  0  0  0  0  0  0  0  0
    5.2471    0.4054   -0.7533 H   0  0  0  0  0  0  0  0  0  0  0  0
    5.9658   -0.0035    1.5419 H   0  0  0  0  0  0  0  0  0  0  0  0
    4.3305    0.3367    2.1821 H   0  0  0  0  0  0  0  0  0  0  0  0
    4.4183    2.6246    1.1387 H   0  0  0  0  0  0  0  0  0  0  0  0
   -4.0902   -1.1900    2.4739 H   0  0  0  0  0  0  0  0  0  0  0  0
   -2.7037   -0.1478    2.0211 H   0  0  0  0  0  0  0  0  0  0  0  0
   -2.6362   -1.9149    1.7822 H   0  0  0  0  0  0  0  0  0  0  0  0
   -5.2141   -2.5727    0.2187 H   0  0  0  0  0  0  0  0  0  0  0  0
   -4.1191   -2.3026   -1.2345 H   0  0  0  0  0  0  0  0  0  0  0  0
   -3.4237   -2.9802    0.2737 H   0  0  0  0  0  0  0  0  0  0  0  0
   -1.3226    2.5841   -1.1287 H   0  0  0  0  0  0  0  0  0  0  0  0
   -2.8804    2.8427   -1.8957 H   0  0  0  0  0  0  0  0  0  0  0  0
   -1.9065    1.3976   -2.3552 H   0  0  0  0  0  0  0  0  0  0  0  0
    1.7683   -1.7502    0.8797 H   0  0  0  0  0  0  0  0  0  0  0  0
    0.0868   -2.2500    0.9792 H   0  0  0  0  0  0  0  0  0  0  0  0
    0.4879   -0.5106    1.0739 H   0  0  0  0  0  0  0  0  0  0  0  0
    4.8955   -1.8540   -1.0485 H   0  0  0  0  0  0  0  0  0  0  0  0
    3.9494   -2.0961    0.5244 H   0  0  0  0  0  0  0  0  0  0  0  0
    5.6391   -1.6491    0.5228 H   0  0  0  0  0  0  0  0  0  0  0  0
    6.7921    2.2928    2.5658 H   0  0  0  0  0  0  0  0  0  0  0  0
    5.9662    2.5283   -0.5068 H   0  0  0  0  0  0  0  0  0  0  0  0
  1  2  1  0
  2  3  1  0
  3  4  1  0
  4  5  1  0
  1  6  1  0
  5  6  1  0
  6  7  1  0
  7  8  1  0
  8  9  1  0
  9 10  1  0
 10 11  1  0
 11 12  1  0
 12 13  1  0
 13 14  1  0
 14 15  1  0
  1 16  1  0
  1 17  1  0
  5 18  1  0
  9 19  1  0
 13 20  1  0
 15 21  1  0
 15 22  1  0
 23 24  1  0
 24 25  1  0
 25 26  1  0
 26 27  1  0
 23 28  1  0
 27 28  1  0
 28 29  1  0
 29 30  1  0
 30 31  1  0
 31 32  1  0
 32 33  1  0
 33 34  1  0
 34 35  1  0
 35 36  1  0
 36 37  1  0
 23 38  1  0
 23 39  1  0
 27 40  1  0
 31 41  1  0
 35 42  1  0
 37 43  1  0
 37 44  1  0
  2 45  1  0
  2 46  1  0
  3 47  1  0
  3 48  1  0
  4 49  1  0
  4 50  1  0
  5 51  1  0
  6 52  1  0
  7 53  1  0
  7 54  1  0
  8 55  1  0
  8 56  1  0
  9 57  1  6
 10 58  1  0
 10 59  1  0
 11 60  1  0
 11 61  1  0
 12 62  1  0
 12 63  1  0
 13 64  1  0
 14 65  1  0
 14 66  1  0
 15 67  1  0
 16 68  1  0
 16 69  1  0
 16 70  1  0
 17 71  1  0
 17 72  1  0
 17 73  1  0
 18 74  1  0
 18 75  1  0
 18 76  1  0
 19 77  1  0
 19 78  1  0
 19 79  1  0
 20 80  1  0
 20 81  1  0
 20 82  1  0
 21 83  1  0
 22 84  1  0
 24 85  1  0
 24 86  1  0
 25 87  1  0
 25 88  1  0
 26 89  1  0
 26 90  1  0
 27 91  1  0
 28 92  1  0
 29 93  1  0
 29 94  1  0
 30 95  1  0
 30 96  1  0
 31 97  1  0
 32 98  1  0
 32 99  1  0
 33100  1  0
 33101  1  0
 34102  1  0
 34103  1  0
 35104  1  0
 36105  1  0
 36106  1  0
 37107  1  0
 38108  1  0
 38109  1  0
 38110  1  0
 39111  1  0
 39112  1  0
 39113  1  0
 40114  1  0
 40115  1  0
 40116  1  0
 41117  1  0
 41118  1  0
 41119  1  0
 42120  1  0
 42121  1  0
 42122  1  0
 43123  1  0
 44124  1  0
M  END
>  <PDBID>  (1) 
3FC6

>  <PDB ID>  (1) 
3FC6

>  <Generic Name>  (1) 
Tretinoin

>  <Brand Name>  (1) 
Atralin#Avita#Biacna Topical Gel#Clindamycin Phosphate and Tretinoin#Dr. Throwers Hydrotet#Dr. Throwers Pbc No. 1#Obagi#Refissa#Rejuva-A#Renova#Retin-A#Retin-A Micro#Retisol-A#Solagé#Stie Vaa Sol 0.05%#Stieva-A Cream#Stieva-A Gel#Stieva-A Solution#Stievaa Gel 0.01%#Stievamycin Forte#Stievamycin Mild#Stievamycin Regular#Tretin.x#Tretinoin#Tretinoin Cream#Tretinoin Gel#Tretinoin Gel Microsphere#Tretinx#Tri-luma#Veltin#Vesanoid#Vitamin A Acid 0.01% Cream#Vitamin A Acid 0.01% Gel#Vitamin A Acid 0.025% Cream#Vitamin A Acid 0.025% Gel#Vitamin A Acid 0.05% Cream#Vitamin A Acid 0.05% Gel#Vitamin A Acid 0.1% Cream#Vitinoin - Crm 0.025%#Vitinoin - Crm 0.05%#Vitinoin - Crm 0.1%#Vitinoin Gel - 0.025%#Ziana#Aberel#Aberela#Airol#Dermairol#Eudyna#Kétrel#Retisol-A#Sotret#Stieva-A#Vitinoin

>  <DrugBank ID>  (1) 
DB00755

>  <ATC Codes>  (1) 
L01XX14#D10AD01#D10AD51

>  <Ligand ID>  (1) 
3KV,REA

>  <Target Name>  (1) 
Retinoic acid receptor RXR-beta

>  <UniProt ID>  (1) 
P28702

>  <PDB ID.1>  (1) 
3FC6

>  <Seq. Identity>  (1) 
87%

$$$$
