PDB_DB00674_07
     RDKit          3D

100106  0  0  0  0  0  0  0  0999 V2000
    1.4377    0.1652    1.5428 C   0  0  0  0  0  0  0  0  0  0  0  0
    2.9277   -0.0237    1.5048 C   0  0  0  0  0  0  0  0  0  0  0  0
    3.5297    0.6320    0.3196 C   0  0  1  0  0  0  0  0  0  0  0  0
    2.5623    1.0631   -0.7269 C   0  0  0  0  0  0  0  0  0  0  0  0
    1.4205    0.1663   -0.9744 C   0  0  1  0  0  0  0  0  0  0  0  0
    0.8300   -0.4628    0.2819 C   0  0  1  0  0  0  0  0  0  0  0  0
    0.4027    0.9104   -1.5795 O   0  0  0  0  0  0  0  0  0  0  0  0
   -1.5891    2.0628   -0.7921 C   0  0  0  0  0  0  0  0  0  0  0  0
   -2.7421    1.1853   -1.2293 C   0  0  0  0  0  0  0  0  0  0  0  0
   -2.1530   -0.0157   -1.8841 C   0  0  0  0  0  0  0  0  0  0  0  0
   -2.0338   -1.9427   -0.4142 C   0  0  0  0  0  0  0  0  0  0  0  0
   -1.1701   -2.7925    0.2734 N   0  0  0  0  0  0  0  0  0  0  0  0
    0.1737   -2.8832   -0.1544 C   0  0  0  0  0  0  0  0  0  0  0  0
    1.1183   -1.8990    0.4119 C   0  0  0  0  0  0  0  0  0  0  0  0
   -0.3428    1.3424   -0.4956 C   0  0  0  0  0  0  0  0  0  0  0  0
   -0.6065   -0.0454    0.1150 C   0  0  0  0  0  0  0  0  0  0  0  0
   -1.2330   -0.8098   -1.0115 C   0  0  0  0  0  0  0  0  0  0  0  0
   -2.0236    4.0754    0.2526 C   0  0  0  0  0  0  0  0  0  0  0  0
   -2.0078    2.6923    0.3824 O   0  0  0  0  0  0  0  0  0  0  0  0
    4.2173    1.7764    0.7588 O   0  0  0  0  0  0  0  0  0  0  0  0
   -1.5028   -3.2442    1.5480 C   0  0  0  0  0  0  0  0  0  0  0  0
    1.4377    0.1652    1.5428 C   0  0  0  0  0  0  0  0  0  0  0  0
    2.9277   -0.0237    1.5048 C   0  0  0  0  0  0  0  0  0  0  0  0
    3.5297    0.6320    0.3196 C   0  0  1  0  0  0  0  0  0  0  0  0
    2.5623    1.0631   -0.7269 C   0  0  0  0  0  0  0  0  0  0  0  0
    1.4205    0.1663   -0.9744 C   0  0  1  0  0  0  0  0  0  0  0  0
    0.8300   -0.4628    0.2819 C   0  0  1  0  0  0  0  0  0  0  0  0
    0.4027    0.9104   -1.5795 O   0  0  0  0  0  0  0  0  0  0  0  0
   -1.5891    2.0628   -0.7921 C   0  0  0  0  0  0  0  0  0  0  0  0
   -2.7421    1.1853   -1.2293 C   0  0  0  0  0  0  0  0  0  0  0  0
   -2.1530   -0.0157   -1.8841 C   0  0  0  0  0  0  0  0  0  0  0  0
   -2.0338   -1.9427   -0.4142 C   0  0  0  0  0  0  0  0  0  0  0  0
   -1.1701   -2.7925    0.2734 N   0  0  0  0  0  0  0  0  0  0  0  0
    0.1737   -2.8832   -0.1544 C   0  0  0  0  0  0  0  0  0  0  0  0
    1.1183   -1.8990    0.4119 C   0  0  0  0  0  0  0  0  0  0  0  0
   -0.3428    1.3424   -0.4956 C   0  0  0  0  0  0  0  0  0  0  0  0
   -0.6065   -0.0454    0.1150 C   0  0  0  0  0  0  0  0  0  0  0  0
   -1.2330   -0.8098   -1.0115 C   0  0  0  0  0  0  0  0  0  0  0  0
   -2.0236    4.0754    0.2526 C   0  0  0  0  0  0  0  0  0  0  0  0
   -2.0078    2.6923    0.3824 O   0  0  0  0  0  0  0  0  0  0  0  0
    4.2173    1.7764    0.7588 O   0  0  0  0  0  0  0  0  0  0  0  0
   -1.5028   -3.2442    1.5480 C   0  0  0  0  0  0  0  0  0  0  0  0
    1.1196    1.1569    1.7745 H   0  0  0  0  0  0  0  0  0  0  0  0
    1.0674   -0.4981    2.3810 H   0  0  0  0  0  0  0  0  0  0  0  0
    3.1784   -1.1037    1.4824 H   0  0  0  0  0  0  0  0  0  0  0  0
    3.3419    0.3680    2.4670 H   0  0  0  0  0  0  0  0  0  0  0  0
    4.3208   -0.0192   -0.1428 H   0  0  0  0  0  0  0  0  0  0  0  0
    2.2327    2.1090   -0.5166 H   0  0  0  0  0  0  0  0  0  0  0  0
    3.1445    1.1492   -1.6923 H   0  0  0  0  0  0  0  0  0  0  0  0
    1.6646   -0.6869   -1.6502 H   0  0  0  0  0  0  0  0  0  0  0  0
   -1.3789    2.8678   -1.5252 H   0  0  0  0  0  0  0  0  0  0  0  0
   -3.4047    0.9020   -0.4062 H   0  0  0  0  0  0  0  0  0  0  0  0
   -3.3080    1.7513   -1.9973 H   0  0  0  0  0  0  0  0  0  0  0  0
   -2.9747   -0.6710   -2.2378 H   0  0  0  0  0  0  0  0  0  0  0  0
   -1.6469    0.3416   -2.8293 H   0  0  0  0  0  0  0  0  0  0  0  0
   -2.8292   -1.4866    0.1980 H   0  0  0  0  0  0  0  0  0  0  0  0
   -2.5414   -2.4555   -1.2615 H   0  0  0  0  0  0  0  0  0  0  0  0
    0.2659   -3.0178   -1.2746 H   0  0  0  0  0  0  0  0  0  0  0  0
    0.5300   -3.9007    0.2094 H   0  0  0  0  0  0  0  0  0  0  0  0
    1.3328   -2.2320    1.4752 H   0  0  0  0  0  0  0  0  0  0  0  0
    2.1168   -2.0822   -0.0944 H   0  0  0  0  0  0  0  0  0  0  0  0
    0.2999    1.9685    0.1158 H   0  0  0  0  0  0  0  0  0  0  0  0
   -1.1810    0.0024    1.0264 H   0  0  0  0  0  0  0  0  0  0  0  0
   -0.4118   -1.1501   -1.6756 H   0  0  0  0  0  0  0  0  0  0  0  0
   -2.7172    4.3345   -0.5563 H   0  0  0  0  0  0  0  0  0  0  0  0
   -0.9710    4.3778    0.0258 H   0  0  0  0  0  0  0  0  0  0  0  0
   -2.2715    4.5422    1.2249 H   0  0  0  0  0  0  0  0  0  0  0  0
    4.6539    1.6328    1.6353 H   0  0  0  0  0  0  0  0  0  0  0  0
   -1.9209   -2.4191    2.1846 H   0  0  0  0  0  0  0  0  0  0  0  0
   -0.6266   -3.7193    2.0315 H   0  0  0  0  0  0  0  0  0  0  0  0
   -2.3008   -4.0144    1.4990 H   0  0  0  0  0  0  0  0  0  0  0  0
    1.1196    1.1569    1.7745 H   0  0  0  0  0  0  0  0  0  0  0  0
    1.0674   -0.4981    2.3810 H   0  0  0  0  0  0  0  0  0  0  0  0
    3.1784   -1.1037    1.4824 H   0  0  0  0  0  0  0  0  0  0  0  0
    3.3419    0.3680    2.4670 H   0  0  0  0  0  0  0  0  0  0  0  0
    4.3208   -0.0192   -0.1428 H   0  0  0  0  0  0  0  0  0  0  0  0
    2.2327    2.1090   -0.5166 H   0  0  0  0  0  0  0  0  0  0  0  0
    3.1445    1.1492   -1.6923 H   0  0  0  0  0  0  0  0  0  0  0  0
    1.6646   -0.6869   -1.6502 H   0  0  0  0  0  0  0  0  0  0  0  0
   -1.3789    2.8678   -1.5252 H   0  0  0  0  0  0  0  0  0  0  0  0
   -3.4047    0.9020   -0.4062 H   0  0  0  0  0  0  0  0  0  0  0  0
   -3.3080    1.7513   -1.9973 H   0  0  0  0  0  0  0  0  0  0  0  0
   -2.9747   -0.6710   -2.2378 H   0  0  0  0  0  0  0  0  0  0  0  0
   -1.6469    0.3416   -2.8293 H   0  0  0  0  0  0  0  0  0  0  0  0
   -2.8292   -1.4866    0.1980 H   0  0  0  0  0  0  0  0  0  0  0  0
   -2.5414   -2.4555   -1.2615 H   0  0  0  0  0  0  0  0  0  0  0  0
    0.2659   -3.0178   -1.2746 H   0  0  0  0  0  0  0  0  0  0  0  0
    0.5300   -3.9007    0.2094 H   0  0  0  0  0  0  0  0  0  0  0  0
    1.3328   -2.2320    1.4752 H   0  0  0  0  0  0  0  0  0  0  0  0
    2.1168   -2.0822   -0.0944 H   0  0  0  0  0  0  0  0  0  0  0  0
    0.2999    1.9685    0.1158 H   0  0  0  0  0  0  0  0  0  0  0  0
   -1.1810    0.0024    1.0264 H   0  0  0  0  0  0  0  0  0  0  0  0
   -0.4118   -1.1501   -1.6756 H   0  0  0  0  0  0  0  0  0  0  0  0
   -2.7172    4.3345   -0.5563 H   0  0  0  0  0  0  0  0  0  0  0  0
   -0.9710    4.3778    0.0258 H   0  0  0  0  0  0  0  0  0  0  0  0
   -2.2715    4.5422    1.2249 H   0  0  0  0  0  0  0  0  0  0  0  0
    4.6539    1.6328    1.6353 H   0  0  0  0  0  0  0  0  0  0  0  0
   -1.9209   -2.4191    2.1846 H   0  0  0  0  0  0  0  0  0  0  0  0
   -0.6266   -3.7193    2.0315 H   0  0  0  0  0  0  0  0  0  0  0  0
   -2.3008   -4.0144    1.4990 H   0  0  0  0  0  0  0  0  0  0  0  0
  1  2  1  0
  2  3  1  0
  3  4  1  0
  4  5  1  0
  6  1  1  1
  5  6  1  0
  5  7  1  0
  8  9  1  0
  9 10  1  0
 11 12  1  0
 12 13  1  0
  6 14  1  0
 13 14  1  0
  7 15  1  0
  8 15  1  0
  6 16  1  0
 15 16  1  0
 10 17  1  0
 11 17  1  0
 16 17  1  0
  8 19  1  0
 18 19  1  0
  3 20  1  0
 12 21  1  0
 22 23  1  0
 23 24  1  0
 24 25  1  0
 25 26  1  0
 27 22  1  1
 26 27  1  0
 26 28  1  0
 29 30  1  0
 30 31  1  0
 32 33  1  0
 33 34  1  0
 27 35  1  0
 34 35  1  0
 28 36  1  0
 29 36  1  0
 27 37  1  0
 36 37  1  0
 31 38  1  0
 32 38  1  0
 37 38  1  0
 29 40  1  0
 39 40  1  0
 24 41  1  0
 33 42  1  0
  1 43  1  0
  1 44  1  0
  2 45  1  0
  2 46  1  0
  3 47  1  6
  4 48  1  0
  4 49  1  0
  5 50  1  6
  8 51  1  0
  9 52  1  0
  9 53  1  0
 10 54  1  0
 10 55  1  0
 11 56  1  0
 11 57  1  0
 13 58  1  0
 13 59  1  0
 14 60  1  0
 14 61  1  0
 15 62  1  0
 16 63  1  0
 17 64  1  0
 18 65  1  0
 18 66  1  0
 18 67  1  0
 20 68  1  0
 21 69  1  0
 21 70  1  0
 21 71  1  0
 22 72  1  0
 22 73  1  0
 23 74  1  0
 23 75  1  0
 24 76  1  6
 25 77  1  0
 25 78  1  0
 26 79  1  6
 29 80  1  0
 30 81  1  0
 30 82  1  0
 31 83  1  0
 31 84  1  0
 32 85  1  0
 32 86  1  0
 34 87  1  0
 34 88  1  0
 35 89  1  0
 35 90  1  0
 36 91  1  0
 37 92  1  0
 38 93  1  0
 39 94  1  0
 39 95  1  0
 39 96  1  0
 41 97  1  0
 42 98  1  0
 42 99  1  0
 42100  1  0
M  END
>  <PDBID>  (1) 
4EY6

>  <PDB ID>  (1) 
4EY6

>  <Generic Name>  (1) 
Galantamine

>  <Brand Name>  (1) 
Apo-galantamine#Auro-galantamine ER#Galantamine#Galantamine ER#Galantamine Hydrobromide#Ipg-galantamine ER#Mar-galantamine ER#Mylan-galantamine ER#PMS-galantamine#PMS-galantamine ER#Pat-galantamine ER#Pendo-galantamine ER#Ratio-galantamine#Razadyne#Reminyl   -(12mg)#Reminyl   -(4mg)#Reminyl   -(8mg)#Reminyl ER#Sandoz Galantamine ER#Teva-galantamine ER#Lycoremine#Nivalin#Reminyl

>  <DrugBank ID>  (1) 
DB00674

>  <ATC Codes>  (1) 
N06DA04

>  <Ligand ID>  (1) 
GNT

>  <Target Name>  (1) 
Acetylcholinesterase

>  <UniProt ID>  (1) 
P22303

>  <PDB ID.1>  (1) 
4EY6

>  <Seq. Identity>  (1) 
97%

$$$$
