PDB_DB00307_09
     RDKit          3D

 70 72  0  0  0  0  0  0  0  0999 V2000
    5.4242    1.5659    2.2893 O   0  0  0  0  0  0  0  0  0  0  0  0
    5.9639    0.6628    1.3826 C   0  0  0  0  0  0  0  0  0  0  0  0
    6.7785    1.3325    0.4817 O   0  0  0  0  0  0  0  0  0  0  0  0
    4.8458   -0.0394    0.6371 C   0  0  0  0  0  0  0  0  0  0  0  0
    4.0068   -0.7587    1.6637 C   0  0  0  0  0  0  0  0  0  0  0  0
    4.0118    0.9925   -0.0656 C   0  0  0  0  0  0  0  0  0  0  0  0
    2.9625    0.3248   -0.9436 C   0  0  0  0  0  0  0  0  0  0  0  0
    2.4898   -0.9190   -0.2390 C   0  0  0  0  0  0  0  0  0  0  0  0
    2.5166   -0.7302    1.2325 C   0  0  0  0  0  0  0  0  0  0  0  0
    1.3092   -1.5900   -0.8423 C   0  0  0  0  0  0  0  0  0  0  0  0
    1.0292   -2.8074    0.0254 C   0  0  0  0  0  0  0  0  0  0  0  0
    0.1025   -0.7432   -1.1125 C   0  0  1  0  0  0  0  0  0  0  0  0
   -1.0474   -1.4275   -1.7548 C   0  0  0  0  0  0  0  0  0  0  0  0
   -0.8256   -2.7580   -2.3705 C   0  0  0  0  0  0  0  0  0  0  0  0
   -2.3000   -1.5205   -0.8842 C   0  0  0  0  0  0  0  0  0  0  0  0
   -0.2782    0.0012    0.1231 C   0  0  0  0  0  0  0  0  0  0  0  0
   -1.6652    0.4527    0.2984 C   0  0  0  0  0  0  0  0  0  0  0  0
   -1.8668    1.9528    0.2684 C   0  0  0  0  0  0  0  0  0  0  0  0
   -0.7302    2.7027    0.8916 C   0  0  0  0  0  0  0  0  0  0  0  0
   -2.0673    2.4781   -1.1332 C   0  0  0  0  0  0  0  0  0  0  0  0
   -3.1441    2.2126    1.0294 C   0  0  0  0  0  0  0  0  0  0  0  0
   -4.2923    1.3585    0.7032 C   0  0  0  0  0  0  0  0  0  0  0  0
   -4.0291    0.0242    0.0960 C   0  0  0  0  0  0  0  0  0  0  0  0
   -2.7189   -0.1028   -0.5893 C   0  0  0  0  0  0  0  0  0  0  0  0
   -5.1181   -0.2037   -0.9626 C   0  0  0  0  0  0  0  0  0  0  0  0
   -4.2283   -1.0930    1.1108 C   0  0  0  0  0  0  0  0  0  0  0  0
    6.0654    2.3210    2.4786 H   0  0  0  0  0  0  0  0  0  0  0  0
    6.5081   -0.1152    1.9429 H   0  0  0  0  0  0  0  0  0  0  0  0
    6.3762    2.2399    0.3461 H   0  0  0  0  0  0  0  0  0  0  0  0
    5.2432   -0.7729   -0.0903 H   0  0  0  0  0  0  0  0  0  0  0  0
    4.1174   -0.3485    2.6862 H   0  0  0  0  0  0  0  0  0  0  0  0
    4.3503   -1.8116    1.6985 H   0  0  0  0  0  0  0  0  0  0  0  0
    4.7026    1.6140   -0.6780 H   0  0  0  0  0  0  0  0  0  0  0  0
    3.4765    1.6107    0.6695 H   0  0  0  0  0  0  0  0  0  0  0  0
    3.5257    0.0189   -1.8753 H   0  0  0  0  0  0  0  0  0  0  0  0
    2.1729    0.9885   -1.2725 H   0  0  0  0  0  0  0  0  0  0  0  0
    3.3503   -1.6641   -0.4354 H   0  0  0  0  0  0  0  0  0  0  0  0
    2.1717    0.2880    1.5065 H   0  0  0  0  0  0  0  0  0  0  0  0
    2.0774   -1.5407    1.8081 H   0  0  0  0  0  0  0  0  0  0  0  0
    1.6719   -1.9983   -1.8344 H   0  0  0  0  0  0  0  0  0  0  0  0
    1.9453   -3.1099    0.5929 H   0  0  0  0  0  0  0  0  0  0  0  0
    0.1542   -2.6935    0.6670 H   0  0  0  0  0  0  0  0  0  0  0  0
    0.8515   -3.6603   -0.6561 H   0  0  0  0  0  0  0  0  0  0  0  0
    0.4853    0.0377   -1.8499 H   0  0  0  0  0  0  0  0  0  0  0  0
   -1.4146   -0.7579   -2.6165 H   0  0  0  0  0  0  0  0  0  0  0  0
   -1.4958   -2.8327   -3.2958 H   0  0  0  0  0  0  0  0  0  0  0  0
    0.1821   -2.9198   -2.7985 H   0  0  0  0  0  0  0  0  0  0  0  0
   -1.2016   -3.6071   -1.7535 H   0  0  0  0  0  0  0  0  0  0  0  0
   -3.0678   -2.0204   -1.4838 H   0  0  0  0  0  0  0  0  0  0  0  0
   -2.0419   -2.0361    0.0574 H   0  0  0  0  0  0  0  0  0  0  0  0
    0.3513    0.9207    0.2085 H   0  0  0  0  0  0  0  0  0  0  0  0
    0.0551   -0.6534    0.9837 H   0  0  0  0  0  0  0  0  0  0  0  0
   -1.9691    0.1542    1.3543 H   0  0  0  0  0  0  0  0  0  0  0  0
    0.0019    2.9258    0.0696 H   0  0  0  0  0  0  0  0  0  0  0  0
   -0.2296    2.1723    1.7124 H   0  0  0  0  0  0  0  0  0  0  0  0
   -1.1106    3.7151    1.2052 H   0  0  0  0  0  0  0  0  0  0  0  0
   -1.8175    3.5624   -1.1116 H   0  0  0  0  0  0  0  0  0  0  0  0
   -3.1450    2.4311   -1.4385 H   0  0  0  0  0  0  0  0  0  0  0  0
   -1.4045    2.0144   -1.8691 H   0  0  0  0  0  0  0  0  0  0  0  0
   -2.8820    2.1373    2.1222 H   0  0  0  0  0  0  0  0  0  0  0  0
   -3.3781    3.3054    0.8646 H   0  0  0  0  0  0  0  0  0  0  0  0
   -4.8733    1.1731    1.6564 H   0  0  0  0  0  0  0  0  0  0  0  0
   -5.0095    1.9630    0.0793 H   0  0  0  0  0  0  0  0  0  0  0  0
   -2.7283    0.4254   -1.5878 H   0  0  0  0  0  0  0  0  0  0  0  0
   -4.9931    0.4613   -1.8267 H   0  0  0  0  0  0  0  0  0  0  0  0
   -6.0684    0.1179   -0.4607 H   0  0  0  0  0  0  0  0  0  0  0  0
   -5.2392   -1.2578   -1.2110 H   0  0  0  0  0  0  0  0  0  0  0  0
   -5.0788   -0.8218    1.7658 H   0  0  0  0  0  0  0  0  0  0  0  0
   -3.3475   -1.3028    1.7115 H   0  0  0  0  0  0  0  0  0  0  0  0
   -4.4694   -2.0411    0.5560 H   0  0  0  0  0  0  0  0  0  0  0  0
  1  2  1  0
  2  3  1  0
  2  4  1  0
  4  5  1  0
  4  6  1  0
  6  7  1  0
  7  8  1  0
  5  9  1  0
  8  9  1  0
  8 10  1  0
 10 11  1  0
 10 12  1  0
 12 13  1  0
 13 14  1  0
 13 15  1  0
 12 16  1  0
 16 17  1  0
 17 18  1  0
 18 19  1  0
 18 20  1  0
 18 21  1  0
 21 22  1  0
 22 23  1  0
 15 24  1  0
 17 24  1  0
 23 24  1  0
 23 25  1  0
 23 26  1  0
  1 27  1  0
  2 28  1  0
  3 29  1  0
  4 30  1  0
  5 31  1  0
  5 32  1  0
  6 33  1  0
  6 34  1  0
  7 35  1  0
  7 36  1  0
  8 37  1  0
  9 38  1  0
  9 39  1  0
 10 40  1  0
 11 41  1  0
 11 42  1  0
 11 43  1  0
 12 44  1  6
 13 45  1  0
 14 46  1  0
 14 47  1  0
 14 48  1  0
 15 49  1  0
 15 50  1  0
 16 51  1  0
 16 52  1  0
 17 53  1  0
 19 54  1  0
 19 55  1  0
 19 56  1  0
 20 57  1  0
 20 58  1  0
 20 59  1  0
 21 60  1  0
 21 61  1  0
 22 62  1  0
 22 63  1  0
 24 64  1  0
 25 65  1  0
 25 66  1  0
 25 67  1  0
 26 68  1  0
 26 69  1  0
 26 70  1  0
M  END
>  <PDBID>  (1) 
3H0A

>  <PDB ID>  (1) 
3H0A

>  <Generic Name>  (1) 
Bexarotene

>  <Brand Name>  (1) 
Bexarotene#Targretin

>  <DrugBank ID>  (1) 
DB00307

>  <ATC Codes>  (1) 
L01XX25

>  <Ligand ID>  (1) 
9RA

>  <Target Name>  (1) 
Retinoic acid receptor RXR-beta

>  <UniProt ID>  (1) 
P28702

>  <PDB ID.1>  (1) 
3H0A

>  <Seq. Identity>  (1) 
87%

$$$$
