PDB_DB00205_06
     RDKit          3D

 84 86  0  0  0  0  0  0  0  0999 V2000
   -1.7512    1.4444   -0.9950 N   0  0  0  0  0  0  0  0  0  0  0  0
   -2.9344    1.0676   -0.2791 C   0  0  0  0  0  0  0  0  0  0  0  0
   -1.0842    0.1994   -1.4070 C   0  0  0  0  0  0  0  0  0  0  0  0
   -0.4852   -0.4939   -0.2473 C   0  0  0  0  0  0  0  0  0  0  0  0
   -1.1386    0.0643    0.9957 C   0  0  0  0  0  0  0  0  0  0  0  0
   -2.5785    0.1561    0.7908 N   0  0  0  0  0  0  0  0  0  0  0  0
    0.9910   -0.5753   -0.2008 C   0  0  0  0  0  0  0  0  0  0  0  0
    1.7570    0.6893   -0.1919 C   0  0  0  0  0  0  0  0  0  0  0  0
    2.9749    0.6934   -1.1139 C   0  0  0  0  0  0  0  0  0  0  0  0
    3.8436   -0.4681   -0.6879 C   0  0  0  0  0  0  0  0  0  0  0  0
    3.0420   -1.7237   -0.8357 C   0  0  0  0  0  0  0  0  0  0  0  0
    1.5997   -1.4637   -1.2670 C   0  0  0  0  0  0  0  0  0  0  0  0
   -0.2183    0.4132   -2.5239 N   0  0  0  0  0  0  0  0  0  0  0  0
   -3.7255    2.1716    0.1658 N   0  0  0  0  0  0  0  0  0  0  0  0
   -0.9720   -0.9114    2.1420 C   0  0  0  0  0  0  0  0  0  0  0  0
   -1.6087   -0.4051    3.4152 C   0  0  0  0  0  0  0  0  0  0  0  0
    4.1991   -0.2639    1.0626 Cl  0  0  0  0  0  0  0  0  0  0  0  0
   -1.7512    1.4444   -0.9950 N   0  0  0  0  0  0  0  0  0  0  0  0
   -2.9344    1.0676   -0.2791 C   0  0  0  0  0  0  0  0  0  0  0  0
   -1.0842    0.1994   -1.4070 C   0  0  0  0  0  0  0  0  0  0  0  0
   -0.4852   -0.4939   -0.2473 C   0  0  0  0  0  0  0  0  0  0  0  0
   -1.1386    0.0643    0.9957 C   0  0  0  0  0  0  0  0  0  0  0  0
   -2.5785    0.1561    0.7908 N   0  0  0  0  0  0  0  0  0  0  0  0
    0.9910   -0.5753   -0.2008 C   0  0  0  0  0  0  0  0  0  0  0  0
    1.7570    0.6893   -0.1919 C   0  0  0  0  0  0  0  0  0  0  0  0
    2.9749    0.6934   -1.1139 C   0  0  0  0  0  0  0  0  0  0  0  0
    3.8436   -0.4681   -0.6879 C   0  0  0  0  0  0  0  0  0  0  0  0
    3.0420   -1.7237   -0.8357 C   0  0  0  0  0  0  0  0  0  0  0  0
    1.5997   -1.4637   -1.2670 C   0  0  0  0  0  0  0  0  0  0  0  0
   -0.2183    0.4132   -2.5239 N   0  0  0  0  0  0  0  0  0  0  0  0
   -3.7255    2.1716    0.1658 N   0  0  0  0  0  0  0  0  0  0  0  0
   -0.9720   -0.9114    2.1420 C   0  0  0  0  0  0  0  0  0  0  0  0
   -1.6087   -0.4051    3.4152 C   0  0  0  0  0  0  0  0  0  0  0  0
    4.1991   -0.2639    1.0626 Cl  0  0  0  0  0  0  0  0  0  0  0  0
   -1.1507    2.0855   -0.4758 H   0  0  0  0  0  0  0  0  0  0  0  0
   -3.5451    0.4425   -0.9984 H   0  0  0  0  0  0  0  0  0  0  0  0
   -1.9411   -0.4219   -1.8099 H   0  0  0  0  0  0  0  0  0  0  0  0
   -0.8626   -1.5658   -0.2750 H   0  0  0  0  0  0  0  0  0  0  0  0
   -0.8195    1.0823    1.2521 H   0  0  0  0  0  0  0  0  0  0  0  0
   -2.9678    0.5753    1.6658 H   0  0  0  0  0  0  0  0  0  0  0  0
    1.2627   -1.1229    0.7579 H   0  0  0  0  0  0  0  0  0  0  0  0
    2.1938    0.9158    0.8305 H   0  0  0  0  0  0  0  0  0  0  0  0
    1.1830    1.6001   -0.4338 H   0  0  0  0  0  0  0  0  0  0  0  0
    2.7168    0.7046   -2.1718 H   0  0  0  0  0  0  0  0  0  0  0  0
    3.5538    1.6182   -0.8741 H   0  0  0  0  0  0  0  0  0  0  0  0
    4.8050   -0.4968   -1.2383 H   0  0  0  0  0  0  0  0  0  0  0  0
    2.9695   -2.3079    0.1053 H   0  0  0  0  0  0  0  0  0  0  0  0
    3.4988   -2.3371   -1.6453 H   0  0  0  0  0  0  0  0  0  0  0  0
    1.1337   -2.4771   -1.2652 H   0  0  0  0  0  0  0  0  0  0  0  0
    1.6562   -1.0158   -2.2608 H   0  0  0  0  0  0  0  0  0  0  0  0
   -0.3909   -0.2663   -3.2635 H   0  0  0  0  0  0  0  0  0  0  0  0
   -0.3641    1.3781   -2.8670 H   0  0  0  0  0  0  0  0  0  0  0  0
   -3.5034    2.9911   -0.4603 H   0  0  0  0  0  0  0  0  0  0  0  0
   -4.7329    1.9534    0.0008 H   0  0  0  0  0  0  0  0  0  0  0  0
    0.0502   -1.1808    2.3798 H   0  0  0  0  0  0  0  0  0  0  0  0
   -1.5228   -1.8353    1.8581 H   0  0  0  0  0  0  0  0  0  0  0  0
   -1.2178   -1.0415    4.2358 H   0  0  0  0  0  0  0  0  0  0  0  0
   -1.2174    0.6128    3.6009 H   0  0  0  0  0  0  0  0  0  0  0  0
   -2.6982   -0.4844    3.4255 H   0  0  0  0  0  0  0  0  0  0  0  0
   -1.1507    2.0855   -0.4758 H   0  0  0  0  0  0  0  0  0  0  0  0
   -3.5451    0.4425   -0.9984 H   0  0  0  0  0  0  0  0  0  0  0  0
   -1.9411   -0.4219   -1.8099 H   0  0  0  0  0  0  0  0  0  0  0  0
   -0.8626   -1.5658   -0.2750 H   0  0  0  0  0  0  0  0  0  0  0  0
   -0.8195    1.0823    1.2521 H   0  0  0  0  0  0  0  0  0  0  0  0
   -2.9678    0.5753    1.6658 H   0  0  0  0  0  0  0  0  0  0  0  0
    1.2627   -1.1229    0.7579 H   0  0  0  0  0  0  0  0  0  0  0  0
    2.1938    0.9158    0.8305 H   0  0  0  0  0  0  0  0  0  0  0  0
    1.1830    1.6001   -0.4338 H   0  0  0  0  0  0  0  0  0  0  0  0
    2.7168    0.7046   -2.1718 H   0  0  0  0  0  0  0  0  0  0  0  0
    3.5538    1.6182   -0.8741 H   0  0  0  0  0  0  0  0  0  0  0  0
    4.8050   -0.4968   -1.2383 H   0  0  0  0  0  0  0  0  0  0  0  0
    2.9695   -2.3079    0.1053 H   0  0  0  0  0  0  0  0  0  0  0  0
    3.4988   -2.3371   -1.6453 H   0  0  0  0  0  0  0  0  0  0  0  0
    1.1337   -2.4771   -1.2652 H   0  0  0  0  0  0  0  0  0  0  0  0
    1.6562   -1.0158   -2.2608 H   0  0  0  0  0  0  0  0  0  0  0  0
   -0.3909   -0.2663   -3.2635 H   0  0  0  0  0  0  0  0  0  0  0  0
   -0.3641    1.3781   -2.8670 H   0  0  0  0  0  0  0  0  0  0  0  0
   -3.5034    2.9911   -0.4603 H   0  0  0  0  0  0  0  0  0  0  0  0
   -4.7329    1.9534    0.0008 H   0  0  0  0  0  0  0  0  0  0  0  0
    0.0502   -1.1808    2.3798 H   0  0  0  0  0  0  0  0  0  0  0  0
   -1.5228   -1.8353    1.8581 H   0  0  0  0  0  0  0  0  0  0  0  0
   -1.2178   -1.0415    4.2358 H   0  0  0  0  0  0  0  0  0  0  0  0
   -1.2174    0.6128    3.6009 H   0  0  0  0  0  0  0  0  0  0  0  0
   -2.6982   -0.4844    3.4255 H   0  0  0  0  0  0  0  0  0  0  0  0
  1  2  1  0
  1  3  1  0
  3  4  1  0
  4  5  1  0
  2  6  1  0
  5  6  1  0
  4  7  1  0
  7  8  1  0
  8  9  1  0
  9 10  1  0
 10 11  1  0
  7 12  1  0
 11 12  1  0
  3 13  1  0
  2 14  1  0
  5 15  1  0
 15 16  1  0
 10 17  1  0
 18 19  1  0
 18 20  1  0
 20 21  1  0
 21 22  1  0
 19 23  1  0
 22 23  1  0
 21 24  1  0
 24 25  1  0
 25 26  1  0
 26 27  1  0
 27 28  1  0
 24 29  1  0
 28 29  1  0
 20 30  1  0
 19 31  1  0
 22 32  1  0
 32 33  1  0
 27 34  1  0
  1 35  1  0
  2 36  1  0
  3 37  1  0
  4 38  1  0
  5 39  1  0
  6 40  1  0
  7 41  1  0
  8 42  1  0
  8 43  1  0
  9 44  1  0
  9 45  1  0
 10 46  1  0
 11 47  1  0
 11 48  1  0
 12 49  1  0
 12 50  1  0
 13 51  1  0
 13 52  1  0
 14 53  1  0
 14 54  1  0
 15 55  1  0
 15 56  1  0
 16 57  1  0
 16 58  1  0
 16 59  1  0
 18 60  1  0
 19 61  1  0
 20 62  1  0
 21 63  1  0
 22 64  1  0
 23 65  1  0
 24 66  1  0
 25 67  1  0
 25 68  1  0
 26 69  1  0
 26 70  1  0
 27 71  1  0
 28 72  1  0
 28 73  1  0
 29 74  1  0
 29 75  1  0
 30 76  1  0
 30 77  1  0
 31 78  1  0
 31 79  1  0
 32 80  1  0
 32 81  1  0
 33 82  1  0
 33 83  1  0
 33 84  1  0
M  END
>  <PDBID>  (1) 
3QFX

>  <PDB ID>  (1) 
3QFX

>  <Generic Name>  (1) 
Pyrimethamine

>  <Brand Name>  (1) 
Daraprim#Fansidar Tablets#Pyrimethamine Leucovorin

>  <DrugBank ID>  (1) 
DB00205

>  <ATC Codes>  (1) 
P01BF04#P01BD01#P01BD51

>  <Ligand ID>  (1) 
CP6

>  <Target Name>  (1) 
Dihydrofolate reductase

>  <UniProt ID>  (1) 
P00374

>  <PDB ID.1>  (1) 
3QFX

>  <Seq. Identity>  (1) 
32%

$$$$
