PDB_DB00300_08
     RDKit          3D

 41 42  0  0  0  0  0  0  0  0999 V2000
    3.8932    1.8335    0.6388 P   0  0  0  0  0  0  0  0  0  0  0  0
    3.4318    2.4566    2.1270 O   0  0  0  0  0  0  0  0  0  0  0  0
    5.5546    1.7779    0.5725 O   0  0  0  0  0  0  0  0  0  0  0  0
    3.2331    0.1875    0.4745 C   0  0  0  0  0  0  0  0  0  0  0  0
    2.4135    0.0397   -0.6446 O   0  0  0  0  0  0  0  0  0  0  0  0
    2.4658   -1.9004   -2.0119 C   0  0  0  0  0  0  0  0  0  0  0  0
    1.9286   -1.2479   -0.7274 C   0  0  2  0  0  0  0  0  0  0  0  0
    0.4430   -1.2990   -0.8256 C   0  0  0  0  0  0  0  0  0  0  0  0
   -0.2736   -0.7190    0.2682 N   0  0  0  0  0  0  0  0  0  0  0  0
   -1.6923   -0.9138   -0.0049 C   0  0  1  0  0  0  0  0  0  0  0  0
   -2.4028   -1.1659    1.2553 N   0  0  0  0  0  0  0  0  0  0  0  0
   -3.7905   -1.3480    0.8855 C   0  0  0  0  0  0  0  0  0  0  0  0
   -4.3360   -0.1075    0.4765 N   0  0  0  0  0  0  0  0  0  0  0  0
   -3.5716    0.7035   -0.3937 C   0  0  0  0  0  0  0  0  0  0  0  0
   -3.7496    2.1016    0.0269 N   0  0  0  0  0  0  0  0  0  0  0  0
   -2.1208    0.4348   -0.4773 C   0  0  0  0  0  0  0  0  0  0  0  0
   -1.3824    1.3084    0.4508 N   0  0  0  0  0  0  0  0  0  0  0  0
   -0.0528    0.7074    0.3184 C   0  0  0  0  0  0  0  0  0  0  0  0
    3.3984    2.6441   -0.3628 H   0  0  0  0  0  0  0  0  0  0  0  0
    4.0836    3.1293    2.4064 H   0  0  0  0  0  0  0  0  0  0  0  0
    5.8519    0.8362    0.5063 H   0  0  0  0  0  0  0  0  0  0  0  0
    2.6629   -0.1108    1.3774 H   0  0  0  0  0  0  0  0  0  0  0  0
    4.0761   -0.5397    0.3820 H   0  0  0  0  0  0  0  0  0  0  0  0
    1.8277   -2.8132   -2.1886 H   0  0  0  0  0  0  0  0  0  0  0  0
    3.5263   -2.1784   -1.9130 H   0  0  0  0  0  0  0  0  0  0  0  0
    2.2890   -1.2086   -2.8441 H   0  0  0  0  0  0  0  0  0  0  0  0
    2.3251   -1.8353    0.1419 H   0  0  0  0  0  0  0  0  0  0  0  0
    0.1578   -0.7576   -1.7634 H   0  0  0  0  0  0  0  0  0  0  0  0
    0.1384   -2.3822   -0.9227 H   0  0  0  0  0  0  0  0  0  0  0  0
   -1.8656   -1.7230   -0.7413 H   0  0  0  0  0  0  0  0  0  0  0  0
   -1.9995   -1.9495    1.7871 H   0  0  0  0  0  0  0  0  0  0  0  0
   -3.9181   -2.1391    0.1198 H   0  0  0  0  0  0  0  0  0  0  0  0
   -4.3270   -1.6704    1.8173 H   0  0  0  0  0  0  0  0  0  0  0  0
   -4.9822    0.3639    1.1130 H   0  0  0  0  0  0  0  0  0  0  0  0
   -4.0298    0.6582   -1.4114 H   0  0  0  0  0  0  0  0  0  0  0  0
   -3.1958    2.3221    0.8821 H   0  0  0  0  0  0  0  0  0  0  0  0
   -3.4597    2.7643   -0.7126 H   0  0  0  0  0  0  0  0  0  0  0  0
   -1.7359    0.6203   -1.5094 H   0  0  0  0  0  0  0  0  0  0  0  0
   -1.7078    1.0334    1.4126 H   0  0  0  0  0  0  0  0  0  0  0  0
    0.3501    1.0990   -0.6517 H   0  0  0  0  0  0  0  0  0  0  0  0
    0.5430    0.9876    1.1941 H   0  0  0  0  0  0  0  0  0  0  0  0
  1  2  1  0
  1  3  1  0
  1  4  1  0
  4  5  1  0
  5  7  1  0
  6  7  1  0
  7  8  1  0
  8  9  1  0
  9 10  1  0
 10 11  1  0
 11 12  1  0
 12 13  1  0
 13 14  1  0
 14 15  1  0
 10 16  1  0
 14 16  1  0
 16 17  1  0
  9 18  1  0
 17 18  1  0
  1 19  1  0
  2 20  1  0
  3 21  1  0
  4 22  1  0
  4 23  1  0
  6 24  1  0
  6 25  1  0
  6 26  1  0
  7 27  1  1
  8 28  1  0
  8 29  1  0
 10 30  1  6
 11 31  1  0
 12 32  1  0
 12 33  1  0
 13 34  1  0
 14 35  1  0
 15 36  1  0
 15 37  1  0
 16 38  1  0
 17 39  1  0
 18 40  1  0
 18 41  1  0
M  END
>  <PDBID>  (1) 
1T03

>  <PDB ID>  (1) 
1T03

>  <Generic Name>  (1) 
Tenofovir

>  <Brand Name>  (1) 
Atripla#Complera#Stribild#Truvada#Viread

>  <DrugBank ID>  (1) 
DB00300

>  <ATC Codes>  (1) 
nan

>  <Ligand ID>  (1) 
TFO

>  <Target Name>  (1) 
Reverse transcriptase/RNaseH

>  <UniProt ID>  (1) 
Q72547

>  <PDB ID.1>  (1) 
1T03

>  <Seq. Identity>  (1) 
95%

$$$$
