PDB_DB00843_08
     RDKit          3D

142148  0  0  0  0  0  0  0  0999 V2000
   -5.7870    0.5282    0.3072 C   0  0  0  0  0  0  0  0  0  0  0  0
   -5.5190   -0.9364    0.4894 C   0  0  0  0  0  0  0  0  0  0  0  0
   -4.0359   -1.2524    0.5983 C   0  0  0  0  0  0  0  0  0  0  0  0
   -3.3958   -0.7832   -0.6764 C   0  0  0  0  0  0  0  0  0  0  0  0
   -3.5476    0.6970   -0.8510 C   0  0  0  0  0  0  0  0  0  0  0  0
   -4.9292    1.2112   -0.6984 C   0  0  0  0  0  0  0  0  0  0  0  0
   -2.5314    1.2656    0.0849 C   0  0  0  0  0  0  0  0  0  0  0  0
   -1.3601    0.2763   -0.0064 C   0  0  1  0  0  0  0  0  0  0  0  0
   -1.8866   -0.9486   -0.6755 C   0  0  0  0  0  0  0  0  0  0  0  0
   -0.2605    0.9759   -0.7196 C   0  0  0  0  0  0  0  0  0  0  0  0
    0.9962    0.1837   -0.9266 C   0  0  0  0  0  0  0  0  0  0  0  0
    1.9536    1.0765   -1.6608 C   0  0  0  0  0  0  0  0  0  0  0  0
    3.4019    0.9163   -1.2032 C   0  0  0  0  0  0  0  0  0  0  0  0
    3.5497    0.9173    0.1777 N   0  0  0  0  0  0  0  0  0  0  0  0
    2.4643    0.5309    1.0016 C   0  0  0  0  0  0  0  0  0  0  0  0
    1.5574   -0.4406    0.3084 C   0  0  0  0  0  0  0  0  0  0  0  0
    4.6285    1.4383    0.8649 C   0  0  0  0  0  0  0  0  0  0  0  0
    5.9639    0.7420    0.8113 C   0  0  0  0  0  0  0  0  0  0  0  0
    6.6032    0.5913   -0.5064 C   0  0  0  0  0  0  0  0  0  0  0  0
    6.6972   -0.7875   -1.0769 C   0  0  0  0  0  0  0  0  0  0  0  0
    6.8863   -1.8803   -0.0623 C   0  0  0  0  0  0  0  0  0  0  0  0
    5.7077   -1.7568    0.9121 C   0  0  0  0  0  0  0  0  0  0  0  0
    5.9851   -0.4927    1.6911 C   0  0  0  0  0  0  0  0  0  0  0  0
   -2.9810    1.4280    1.3786 O   0  0  0  0  0  0  0  0  0  0  0  0
   -7.1152    0.6321   -0.1246 O   0  0  0  0  0  0  0  0  0  0  0  0
   -7.9228    1.2856    0.7843 C   0  0  0  0  0  0  0  0  0  0  0  0
   -6.0400   -1.7131   -0.5308 O   0  0  0  0  0  0  0  0  0  0  0  0
   -7.0225   -2.5556   -0.0617 C   0  0  0  0  0  0  0  0  0  0  0  0
   -5.7870    0.5282    0.3072 C   0  0  0  0  0  0  0  0  0  0  0  0
   -5.5190   -0.9364    0.4894 C   0  0  0  0  0  0  0  0  0  0  0  0
   -4.0359   -1.2524    0.5983 C   0  0  0  0  0  0  0  0  0  0  0  0
   -3.3958   -0.7832   -0.6764 C   0  0  0  0  0  0  0  0  0  0  0  0
   -3.5476    0.6970   -0.8510 C   0  0  0  0  0  0  0  0  0  0  0  0
   -4.9292    1.2112   -0.6984 C   0  0  0  0  0  0  0  0  0  0  0  0
   -2.5314    1.2656    0.0849 C   0  0  0  0  0  0  0  0  0  0  0  0
   -1.3601    0.2763   -0.0064 C   0  0  1  0  0  0  0  0  0  0  0  0
   -1.8866   -0.9486   -0.6755 C   0  0  0  0  0  0  0  0  0  0  0  0
   -0.2605    0.9759   -0.7196 C   0  0  0  0  0  0  0  0  0  0  0  0
    0.9962    0.1837   -0.9266 C   0  0  0  0  0  0  0  0  0  0  0  0
    1.9536    1.0765   -1.6608 C   0  0  0  0  0  0  0  0  0  0  0  0
    3.4019    0.9163   -1.2032 C   0  0  0  0  0  0  0  0  0  0  0  0
    3.5497    0.9173    0.1777 N   0  0  0  0  0  0  0  0  0  0  0  0
    2.4643    0.5309    1.0016 C   0  0  0  0  0  0  0  0  0  0  0  0
    1.5574   -0.4406    0.3084 C   0  0  0  0  0  0  0  0  0  0  0  0
    4.6285    1.4383    0.8649 C   0  0  0  0  0  0  0  0  0  0  0  0
    5.9639    0.7420    0.8113 C   0  0  0  0  0  0  0  0  0  0  0  0
    6.6032    0.5913   -0.5064 C   0  0  0  0  0  0  0  0  0  0  0  0
    6.6972   -0.7875   -1.0769 C   0  0  0  0  0  0  0  0  0  0  0  0
    6.8863   -1.8803   -0.0623 C   0  0  0  0  0  0  0  0  0  0  0  0
    5.7077   -1.7568    0.9121 C   0  0  0  0  0  0  0  0  0  0  0  0
    5.9851   -0.4927    1.6911 C   0  0  0  0  0  0  0  0  0  0  0  0
   -2.9810    1.4280    1.3786 O   0  0  0  0  0  0  0  0  0  0  0  0
   -7.1152    0.6321   -0.1246 O   0  0  0  0  0  0  0  0  0  0  0  0
   -7.9228    1.2856    0.7843 C   0  0  0  0  0  0  0  0  0  0  0  0
   -6.0400   -1.7131   -0.5308 O   0  0  0  0  0  0  0  0  0  0  0  0
   -7.0225   -2.5556   -0.0617 C   0  0  0  0  0  0  0  0  0  0  0  0
   -5.7610    1.0326    1.3162 H   0  0  0  0  0  0  0  0  0  0  0  0
   -6.0552   -1.2278    1.4339 H   0  0  0  0  0  0  0  0  0  0  0  0
   -3.5917   -0.8279    1.5136 H   0  0  0  0  0  0  0  0  0  0  0  0
   -3.9445   -2.3564    0.6742 H   0  0  0  0  0  0  0  0  0  0  0  0
   -3.8769   -1.3640   -1.5039 H   0  0  0  0  0  0  0  0  0  0  0  0
   -3.1954    0.9233   -1.9002 H   0  0  0  0  0  0  0  0  0  0  0  0
   -5.4230    1.1494   -1.7119 H   0  0  0  0  0  0  0  0  0  0  0  0
   -4.8500    2.2942   -0.3807 H   0  0  0  0  0  0  0  0  0  0  0  0
   -2.2491    2.2736   -0.2936 H   0  0  0  0  0  0  0  0  0  0  0  0
   -1.0572   -0.0127    1.0309 H   0  0  0  0  0  0  0  0  0  0  0  0
   -1.5864   -1.0478   -1.7376 H   0  0  0  0  0  0  0  0  0  0  0  0
   -1.6758   -1.8837   -0.1222 H   0  0  0  0  0  0  0  0  0  0  0  0
   -0.5952    1.3167   -1.7165 H   0  0  0  0  0  0  0  0  0  0  0  0
    0.0013    1.8830   -0.1429 H   0  0  0  0  0  0  0  0  0  0  0  0
    0.8040   -0.6835   -1.6389 H   0  0  0  0  0  0  0  0  0  0  0  0
    1.9311    0.9309   -2.7445 H   0  0  0  0  0  0  0  0  0  0  0  0
    1.6884    2.1577   -1.4933 H   0  0  0  0  0  0  0  0  0  0  0  0
    3.8370    0.0645   -1.7675 H   0  0  0  0  0  0  0  0  0  0  0  0
    3.8992    1.8425   -1.6292 H   0  0  0  0  0  0  0  0  0  0  0  0
    1.8868    1.4050    1.3740 H   0  0  0  0  0  0  0  0  0  0  0  0
    2.9072    0.0077    1.9013 H   0  0  0  0  0  0  0  0  0  0  0  0
    0.7924   -0.8028    1.0034 H   0  0  0  0  0  0  0  0  0  0  0  0
    2.2050   -1.3182    0.0198 H   0  0  0  0  0  0  0  0  0  0  0  0
    4.4301    1.5597    1.9879 H   0  0  0  0  0  0  0  0  0  0  0  0
    4.8395    2.5039    0.5489 H   0  0  0  0  0  0  0  0  0  0  0  0
    6.6454    1.4672    1.3953 H   0  0  0  0  0  0  0  0  0  0  0  0
    7.6534    1.0241   -0.4870 H   0  0  0  0  0  0  0  0  0  0  0  0
    6.0881    1.2207   -1.2591 H   0  0  0  0  0  0  0  0  0  0  0  0
    5.8877   -1.0850   -1.7516 H   0  0  0  0  0  0  0  0  0  0  0  0
    7.6333   -0.8189   -1.7224 H   0  0  0  0  0  0  0  0  0  0  0  0
    6.7562   -2.8514   -0.5945 H   0  0  0  0  0  0  0  0  0  0  0  0
    7.8244   -1.8123    0.5028 H   0  0  0  0  0  0  0  0  0  0  0  0
    5.6965   -2.5884    1.6261 H   0  0  0  0  0  0  0  0  0  0  0  0
    4.8043   -1.6751    0.2811 H   0  0  0  0  0  0  0  0  0  0  0  0
    7.0226   -0.6022    2.0776 H   0  0  0  0  0  0  0  0  0  0  0  0
    5.3207   -0.3168    2.5329 H   0  0  0  0  0  0  0  0  0  0  0  0
   -2.2215    1.2282    1.9832 H   0  0  0  0  0  0  0  0  0  0  0  0
   -8.9490    1.3040    0.3238 H   0  0  0  0  0  0  0  0  0  0  0  0
   -8.0298    0.7156    1.7241 H   0  0  0  0  0  0  0  0  0  0  0  0
   -7.6664    2.3464    0.9417 H   0  0  0  0  0  0  0  0  0  0  0  0
   -6.6512   -3.2603    0.7351 H   0  0  0  0  0  0  0  0  0  0  0  0
   -7.9330   -2.0134    0.2722 H   0  0  0  0  0  0  0  0  0  0  0  0
   -7.3027   -3.2515   -0.9033 H   0  0  0  0  0  0  0  0  0  0  0  0
   -5.7610    1.0326    1.3162 H   0  0  0  0  0  0  0  0  0  0  0  0
   -6.0552   -1.2278    1.4339 H   0  0  0  0  0  0  0  0  0  0  0  0
   -3.5917   -0.8279    1.5136 H   0  0  0  0  0  0  0  0  0  0  0  0
   -3.9445   -2.3564    0.6742 H   0  0  0  0  0  0  0  0  0  0  0  0
   -3.8769   -1.3640   -1.5039 H   0  0  0  0  0  0  0  0  0  0  0  0
   -3.1954    0.9233   -1.9002 H   0  0  0  0  0  0  0  0  0  0  0  0
   -5.4230    1.1494   -1.7119 H   0  0  0  0  0  0  0  0  0  0  0  0
   -4.8500    2.2942   -0.3807 H   0  0  0  0  0  0  0  0  0  0  0  0
   -2.2491    2.2736   -0.2936 H   0  0  0  0  0  0  0  0  0  0  0  0
   -1.0572   -0.0127    1.0309 H   0  0  0  0  0  0  0  0  0  0  0  0
   -1.5864   -1.0478   -1.7376 H   0  0  0  0  0  0  0  0  0  0  0  0
   -1.6758   -1.8837   -0.1222 H   0  0  0  0  0  0  0  0  0  0  0  0
   -0.5952    1.3167   -1.7165 H   0  0  0  0  0  0  0  0  0  0  0  0
    0.0013    1.8830   -0.1429 H   0  0  0  0  0  0  0  0  0  0  0  0
    0.8040   -0.6835   -1.6389 H   0  0  0  0  0  0  0  0  0  0  0  0
    1.9311    0.9309   -2.7445 H   0  0  0  0  0  0  0  0  0  0  0  0
    1.6884    2.1577   -1.4933 H   0  0  0  0  0  0  0  0  0  0  0  0
    3.8370    0.0645   -1.7675 H   0  0  0  0  0  0  0  0  0  0  0  0
    3.8992    1.8425   -1.6292 H   0  0  0  0  0  0  0  0  0  0  0  0
    1.8868    1.4050    1.3740 H   0  0  0  0  0  0  0  0  0  0  0  0
    2.9072    0.0077    1.9013 H   0  0  0  0  0  0  0  0  0  0  0  0
    0.7924   -0.8028    1.0034 H   0  0  0  0  0  0  0  0  0  0  0  0
    2.2050   -1.3182    0.0198 H   0  0  0  0  0  0  0  0  0  0  0  0
    4.4301    1.5597    1.9879 H   0  0  0  0  0  0  0  0  0  0  0  0
    4.8395    2.5039    0.5489 H   0  0  0  0  0  0  0  0  0  0  0  0
    6.6454    1.4672    1.3953 H   0  0  0  0  0  0  0  0  0  0  0  0
    7.6534    1.0241   -0.4870 H   0  0  0  0  0  0  0  0  0  0  0  0
    6.0881    1.2207   -1.2591 H   0  0  0  0  0  0  0  0  0  0  0  0
    5.8877   -1.0850   -1.7516 H   0  0  0  0  0  0  0  0  0  0  0  0
    7.6333   -0.8189   -1.7224 H   0  0  0  0  0  0  0  0  0  0  0  0
    6.7562   -2.8514   -0.5945 H   0  0  0  0  0  0  0  0  0  0  0  0
    7.8244   -1.8123    0.5028 H   0  0  0  0  0  0  0  0  0  0  0  0
    5.6965   -2.5884    1.6261 H   0  0  0  0  0  0  0  0  0  0  0  0
    4.8043   -1.6751    0.2811 H   0  0  0  0  0  0  0  0  0  0  0  0
    7.0226   -0.6022    2.0776 H   0  0  0  0  0  0  0  0  0  0  0  0
    5.3207   -0.3168    2.5329 H   0  0  0  0  0  0  0  0  0  0  0  0
   -2.2215    1.2282    1.9832 H   0  0  0  0  0  0  0  0  0  0  0  0
   -8.9490    1.3040    0.3238 H   0  0  0  0  0  0  0  0  0  0  0  0
   -8.0298    0.7156    1.7241 H   0  0  0  0  0  0  0  0  0  0  0  0
   -7.6664    2.3464    0.9417 H   0  0  0  0  0  0  0  0  0  0  0  0
   -6.6512   -3.2603    0.7351 H   0  0  0  0  0  0  0  0  0  0  0  0
   -7.9330   -2.0134    0.2722 H   0  0  0  0  0  0  0  0  0  0  0  0
   -7.3027   -3.2515   -0.9033 H   0  0  0  0  0  0  0  0  0  0  0  0
  1  2  1  0
  2  3  1  0
  3  4  1  0
  4  5  1  0
  1  6  1  0
  5  6  1  0
  5  7  1  0
  7  8  1  0
  4  9  1  0
  8  9  1  0
  8 10  1  0
 10 11  1  0
 11 12  1  0
 12 13  1  0
 13 14  1  0
 14 15  1  0
 11 16  1  0
 15 16  1  0
 14 17  1  0
 17 18  1  0
 18 19  1  0
 19 20  1  0
 20 21  1  0
 21 22  1  0
 18 23  1  0
 22 23  1  0
  7 24  1  0
  1 25  1  0
 25 26  1  0
  2 27  1  0
 27 28  1  0
 29 30  1  0
 30 31  1  0
 31 32  1  0
 32 33  1  0
 29 34  1  0
 33 34  1  0
 33 35  1  0
 35 36  1  0
 32 37  1  0
 36 37  1  0
 36 38  1  0
 38 39  1  0
 39 40  1  0
 40 41  1  0
 41 42  1  0
 42 43  1  0
 39 44  1  0
 43 44  1  0
 42 45  1  0
 45 46  1  0
 46 47  1  0
 47 48  1  0
 48 49  1  0
 49 50  1  0
 46 51  1  0
 50 51  1  0
 35 52  1  0
 29 53  1  0
 53 54  1  0
 30 55  1  0
 55 56  1  0
  1 57  1  0
  2 58  1  0
  3 59  1  0
  3 60  1  0
  4 61  1  0
  5 62  1  0
  6 63  1  0
  6 64  1  0
  7 65  1  0
  8 66  1  1
  9 67  1  0
  9 68  1  0
 10 69  1  0
 10 70  1  0
 11 71  1  0
 12 72  1  0
 12 73  1  0
 13 74  1  0
 13 75  1  0
 15 76  1  0
 15 77  1  0
 16 78  1  0
 16 79  1  0
 17 80  1  0
 17 81  1  0
 18 82  1  0
 19 83  1  0
 19 84  1  0
 20 85  1  0
 20 86  1  0
 21 87  1  0
 21 88  1  0
 22 89  1  0
 22 90  1  0
 23 91  1  0
 23 92  1  0
 24 93  1  0
 26 94  1  0
 26 95  1  0
 26 96  1  0
 28 97  1  0
 28 98  1  0
 28 99  1  0
 29100  1  0
 30101  1  0
 31102  1  0
 31103  1  0
 32104  1  0
 33105  1  0
 34106  1  0
 34107  1  0
 35108  1  0
 36109  1  1
 37110  1  0
 37111  1  0
 38112  1  0
 38113  1  0
 39114  1  0
 40115  1  0
 40116  1  0
 41117  1  0
 41118  1  0
 43119  1  0
 43120  1  0
 44121  1  0
 44122  1  0
 45123  1  0
 45124  1  0
 46125  1  0
 47126  1  0
 47127  1  0
 48128  1  0
 48129  1  0
 49130  1  0
 49131  1  0
 50132  1  0
 50133  1  0
 51134  1  0
 51135  1  0
 52136  1  0
 54137  1  0
 54138  1  0
 54139  1  0
 56140  1  0
 56141  1  0
 56142  1  0
M  END
>  <PDBID>  (1) 
4EY7

>  <PDB ID>  (1) 
4EY7

>  <Generic Name>  (1) 
Donepezil

>  <Brand Name>  (1) 
Accel-donepezil#Act Donepezil#Act Donepezil ODT#Ag-donepezil#Apo-donepezil#Aricept#Aricept ODT#Aricept Rdt#Auro-donepezil#Bio-donepezil#Dom-donepezil#Donepezil#Donepezil Hydrochloride#Donepezil Hydrochloride 10 mg#Donepezil Hydrochloride 10mg#Donepezil Hydrochloride 5 mg#Donepezil Hydrochloride ODT#Donepezil Hydrochloride Tablets#Donepezil Hydrochloride Tablets USP#Donepezil Hyrochloride 5mg#Ecl-donepezil#Ipg-donepezil#Jamp-donepezil#Jamp-donepezil Tablets#Mar-donepezil#Mint-donepezil#Mylan-donepezil#Namzaric#Nat-donepezil#PMS-donepezil#Priva-donepezil#Ran-donepezil#Riva-donepezil#Sandoz Donepezil#Sandoz Donepezil ODT#Septa Donepezil#Teva-donepezil#Van-donepezil#Alzepil#Davia#Depzil#Donecept#Donecil#Donep#Donepex#Donesyn#Dopezil#Eranz#Memac#Nomi-Nox#Pezale#Redumas#Zolpezil

>  <DrugBank ID>  (1) 
DB00843

>  <ATC Codes>  (1) 
N06DA02#N06DA52#N06DA53

>  <Ligand ID>  (1) 
E20

>  <Target Name>  (1) 
Acetylcholinesterase

>  <UniProt ID>  (1) 
P22303

>  <PDB ID.1>  (1) 
4EY7

>  <Seq. Identity>  (1) 
97%

$$$$
