PDB_DB01229_09
     RDKit          3D

290302  0  0  0  0  0  0  0  0999 V2000
   -1.3712    1.9094    1.2835 O   0  0  0  0  0  0  0  0  0  0  0  0
   -1.7333    0.5511    1.3239 C   0  0  1  0  0  0  0  0  0  0  0  0
   -3.1552    0.5116    0.8099 C   0  0  1  0  0  0  0  0  0  0  0  0
   -3.2051    1.4837   -0.2023 O   0  0  0  0  0  0  0  0  0  0  0  0
   -3.7346    2.6902    0.1252 C   0  0  0  0  0  0  0  0  0  0  0  0
   -4.9957    2.9046   -0.5495 O   0  0  0  0  0  0  0  0  0  0  0  0
   -2.9951    3.9425   -0.3172 C   0  0  0  0  0  0  0  0  0  0  0  0
   -2.9921    3.8451   -1.8379 C   0  0  0  0  0  0  0  0  0  0  0  0
   -3.1892    5.1015   -2.5861 C   0  0  0  0  0  0  0  0  0  0  0  0
   -4.2886    5.9459   -1.9858 C   0  0  0  0  0  0  0  0  0  0  0  0
   -3.7330    6.3568   -0.6094 C   0  0  0  0  0  0  0  0  0  0  0  0
   -3.7589    5.1310    0.2214 C   0  0  0  0  0  0  0  0  0  0  0  0
   -3.6865   -0.7928    0.4097 C   0  0  2  0  0  0  0  0  0  0  0  0
   -4.5505   -0.6525   -0.7865 C   0  0  2  0  0  0  0  0  0  0  0  0
   -3.8552   -0.1205   -1.8964 O   0  0  0  0  0  0  0  0  0  0  0  0
   -2.8847   -0.9372   -2.4324 C   0  0  0  0  0  0  0  0  0  0  0  0
   -1.6339   -0.3382   -2.5634 O   0  0  0  0  0  0  0  0  0  0  0  0
   -3.2725   -1.2688   -3.9079 C   0  0  0  0  0  0  0  0  0  0  0  0
   -5.9109   -0.0721   -0.7245 C   0  0  0  0  0  0  0  0  0  0  0  0
   -6.5482   -1.1628   -1.2877 O   0  0  0  0  0  0  0  0  0  0  0  0
   -5.3203   -1.8197   -1.2420 C   0  0  2  0  0  0  0  0  0  0  0  0
   -5.4473   -3.0094   -0.3977 C   0  0  0  0  0  0  0  0  0  0  0  0
   -4.4512   -3.0320    0.6513 C   0  0  2  0  0  0  0  0  0  0  0  0
   -4.8190   -4.0566    1.5563 O   0  0  0  0  0  0  0  0  0  0  0  0
   -4.2149   -1.7262    1.4430 C   0  0  2  0  0  0  0  0  0  0  0  0
   -5.6226   -1.3565    1.9541 C   0  0  0  0  0  0  0  0  0  0  0  0
   -3.4749   -2.1010    2.6407 C   0  0  0  0  0  0  0  0  0  0  0  0
   -4.0640   -1.7204    3.8872 O   0  0  0  0  0  0  0  0  0  0  0  0
   -1.9961   -2.2552    2.7195 C   0  0  2  0  0  0  0  0  0  0  0  0
   -1.8279   -3.1588    3.8359 O   0  0  0  0  0  0  0  0  0  0  0  0
   -1.5637   -4.4429    3.5097 C   0  0  0  0  0  0  0  0  0  0  0  0
   -0.4757   -5.0445    4.1327 O   0  0  0  0  0  0  0  0  0  0  0  0
   -2.7471   -5.3393    4.0067 C   0  0  0  0  0  0  0  0  0  0  0  0
   -1.1158   -1.1401    3.0192 C   0  0  1  0  0  0  0  0  0  0  0  0
    0.2605   -1.3308    2.4518 C   0  0  0  0  0  0  0  0  0  0  0  0
    0.5596   -0.4342    1.2425 C   0  0  1  0  0  0  0  0  0  0  0  0
    1.4333   -1.0741    0.3839 O   0  0  0  0  0  0  0  0  0  0  0  0
    2.5536   -0.3476   -0.0075 C   0  0  0  0  0  0  0  0  0  0  0  0
    3.6242   -0.7975    0.8795 O   0  0  0  0  0  0  0  0  0  0  0  0
    3.0694   -0.7235   -1.3375 C   0  0  2  0  0  0  0  0  0  0  0  0
    3.5514   -2.0952   -1.2416 O   0  0  0  0  0  0  0  0  0  0  0  0
    4.1372    0.0337   -1.9622 C   0  0  1  0  0  0  0  0  0  0  0  0
    5.4049    0.2570   -1.3751 N   0  0  0  0  0  0  0  0  0  0  0  0
    5.5420    1.1550   -0.3034 C   0  0  0  0  0  0  0  0  0  0  0  0
    6.1052    2.3632   -0.8561 O   0  0  0  0  0  0  0  0  0  0  0  0
    6.4072    0.8024    0.8655 C   0  0  0  0  0  0  0  0  0  0  0  0
    6.3263    1.9663    1.8366 C   0  0  0  0  0  0  0  0  0  0  0  0
    7.6528    2.3845    2.3437 C   0  0  0  0  0  0  0  0  0  0  0  0
    8.5682    2.6993    1.1887 C   0  0  0  0  0  0  0  0  0  0  0  0
    8.7464    1.5462    0.2551 C   0  0  0  0  0  0  0  0  0  0  0  0
    7.8120    0.4215    0.5291 C   0  0  0  0  0  0  0  0  0  0  0  0
    4.4393   -0.4695   -3.3925 C   0  0  0  0  0  0  0  0  0  0  0  0
    4.8508   -1.9173   -3.4184 C   0  0  0  0  0  0  0  0  0  0  0  0
    5.5922   -2.1317   -4.7495 C   0  0  0  0  0  0  0  0  0  0  0  0
    5.1226   -1.1609   -5.7966 C   0  0  0  0  0  0  0  0  0  0  0  0
    3.6282   -0.8850   -5.6892 C   0  0  0  0  0  0  0  0  0  0  0  0
    3.3364   -0.1773   -4.3639 C   0  0  0  0  0  0  0  0  0  0  0  0
   -0.7340   -0.1458    0.4873 C   0  0  0  0  0  0  0  0  0  0  0  0
    0.6489   -2.7039    2.0171 C   0  0  0  0  0  0  0  0  0  0  0  0
   -1.5805    0.2878    2.8281 C   0  0  0  0  0  0  0  0  0  0  0  0
   -2.6926    0.7569    3.6527 C   0  0  0  0  0  0  0  0  0  0  0  0
   -0.4015    1.1415    3.3915 C   0  0  0  0  0  0  0  0  0  0  0  0
   -1.3712    1.9094    1.2835 O   0  0  0  0  0  0  0  0  0  0  0  0
   -1.7333    0.5511    1.3239 C   0  0  1  0  0  0  0  0  0  0  0  0
   -3.1552    0.5116    0.8099 C   0  0  1  0  0  0  0  0  0  0  0  0
   -3.2051    1.4837   -0.2023 O   0  0  0  0  0  0  0  0  0  0  0  0
   -3.7346    2.6902    0.1252 C   0  0  0  0  0  0  0  0  0  0  0  0
   -4.9957    2.9046   -0.5495 O   0  0  0  0  0  0  0  0  0  0  0  0
   -2.9951    3.9425   -0.3172 C   0  0  0  0  0  0  0  0  0  0  0  0
   -2.9921    3.8451   -1.8379 C   0  0  0  0  0  0  0  0  0  0  0  0
   -3.1892    5.1015   -2.5861 C   0  0  0  0  0  0  0  0  0  0  0  0
   -4.2886    5.9459   -1.9858 C   0  0  0  0  0  0  0  0  0  0  0  0
   -3.7330    6.3568   -0.6094 C   0  0  0  0  0  0  0  0  0  0  0  0
   -3.7589    5.1310    0.2214 C   0  0  0  0  0  0  0  0  0  0  0  0
   -3.6865   -0.7928    0.4097 C   0  0  2  0  0  0  0  0  0  0  0  0
   -4.5505   -0.6525   -0.7865 C   0  0  2  0  0  0  0  0  0  0  0  0
   -3.8552   -0.1205   -1.8964 O   0  0  0  0  0  0  0  0  0  0  0  0
   -2.8847   -0.9372   -2.4324 C   0  0  0  0  0  0  0  0  0  0  0  0
   -1.6339   -0.3382   -2.5634 O   0  0  0  0  0  0  0  0  0  0  0  0
   -3.2725   -1.2688   -3.9079 C   0  0  0  0  0  0  0  0  0  0  0  0
   -5.9109   -0.0721   -0.7245 C   0  0  0  0  0  0  0  0  0  0  0  0
   -6.5482   -1.1628   -1.2877 O   0  0  0  0  0  0  0  0  0  0  0  0
   -5.3203   -1.8197   -1.2420 C   0  0  2  0  0  0  0  0  0  0  0  0
   -5.4473   -3.0094   -0.3977 C   0  0  0  0  0  0  0  0  0  0  0  0
   -4.4512   -3.0320    0.6513 C   0  0  2  0  0  0  0  0  0  0  0  0
   -4.8190   -4.0566    1.5563 O   0  0  0  0  0  0  0  0  0  0  0  0
   -4.2149   -1.7262    1.4430 C   0  0  2  0  0  0  0  0  0  0  0  0
   -5.6226   -1.3565    1.9541 C   0  0  0  0  0  0  0  0  0  0  0  0
   -3.4749   -2.1010    2.6407 C   0  0  0  0  0  0  0  0  0  0  0  0
   -4.0640   -1.7204    3.8872 O   0  0  0  0  0  0  0  0  0  0  0  0
   -1.9961   -2.2552    2.7195 C   0  0  2  0  0  0  0  0  0  0  0  0
   -1.8279   -3.1588    3.8359 O   0  0  0  0  0  0  0  0  0  0  0  0
   -1.5637   -4.4429    3.5097 C   0  0  0  0  0  0  0  0  0  0  0  0
   -0.4757   -5.0445    4.1327 O   0  0  0  0  0  0  0  0  0  0  0  0
   -2.7471   -5.3393    4.0067 C   0  0  0  0  0  0  0  0  0  0  0  0
   -1.1158   -1.1401    3.0192 C   0  0  1  0  0  0  0  0  0  0  0  0
    0.2605   -1.3308    2.4518 C   0  0  0  0  0  0  0  0  0  0  0  0
    0.5596   -0.4342    1.2425 C   0  0  1  0  0  0  0  0  0  0  0  0
    1.4333   -1.0741    0.3839 O   0  0  0  0  0  0  0  0  0  0  0  0
    2.5536   -0.3476   -0.0075 C   0  0  0  0  0  0  0  0  0  0  0  0
    3.6242   -0.7975    0.8795 O   0  0  0  0  0  0  0  0  0  0  0  0
    3.0694   -0.7235   -1.3375 C   0  0  2  0  0  0  0  0  0  0  0  0
    3.5514   -2.0952   -1.2416 O   0  0  0  0  0  0  0  0  0  0  0  0
    4.1372    0.0337   -1.9622 C   0  0  1  0  0  0  0  0  0  0  0  0
    5.4049    0.2570   -1.3751 N   0  0  0  0  0  0  0  0  0  0  0  0
    5.5420    1.1550   -0.3034 C   0  0  0  0  0  0  0  0  0  0  0  0
    6.1052    2.3632   -0.8561 O   0  0  0  0  0  0  0  0  0  0  0  0
    6.4072    0.8024    0.8655 C   0  0  0  0  0  0  0  0  0  0  0  0
    6.3263    1.9663    1.8366 C   0  0  0  0  0  0  0  0  0  0  0  0
    7.6528    2.3845    2.3437 C   0  0  0  0  0  0  0  0  0  0  0  0
    8.5682    2.6993    1.1887 C   0  0  0  0  0  0  0  0  0  0  0  0
    8.7464    1.5462    0.2551 C   0  0  0  0  0  0  0  0  0  0  0  0
    7.8120    0.4215    0.5291 C   0  0  0  0  0  0  0  0  0  0  0  0
    4.4393   -0.4695   -3.3925 C   0  0  0  0  0  0  0  0  0  0  0  0
    4.8508   -1.9173   -3.4184 C   0  0  0  0  0  0  0  0  0  0  0  0
    5.5922   -2.1317   -4.7495 C   0  0  0  0  0  0  0  0  0  0  0  0
    5.1226   -1.1609   -5.7966 C   0  0  0  0  0  0  0  0  0  0  0  0
    3.6282   -0.8850   -5.6892 C   0  0  0  0  0  0  0  0  0  0  0  0
    3.3364   -0.1773   -4.3639 C   0  0  0  0  0  0  0  0  0  0  0  0
   -0.7340   -0.1458    0.4873 C   0  0  0  0  0  0  0  0  0  0  0  0
    0.6489   -2.7039    2.0171 C   0  0  0  0  0  0  0  0  0  0  0  0
   -1.5805    0.2878    2.8281 C   0  0  0  0  0  0  0  0  0  0  0  0
   -2.6926    0.7569    3.6527 C   0  0  0  0  0  0  0  0  0  0  0  0
   -0.4015    1.1415    3.3915 C   0  0  0  0  0  0  0  0  0  0  0  0
   -0.6461    2.1116    0.6437 H   0  0  0  0  0  0  0  0  0  0  0  0
   -3.8033    1.0182    1.5694 H   0  0  0  0  0  0  0  0  0  0  0  0
   -3.9186    2.8112    1.2008 H   0  0  0  0  0  0  0  0  0  0  0  0
   -5.6953    2.8909    0.1450 H   0  0  0  0  0  0  0  0  0  0  0  0
   -1.9705    4.0015    0.0445 H   0  0  0  0  0  0  0  0  0  0  0  0
   -2.0598    3.3152   -2.1547 H   0  0  0  0  0  0  0  0  0  0  0  0
   -3.8326    3.1476   -2.1570 H   0  0  0  0  0  0  0  0  0  0  0  0
   -2.2926    5.7546   -2.6281 H   0  0  0  0  0  0  0  0  0  0  0  0
   -3.5449    4.8326   -3.6088 H   0  0  0  0  0  0  0  0  0  0  0  0
   -5.2259    5.3464   -1.7848 H   0  0  0  0  0  0  0  0  0  0  0  0
   -4.5705    6.7983   -2.6004 H   0  0  0  0  0  0  0  0  0  0  0  0
   -2.7190    6.7469   -0.7510 H   0  0  0  0  0  0  0  0  0  0  0  0
   -4.4493    7.0774   -0.1710 H   0  0  0  0  0  0  0  0  0  0  0  0
   -4.7908    4.8207    0.4818 H   0  0  0  0  0  0  0  0  0  0  0  0
   -3.2831    5.3703    1.2116 H   0  0  0  0  0  0  0  0  0  0  0  0
   -2.8270   -1.4341   -0.0338 H   0  0  0  0  0  0  0  0  0  0  0  0
   -2.7372   -1.9044   -1.9111 H   0  0  0  0  0  0  0  0  0  0  0  0
   -1.1012   -0.9660   -3.1530 H   0  0  0  0  0  0  0  0  0  0  0  0
   -3.3419   -2.3672   -4.0427 H   0  0  0  0  0  0  0  0  0  0  0  0
   -2.5422   -0.8830   -4.6174 H   0  0  0  0  0  0  0  0  0  0  0  0
   -4.2650   -0.8441   -4.1504 H   0  0  0  0  0  0  0  0  0  0  0  0
   -6.0816    0.7529   -1.5201 H   0  0  0  0  0  0  0  0  0  0  0  0
   -6.2987    0.3620    0.1884 H   0  0  0  0  0  0  0  0  0  0  0  0
   -5.0896   -2.1014   -2.3004 H   0  0  0  0  0  0  0  0  0  0  0  0
   -6.5110   -3.2110   -0.0513 H   0  0  0  0  0  0  0  0  0  0  0  0
   -5.2675   -3.9586   -1.0008 H   0  0  0  0  0  0  0  0  0  0  0  0
   -3.4549   -3.3413    0.2460 H   0  0  0  0  0  0  0  0  0  0  0  0
   -5.7544   -4.3023    1.4647 H   0  0  0  0  0  0  0  0  0  0  0  0
   -6.4293   -1.6902    1.3254 H   0  0  0  0  0  0  0  0  0  0  0  0
   -5.7915   -1.9494    2.9183 H   0  0  0  0  0  0  0  0  0  0  0  0
   -5.6617   -0.3115    2.3238 H   0  0  0  0  0  0  0  0  0  0  0  0
   -3.7964   -3.2179    2.8325 H   0  0  0  0  0  0  0  0  0  0  0  0
   -3.3815   -1.9146    4.5682 H   0  0  0  0  0  0  0  0  0  0  0  0
   -1.7707   -2.9255    1.8691 H   0  0  0  0  0  0  0  0  0  0  0  0
   -1.4379   -4.6592    2.4145 H   0  0  0  0  0  0  0  0  0  0  0  0
    0.0754   -5.6071    3.5246 H   0  0  0  0  0  0  0  0  0  0  0  0
   -3.3185   -5.6868    3.1469 H   0  0  0  0  0  0  0  0  0  0  0  0
   -2.4112   -6.2067    4.5622 H   0  0  0  0  0  0  0  0  0  0  0  0
   -3.4047   -4.7316    4.6572 H   0  0  0  0  0  0  0  0  0  0  0  0
   -0.9250   -1.1357    4.1545 H   0  0  0  0  0  0  0  0  0  0  0  0
    1.0888   -1.1616    3.2160 H   0  0  0  0  0  0  0  0  0  0  0  0
    0.9972    0.5225    1.4669 H   0  0  0  0  0  0  0  0  0  0  0  0
    2.4698    0.6736    0.2379 H   0  0  0  0  0  0  0  0  0  0  0  0
    3.2759   -0.8853    1.7756 H   0  0  0  0  0  0  0  0  0  0  0  0
    2.2015   -0.8105   -2.0767 H   0  0  0  0  0  0  0  0  0  0  0  0
    3.7829   -2.2879   -0.3212 H   0  0  0  0  0  0  0  0  0  0  0  0
    3.7529    1.1059   -2.2002 H   0  0  0  0  0  0  0  0  0  0  0  0
    5.9705   -0.6345   -1.2589 H   0  0  0  0  0  0  0  0  0  0  0  0
    4.5870    1.5629    0.1363 H   0  0  0  0  0  0  0  0  0  0  0  0
    5.4529    2.7563   -1.4962 H   0  0  0  0  0  0  0  0  0  0  0  0
    6.0047   -0.0766    1.4560 H   0  0  0  0  0  0  0  0  0  0  0  0
    5.8665    2.8490    1.3286 H   0  0  0  0  0  0  0  0  0  0  0  0
    5.6917    1.6825    2.7105 H   0  0  0  0  0  0  0  0  0  0  0  0
    8.0793    1.6524    3.0620 H   0  0  0  0  0  0  0  0  0  0  0  0
    7.5080    3.3453    2.9206 H   0  0  0  0  0  0  0  0  0  0  0  0
    9.5227    3.1248    1.5593 H   0  0  0  0  0  0  0  0  0  0  0  0
    8.0936    3.5430    0.6109 H   0  0  0  0  0  0  0  0  0  0  0  0
    9.7874    1.1458    0.4209 H   0  0  0  0  0  0  0  0  0  0  0  0
    8.7280    1.8445   -0.8114 H   0  0  0  0  0  0  0  0  0  0  0  0
    7.8553   -0.3280   -0.2786 H   0  0  0  0  0  0  0  0  0  0  0  0
    8.2323   -0.1192    1.4328 H   0  0  0  0  0  0  0  0  0  0  0  0
    5.3217    0.1273   -3.7439 H   0  0  0  0  0  0  0  0  0  0  0  0
    5.5863   -2.1044   -2.6197 H   0  0  0  0  0  0  0  0  0  0  0  0
    3.9832   -2.6219   -3.4155 H   0  0  0  0  0  0  0  0  0  0  0  0
    6.6644   -2.0276   -4.6090 H   0  0  0  0  0  0  0  0  0  0  0  0
    5.3703   -3.1476   -5.1471 H   0  0  0  0  0  0  0  0  0  0  0  0
    5.3096   -1.5514   -6.8147 H   0  0  0  0  0  0  0  0  0  0  0  0
    5.6354   -0.1750   -5.7356 H   0  0  0  0  0  0  0  0  0  0  0  0
    3.3475   -0.2120   -6.5006 H   0  0  0  0  0  0  0  0  0  0  0  0
    3.1075   -1.8628   -5.6782 H   0  0  0  0  0  0  0  0  0  0  0  0
    2.3607   -0.5477   -4.0407 H   0  0  0  0  0  0  0  0  0  0  0  0
    3.2166    0.8987   -4.5920 H   0  0  0  0  0  0  0  0  0  0  0  0
   -0.3704    0.5547   -0.3351 H   0  0  0  0  0  0  0  0  0  0  0  0
   -0.9838   -1.0519   -0.0317 H   0  0  0  0  0  0  0  0  0  0  0  0
    1.0348   -3.3459    2.8644 H   0  0  0  0  0  0  0  0  0  0  0  0
    1.6406   -2.5520    1.4654 H   0  0  0  0  0  0  0  0  0  0  0  0
    0.0607   -3.2103    1.2735 H   0  0  0  0  0  0  0  0  0  0  0  0
   -2.5042    0.3535    4.7038 H   0  0  0  0  0  0  0  0  0  0  0  0
   -2.5280    1.8787    3.8841 H   0  0  0  0  0  0  0  0  0  0  0  0
   -3.7105    0.7827    3.3822 H   0  0  0  0  0  0  0  0  0  0  0  0
   -0.2053    2.0235    2.7684 H   0  0  0  0  0  0  0  0  0  0  0  0
   -0.7171    1.6592    4.3637 H   0  0  0  0  0  0  0  0  0  0  0  0
    0.4294    0.5711    3.7479 H   0  0  0  0  0  0  0  0  0  0  0  0
   -0.6461    2.1116    0.6437 H   0  0  0  0  0  0  0  0  0  0  0  0
   -3.8033    1.0182    1.5694 H   0  0  0  0  0  0  0  0  0  0  0  0
   -3.9186    2.8112    1.2008 H   0  0  0  0  0  0  0  0  0  0  0  0
   -5.6953    2.8909    0.1450 H   0  0  0  0  0  0  0  0  0  0  0  0
   -1.9705    4.0015    0.0445 H   0  0  0  0  0  0  0  0  0  0  0  0
   -2.0598    3.3152   -2.1547 H   0  0  0  0  0  0  0  0  0  0  0  0
   -3.8326    3.1476   -2.1570 H   0  0  0  0  0  0  0  0  0  0  0  0
   -2.2926    5.7546   -2.6281 H   0  0  0  0  0  0  0  0  0  0  0  0
   -3.5449    4.8326   -3.6088 H   0  0  0  0  0  0  0  0  0  0  0  0
   -5.2259    5.3464   -1.7848 H   0  0  0  0  0  0  0  0  0  0  0  0
   -4.5705    6.7983   -2.6004 H   0  0  0  0  0  0  0  0  0  0  0  0
   -2.7190    6.7469   -0.7510 H   0  0  0  0  0  0  0  0  0  0  0  0
   -4.4493    7.0774   -0.1710 H   0  0  0  0  0  0  0  0  0  0  0  0
   -4.7908    4.8207    0.4818 H   0  0  0  0  0  0  0  0  0  0  0  0
   -3.2831    5.3703    1.2116 H   0  0  0  0  0  0  0  0  0  0  0  0
   -2.8270   -1.4341   -0.0338 H   0  0  0  0  0  0  0  0  0  0  0  0
   -2.7372   -1.9044   -1.9111 H   0  0  0  0  0  0  0  0  0  0  0  0
   -1.1012   -0.9660   -3.1530 H   0  0  0  0  0  0  0  0  0  0  0  0
   -3.3419   -2.3672   -4.0427 H   0  0  0  0  0  0  0  0  0  0  0  0
   -2.5422   -0.8830   -4.6174 H   0  0  0  0  0  0  0  0  0  0  0  0
   -4.2650   -0.8441   -4.1504 H   0  0  0  0  0  0  0  0  0  0  0  0
   -6.0816    0.7529   -1.5201 H   0  0  0  0  0  0  0  0  0  0  0  0
   -6.2987    0.3620    0.1884 H   0  0  0  0  0  0  0  0  0  0  0  0
   -5.0896   -2.1014   -2.3004 H   0  0  0  0  0  0  0  0  0  0  0  0
   -6.5110   -3.2110   -0.0513 H   0  0  0  0  0  0  0  0  0  0  0  0
   -5.2675   -3.9586   -1.0008 H   0  0  0  0  0  0  0  0  0  0  0  0
   -3.4549   -3.3413    0.2460 H   0  0  0  0  0  0  0  0  0  0  0  0
   -5.7544   -4.3023    1.4647 H   0  0  0  0  0  0  0  0  0  0  0  0
   -6.4293   -1.6902    1.3254 H   0  0  0  0  0  0  0  0  0  0  0  0
   -5.7915   -1.9494    2.9183 H   0  0  0  0  0  0  0  0  0  0  0  0
   -5.6617   -0.3115    2.3238 H   0  0  0  0  0  0  0  0  0  0  0  0
   -3.7964   -3.2179    2.8325 H   0  0  0  0  0  0  0  0  0  0  0  0
   -3.3815   -1.9146    4.5682 H   0  0  0  0  0  0  0  0  0  0  0  0
   -1.7707   -2.9255    1.8691 H   0  0  0  0  0  0  0  0  0  0  0  0
   -1.4379   -4.6592    2.4145 H   0  0  0  0  0  0  0  0  0  0  0  0
    0.0754   -5.6071    3.5246 H   0  0  0  0  0  0  0  0  0  0  0  0
   -3.3185   -5.6868    3.1469 H   0  0  0  0  0  0  0  0  0  0  0  0
   -2.4112   -6.2067    4.5622 H   0  0  0  0  0  0  0  0  0  0  0  0
   -3.4047   -4.7316    4.6572 H   0  0  0  0  0  0  0  0  0  0  0  0
   -0.9250   -1.1357    4.1545 H   0  0  0  0  0  0  0  0  0  0  0  0
    1.0888   -1.1616    3.2160 H   0  0  0  0  0  0  0  0  0  0  0  0
    0.9972    0.5225    1.4669 H   0  0  0  0  0  0  0  0  0  0  0  0
    2.4698    0.6736    0.2379 H   0  0  0  0  0  0  0  0  0  0  0  0
    3.2759   -0.8853    1.7756 H   0  0  0  0  0  0  0  0  0  0  0  0
    2.2015   -0.8105   -2.0767 H   0  0  0  0  0  0  0  0  0  0  0  0
    3.7829   -2.2879   -0.3212 H   0  0  0  0  0  0  0  0  0  0  0  0
    3.7529    1.1059   -2.2002 H   0  0  0  0  0  0  0  0  0  0  0  0
    5.9705   -0.6345   -1.2589 H   0  0  0  0  0  0  0  0  0  0  0  0
    4.5870    1.5629    0.1363 H   0  0  0  0  0  0  0  0  0  0  0  0
    5.4529    2.7563   -1.4962 H   0  0  0  0  0  0  0  0  0  0  0  0
    6.0047   -0.0766    1.4560 H   0  0  0  0  0  0  0  0  0  0  0  0
    5.8665    2.8490    1.3286 H   0  0  0  0  0  0  0  0  0  0  0  0
    5.6917    1.6825    2.7105 H   0  0  0  0  0  0  0  0  0  0  0  0
    8.0793    1.6524    3.0620 H   0  0  0  0  0  0  0  0  0  0  0  0
    7.5080    3.3453    2.9206 H   0  0  0  0  0  0  0  0  0  0  0  0
    9.5227    3.1248    1.5593 H   0  0  0  0  0  0  0  0  0  0  0  0
    8.0936    3.5430    0.6109 H   0  0  0  0  0  0  0  0  0  0  0  0
    9.7874    1.1458    0.4209 H   0  0  0  0  0  0  0  0  0  0  0  0
    8.7280    1.8445   -0.8114 H   0  0  0  0  0  0  0  0  0  0  0  0
    7.8553   -0.3280   -0.2786 H   0  0  0  0  0  0  0  0  0  0  0  0
    8.2323   -0.1192    1.4328 H   0  0  0  0  0  0  0  0  0  0  0  0
    5.3217    0.1273   -3.7439 H   0  0  0  0  0  0  0  0  0  0  0  0
    5.5863   -2.1044   -2.6197 H   0  0  0  0  0  0  0  0  0  0  0  0
    3.9832   -2.6219   -3.4155 H   0  0  0  0  0  0  0  0  0  0  0  0
    6.6644   -2.0276   -4.6090 H   0  0  0  0  0  0  0  0  0  0  0  0
    5.3703   -3.1476   -5.1471 H   0  0  0  0  0  0  0  0  0  0  0  0
    5.3096   -1.5514   -6.8147 H   0  0  0  0  0  0  0  0  0  0  0  0
    5.6354   -0.1750   -5.7356 H   0  0  0  0  0  0  0  0  0  0  0  0
    3.3475   -0.2120   -6.5006 H   0  0  0  0  0  0  0  0  0  0  0  0
    3.1075   -1.8628   -5.6782 H   0  0  0  0  0  0  0  0  0  0  0  0
    2.3607   -0.5477   -4.0407 H   0  0  0  0  0  0  0  0  0  0  0  0
    3.2166    0.8987   -4.5920 H   0  0  0  0  0  0  0  0  0  0  0  0
   -0.3704    0.5547   -0.3351 H   0  0  0  0  0  0  0  0  0  0  0  0
   -0.9838   -1.0519   -0.0317 H   0  0  0  0  0  0  0  0  0  0  0  0
    1.0348   -3.3459    2.8644 H   0  0  0  0  0  0  0  0  0  0  0  0
    1.6406   -2.5520    1.4654 H   0  0  0  0  0  0  0  0  0  0  0  0
    0.0607   -3.2103    1.2735 H   0  0  0  0  0  0  0  0  0  0  0  0
   -2.5042    0.3535    4.7038 H   0  0  0  0  0  0  0  0  0  0  0  0
   -2.5280    1.8787    3.8841 H   0  0  0  0  0  0  0  0  0  0  0  0
   -3.7105    0.7827    3.3822 H   0  0  0  0  0  0  0  0  0  0  0  0
   -0.2053    2.0235    2.7684 H   0  0  0  0  0  0  0  0  0  0  0  0
   -0.7171    1.6592    4.3637 H   0  0  0  0  0  0  0  0  0  0  0  0
    0.4294    0.5711    3.7479 H   0  0  0  0  0  0  0  0  0  0  0  0
  2  1  1  1
  2  3  1  0
  3  4  1  0
  4  5  1  0
  5  6  1  0
  5  7  1  0
  7  8  1  0
  8  9  1  0
  9 10  1  0
 10 11  1  0
  7 12  1  0
 11 12  1  0
  3 13  1  0
 13 14  1  0
 14 15  1  6
 15 16  1  0
 16 17  1  0
 16 18  1  0
 14 19  1  0
 19 20  1  0
 14 21  1  0
 20 21  1  0
 21 22  1  0
 22 23  1  0
 23 24  1  0
 13 25  1  0
 23 25  1  0
 25 26  1  1
 25 27  1  0
 27 28  1  0
 27 29  1  0
 29 30  1  0
 30 31  1  0
 31 32  1  0
 31 33  1  0
 29 34  1  0
 34 35  1  0
 35 36  1  0
 36 37  1  0
 37 38  1  0
 38 39  1  0
 38 40  1  0
 40 41  1  0
 40 42  1  0
 42 43  1  0
 43 44  1  0
 44 45  1  0
 44 46  1  0
 46 47  1  0
 47 48  1  0
 48 49  1  0
 49 50  1  0
 46 51  1  0
 50 51  1  0
 42 52  1  0
 52 53  1  0
 53 54  1  0
 54 55  1  0
 55 56  1  0
 52 57  1  0
 56 57  1  0
  2 58  1  0
 36 58  1  0
 35 59  1  0
  2 60  1  0
 34 60  1  0
 60 61  1  0
 60 62  1  0
 64 63  1  1
 64 65  1  0
 65 66  1  0
 66 67  1  0
 67 68  1  0
 67 69  1  0
 69 70  1  0
 70 71  1  0
 71 72  1  0
 72 73  1  0
 69 74  1  0
 73 74  1  0
 65 75  1  0
 75 76  1  0
 76 77  1  6
 77 78  1  0
 78 79  1  0
 78 80  1  0
 76 81  1  0
 81 82  1  0
 76 83  1  0
 82 83  1  0
 83 84  1  0
 84 85  1  0
 85 86  1  0
 75 87  1  0
 85 87  1  0
 87 88  1  1
 87 89  1  0
 89 90  1  0
 89 91  1  0
 91 92  1  0
 92 93  1  0
 93 94  1  0
 93 95  1  0
 91 96  1  0
 96 97  1  0
 97 98  1  0
 98 99  1  0
 99100  1  0
100101  1  0
100102  1  0
102103  1  0
102104  1  0
104105  1  0
105106  1  0
106107  1  0
106108  1  0
108109  1  0
109110  1  0
110111  1  0
111112  1  0
108113  1  0
112113  1  0
104114  1  0
114115  1  0
115116  1  0
116117  1  0
117118  1  0
114119  1  0
118119  1  0
 64120  1  0
 98120  1  0
 97121  1  0
 64122  1  0
 96122  1  0
122123  1  0
122124  1  0
  1125  1  0
  3126  1  1
  5127  1  0
  6128  1  0
  7129  1  0
  8130  1  0
  8131  1  0
  9132  1  0
  9133  1  0
 10134  1  0
 10135  1  0
 11136  1  0
 11137  1  0
 12138  1  0
 12139  1  0
 13140  1  6
 16141  1  0
 17142  1  0
 18143  1  0
 18144  1  0
 18145  1  0
 19146  1  0
 19147  1  0
 21148  1  6
 22149  1  0
 22150  1  0
 23151  1  6
 24152  1  0
 26153  1  0
 26154  1  0
 26155  1  0
 27156  1  0
 28157  1  0
 29158  1  6
 31159  1  0
 32160  1  0
 33161  1  0
 33162  1  0
 33163  1  0
 34164  1  1
 35165  1  0
 36166  1  1
 38167  1  0
 39168  1  0
 40169  1  6
 41170  1  0
 42171  1  6
 43172  1  0
 44173  1  0
 45174  1  0
 46175  1  0
 47176  1  0
 47177  1  0
 48178  1  0
 48179  1  0
 49180  1  0
 49181  1  0
 50182  1  0
 50183  1  0
 51184  1  0
 51185  1  0
 52186  1  0
 53187  1  0
 53188  1  0
 54189  1  0
 54190  1  0
 55191  1  0
 55192  1  0
 56193  1  0
 56194  1  0
 57195  1  0
 57196  1  0
 58197  1  0
 58198  1  0
 59199  1  0
 59200  1  0
 59201  1  0
 61202  1  0
 61203  1  0
 61204  1  0
 62205  1  0
 62206  1  0
 62207  1  0
 63208  1  0
 65209  1  1
 67210  1  0
 68211  1  0
 69212  1  0
 70213  1  0
 70214  1  0
 71215  1  0
 71216  1  0
 72217  1  0
 72218  1  0
 73219  1  0
 73220  1  0
 74221  1  0
 74222  1  0
 75223  1  6
 78224  1  0
 79225  1  0
 80226  1  0
 80227  1  0
 80228  1  0
 81229  1  0
 81230  1  0
 83231  1  6
 84232  1  0
 84233  1  0
 85234  1  6
 86235  1  0
 88236  1  0
 88237  1  0
 88238  1  0
 89239  1  0
 90240  1  0
 91241  1  6
 93242  1  0
 94243  1  0
 95244  1  0
 95245  1  0
 95246  1  0
 96247  1  1
 97248  1  0
 98249  1  1
100250  1  0
101251  1  0
102252  1  6
103253  1  0
104254  1  6
105255  1  0
106256  1  0
107257  1  0
108258  1  0
109259  1  0
109260  1  0
110261  1  0
110262  1  0
111263  1  0
111264  1  0
112265  1  0
112266  1  0
113267  1  0
113268  1  0
114269  1  0
115270  1  0
115271  1  0
116272  1  0
116273  1  0
117274  1  0
117275  1  0
118276  1  0
118277  1  0
119278  1  0
119279  1  0
120280  1  0
120281  1  0
121282  1  0
121283  1  0
121284  1  0
123285  1  0
123286  1  0
123287  1  0
124288  1  0
124289  1  0
124290  1  0
M  END
>  <PDBID>  (1) 
5M50

>  <PDB ID>  (1) 
5M50

>  <Generic Name>  (1) 
Paclitaxel

>  <Brand Name>  (1) 
Abraxane#Abraxane for Injectable Suspension#Aj-paclitaxel#Apo-paclitaxel Injectable#Paclitaxel#Paclitaxel Injection#Paclitaxel Injection USP#Paclitaxel Injection, USP#Paclitaxel Paclitaxel#Paclitaxel for Injection#Paclitaxel for Injection USP#Paxene#Taxol#Teva-paclitaxel for Injection#Onxol#Paxceed

>  <DrugBank ID>  (1) 
DB01229

>  <ATC Codes>  (1) 
L01CD01

>  <Ligand ID>  (1) 
TA1

>  <Target Name>  (1) 
Tubulin beta-1 chain

>  <UniProt ID>  (1) 
Q9H4B7

>  <PDB ID.1>  (1) 
5M50

>  <Seq. Identity>  (1) 
78%

$$$$
