PDB_DB09063_04
     RDKit          3D

 94 97  0  0  0  0  0  0  0  0999 V2000
    2.1666   -4.0474    0.0836 C   0  0  0  0  0  0  0  0  0  0  0  0
    3.1729   -2.9515   -0.0043 C   0  0  0  0  0  0  0  0  0  0  0  0
    4.5563   -3.6248   -0.1631 C   0  0  0  0  0  0  0  0  0  0  0  0
    3.1718   -2.1556    1.1264 O   0  0  0  0  0  0  0  0  0  0  0  0
    3.0676   -0.7844    0.7934 C   0  0  0  0  0  0  0  0  0  0  0  0
    4.4243   -0.1570    1.2099 C   0  0  0  0  0  0  0  0  0  0  0  0
    4.6085    1.1494    0.4886 C   0  0  1  0  0  0  0  0  0  0  0  0
    5.2957    0.9978   -0.8246 C   0  0  0  0  0  0  0  0  0  0  0  0
    6.6760    0.3926   -0.7201 C   0  0  0  0  0  0  0  0  0  0  0  0
    7.6755    1.3445   -0.1219 C   0  0  0  0  0  0  0  0  0  0  0  0
    7.3104    2.7142   -0.1422 N   0  0  0  0  0  0  0  0  0  0  0  0
    6.5817    3.1162   -1.2926 C   0  0  0  0  0  0  0  0  0  0  0  0
    5.4183    2.2250   -1.6614 C   0  0  0  0  0  0  0  0  0  0  0  0
    3.2333    1.7781    0.4045 C   0  0  0  0  0  0  0  0  0  0  0  0
    3.3557    3.3038    0.3995 C   0  0  0  0  0  0  0  0  0  0  0  0
    2.4622    1.3846    1.6719 C   0  0  0  0  0  0  0  0  0  0  0  0
    2.0479   -0.0617    1.6236 C   0  0  0  0  0  0  0  0  0  0  0  0
    0.6927   -0.2842    1.3823 N   0  0  0  0  0  0  0  0  0  0  0  0
    0.0905    0.0968    0.1480 C   0  0  0  0  0  0  0  0  0  0  0  0
    0.4772   -0.5940   -1.0184 N   0  0  0  0  0  0  0  0  0  0  0  0
   -0.2561   -1.6521   -1.5488 C   0  0  0  0  0  0  0  0  0  0  0  0
   -1.6764   -1.6909   -1.1039 C   0  0  1  0  0  0  0  0  0  0  0  0
   -1.9812   -2.9282    0.1297 Cl  0  0  0  0  0  0  0  0  0  0  0  0
   -2.1620   -0.3319   -0.6179 C   0  0  0  0  0  0  0  0  0  0  0  0
   -3.5291   -0.4177   -0.3357 N   0  0  0  0  0  0  0  0  0  0  0  0
   -4.0972    0.2134    0.7762 C   0  0  2  0  0  0  0  0  0  0  0  0
   -3.5867   -0.3620    2.0619 C   0  0  0  0  0  0  0  0  0  0  0  0
   -4.5797   -1.3259    2.6893 C   0  0  0  0  0  0  0  0  0  0  0  0
   -5.3392   -2.1421    1.6926 C   0  0  0  0  0  0  0  0  0  0  0  0
   -6.0287   -1.2936    0.6520 C   0  0  0  0  0  0  0  0  0  0  0  0
   -5.6285    0.1538    0.7847 C   0  0  2  0  0  0  0  0  0  0  0  0
   -6.3819    1.1999   -0.2702 S   0  0  0  0  0  0  0  0  0  0  0  0
   -5.8463    2.7456    0.0451 O   0  0  0  0  0  0  0  0  0  0  0  0
   -7.9943    1.2679    0.3001 O   0  0  0  0  0  0  0  0  0  0  0  0
   -6.4594    0.8564   -1.8400 C   0  0  0  0  0  0  0  0  0  0  0  0
   -7.0720    2.0274   -2.6339 C   0  0  0  0  0  0  0  0  0  0  0  0
   -7.2859   -0.3573   -2.1892 C   0  0  0  0  0  0  0  0  0  0  0  0
   -1.3272    0.2009    0.3933 N   0  0  0  0  0  0  0  0  0  0  0  0
    1.9113   -4.3301   -0.9795 H   0  0  0  0  0  0  0  0  0  0  0  0
    1.2223   -3.7651    0.5628 H   0  0  0  0  0  0  0  0  0  0  0  0
    2.6496   -4.9547    0.4993 H   0  0  0  0  0  0  0  0  0  0  0  0
    3.0650   -2.3754   -0.9520 H   0  0  0  0  0  0  0  0  0  0  0  0
    4.9186   -3.9860    0.8092 H   0  0  0  0  0  0  0  0  0  0  0  0
    5.2579   -2.9723   -0.6924 H   0  0  0  0  0  0  0  0  0  0  0  0
    4.3717   -4.5195   -0.7918 H   0  0  0  0  0  0  0  0  0  0  0  0
    2.9695   -0.7163   -0.2805 H   0  0  0  0  0  0  0  0  0  0  0  0
    4.3565    0.0311    2.2885 H   0  0  0  0  0  0  0  0  0  0  0  0
    5.2314   -0.8863    1.0771 H   0  0  0  0  0  0  0  0  0  0  0  0
    5.2142    1.8286    1.1234 H   0  0  0  0  0  0  0  0  0  0  0  0
    4.7009    0.2516   -1.4215 H   0  0  0  0  0  0  0  0  0  0  0  0
    6.6922   -0.6234   -0.2888 H   0  0  0  0  0  0  0  0  0  0  0  0
    7.0113    0.2458   -1.7933 H   0  0  0  0  0  0  0  0  0  0  0  0
    8.6840    1.2560   -0.6280 H   0  0  0  0  0  0  0  0  0  0  0  0
    7.9121    1.0759    0.9516 H   0  0  0  0  0  0  0  0  0  0  0  0
    7.1272    3.1847    0.7407 H   0  0  0  0  0  0  0  0  0  0  0  0
    6.2065    4.1713   -1.1214 H   0  0  0  0  0  0  0  0  0  0  0  0
    7.2910    3.2148   -2.1407 H   0  0  0  0  0  0  0  0  0  0  0  0
    5.6366    1.8446   -2.7164 H   0  0  0  0  0  0  0  0  0  0  0  0
    4.5277    2.8369   -1.7777 H   0  0  0  0  0  0  0  0  0  0  0  0
    2.7049    1.4920   -0.5065 H   0  0  0  0  0  0  0  0  0  0  0  0
    2.7842    3.7114    1.2873 H   0  0  0  0  0  0  0  0  0  0  0  0
    2.7721    3.6725   -0.4663 H   0  0  0  0  0  0  0  0  0  0  0  0
    4.3835    3.6599    0.4535 H   0  0  0  0  0  0  0  0  0  0  0  0
    1.5955    2.0741    1.8209 H   0  0  0  0  0  0  0  0  0  0  0  0
    3.1512    1.5910    2.5046 H   0  0  0  0  0  0  0  0  0  0  0  0
    2.2384   -0.4480    2.6800 H   0  0  0  0  0  0  0  0  0  0  0  0
    0.3972   -1.2087    1.7214 H   0  0  0  0  0  0  0  0  0  0  0  0
    0.4017    1.1954   -0.0936 H   0  0  0  0  0  0  0  0  0  0  0  0
    1.1102   -0.0846   -1.6489 H   0  0  0  0  0  0  0  0  0  0  0  0
   -0.3005   -1.4828   -2.6803 H   0  0  0  0  0  0  0  0  0  0  0  0
    0.2388   -2.6560   -1.4923 H   0  0  0  0  0  0  0  0  0  0  0  0
   -2.3770   -1.9485   -1.9558 H   0  0  0  0  0  0  0  0  0  0  0  0
   -2.0423    0.3398   -1.5395 H   0  0  0  0  0  0  0  0  0  0  0  0
   -4.0555   -1.1152   -0.8560 H   0  0  0  0  0  0  0  0  0  0  0  0
   -3.9192    1.3496    0.7639 H   0  0  0  0  0  0  0  0  0  0  0  0
   -2.5823   -0.7758    2.0358 H   0  0  0  0  0  0  0  0  0  0  0  0
   -3.5266    0.5040    2.7948 H   0  0  0  0  0  0  0  0  0  0  0  0
   -4.0512   -2.0540    3.3635 H   0  0  0  0  0  0  0  0  0  0  0  0
   -5.3040   -0.7980    3.3447 H   0  0  0  0  0  0  0  0  0  0  0  0
   -4.7507   -2.9638    1.2370 H   0  0  0  0  0  0  0  0  0  0  0  0
   -6.1373   -2.6785    2.2825 H   0  0  0  0  0  0  0  0  0  0  0  0
   -5.9302   -1.7025   -0.3633 H   0  0  0  0  0  0  0  0  0  0  0  0
   -7.1431   -1.2968    0.8511 H   0  0  0  0  0  0  0  0  0  0  0  0
   -5.8930    0.4376    1.8509 H   0  0  0  0  0  0  0  0  0  0  0  0
   -6.3835    3.2157    0.7332 H   0  0  0  0  0  0  0  0  0  0  0  0
   -8.3143    0.3400    0.4725 H   0  0  0  0  0  0  0  0  0  0  0  0
   -5.4627    0.7197   -2.3420 H   0  0  0  0  0  0  0  0  0  0  0  0
   -7.1347    1.7538   -3.7189 H   0  0  0  0  0  0  0  0  0  0  0  0
   -8.0872    2.2544   -2.3092 H   0  0  0  0  0  0  0  0  0  0  0  0
   -6.3779    2.9092   -2.5937 H   0  0  0  0  0  0  0  0  0  0  0  0
   -7.9871   -0.1242   -3.0144 H   0  0  0  0  0  0  0  0  0  0  0  0
   -6.6604   -1.1948   -2.5669 H   0  0  0  0  0  0  0  0  0  0  0  0
   -7.9366   -0.6704   -1.3267 H   0  0  0  0  0  0  0  0  0  0  0  0
   -1.6309    1.1640    0.6295 H   0  0  0  0  0  0  0  0  0  0  0  0
  1  2  1  0
  2  3  1  0
  2  4  1  0
  4  5  1  0
  5  6  1  0
  6  7  1  0
  7  8  1  0
  8  9  1  0
  9 10  1  0
 10 11  1  0
 11 12  1  0
  8 13  1  0
 12 13  1  0
  7 14  1  0
 14 15  1  0
 14 16  1  0
  5 17  1  0
 16 17  1  0
 17 18  1  0
 18 19  1  0
 19 20  1  0
 20 21  1  0
 21 22  1  0
 22 23  1  0
 22 24  1  0
 24 25  1  0
 25 26  1  0
 26 27  1  0
 27 28  1  0
 28 29  1  0
 29 30  1  0
 26 31  1  0
 30 31  1  0
 31 32  1  0
 32 33  1  0
 32 34  1  0
 32 35  1  0
 35 36  1  0
 35 37  1  0
 19 38  1  0
 24 38  1  0
  1 39  1  0
  1 40  1  0
  1 41  1  0
  2 42  1  0
  3 43  1  0
  3 44  1  0
  3 45  1  0
  5 46  1  0
  6 47  1  0
  6 48  1  0
  7 49  1  1
  8 50  1  0
  9 51  1  0
  9 52  1  0
 10 53  1  0
 10 54  1  0
 11 55  1  0
 12 56  1  0
 12 57  1  0
 13 58  1  0
 13 59  1  0
 14 60  1  0
 15 61  1  0
 15 62  1  0
 15 63  1  0
 16 64  1  0
 16 65  1  0
 17 66  1  0
 18 67  1  0
 19 68  1  0
 20 69  1  0
 21 70  1  0
 21 71  1  0
 22 72  1  6
 24 73  1  0
 25 74  1  0
 26 75  1  1
 27 76  1  0
 27 77  1  0
 28 78  1  0
 28 79  1  0
 29 80  1  0
 29 81  1  0
 30 82  1  0
 30 83  1  0
 31 84  1  1
 33 85  1  0
 34 86  1  0
 35 87  1  0
 36 88  1  0
 36 89  1  0
 36 90  1  0
 37 91  1  0
 37 92  1  0
 37 93  1  0
 38 94  1  0
M  END
>  <PDBID>  (1) 
4MKC

>  <PDB ID>  (1) 
4MKC

>  <Generic Name>  (1) 
Ceritinib

>  <Brand Name>  (1) 
Zykadia

>  <DrugBank ID>  (1) 
DB09063

>  <ATC Codes>  (1) 
L01XE28

>  <Ligand ID>  (1) 
4MK

>  <Target Name>  (1) 
ALK tyrosine kinase receptor

>  <UniProt ID>  (1) 
Q9UM73

>  <PDB ID.1>  (1) 
4MKC

>  <Seq. Identity>  (1) 
99%

$$$$
