PDB_DB13139_08
     RDKit          3D

 88 88  0  0  0  0  0  0  0  0999 V2000
    3.7638    2.6708    0.4233 O   0  0  0  0  0  0  0  0  0  0  0  0
    3.8820    1.9735   -0.7559 C   0  0  0  0  0  0  0  0  0  0  0  0
    3.1881    0.6176   -0.7111 C   0  0  0  0  0  0  0  0  0  0  0  0
    3.7299   -0.2594    0.3394 C   0  0  0  0  0  0  0  0  0  0  0  0
    4.3262   -1.3825   -0.2858 O   0  0  0  0  0  0  0  0  0  0  0  0
    2.8460   -0.6894    1.4407 C   0  0  0  0  0  0  0  0  0  0  0  0
    1.3751   -0.6176    1.2081 C   0  0  0  0  0  0  0  0  0  0  0  0
    1.7105    0.8926   -0.6229 C   0  0  0  0  0  0  0  0  0  0  0  0
    1.0561   -0.4217   -0.2334 C   0  0  0  0  0  0  0  0  0  0  0  0
   -0.4437   -0.1432   -0.4743 C   0  0  1  0  0  0  0  0  0  0  0  0
   -0.4653    0.0069   -1.8865 O   0  0  0  0  0  0  0  0  0  0  0  0
   -1.2808   -1.3229   -0.1493 C   0  0  0  0  0  0  0  0  0  0  0  0
   -2.6200   -1.1853   -0.6054 N   0  0  0  0  0  0  0  0  0  0  0  0
   -3.4758   -0.2507    0.0057 C   0  0  0  0  0  0  0  0  0  0  0  0
   -3.1315    1.1930   -0.0886 C   0  0  0  0  0  0  0  0  0  0  0  0
   -4.8520   -0.4155   -0.6764 C   0  0  0  0  0  0  0  0  0  0  0  0
   -3.7417   -0.5645    1.4700 C   0  0  0  0  0  0  0  0  0  0  0  0
    3.7638    2.6708    0.4233 O   0  0  0  0  0  0  0  0  0  0  0  0
    3.8820    1.9735   -0.7559 C   0  0  0  0  0  0  0  0  0  0  0  0
    3.1881    0.6176   -0.7111 C   0  0  0  0  0  0  0  0  0  0  0  0
    3.7299   -0.2594    0.3394 C   0  0  0  0  0  0  0  0  0  0  0  0
    4.3262   -1.3825   -0.2858 O   0  0  0  0  0  0  0  0  0  0  0  0
    2.8460   -0.6894    1.4407 C   0  0  0  0  0  0  0  0  0  0  0  0
    1.3751   -0.6176    1.2081 C   0  0  0  0  0  0  0  0  0  0  0  0
    1.7105    0.8926   -0.6229 C   0  0  0  0  0  0  0  0  0  0  0  0
    1.0561   -0.4217   -0.2334 C   0  0  0  0  0  0  0  0  0  0  0  0
   -0.4437   -0.1432   -0.4743 C   0  0  1  0  0  0  0  0  0  0  0  0
   -0.4653    0.0069   -1.8865 O   0  0  0  0  0  0  0  0  0  0  0  0
   -1.2808   -1.3229   -0.1493 C   0  0  0  0  0  0  0  0  0  0  0  0
   -2.6200   -1.1853   -0.6054 N   0  0  0  0  0  0  0  0  0  0  0  0
   -3.4758   -0.2507    0.0057 C   0  0  0  0  0  0  0  0  0  0  0  0
   -3.1315    1.1930   -0.0886 C   0  0  0  0  0  0  0  0  0  0  0  0
   -4.8520   -0.4155   -0.6764 C   0  0  0  0  0  0  0  0  0  0  0  0
   -3.7417   -0.5645    1.4700 C   0  0  0  0  0  0  0  0  0  0  0  0
    3.6425    2.0303    1.1636 H   0  0  0  0  0  0  0  0  0  0  0  0
    3.4544    2.6144   -1.5617 H   0  0  0  0  0  0  0  0  0  0  0  0
    4.9604    1.8634   -1.0065 H   0  0  0  0  0  0  0  0  0  0  0  0
    3.3465    0.1928   -1.7484 H   0  0  0  0  0  0  0  0  0  0  0  0
    4.6128    0.2742    0.8051 H   0  0  0  0  0  0  0  0  0  0  0  0
    4.3522   -1.2633   -1.2738 H   0  0  0  0  0  0  0  0  0  0  0  0
    3.0612   -0.1541    2.3937 H   0  0  0  0  0  0  0  0  0  0  0  0
    3.0805   -1.7705    1.6829 H   0  0  0  0  0  0  0  0  0  0  0  0
    0.8443   -1.4790    1.6686 H   0  0  0  0  0  0  0  0  0  0  0  0
    0.9525    0.2809    1.7505 H   0  0  0  0  0  0  0  0  0  0  0  0
    1.3137    1.1591   -1.6250 H   0  0  0  0  0  0  0  0  0  0  0  0
    1.4565    1.6509    0.1416 H   0  0  0  0  0  0  0  0  0  0  0  0
    1.3994   -1.2602   -0.8641 H   0  0  0  0  0  0  0  0  0  0  0  0
   -0.6423    0.7740    0.0658 H   0  0  0  0  0  0  0  0  0  0  0  0
   -0.0670   -0.8532   -2.2165 H   0  0  0  0  0  0  0  0  0  0  0  0
   -0.8425   -2.2258   -0.6696 H   0  0  0  0  0  0  0  0  0  0  0  0
   -1.2305   -1.5925    0.9423 H   0  0  0  0  0  0  0  0  0  0  0  0
   -3.0739   -2.1212   -0.6148 H   0  0  0  0  0  0  0  0  0  0  0  0
   -4.1104    1.7725   -0.1546 H   0  0  0  0  0  0  0  0  0  0  0  0
   -2.6053    1.4933   -1.0156 H   0  0  0  0  0  0  0  0  0  0  0  0
   -2.6811    1.6095    0.8451 H   0  0  0  0  0  0  0  0  0  0  0  0
   -5.4156   -1.2555   -0.2751 H   0  0  0  0  0  0  0  0  0  0  0  0
   -5.4129    0.5290   -0.5313 H   0  0  0  0  0  0  0  0  0  0  0  0
   -4.6456   -0.4789   -1.7688 H   0  0  0  0  0  0  0  0  0  0  0  0
   -4.7324   -0.1057    1.7296 H   0  0  0  0  0  0  0  0  0  0  0  0
   -2.9990   -0.1263    2.1457 H   0  0  0  0  0  0  0  0  0  0  0  0
   -3.8851   -1.6597    1.5937 H   0  0  0  0  0  0  0  0  0  0  0  0
    3.6425    2.0303    1.1636 H   0  0  0  0  0  0  0  0  0  0  0  0
    3.4544    2.6144   -1.5617 H   0  0  0  0  0  0  0  0  0  0  0  0
    4.9604    1.8634   -1.0065 H   0  0  0  0  0  0  0  0  0  0  0  0
    3.3465    0.1928   -1.7484 H   0  0  0  0  0  0  0  0  0  0  0  0
    4.6128    0.2742    0.8051 H   0  0  0  0  0  0  0  0  0  0  0  0
    4.3522   -1.2633   -1.2738 H   0  0  0  0  0  0  0  0  0  0  0  0
    3.0612   -0.1541    2.3937 H   0  0  0  0  0  0  0  0  0  0  0  0
    3.0805   -1.7705    1.6829 H   0  0  0  0  0  0  0  0  0  0  0  0
    0.8443   -1.4790    1.6686 H   0  0  0  0  0  0  0  0  0  0  0  0
    0.9525    0.2809    1.7505 H   0  0  0  0  0  0  0  0  0  0  0  0
    1.3137    1.1591   -1.6250 H   0  0  0  0  0  0  0  0  0  0  0  0
    1.4565    1.6509    0.1416 H   0  0  0  0  0  0  0  0  0  0  0  0
    1.3994   -1.2602   -0.8641 H   0  0  0  0  0  0  0  0  0  0  0  0
   -0.6423    0.7740    0.0658 H   0  0  0  0  0  0  0  0  0  0  0  0
   -0.0670   -0.8532   -2.2165 H   0  0  0  0  0  0  0  0  0  0  0  0
   -0.8425   -2.2258   -0.6696 H   0  0  0  0  0  0  0  0  0  0  0  0
   -1.2305   -1.5925    0.9423 H   0  0  0  0  0  0  0  0  0  0  0  0
   -3.0739   -2.1212   -0.6148 H   0  0  0  0  0  0  0  0  0  0  0  0
   -4.1104    1.7725   -0.1546 H   0  0  0  0  0  0  0  0  0  0  0  0
   -2.6053    1.4933   -1.0156 H   0  0  0  0  0  0  0  0  0  0  0  0
   -2.6811    1.6095    0.8451 H   0  0  0  0  0  0  0  0  0  0  0  0
   -5.4156   -1.2555   -0.2751 H   0  0  0  0  0  0  0  0  0  0  0  0
   -5.4129    0.5290   -0.5313 H   0  0  0  0  0  0  0  0  0  0  0  0
   -4.6456   -0.4789   -1.7688 H   0  0  0  0  0  0  0  0  0  0  0  0
   -4.7324   -0.1057    1.7296 H   0  0  0  0  0  0  0  0  0  0  0  0
   -2.9990   -0.1263    2.1457 H   0  0  0  0  0  0  0  0  0  0  0  0
   -3.8851   -1.6597    1.5937 H   0  0  0  0  0  0  0  0  0  0  0  0
  1  2  1  0
  2  3  1  0
  3  4  1  0
  4  5  1  0
  4  6  1  0
  6  7  1  0
  3  8  1  0
  7  9  1  0
  8  9  1  0
  9 10  1  0
 10 11  1  0
 10 12  1  0
 12 13  1  0
 14 13  1  0
 14 15  1  0
 14 16  1  0
 14 17  1  0
 18 19  1  0
 19 20  1  0
 20 21  1  0
 21 22  1  0
 21 23  1  0
 23 24  1  0
 20 25  1  0
 24 26  1  0
 25 26  1  0
 26 27  1  0
 27 28  1  0
 27 29  1  0
 29 30  1  0
 31 30  1  0
 31 32  1  0
 31 33  1  0
 31 34  1  0
  1 35  1  0
  2 36  1  0
  2 37  1  0
  3 38  1  0
  4 39  1  0
  5 40  1  0
  6 41  1  0
  6 42  1  0
  7 43  1  0
  7 44  1  0
  8 45  1  0
  8 46  1  0
  9 47  1  0
 10 48  1  1
 11 49  1  0
 12 50  1  0
 12 51  1  0
 13 52  1  0
 15 53  1  0
 15 54  1  0
 15 55  1  0
 16 56  1  0
 16 57  1  0
 16 58  1  0
 17 59  1  0
 17 60  1  0
 17 61  1  0
 18 62  1  0
 19 63  1  0
 19 64  1  0
 20 65  1  0
 21 66  1  0
 22 67  1  0
 23 68  1  0
 23 69  1  0
 24 70  1  0
 24 71  1  0
 25 72  1  0
 25 73  1  0
 26 74  1  0
 27 75  1  1
 28 76  1  0
 29 77  1  0
 29 78  1  0
 30 79  1  0
 32 80  1  0
 32 81  1  0
 32 82  1  0
 33 83  1  0
 33 84  1  0
 33 85  1  0
 34 86  1  0
 34 87  1  0
 34 88  1  0
M  END
>  <PDBID>  (1) 
2Y04

>  <PDB ID>  (1) 
2Y04

>  <Generic Name>  (1) 
Levosalbutamol

>  <Brand Name>  (1) 
Levalbuterol#Levalbuterol Hydrochloride#Xopenex

>  <DrugBank ID>  (1) 
DB13139

>  <ATC Codes>  (1) 
nan

>  <Ligand ID>  (1) 
68H

>  <Target Name>  (1) 
Beta-2 adrenergic receptor

>  <UniProt ID>  (1) 
P07550

>  <PDB ID.1>  (1) 
2Y04

>  <Seq. Identity>  (1) 
58%

$$$$
