PDB_DB00625_06
     RDKit          3D

 42 44  0  0  0  0  0  0  0  0999 V2000
   -3.2972    2.0254   -2.5299 Cl  0  0  0  0  0  0  0  0  0  0  0  0
    0.5724    1.9974    2.2943 F   0  0  0  0  0  0  0  0  0  0  0  0
   -1.5677    1.7014    2.0570 F   0  0  0  0  0  0  0  0  0  0  0  0
   -0.3247    2.7351    0.4363 F   0  0  0  0  0  0  0  0  0  0  0  0
    0.2622   -2.5587    2.7050 O   0  0  0  0  0  0  0  0  0  0  0  0
   -0.1180   -0.4986    1.9273 O   0  0  0  0  0  0  0  0  0  0  0  0
   -1.4373   -2.1802    1.1571 N   0  0  0  0  0  0  0  0  0  0  0  0
   -1.8272   -1.2944    0.0901 C   0  0  1  0  0  0  0  0  0  0  0  0
   -3.1983   -0.7893    0.3851 C   0  0  0  0  0  0  0  0  0  0  0  0
   -3.6976   -0.1140   -0.8976 C   0  0  0  0  0  0  0  0  0  0  0  0
   -2.8013    1.0992   -1.0669 C   0  0  0  0  0  0  0  0  0  0  0  0
   -1.4047    0.6449   -1.3107 C   0  0  0  0  0  0  0  0  0  0  0  0
   -0.8067   -0.2672   -0.2799 C   0  0  0  0  0  0  0  0  0  0  0  0
   -0.0238    0.3498    0.7917 C   0  0  2  0  0  0  0  0  0  0  0  0
    1.4857    0.3849    0.5241 C   0  0  0  0  0  0  0  0  0  0  0  0
    1.8948    1.2122   -0.6357 C   0  0  0  0  0  0  0  0  0  0  0  0
    3.4145    1.1170   -0.7398 C   0  0  0  0  0  0  0  0  0  0  0  0
    4.0440   -0.2158   -0.9464 C   0  0  0  0  0  0  0  0  0  0  0  0
    4.2561    0.5916    0.3297 C   0  0  0  0  0  0  0  0  0  0  0  0
   -0.3846    1.7005    1.2989 C   0  0  0  0  0  0  0  0  0  0  0  0
   -0.0888   -1.8365    1.5662 C   0  0  0  0  0  0  0  0  0  0  0  0
   -0.0680   -3.4728    2.5892 H   0  0  0  0  0  0  0  0  0  0  0  0
   -1.4323   -3.1905    0.8925 H   0  0  0  0  0  0  0  0  0  0  0  0
   -1.9611   -1.9650   -0.8156 H   0  0  0  0  0  0  0  0  0  0  0  0
   -3.8370   -1.6889    0.5481 H   0  0  0  0  0  0  0  0  0  0  0  0
   -3.3197   -0.1704    1.2667 H   0  0  0  0  0  0  0  0  0  0  0  0
   -4.7479    0.1805   -0.7438 H   0  0  0  0  0  0  0  0  0  0  0  0
   -3.5370   -0.8087   -1.7324 H   0  0  0  0  0  0  0  0  0  0  0  0
   -2.9730    1.7561   -0.2303 H   0  0  0  0  0  0  0  0  0  0  0  0
   -0.7390    1.4996   -1.5863 H   0  0  0  0  0  0  0  0  0  0  0  0
   -1.4660    0.0472   -2.2602 H   0  0  0  0  0  0  0  0  0  0  0  0
   -0.0231   -0.8693   -0.8587 H   0  0  0  0  0  0  0  0  0  0  0  0
    1.9265   -0.6182    0.4150 H   0  0  0  0  0  0  0  0  0  0  0  0
    1.9990    0.8303    1.4289 H   0  0  0  0  0  0  0  0  0  0  0  0
    1.6688    2.2840   -0.5709 H   0  0  0  0  0  0  0  0  0  0  0  0
    1.5386    0.7734   -1.6169 H   0  0  0  0  0  0  0  0  0  0  0  0
    3.8658    1.9391   -1.3707 H   0  0  0  0  0  0  0  0  0  0  0  0
    3.4639   -1.1533   -0.8811 H   0  0  0  0  0  0  0  0  0  0  0  0
    4.9220   -0.2919   -1.6198 H   0  0  0  0  0  0  0  0  0  0  0  0
    3.9095    0.1669    1.2815 H   0  0  0  0  0  0  0  0  0  0  0  0
    5.2892    1.0367    0.4490 H   0  0  0  0  0  0  0  0  0  0  0  0
    0.5688   -2.0896    0.7354 H   0  0  0  0  0  0  0  0  0  0  0  0
  7  8  1  0
  8  9  1  0
  9 10  1  0
  1 11  1  0
 10 11  1  0
 11 12  1  0
  8 13  1  0
 12 13  1  0
  6 14  1  0
 13 14  1  0
 14 15  1  6
 15 16  1  0
 16 17  1  0
 17 18  1  0
 17 19  1  0
 18 19  1  0
 20  2  1  0
  3 20  1  0
  4 20  1  0
 14 20  1  0
  5 21  1  0
  6 21  1  0
  7 21  1  0
  5 22  1  0
  7 23  1  0
  8 24  1  6
  9 25  1  0
  9 26  1  0
 10 27  1  0
 10 28  1  0
 11 29  1  0
 12 30  1  0
 12 31  1  0
 13 32  1  0
 15 33  1  0
 15 34  1  0
 16 35  1  0
 16 36  1  0
 17 37  1  0
 18 38  1  0
 18 39  1  0
 19 40  1  0
 19 41  1  0
 21 42  1  0
M  END
>  <PDBID>  (1) 
1JKH

>  <PDB ID>  (1) 
1JKH

>  <Generic Name>  (1) 
Efavirenz

>  <Brand Name>  (1) 
Atripla#Auro-efavirenz#Mylan-efavirenz#Sustiva#Sustiva 100mg#Sustiva 200mg#Sustiva 50mg#Sustiva Tablets#Teva-efavirenz#E.F#Efavir#Efavirenz#Efcure#Efferven#Estiva#Evirenz#Stocrin#Viranz

>  <DrugBank ID>  (1) 
DB00625

>  <ATC Codes>  (1) 
J05AR06#J05AG03#J05AR11

>  <Ligand ID>  (1) 
EFZ

>  <Target Name>  (1) 
Reverse transcriptase/RNaseH

>  <UniProt ID>  (1) 
Q72547

>  <PDB ID.1>  (1) 
1JKH

>  <Seq. Identity>  (1) 
96%

$$$$
