PDB_DB00712_05
     RDKit          3D

 90 92  0  0  0  0  0  0  0  0999 V2000
   -4.0721   -1.1073   -0.2325 C   0  0  0  0  0  0  0  0  0  0  0  0
   -2.5771   -0.8574   -0.4701 C   0  0  0  0  0  0  0  0  0  0  0  0
   -2.0836   -0.0651    0.6950 C   0  0  0  0  0  0  0  0  0  0  0  0
   -2.7388    1.3040    0.6650 C   0  0  0  0  0  0  0  0  0  0  0  0
   -4.2483    1.1914    0.7099 C   0  0  0  0  0  0  0  0  0  0  0  0
   -4.7592    0.2361   -0.3477 C   0  0  0  0  0  0  0  0  0  0  0  0
   -0.5993    0.1183    0.7445 C   0  0  0  0  0  0  0  0  0  0  0  0
    0.1548   -1.1821    0.8228 C   0  0  0  0  0  0  0  0  0  0  0  0
    1.0012   -1.4477   -0.3958 C   0  0  0  0  0  0  0  0  0  0  0  0
    1.9440   -0.3274   -0.7182 C   0  0  0  0  0  0  0  0  0  0  0  0
    1.4672    0.9976   -0.1634 C   0  0  0  0  0  0  0  0  0  0  0  0
   -0.0571    0.9990   -0.3567 C   0  0  0  0  0  0  0  0  0  0  0  0
    3.3650   -0.6130   -0.2997 C   0  0  2  0  0  0  0  0  0  0  0  0
    3.4966   -0.8512    1.1838 C   0  0  0  0  0  0  0  0  0  0  0  0
    4.2919    0.5310   -0.6492 C   0  0  0  0  0  0  0  0  0  0  0  0
    5.5714    0.1266   -0.2062 O   0  0  0  0  0  0  0  0  0  0  0  0
    4.0036    1.6844    0.0961 O   0  0  0  0  0  0  0  0  0  0  0  0
   -0.3111    0.4737   -1.5881 F   0  0  0  0  0  0  0  0  0  0  0  0
   -4.0721   -1.1073   -0.2325 C   0  0  0  0  0  0  0  0  0  0  0  0
   -2.5771   -0.8574   -0.4701 C   0  0  0  0  0  0  0  0  0  0  0  0
   -2.0836   -0.0651    0.6950 C   0  0  0  0  0  0  0  0  0  0  0  0
   -2.7388    1.3040    0.6650 C   0  0  0  0  0  0  0  0  0  0  0  0
   -4.2483    1.1914    0.7099 C   0  0  0  0  0  0  0  0  0  0  0  0
   -4.7592    0.2361   -0.3477 C   0  0  0  0  0  0  0  0  0  0  0  0
   -0.5993    0.1183    0.7445 C   0  0  0  0  0  0  0  0  0  0  0  0
    0.1548   -1.1821    0.8228 C   0  0  0  0  0  0  0  0  0  0  0  0
    1.0012   -1.4477   -0.3958 C   0  0  0  0  0  0  0  0  0  0  0  0
    1.9440   -0.3274   -0.7182 C   0  0  0  0  0  0  0  0  0  0  0  0
    1.4672    0.9976   -0.1634 C   0  0  0  0  0  0  0  0  0  0  0  0
   -0.0571    0.9990   -0.3567 C   0  0  0  0  0  0  0  0  0  0  0  0
    3.3650   -0.6130   -0.2997 C   0  0  2  0  0  0  0  0  0  0  0  0
    3.4966   -0.8512    1.1838 C   0  0  0  0  0  0  0  0  0  0  0  0
    4.2919    0.5310   -0.6492 C   0  0  0  0  0  0  0  0  0  0  0  0
    5.5714    0.1266   -0.2062 O   0  0  0  0  0  0  0  0  0  0  0  0
    4.0036    1.6844    0.0961 O   0  0  0  0  0  0  0  0  0  0  0  0
   -0.3111    0.4737   -1.5881 F   0  0  0  0  0  0  0  0  0  0  0  0
   -4.4759   -1.7898   -0.9895 H   0  0  0  0  0  0  0  0  0  0  0  0
   -4.1610   -1.5151    0.7939 H   0  0  0  0  0  0  0  0  0  0  0  0
   -2.5232   -0.2283   -1.3832 H   0  0  0  0  0  0  0  0  0  0  0  0
   -2.0169   -1.7881   -0.5490 H   0  0  0  0  0  0  0  0  0  0  0  0
   -2.3985   -0.5304    1.6515 H   0  0  0  0  0  0  0  0  0  0  0  0
   -2.4829    1.8742   -0.2550 H   0  0  0  0  0  0  0  0  0  0  0  0
   -2.4273    1.8961    1.5494 H   0  0  0  0  0  0  0  0  0  0  0  0
   -4.6276    0.8883    1.7028 H   0  0  0  0  0  0  0  0  0  0  0  0
   -4.6531    2.1934    0.4772 H   0  0  0  0  0  0  0  0  0  0  0  0
   -5.8297    0.0887   -0.2079 H   0  0  0  0  0  0  0  0  0  0  0  0
   -4.5412    0.6496   -1.3565 H   0  0  0  0  0  0  0  0  0  0  0  0
   -0.3805    0.6630    1.7053 H   0  0  0  0  0  0  0  0  0  0  0  0
    0.7944   -1.2612    1.7243 H   0  0  0  0  0  0  0  0  0  0  0  0
   -0.5908   -2.0007    0.8920 H   0  0  0  0  0  0  0  0  0  0  0  0
    0.3097   -1.7035   -1.2255 H   0  0  0  0  0  0  0  0  0  0  0  0
    1.5665   -2.3904   -0.1830 H   0  0  0  0  0  0  0  0  0  0  0  0
    1.9551   -0.2086   -1.8231 H   0  0  0  0  0  0  0  0  0  0  0  0
    1.8635    1.8045   -0.8127 H   0  0  0  0  0  0  0  0  0  0  0  0
    1.6577    1.1291    0.8997 H   0  0  0  0  0  0  0  0  0  0  0  0
   -0.4568    2.0280   -0.2507 H   0  0  0  0  0  0  0  0  0  0  0  0
    3.7679   -1.5115   -0.8099 H   0  0  0  0  0  0  0  0  0  0  0  0
    4.6010   -0.7712    1.4096 H   0  0  0  0  0  0  0  0  0  0  0  0
    3.2358   -1.9058    1.4588 H   0  0  0  0  0  0  0  0  0  0  0  0
    3.0096   -0.1006    1.8054 H   0  0  0  0  0  0  0  0  0  0  0  0
    4.3722    0.7207   -1.7182 H   0  0  0  0  0  0  0  0  0  0  0  0
    6.2259    0.1164   -0.9436 H   0  0  0  0  0  0  0  0  0  0  0  0
    4.3571    2.4426   -0.4428 H   0  0  0  0  0  0  0  0  0  0  0  0
   -4.4759   -1.7898   -0.9895 H   0  0  0  0  0  0  0  0  0  0  0  0
   -4.1610   -1.5151    0.7939 H   0  0  0  0  0  0  0  0  0  0  0  0
   -2.5232   -0.2283   -1.3832 H   0  0  0  0  0  0  0  0  0  0  0  0
   -2.0169   -1.7881   -0.5490 H   0  0  0  0  0  0  0  0  0  0  0  0
   -2.3985   -0.5304    1.6515 H   0  0  0  0  0  0  0  0  0  0  0  0
   -2.4829    1.8742   -0.2550 H   0  0  0  0  0  0  0  0  0  0  0  0
   -2.4273    1.8961    1.5494 H   0  0  0  0  0  0  0  0  0  0  0  0
   -4.6276    0.8883    1.7028 H   0  0  0  0  0  0  0  0  0  0  0  0
   -4.6531    2.1934    0.4772 H   0  0  0  0  0  0  0  0  0  0  0  0
   -5.8297    0.0887   -0.2079 H   0  0  0  0  0  0  0  0  0  0  0  0
   -4.5412    0.6496   -1.3565 H   0  0  0  0  0  0  0  0  0  0  0  0
   -0.3805    0.6630    1.7053 H   0  0  0  0  0  0  0  0  0  0  0  0
    0.7944   -1.2612    1.7243 H   0  0  0  0  0  0  0  0  0  0  0  0
   -0.5908   -2.0007    0.8920 H   0  0  0  0  0  0  0  0  0  0  0  0
    0.3097   -1.7035   -1.2255 H   0  0  0  0  0  0  0  0  0  0  0  0
    1.5665   -2.3904   -0.1830 H   0  0  0  0  0  0  0  0  0  0  0  0
    1.9551   -0.2086   -1.8231 H   0  0  0  0  0  0  0  0  0  0  0  0
    1.8635    1.8045   -0.8127 H   0  0  0  0  0  0  0  0  0  0  0  0
    1.6577    1.1291    0.8997 H   0  0  0  0  0  0  0  0  0  0  0  0
   -0.4568    2.0280   -0.2507 H   0  0  0  0  0  0  0  0  0  0  0  0
    3.7679   -1.5115   -0.8099 H   0  0  0  0  0  0  0  0  0  0  0  0
    4.6010   -0.7712    1.4096 H   0  0  0  0  0  0  0  0  0  0  0  0
    3.2358   -1.9058    1.4588 H   0  0  0  0  0  0  0  0  0  0  0  0
    3.0096   -0.1006    1.8054 H   0  0  0  0  0  0  0  0  0  0  0  0
    4.3722    0.7207   -1.7182 H   0  0  0  0  0  0  0  0  0  0  0  0
    6.2259    0.1164   -0.9436 H   0  0  0  0  0  0  0  0  0  0  0  0
    4.3571    2.4426   -0.4428 H   0  0  0  0  0  0  0  0  0  0  0  0
  1  2  1  0
  2  3  1  0
  3  4  1  0
  4  5  1  0
  1  6  1  0
  5  6  1  0
  3  7  1  0
  7  8  1  0
  8  9  1  0
  9 10  1  0
 10 11  1  0
  7 12  1  0
 11 12  1  0
 10 13  1  0
 13 14  1  0
 13 15  1  0
 15 16  1  0
 15 17  1  0
 12 18  1  0
 19 20  1  0
 20 21  1  0
 21 22  1  0
 22 23  1  0
 19 24  1  0
 23 24  1  0
 21 25  1  0
 25 26  1  0
 26 27  1  0
 27 28  1  0
 28 29  1  0
 25 30  1  0
 29 30  1  0
 28 31  1  0
 31 32  1  0
 31 33  1  0
 33 34  1  0
 33 35  1  0
 30 36  1  0
  1 37  1  0
  1 38  1  0
  2 39  1  0
  2 40  1  0
  3 41  1  0
  4 42  1  0
  4 43  1  0
  5 44  1  0
  5 45  1  0
  6 46  1  0
  6 47  1  0
  7 48  1  0
  8 49  1  0
  8 50  1  0
  9 51  1  0
  9 52  1  0
 10 53  1  0
 11 54  1  0
 11 55  1  0
 12 56  1  0
 13 57  1  6
 14 58  1  0
 14 59  1  0
 14 60  1  0
 15 61  1  0
 16 62  1  0
 17 63  1  0
 19 64  1  0
 19 65  1  0
 20 66  1  0
 20 67  1  0
 21 68  1  0
 22 69  1  0
 22 70  1  0
 23 71  1  0
 23 72  1  0
 24 73  1  0
 24 74  1  0
 25 75  1  0
 26 76  1  0
 26 77  1  0
 27 78  1  0
 27 79  1  0
 28 80  1  0
 29 81  1  0
 29 82  1  0
 30 83  1  0
 31 84  1  6
 32 85  1  0
 32 86  1  0
 32 87  1  0
 33 88  1  0
 34 89  1  0
 35 90  1  0
M  END
>  <PDBID>  (1) 
5JVZ

>  <PDB ID>  (1) 
5JVZ

>  <Generic Name>  (1) 
Flurbiprofen

>  <Brand Name>  (1) 
Ansaid Tablets 100 mg#Ansaid Tablets 50 mg#Antiphlamine Pain Relieving#Apo-flurbiprofen Fc Tablets 100mg#Apo-flurbiprofen Fc Tablets 50mg#Flurbiprofen#Flurbiprofen Sodium#Flurbiprofen-100 Tab 100mg#Flurbiprofen-50 Tab 50mg#Froben#Froben SR#Froben Tab 100mg#Froben Tab 50mg#Froben-SR Cap 200mg#Novo-flurprofen SR#Nu-flurbiprofen Tab 100mg#Nu-flurbiprofen Tab 50mg#Ocufen#Ocufen Oph Soln 0.03%#Ratio-flurbiprofen Tablets 100mg#Ratio-flurbiprofen Tablets 50mg#Teva-flurbiprofen#Acustop Cataplasma#Adofeed#Ansaid#Antadys#Cebutid#Flurofen#Ocuflur#Stayban#Strefen#Strepfen#Strepsils#Strepsils Intensive#TransAct#Urbifen#Zepolas

>  <DrugBank ID>  (1) 
DB00712

>  <ATC Codes>  (1) 
M02AA19#R02AX01#M01AE09#S01BC04

>  <Ligand ID>  (1) 
FLP,FLR

>  <Target Name>  (1) 
Prostaglandin G/H synthase 2

>  <UniProt ID>  (1) 
P35354

>  <PDB ID.1>  (1) 
5JVZ

>  <Seq. Identity>  (1) 
85%

$$$$
