PDB_DB01137_08
     RDKit          3D

116122  0  0  0  0  0  0  0  0999 V2000
   -5.0642    0.6890   -0.1873 C   0  0  0  0  0  0  0  0  0  0  0  0
    1.2225    2.8436   -1.2802 F   0  0  0  0  0  0  0  0  0  0  0  0
    5.0914    0.3086   -0.4003 N   0  0  0  0  0  0  0  0  0  0  0  0
   -4.9727    0.5232   -1.5625 O   0  0  0  0  0  0  0  0  0  0  0  0
    3.1493   -0.1698    0.8677 C   0  0  0  0  0  0  0  0  0  0  0  0
    2.3250    0.9312    0.4513 N   0  0  0  0  0  0  0  0  0  0  0  0
    0.7840   -1.6614    0.3604 O   0  0  0  0  0  0  0  0  0  0  0  0
    3.2185    1.8438   -0.2393 C   0  0  0  0  0  0  0  0  0  0  0  0
   -1.9467   -1.0948    0.6474 N   0  0  0  0  0  0  0  0  0  0  0  0
   -3.3089    2.3703   -0.7298 O   0  0  0  0  0  0  0  0  0  0  0  0
   -1.4704   -2.4448    0.8358 C   0  0  2  0  0  0  0  0  0  0  0  0
   -5.6261    1.8889    0.1812 O   0  0  0  0  0  0  0  0  0  0  0  0
    1.2270    0.5787   -0.4103 C   0  0  0  0  0  0  0  0  0  0  0  0
   -1.0575   -0.5164   -0.3789 C   0  0  0  0  0  0  0  0  0  0  0  0
    0.2654   -0.3784    0.2516 C   0  0  0  0  0  0  0  0  0  0  0  0
    4.0541   -0.6962   -0.2198 C   0  0  0  0  0  0  0  0  0  0  0  0
    4.6814    1.6039    0.0641 C   0  0  0  0  0  0  0  0  0  0  0  0
   -0.0886   -2.6792    0.3484 C   0  0  0  0  0  0  0  0  0  0  0  0
   -1.7104    0.6805   -0.9306 C   0  0  0  0  0  0  0  0  0  0  0  0
    0.4727    1.8713   -0.6570 C   0  0  0  0  0  0  0  0  0  0  0  0
   -3.3036   -0.9869    0.2239 C   0  0  0  0  0  0  0  0  0  0  0  0
   -0.7585    1.6969   -1.5051 C   0  0  0  0  0  0  0  0  0  0  0  0
   -2.3837   -3.4255    0.0887 C   0  0  0  0  0  0  0  0  0  0  0  0
   -2.6605    1.3693    0.0303 C   0  0  0  0  0  0  0  0  0  0  0  0
    6.3621   -0.1089    0.0875 C   0  0  0  0  0  0  0  0  0  0  0  0
   -3.7487    0.4387    0.5053 C   0  0  0  0  0  0  0  0  0  0  0  0
    2.6528   -0.9465    1.4611 H   0  0  0  0  0  0  0  0  0  0  0  0
    3.8590    0.2875    1.6318 H   0  0  0  0  0  0  0  0  0  0  0  0
    3.0325    2.8934    0.0599 H   0  0  0  0  0  0  0  0  0  0  0  0
    3.1104    1.6488   -1.3264 H   0  0  0  0  0  0  0  0  0  0  0  0
   -1.5679   -2.6852    1.9181 H   0  0  0  0  0  0  0  0  0  0  0  0
    4.4778   -1.6588    0.1503 H   0  0  0  0  0  0  0  0  0  0  0  0
    3.5688   -0.8240   -1.1857 H   0  0  0  0  0  0  0  0  0  0  0  0
    4.9868    1.8659    1.0834 H   0  0  0  0  0  0  0  0  0  0  0  0
    5.2251    2.3458   -0.5959 H   0  0  0  0  0  0  0  0  0  0  0  0
    0.3402   -3.5223    0.9693 H   0  0  0  0  0  0  0  0  0  0  0  0
   -0.1148   -3.1192   -0.6914 H   0  0  0  0  0  0  0  0  0  0  0  0
   -3.4261   -1.1547   -0.8798 H   0  0  0  0  0  0  0  0  0  0  0  0
   -1.2574    2.6709   -1.5635 H   0  0  0  0  0  0  0  0  0  0  0  0
   -3.2998   -3.6420    0.6356 H   0  0  0  0  0  0  0  0  0  0  0  0
   -2.5462   -3.0244   -0.9327 H   0  0  0  0  0  0  0  0  0  0  0  0
   -1.8030   -4.3612   -0.0389 H   0  0  0  0  0  0  0  0  0  0  0  0
    6.2872   -0.8896    0.8938 H   0  0  0  0  0  0  0  0  0  0  0  0
    6.8809   -0.6445   -0.7612 H   0  0  0  0  0  0  0  0  0  0  0  0
    7.0184    0.7208    0.3787 H   0  0  0  0  0  0  0  0  0  0  0  0
   -5.0642    0.6890   -0.1873 C   0  0  0  0  0  0  0  0  0  0  0  0
    1.2225    2.8436   -1.2802 F   0  0  0  0  0  0  0  0  0  0  0  0
    5.0914    0.3086   -0.4003 N   0  0  0  0  0  0  0  0  0  0  0  0
   -4.9727    0.5232   -1.5625 O   0  0  0  0  0  0  0  0  0  0  0  0
    3.1493   -0.1698    0.8677 C   0  0  0  0  0  0  0  0  0  0  0  0
    2.3250    0.9312    0.4513 N   0  0  0  0  0  0  0  0  0  0  0  0
    0.7840   -1.6614    0.3604 O   0  0  0  0  0  0  0  0  0  0  0  0
    3.2185    1.8438   -0.2393 C   0  0  0  0  0  0  0  0  0  0  0  0
   -1.9467   -1.0948    0.6474 N   0  0  0  0  0  0  0  0  0  0  0  0
   -3.3089    2.3703   -0.7298 O   0  0  0  0  0  0  0  0  0  0  0  0
   -1.4704   -2.4448    0.8358 C   0  0  2  0  0  0  0  0  0  0  0  0
   -5.6261    1.8889    0.1812 O   0  0  0  0  0  0  0  0  0  0  0  0
    1.2270    0.5787   -0.4103 C   0  0  0  0  0  0  0  0  0  0  0  0
   -1.0575   -0.5164   -0.3789 C   0  0  0  0  0  0  0  0  0  0  0  0
    0.2654   -0.3784    0.2516 C   0  0  0  0  0  0  0  0  0  0  0  0
    4.0541   -0.6962   -0.2198 C   0  0  0  0  0  0  0  0  0  0  0  0
    4.6814    1.6039    0.0641 C   0  0  0  0  0  0  0  0  0  0  0  0
   -0.0886   -2.6792    0.3484 C   0  0  0  0  0  0  0  0  0  0  0  0
   -1.7104    0.6805   -0.9306 C   0  0  0  0  0  0  0  0  0  0  0  0
    0.4727    1.8713   -0.6570 C   0  0  0  0  0  0  0  0  0  0  0  0
   -3.3036   -0.9869    0.2239 C   0  0  0  0  0  0  0  0  0  0  0  0
   -0.7585    1.6969   -1.5051 C   0  0  0  0  0  0  0  0  0  0  0  0
   -2.3837   -3.4255    0.0887 C   0  0  0  0  0  0  0  0  0  0  0  0
   -2.6605    1.3693    0.0303 C   0  0  0  0  0  0  0  0  0  0  0  0
    6.3621   -0.1089    0.0875 C   0  0  0  0  0  0  0  0  0  0  0  0
   -3.7487    0.4387    0.5053 C   0  0  0  0  0  0  0  0  0  0  0  0
    2.6528   -0.9465    1.4611 H   0  0  0  0  0  0  0  0  0  0  0  0
    3.8590    0.2875    1.6318 H   0  0  0  0  0  0  0  0  0  0  0  0
    3.0325    2.8934    0.0599 H   0  0  0  0  0  0  0  0  0  0  0  0
    3.1104    1.6488   -1.3264 H   0  0  0  0  0  0  0  0  0  0  0  0
   -1.5679   -2.6852    1.9181 H   0  0  0  0  0  0  0  0  0  0  0  0
    4.4778   -1.6588    0.1503 H   0  0  0  0  0  0  0  0  0  0  0  0
    3.5688   -0.8240   -1.1857 H   0  0  0  0  0  0  0  0  0  0  0  0
    4.9868    1.8659    1.0834 H   0  0  0  0  0  0  0  0  0  0  0  0
    5.2251    2.3458   -0.5959 H   0  0  0  0  0  0  0  0  0  0  0  0
    0.3402   -3.5223    0.9693 H   0  0  0  0  0  0  0  0  0  0  0  0
   -0.1148   -3.1192   -0.6914 H   0  0  0  0  0  0  0  0  0  0  0  0
   -3.4261   -1.1547   -0.8798 H   0  0  0  0  0  0  0  0  0  0  0  0
   -1.2574    2.6709   -1.5635 H   0  0  0  0  0  0  0  0  0  0  0  0
   -3.2998   -3.6420    0.6356 H   0  0  0  0  0  0  0  0  0  0  0  0
   -2.5462   -3.0244   -0.9327 H   0  0  0  0  0  0  0  0  0  0  0  0
   -1.8030   -4.3612   -0.0389 H   0  0  0  0  0  0  0  0  0  0  0  0
    6.2872   -0.8896    0.8938 H   0  0  0  0  0  0  0  0  0  0  0  0
    6.8809   -0.6445   -0.7612 H   0  0  0  0  0  0  0  0  0  0  0  0
    7.0184    0.7208    0.3787 H   0  0  0  0  0  0  0  0  0  0  0  0
   -5.7599   -0.1174    0.1729 H   0  0  0  0  0  0  0  0  0  0  0  0
   -5.1317   -0.4355   -1.8074 H   0  0  0  0  0  0  0  0  0  0  0  0
   -3.1799    3.2639   -0.3573 H   0  0  0  0  0  0  0  0  0  0  0  0
   -6.1028    2.2686   -0.6079 H   0  0  0  0  0  0  0  0  0  0  0  0
    1.5470    0.1871   -1.3854 H   0  0  0  0  0  0  0  0  0  0  0  0
   -0.9905   -1.3374   -1.1553 H   0  0  0  0  0  0  0  0  0  0  0  0
    0.1267   -0.0094    1.2988 H   0  0  0  0  0  0  0  0  0  0  0  0
   -2.3599    0.3524   -1.7966 H   0  0  0  0  0  0  0  0  0  0  0  0
    0.1671    2.3118    0.3333 H   0  0  0  0  0  0  0  0  0  0  0  0
   -3.9710   -1.7167    0.7268 H   0  0  0  0  0  0  0  0  0  0  0  0
   -0.4624    1.3922   -2.5219 H   0  0  0  0  0  0  0  0  0  0  0  0
   -2.1558    1.8849    0.8474 H   0  0  0  0  0  0  0  0  0  0  0  0
   -3.9044    0.5193    1.5971 H   0  0  0  0  0  0  0  0  0  0  0  0
   -5.7599   -0.1174    0.1729 H   0  0  0  0  0  0  0  0  0  0  0  0
   -5.1317   -0.4355   -1.8074 H   0  0  0  0  0  0  0  0  0  0  0  0
   -3.1799    3.2639   -0.3573 H   0  0  0  0  0  0  0  0  0  0  0  0
   -6.1028    2.2686   -0.6079 H   0  0  0  0  0  0  0  0  0  0  0  0
    1.5470    0.1871   -1.3854 H   0  0  0  0  0  0  0  0  0  0  0  0
   -0.9905   -1.3374   -1.1553 H   0  0  0  0  0  0  0  0  0  0  0  0
    0.1267   -0.0094    1.2988 H   0  0  0  0  0  0  0  0  0  0  0  0
   -2.3599    0.3524   -1.7966 H   0  0  0  0  0  0  0  0  0  0  0  0
    0.1671    2.3118    0.3333 H   0  0  0  0  0  0  0  0  0  0  0  0
   -3.9710   -1.7167    0.7268 H   0  0  0  0  0  0  0  0  0  0  0  0
   -0.4624    1.3922   -2.5219 H   0  0  0  0  0  0  0  0  0  0  0  0
   -2.1558    1.8849    0.8474 H   0  0  0  0  0  0  0  0  0  0  0  0
   -3.9044    0.5193    1.5971 H   0  0  0  0  0  0  0  0  0  0  0  0
  1  4  1  0
  5  6  1  0
  6  8  1  0
  9 11  1  0
  1 12  1  0
  6 13  1  0
  9 14  1  0
  7 15  1  0
 13 15  1  0
 14 15  1  0
  3 16  1  0
  5 16  1  0
  3 17  1  0
  8 17  1  0
  7 18  1  0
 11 18  1  0
 14 19  1  0
  2 20  1  0
 13 20  1  0
  9 21  1  0
 19 22  1  0
 20 22  1  0
 11 23  1  0
 19 24  1  0
 24 10  1  0
  3 25  1  0
  1 26  1  0
 21 26  1  0
 24 26  1  0
  5 27  1  0
  5 28  1  0
  8 29  1  0
  8 30  1  0
 11 31  1  1
 16 32  1  0
 16 33  1  0
 17 34  1  0
 17 35  1  0
 18 36  1  0
 18 37  1  0
 21 38  1  0
 22 39  1  0
 23 40  1  0
 23 41  1  0
 23 42  1  0
 25 43  1  0
 25 44  1  0
 25 45  1  0
 46 49  1  0
 50 51  1  0
 51 53  1  0
 54 56  1  0
 46 57  1  0
 51 58  1  0
 54 59  1  0
 52 60  1  0
 58 60  1  0
 59 60  1  0
 48 61  1  0
 50 61  1  0
 48 62  1  0
 53 62  1  0
 52 63  1  0
 56 63  1  0
 59 64  1  0
 47 65  1  0
 58 65  1  0
 54 66  1  0
 64 67  1  0
 65 67  1  0
 56 68  1  0
 64 69  1  0
 69 55  1  0
 48 70  1  0
 46 71  1  0
 66 71  1  0
 69 71  1  0
 50 72  1  0
 50 73  1  0
 53 74  1  0
 53 75  1  0
 56 76  1  1
 61 77  1  0
 61 78  1  0
 62 79  1  0
 62 80  1  0
 63 81  1  0
 63 82  1  0
 66 83  1  0
 67 84  1  0
 68 85  1  0
 68 86  1  0
 68 87  1  0
 70 88  1  0
 70 89  1  0
 70 90  1  0
  1 91  1  0
  4 92  1  0
 10 93  1  0
 12 94  1  0
 13 95  1  0
 14 96  1  0
 15 97  1  0
 19 98  1  0
 20 99  1  0
 21100  1  0
 22101  1  0
 24102  1  0
 26103  1  0
 46104  1  0
 49105  1  0
 55106  1  0
 57107  1  0
 58108  1  0
 59109  1  0
 60110  1  0
 64111  1  0
 65112  1  0
 66113  1  0
 67114  1  0
 69115  1  0
 71116  1  0
M  END
>  <PDBID>  (1) 
4Z2D

>  <PDB ID>  (1) 
4Z2D

>  <Generic Name>  (1) 
Levofloxacin

>  <Brand Name>  (1) 
Act Levofloxacin#Apo-levofloxacin#Auro-levofloxacin#Ava-levofloxacin#Dom-levofloxacin#Iquix#Levaquin#Levaquin 25mg/ml#Levaquin 500mg#Levaquin 5mg/ml#Levaquin 750mg#Levofloxacin#Levofloxacin In 5% Dextrose Injection#Levofloxacin Injection#Mylan-levofloxacin#Ntp-levofloxacin#PHL-levofloxacin#PMS-levofloxacin#Quinsair#Quixin#Sandoz Levofloxacin#Teva-levofloxacin#Cravit#Elequine#Floxel#Leroxacin#Levokacin#Levox#Levoxacin#Mosardal#Nofaxin#Reskuin#Tavanic

>  <DrugBank ID>  (1) 
DB01137

>  <ATC Codes>  (1) 
A02BD10#J01RA05#S01AE05#J01MA12

>  <Ligand ID>  (1) 
LFX

>  <Target Name>  (1) 
DNA gyrase subunit A

>  <UniProt ID>  (1) 
P43700

>  <PDB ID.1>  (1) 
4Z2D

>  <Seq. Identity>  (1) 
50%

$$$$
