PDB_DB12332_01
     RDKit          3D

116122  0  0  0  0  0  0  0  0999 V2000
   -5.4725    1.8143   -0.9335 O   0  0  0  0  0  0  0  0  0  0  0  0
   -4.0840    1.6704   -0.8897 C   0  0  1  0  0  0  0  0  0  0  0  0
   -3.4358    2.8602   -0.4693 N   0  0  0  0  0  0  0  0  0  0  0  0
   -2.2370    2.7187    0.2810 C   0  0  0  0  0  0  0  0  0  0  0  0
   -1.1302    2.0040   -0.4623 C   0  0  0  0  0  0  0  0  0  0  0  0
   -1.1658    0.5670   -0.0121 C   0  0  0  0  0  0  0  0  0  0  0  0
   -2.3982   -0.0414   -0.7079 C   0  0  0  0  0  0  0  0  0  0  0  0
   -3.6699    0.4340   -0.1138 C   0  0  0  0  0  0  0  0  0  0  0  0
   -4.7105   -0.6540   -0.2996 C   0  0  0  0  0  0  0  0  0  0  0  0
   -4.2935   -1.8978    0.4558 C   0  0  0  0  0  0  0  0  0  0  0  0
   -4.6356   -2.9904   -0.3260 F   0  0  0  0  0  0  0  0  0  0  0  0
   -2.8052   -1.9320    0.7492 C   0  0  0  0  0  0  0  0  0  0  0  0
   -2.0957   -1.4977   -0.5068 C   0  0  0  0  0  0  0  0  0  0  0  0
   -0.6519   -1.6149   -0.4313 N   0  0  0  0  0  0  0  0  0  0  0  0
   -0.1195   -0.2877   -0.6710 C   0  0  2  0  0  0  0  0  0  0  0  0
    1.2630   -0.0635   -0.2174 C   0  0  0  0  0  0  0  0  0  0  0  0
    2.1781   -0.9670   -1.0155 C   0  0  0  0  0  0  0  0  0  0  0  0
    3.6172   -0.5491   -0.7211 C   0  0  0  0  0  0  0  0  0  0  0  0
    1.5236   -0.3186    1.2384 C   0  0  0  0  0  0  0  0  0  0  0  0
    2.6613   -1.2725    1.4776 C   0  0  0  0  0  0  0  0  0  0  0  0
    3.9039   -0.9577    0.6769 C   0  0  0  0  0  0  0  0  0  0  0  0
    4.8362   -0.0521    1.4102 C   0  0  0  0  0  0  0  0  0  0  0  0
    6.1377    0.0847    0.8427 N   0  0  0  0  0  0  0  0  0  0  0  0
    6.2598    0.8014   -0.3730 C   0  0  0  0  0  0  0  0  0  0  0  0
   -5.4725    1.8143   -0.9335 O   0  0  0  0  0  0  0  0  0  0  0  0
   -4.0840    1.6704   -0.8897 C   0  0  1  0  0  0  0  0  0  0  0  0
   -3.4358    2.8602   -0.4693 N   0  0  0  0  0  0  0  0  0  0  0  0
   -2.2370    2.7187    0.2810 C   0  0  0  0  0  0  0  0  0  0  0  0
   -1.1302    2.0040   -0.4623 C   0  0  0  0  0  0  0  0  0  0  0  0
   -1.1658    0.5670   -0.0121 C   0  0  0  0  0  0  0  0  0  0  0  0
   -2.3982   -0.0414   -0.7079 C   0  0  0  0  0  0  0  0  0  0  0  0
   -3.6699    0.4340   -0.1138 C   0  0  0  0  0  0  0  0  0  0  0  0
   -4.7105   -0.6540   -0.2996 C   0  0  0  0  0  0  0  0  0  0  0  0
   -4.2935   -1.8978    0.4558 C   0  0  0  0  0  0  0  0  0  0  0  0
   -4.6356   -2.9904   -0.3260 F   0  0  0  0  0  0  0  0  0  0  0  0
   -2.8052   -1.9320    0.7492 C   0  0  0  0  0  0  0  0  0  0  0  0
   -2.0957   -1.4977   -0.5068 C   0  0  0  0  0  0  0  0  0  0  0  0
   -0.6519   -1.6149   -0.4313 N   0  0  0  0  0  0  0  0  0  0  0  0
   -0.1195   -0.2877   -0.6710 C   0  0  2  0  0  0  0  0  0  0  0  0
    1.2630   -0.0635   -0.2174 C   0  0  0  0  0  0  0  0  0  0  0  0
    2.1781   -0.9670   -1.0155 C   0  0  0  0  0  0  0  0  0  0  0  0
    3.6172   -0.5491   -0.7211 C   0  0  0  0  0  0  0  0  0  0  0  0
    1.5236   -0.3186    1.2384 C   0  0  0  0  0  0  0  0  0  0  0  0
    2.6613   -1.2725    1.4776 C   0  0  0  0  0  0  0  0  0  0  0  0
    3.9039   -0.9577    0.6769 C   0  0  0  0  0  0  0  0  0  0  0  0
    4.8362   -0.0521    1.4102 C   0  0  0  0  0  0  0  0  0  0  0  0
    6.1377    0.0847    0.8427 N   0  0  0  0  0  0  0  0  0  0  0  0
    6.2598    0.8014   -0.3730 C   0  0  0  0  0  0  0  0  0  0  0  0
   -5.9095    1.8708   -0.0711 H   0  0  0  0  0  0  0  0  0  0  0  0
   -3.7792    1.4879   -1.9627 H   0  0  0  0  0  0  0  0  0  0  0  0
   -4.0878    3.4686    0.0350 H   0  0  0  0  0  0  0  0  0  0  0  0
   -2.4739    2.2535    1.2601 H   0  0  0  0  0  0  0  0  0  0  0  0
   -1.9016    3.7555    0.5440 H   0  0  0  0  0  0  0  0  0  0  0  0
   -0.1695    2.4771   -0.1786 H   0  0  0  0  0  0  0  0  0  0  0  0
   -1.3510    2.0947   -1.5444 H   0  0  0  0  0  0  0  0  0  0  0  0
   -1.1994    0.4790    1.0702 H   0  0  0  0  0  0  0  0  0  0  0  0
   -2.3109    0.2461   -1.7688 H   0  0  0  0  0  0  0  0  0  0  0  0
   -3.6244    0.6070    0.9812 H   0  0  0  0  0  0  0  0  0  0  0  0
   -4.8012   -0.8629   -1.3856 H   0  0  0  0  0  0  0  0  0  0  0  0
   -5.7163   -0.3044    0.0372 H   0  0  0  0  0  0  0  0  0  0  0  0
   -4.8993   -1.9367    1.3779 H   0  0  0  0  0  0  0  0  0  0  0  0
   -2.5120   -2.9705    0.9806 H   0  0  0  0  0  0  0  0  0  0  0  0
   -2.5491   -1.2926    1.6166 H   0  0  0  0  0  0  0  0  0  0  0  0
   -2.4280   -2.1483   -1.3443 H   0  0  0  0  0  0  0  0  0  0  0  0
   -0.4248   -1.8874    0.5477 H   0  0  0  0  0  0  0  0  0  0  0  0
   -0.1746   -0.0974   -1.7528 H   0  0  0  0  0  0  0  0  0  0  0  0
    1.5433    0.9660   -0.4611 H   0  0  0  0  0  0  0  0  0  0  0  0
    2.0407   -1.9962   -0.6910 H   0  0  0  0  0  0  0  0  0  0  0  0
    1.9417   -0.7888   -2.0916 H   0  0  0  0  0  0  0  0  0  0  0  0
    3.7223    0.5181   -0.9524 H   0  0  0  0  0  0  0  0  0  0  0  0
    4.2170   -1.1533   -1.4652 H   0  0  0  0  0  0  0  0  0  0  0  0
    1.7930    0.6320    1.7490 H   0  0  0  0  0  0  0  0  0  0  0  0
    0.6549   -0.7088    1.8003 H   0  0  0  0  0  0  0  0  0  0  0  0
    2.9231   -1.1918    2.5650 H   0  0  0  0  0  0  0  0  0  0  0  0
    2.3333   -2.3099    1.2898 H   0  0  0  0  0  0  0  0  0  0  0  0
    4.4505   -1.9527    0.6163 H   0  0  0  0  0  0  0  0  0  0  0  0
    5.0084   -0.4527    2.4629 H   0  0  0  0  0  0  0  0  0  0  0  0
    4.3968    0.9614    1.5889 H   0  0  0  0  0  0  0  0  0  0  0  0
    6.7353   -0.7472    0.9265 H   0  0  0  0  0  0  0  0  0  0  0  0
    7.3613    1.1000   -0.4548 H   0  0  0  0  0  0  0  0  0  0  0  0
    6.0649    0.2746   -1.3024 H   0  0  0  0  0  0  0  0  0  0  0  0
    5.6506    1.7509   -0.3810 H   0  0  0  0  0  0  0  0  0  0  0  0
   -5.9095    1.8708   -0.0711 H   0  0  0  0  0  0  0  0  0  0  0  0
   -3.7792    1.4879   -1.9627 H   0  0  0  0  0  0  0  0  0  0  0  0
   -4.0878    3.4686    0.0350 H   0  0  0  0  0  0  0  0  0  0  0  0
   -2.4739    2.2535    1.2601 H   0  0  0  0  0  0  0  0  0  0  0  0
   -1.9016    3.7555    0.5440 H   0  0  0  0  0  0  0  0  0  0  0  0
   -0.1695    2.4771   -0.1786 H   0  0  0  0  0  0  0  0  0  0  0  0
   -1.3510    2.0947   -1.5444 H   0  0  0  0  0  0  0  0  0  0  0  0
   -1.1994    0.4790    1.0702 H   0  0  0  0  0  0  0  0  0  0  0  0
   -2.3109    0.2461   -1.7688 H   0  0  0  0  0  0  0  0  0  0  0  0
   -3.6244    0.6070    0.9812 H   0  0  0  0  0  0  0  0  0  0  0  0
   -4.8012   -0.8629   -1.3856 H   0  0  0  0  0  0  0  0  0  0  0  0
   -5.7163   -0.3044    0.0372 H   0  0  0  0  0  0  0  0  0  0  0  0
   -4.8993   -1.9367    1.3779 H   0  0  0  0  0  0  0  0  0  0  0  0
   -2.5120   -2.9705    0.9806 H   0  0  0  0  0  0  0  0  0  0  0  0
   -2.5491   -1.2926    1.6166 H   0  0  0  0  0  0  0  0  0  0  0  0
   -2.4280   -2.1483   -1.3443 H   0  0  0  0  0  0  0  0  0  0  0  0
   -0.4248   -1.8874    0.5477 H   0  0  0  0  0  0  0  0  0  0  0  0
   -0.1746   -0.0974   -1.7528 H   0  0  0  0  0  0  0  0  0  0  0  0
    1.5433    0.9660   -0.4611 H   0  0  0  0  0  0  0  0  0  0  0  0
    2.0407   -1.9962   -0.6910 H   0  0  0  0  0  0  0  0  0  0  0  0
    1.9417   -0.7888   -2.0916 H   0  0  0  0  0  0  0  0  0  0  0  0
    3.7223    0.5181   -0.9524 H   0  0  0  0  0  0  0  0  0  0  0  0
    4.2170   -1.1533   -1.4652 H   0  0  0  0  0  0  0  0  0  0  0  0
    1.7930    0.6320    1.7490 H   0  0  0  0  0  0  0  0  0  0  0  0
    0.6549   -0.7088    1.8003 H   0  0  0  0  0  0  0  0  0  0  0  0
    2.9231   -1.1918    2.5650 H   0  0  0  0  0  0  0  0  0  0  0  0
    2.3333   -2.3099    1.2898 H   0  0  0  0  0  0  0  0  0  0  0  0
    4.4505   -1.9527    0.6163 H   0  0  0  0  0  0  0  0  0  0  0  0
    5.0084   -0.4527    2.4629 H   0  0  0  0  0  0  0  0  0  0  0  0
    4.3968    0.9614    1.5889 H   0  0  0  0  0  0  0  0  0  0  0  0
    6.7353   -0.7472    0.9265 H   0  0  0  0  0  0  0  0  0  0  0  0
    7.3613    1.1000   -0.4548 H   0  0  0  0  0  0  0  0  0  0  0  0
    6.0649    0.2746   -1.3024 H   0  0  0  0  0  0  0  0  0  0  0  0
    5.6506    1.7509   -0.3810 H   0  0  0  0  0  0  0  0  0  0  0  0
  1  2  1  0
  2  3  1  0
  3  4  1  0
  4  5  1  0
  5  6  1  0
  6  7  1  0
  2  8  1  0
  7  8  1  0
  8  9  1  0
  9 10  1  0
 10 11  1  0
 10 12  1  0
  7 13  1  0
 12 13  1  0
 13 14  1  0
  6 15  1  0
 14 15  1  0
 15 16  1  0
 16 17  1  0
 17 18  1  0
 16 19  1  0
 19 20  1  0
 18 21  1  0
 20 21  1  0
 21 22  1  0
 22 23  1  0
 23 24  1  0
 25 26  1  0
 26 27  1  0
 27 28  1  0
 28 29  1  0
 29 30  1  0
 30 31  1  0
 26 32  1  0
 31 32  1  0
 32 33  1  0
 33 34  1  0
 34 35  1  0
 34 36  1  0
 31 37  1  0
 36 37  1  0
 37 38  1  0
 30 39  1  0
 38 39  1  0
 39 40  1  0
 40 41  1  0
 41 42  1  0
 40 43  1  0
 43 44  1  0
 42 45  1  0
 44 45  1  0
 45 46  1  0
 46 47  1  0
 47 48  1  0
  1 49  1  0
  2 50  1  6
  3 51  1  0
  4 52  1  0
  4 53  1  0
  5 54  1  0
  5 55  1  0
  6 56  1  0
  7 57  1  0
  8 58  1  0
  9 59  1  0
  9 60  1  0
 10 61  1  0
 12 62  1  0
 12 63  1  0
 13 64  1  0
 14 65  1  0
 15 66  1  6
 16 67  1  0
 17 68  1  0
 17 69  1  0
 18 70  1  0
 18 71  1  0
 19 72  1  0
 19 73  1  0
 20 74  1  0
 20 75  1  0
 21 76  1  0
 22 77  1  0
 22 78  1  0
 23 79  1  0
 24 80  1  0
 24 81  1  0
 24 82  1  0
 25 83  1  0
 26 84  1  6
 27 85  1  0
 28 86  1  0
 28 87  1  0
 29 88  1  0
 29 89  1  0
 30 90  1  0
 31 91  1  0
 32 92  1  0
 33 93  1  0
 33 94  1  0
 34 95  1  0
 36 96  1  0
 36 97  1  0
 37 98  1  0
 38 99  1  0
 39100  1  6
 40101  1  0
 41102  1  0
 41103  1  0
 42104  1  0
 42105  1  0
 43106  1  0
 43107  1  0
 44108  1  0
 44109  1  0
 45110  1  0
 46111  1  0
 46112  1  0
 47113  1  0
 48114  1  0
 48115  1  0
 48116  1  0
M  END
>  <PDBID>  (1) 
4RV6

>  <PDB ID>  (1) 
4RV6

>  <Generic Name>  (1) 
Rucaparib

>  <Brand Name>  (1) 
Rubraca

>  <DrugBank ID>  (1) 
DB12332

>  <ATC Codes>  (1) 
nan

>  <Ligand ID>  (1) 
RPB

>  <Target Name>  (1) 
Poly [ADP-ribose] polymerase 1

>  <UniProt ID>  (1) 
P09874

>  <PDB ID.1>  (1) 
4RV6

>  <Seq. Identity>  (1) 
100%

$$$$
