PDB_DB01409_00
     RDKit          3D

116124  0  0  0  0  0  0  0  0999 V2000
   -0.9287   -0.8143   -0.7293 C   0  0  2  0  0  0  0  0  0  0  0  0
   -1.1889   -1.8880   -1.6787 O   0  0  0  0  0  0  0  0  0  0  0  0
   -3.4087   -0.7138   -0.6762 C   0  0  0  0  0  0  0  0  0  0  0  0
   -2.1848    0.0861    1.2999 C   0  0  0  0  0  0  0  0  0  0  0  0
   -3.7150   -1.8081   -1.6050 C   0  0  0  0  0  0  0  0  0  0  0  0
   -5.1443   -2.1366   -1.7136 C   0  0  0  0  0  0  0  0  0  0  0  0
   -6.0455   -1.3253   -0.8676 C   0  0  0  0  0  0  0  0  0  0  0  0
   -2.0005    1.5473    1.0893 C   0  0  0  0  0  0  0  0  0  0  0  0
   -1.9312    2.1407    2.4682 C   0  0  0  0  0  0  0  0  0  0  0  0
   -0.8256    1.4580    3.2381 C   0  0  0  0  0  0  0  0  0  0  0  0
    5.3583   -0.4302    0.7879 O   0  0  0  0  0  0  0  0  0  0  0  0
    0.2317   -1.0390   -0.1031 O   0  0  0  0  0  0  0  0  0  0  0  0
   -2.2179   -2.1303    0.6995 O   0  0  0  0  0  0  0  0  0  0  0  0
   -4.8774   -0.7321    0.4260 S   0  0  0  0  0  0  0  0  0  0  0  0
   -0.9927   -0.2664    2.6006 S   0  0  0  0  0  0  0  0  0  0  0  0
    5.1056    1.5016   -0.6562 C   0  0  0  0  0  0  0  0  0  0  0  0
    3.7215   -0.3360   -1.1296 C   0  0  2  0  0  0  0  0  0  0  0  0
    2.3340   -0.9029   -1.2924 C   0  0  0  0  0  0  0  0  0  0  0  0
    1.2934   -0.2141   -0.4488 C   0  0  2  0  0  0  0  0  0  0  0  0
    1.8018    0.4847    0.7383 C   0  0  0  0  0  0  0  0  0  0  0  0
    3.2646    0.8702    0.6706 C   0  0  1  0  0  0  0  0  0  0  0  0
    4.0538   -0.3228    1.1889 C   0  0  1  0  0  0  0  0  0  0  0  0
    4.4521   -1.0579   -0.0222 C   0  0  2  0  0  0  0  0  0  0  0  0
    2.9810    1.9472   -1.4749 C   0  0  0  0  0  0  0  0  0  0  0  0
   -2.1262   -0.7964    0.1158 C   0  0  0  0  0  0  0  0  0  0  0  0
    3.7341    1.0291   -0.6793 N   0  0  0  0  0  0  0  0  0  0  0  0
   -0.7905   -0.8106    0.7835 C   0  0  1  0  0  0  0  0  0  0  0  0
   -1.1841   -2.0009    1.3144 O   0  0  0  0  0  0  0  0  0  0  0  0
   -2.8099    0.2454    1.5385 C   0  0  0  0  0  0  0  0  0  0  0  0
   -2.7536   -0.6735   -0.7872 C   0  0  0  0  0  0  0  0  0  0  0  0
   -4.0645    1.0056    1.3296 C   0  0  0  0  0  0  0  0  0  0  0  0
   -3.7396    2.4604    1.1449 C   0  0  0  0  0  0  0  0  0  0  0  0
   -2.9855    2.8712    2.4127 C   0  0  0  0  0  0  0  0  0  0  0  0
   -3.3186   -2.0295   -0.5443 C   0  0  0  0  0  0  0  0  0  0  0  0
   -3.8627   -2.3777   -1.9412 C   0  0  0  0  0  0  0  0  0  0  0  0
   -2.6157   -2.5095   -2.8245 C   0  0  0  0  0  0  0  0  0  0  0  0
    4.7860   -0.3486   -2.3866 O   0  0  0  0  0  0  0  0  0  0  0  0
    0.1490   -0.8738   -0.2132 O   0  0  0  0  0  0  0  0  0  0  0  0
   -1.4858    1.1760   -0.1993 O   0  0  0  0  0  0  0  0  0  0  0  0
   -1.8630    1.4255    2.5843 S   0  0  0  0  0  0  0  0  0  0  0  0
   -1.6590   -1.0593   -2.2156 S   0  0  0  0  0  0  0  0  0  0  0  0
    3.5861    1.3293    1.1099 C   0  0  0  0  0  0  0  0  0  0  0  0
    3.0862    1.0648   -1.2326 C   0  0  2  0  0  0  0  0  0  0  0  0
    1.6370    0.8752   -0.9202 C   0  0  0  0  0  0  0  0  0  0  0  0
    1.3411   -0.1886    0.0817 C   0  0  2  0  0  0  0  0  0  0  0  0
    2.4404   -1.2019    0.2592 C   0  0  0  0  0  0  0  0  0  0  0  0
    3.7984   -0.7332   -0.1123 C   0  0  1  0  0  0  0  0  0  0  0  0
    4.0570   -1.1372   -1.5445 C   0  0  1  0  0  0  0  0  0  0  0  0
    3.4699    0.0543   -2.2958 C   0  0  2  0  0  0  0  0  0  0  0  0
    5.3081    1.0515   -0.4344 C   0  0  0  0  0  0  0  0  0  0  0  0
   -2.0027   -0.0359    0.3225 C   0  0  0  0  0  0  0  0  0  0  0  0
    3.9524    0.6926   -0.1341 N   0  0  0  0  0  0  0  0  0  0  0  0
   -0.8690    0.1149   -1.3547 H   0  0  0  0  0  0  0  0  0  0  0  0
   -0.5412   -1.7905   -2.4219 H   0  0  0  0  0  0  0  0  0  0  0  0
   -3.4541    0.2891   -1.1916 H   0  0  0  0  0  0  0  0  0  0  0  0
   -3.2114   -0.0731    1.7762 H   0  0  0  0  0  0  0  0  0  0  0  0
   -3.2072   -2.7880   -1.3186 H   0  0  0  0  0  0  0  0  0  0  0  0
   -3.2710   -1.6067   -2.6208 H   0  0  0  0  0  0  0  0  0  0  0  0
   -5.4509   -1.9529   -2.7860 H   0  0  0  0  0  0  0  0  0  0  0  0
   -5.3365   -3.2305   -1.5414 H   0  0  0  0  0  0  0  0  0  0  0  0
   -6.8058   -1.9683   -0.3925 H   0  0  0  0  0  0  0  0  0  0  0  0
   -6.4735   -0.4524   -1.4014 H   0  0  0  0  0  0  0  0  0  0  0  0
   -1.0751    1.7739    0.5653 H   0  0  0  0  0  0  0  0  0  0  0  0
   -2.8210    2.0568    0.5644 H   0  0  0  0  0  0  0  0  0  0  0  0
   -1.8260    3.2445    2.4431 H   0  0  0  0  0  0  0  0  0  0  0  0
   -2.8991    1.9196    2.9659 H   0  0  0  0  0  0  0  0  0  0  0  0
    0.1683    1.8632    3.0811 H   0  0  0  0  0  0  0  0  0  0  0  0
   -1.1373    1.4327    4.3060 H   0  0  0  0  0  0  0  0  0  0  0  0
   -1.5947   -2.1502    1.4747 H   0  0  0  0  0  0  0  0  0  0  0  0
    5.4164    1.8469    0.3529 H   0  0  0  0  0  0  0  0  0  0  0  0
    5.8217    0.7891   -1.1249 H   0  0  0  0  0  0  0  0  0  0  0  0
    5.2208    2.4318   -1.2935 H   0  0  0  0  0  0  0  0  0  0  0  0
    4.2962   -0.4047   -2.0525 H   0  0  0  0  0  0  0  0  0  0  0  0
    2.1086   -0.8423   -2.3815 H   0  0  0  0  0  0  0  0  0  0  0  0
    2.4161   -1.9930   -1.0864 H   0  0  0  0  0  0  0  0  0  0  0  0
    0.8222    0.5144   -1.1458 H   0  0  0  0  0  0  0  0  0  0  0  0
    1.7545   -0.1382    1.6846 H   0  0  0  0  0  0  0  0  0  0  0  0
    1.2478    1.4168    1.0043 H   0  0  0  0  0  0  0  0  0  0  0  0
    3.4219    1.7656    1.2746 H   0  0  0  0  0  0  0  0  0  0  0  0
    3.6777   -0.8585    2.0815 H   0  0  0  0  0  0  0  0  0  0  0  0
    4.5252   -2.1669   -0.0549 H   0  0  0  0  0  0  0  0  0  0  0  0
    2.1561    2.4611   -0.9297 H   0  0  0  0  0  0  0  0  0  0  0  0
    2.5557    1.5325   -2.4000 H   0  0  0  0  0  0  0  0  0  0  0  0
    3.6203    2.8126   -1.8387 H   0  0  0  0  0  0  0  0  0  0  0  0
   -0.3694   -0.1981    1.6364 H   0  0  0  0  0  0  0  0  0  0  0  0
   -0.4989   -2.6717    1.4507 H   0  0  0  0  0  0  0  0  0  0  0  0
   -2.9646   -0.6439    2.1678 H   0  0  0  0  0  0  0  0  0  0  0  0
   -3.5393   -0.0328   -1.1907 H   0  0  0  0  0  0  0  0  0  0  0  0
   -4.7256    0.6481    0.5515 H   0  0  0  0  0  0  0  0  0  0  0  0
   -4.6496    0.9403    2.2956 H   0  0  0  0  0  0  0  0  0  0  0  0
   -3.2005    2.7022    0.2336 H   0  0  0  0  0  0  0  0  0  0  0  0
   -4.7217    2.9971    1.0915 H   0  0  0  0  0  0  0  0  0  0  0  0
   -3.7279    2.8977    3.2273 H   0  0  0  0  0  0  0  0  0  0  0  0
   -2.4211    3.7932    2.2691 H   0  0  0  0  0  0  0  0  0  0  0  0
   -4.1726   -2.0574    0.1319 H   0  0  0  0  0  0  0  0  0  0  0  0
   -2.5669   -2.8275   -0.3558 H   0  0  0  0  0  0  0  0  0  0  0  0
   -4.5265   -1.6027   -2.3221 H   0  0  0  0  0  0  0  0  0  0  0  0
   -4.4038   -3.3188   -1.8642 H   0  0  0  0  0  0  0  0  0  0  0  0
   -2.9107   -2.3219   -3.8628 H   0  0  0  0  0  0  0  0  0  0  0  0
   -2.0884   -3.4435   -2.6407 H   0  0  0  0  0  0  0  0  0  0  0  0
   -1.2692    1.1114   -1.1433 H   0  0  0  0  0  0  0  0  0  0  0  0
    4.4319    1.9562    1.5235 H   0  0  0  0  0  0  0  0  0  0  0  0
    2.7426    2.0415    0.9967 H   0  0  0  0  0  0  0  0  0  0  0  0
    3.3942    0.5784    1.9272 H   0  0  0  0  0  0  0  0  0  0  0  0
    3.2784    2.0934   -1.6052 H   0  0  0  0  0  0  0  0  0  0  0  0
    1.1552    1.8347   -0.5680 H   0  0  0  0  0  0  0  0  0  0  0  0
    1.1209    0.6582   -1.9003 H   0  0  0  0  0  0  0  0  0  0  0  0
    1.1641    0.2376    1.1099 H   0  0  0  0  0  0  0  0  0  0  0  0
    2.4850   -1.5951    1.3156 H   0  0  0  0  0  0  0  0  0  0  0  0
    2.1636   -2.1049   -0.3514 H   0  0  0  0  0  0  0  0  0  0  0  0
    4.5926   -1.1768    0.5120 H   0  0  0  0  0  0  0  0  0  0  0  0
    3.8273   -2.1522   -1.8730 H   0  0  0  0  0  0  0  0  0  0  0  0
    2.7585   -0.1542   -3.1164 H   0  0  0  0  0  0  0  0  0  0  0  0
    5.7578    1.7136    0.3650 H   0  0  0  0  0  0  0  0  0  0  0  0
    6.0015    0.1641   -0.4576 H   0  0  0  0  0  0  0  0  0  0  0  0
    5.4066    1.6622   -1.3704 H   0  0  0  0  0  0  0  0  0  0  0  0
  1  2  1  0
  3  5  1  0
  5  6  1  0
  6  7  1  0
  4  8  1  0
  8  9  1  0
  9 10  1  0
  1 12  1  0
  3 14  1  0
  7 14  1  0
  4 15  1  0
 10 15  1  0
 17 18  1  0
 12 19  1  0
 18 19  1  0
 19 20  1  0
 20 21  1  0
 11 22  1  0
 21 22  1  0
 11 23  1  0
 17 23  1  0
 22 23  1  0
  1 25  1  0
  3 25  1  0
  4 25  1  0
 25 13  1  0
 26 16  1  0
 17 26  1  0
 21 26  1  0
 24 26  1  0
 27 28  1  0
 29 31  1  0
 31 32  1  0
 32 33  1  0
 30 34  1  0
 34 35  1  0
 35 36  1  0
 27 38  1  0
 29 40  1  0
 33 40  1  0
 30 41  1  0
 36 41  1  0
 43 44  1  0
 38 45  1  0
 44 45  1  0
 45 46  1  0
 46 47  1  0
 37 48  1  0
 47 48  1  0
 37 49  1  0
 43 49  1  0
 48 49  1  0
 27 51  1  0
 29 51  1  0
 30 51  1  0
 51 39  1  0
 52 42  1  0
 43 52  1  0
 47 52  1  0
 50 52  1  0
  1 53  1  6
  2 54  1  0
  3 55  1  0
  4 56  1  0
  5 57  1  0
  5 58  1  0
  6 59  1  0
  6 60  1  0
  7 61  1  0
  7 62  1  0
  8 63  1  0
  8 64  1  0
  9 65  1  0
  9 66  1  0
 10 67  1  0
 10 68  1  0
 13 69  1  0
 16 70  1  0
 16 71  1  0
 16 72  1  0
 17 73  1  6
 18 74  1  0
 18 75  1  0
 19 76  1  6
 20 77  1  0
 20 78  1  0
 21 79  1  1
 22 80  1  1
 23 81  1  1
 24 82  1  0
 24 83  1  0
 24 84  1  0
 27 85  1  1
 28 86  1  0
 29 87  1  0
 30 88  1  0
 31 89  1  0
 31 90  1  0
 32 91  1  0
 32 92  1  0
 33 93  1  0
 33 94  1  0
 34 95  1  0
 34 96  1  0
 35 97  1  0
 35 98  1  0
 36 99  1  0
 36100  1  0
 39101  1  0
 42102  1  0
 42103  1  0
 42104  1  0
 43105  1  6
 44106  1  0
 44107  1  0
 45108  1  1
 46109  1  0
 46110  1  0
 47111  1  1
 48112  1  6
 49113  1  6
 50114  1  0
 50115  1  0
 50116  1  0
M  CHG  2  26   1  52   1
M  END
>  <PDBID>  (1) 
4U15

>  <PDB ID>  (1) 
4U15

>  <Generic Name>  (1) 
Tiotropium

>  <Brand Name>  (1) 
Inspiolto Respimat#Spiriva#Spiriva Respimat#Stiolto Respimat

>  <DrugBank ID>  (1) 
DB01409

>  <ATC Codes>  (1) 
R03AL06#R03BB54#R03BB04

>  <Ligand ID>  (1) 
0HK

>  <Target Name>  (1) 
Muscarinic acetylcholine receptor M3

>  <UniProt ID>  (1) 
P20309

>  <PDB ID.1>  (1) 
4U15

>  <Seq. Identity>  (1) 
98%

$$$$
