PDB_DB08895_09
     RDKit          3D

114118  0  0  0  0  0  0  0  0999 V2000
   -0.0182   -0.9928   -0.6413 C   0  0  1  0  0  0  0  0  0  0  0  0
    1.2437   -0.4561   -1.3112 C   0  0  0  0  0  0  0  0  0  0  0  0
    2.8311   -1.7362   -0.0326 C   0  0  0  0  0  0  0  0  0  0  0  0
    1.6708   -2.7395   -0.0340 C   0  0  0  0  0  0  0  0  0  0  0  0
    0.3579   -2.0324    0.3409 C   0  0  1  0  0  0  0  0  0  0  0  0
    2.2615   -0.4639   -0.2947 N   0  0  0  0  0  0  0  0  0  0  0  0
    3.0402    1.4347   -1.4498 O   0  0  0  0  0  0  0  0  0  0  0  0
    3.0849    0.6707   -0.2812 C   0  0  0  0  0  0  0  0  0  0  0  0
    4.5397    0.3964    0.0498 C   0  0  0  0  0  0  0  0  0  0  0  0
    5.2171    1.7721    0.0289 C   0  0  0  0  0  0  0  0  0  0  0  0
    6.6102    1.6864    0.3375 N   0  0  0  0  0  0  0  0  0  0  0  0
    0.4780   -1.6399    1.7699 C   0  0  0  0  0  0  0  0  0  0  0  0
   -0.9021   -0.0023   -0.2036 N   0  0  0  0  0  0  0  0  0  0  0  0
   -0.5036    0.9684    0.7194 C   0  0  0  0  0  0  0  0  0  0  0  0
   -2.2962   -0.1973   -0.4285 C   0  0  0  0  0  0  0  0  0  0  0  0
   -3.1623    0.8290    0.1815 C   0  0  0  0  0  0  0  0  0  0  0  0
   -3.2920    2.1240   -0.5332 C   0  0  0  0  0  0  0  0  0  0  0  0
   -4.6224    2.6486    0.0183 C   0  0  0  0  0  0  0  0  0  0  0  0
   -5.2837    1.5098    0.6326 N   0  0  0  0  0  0  0  0  0  0  0  0
   -4.6260    0.3568    0.0624 C   0  0  0  0  0  0  0  0  0  0  0  0
   -4.6871   -0.8046    0.9062 N   0  0  0  0  0  0  0  0  0  0  0  0
   -3.9632   -1.8387    0.2154 C   0  0  0  0  0  0  0  0  0  0  0  0
   -2.6005   -1.5534   -0.0846 N   0  0  0  0  0  0  0  0  0  0  0  0
   -0.0182   -0.9928   -0.6413 C   0  0  1  0  0  0  0  0  0  0  0  0
    1.2437   -0.4561   -1.3112 C   0  0  0  0  0  0  0  0  0  0  0  0
    2.8311   -1.7362   -0.0326 C   0  0  0  0  0  0  0  0  0  0  0  0
    1.6708   -2.7395   -0.0340 C   0  0  0  0  0  0  0  0  0  0  0  0
    0.3579   -2.0324    0.3409 C   0  0  1  0  0  0  0  0  0  0  0  0
    2.2615   -0.4639   -0.2947 N   0  0  0  0  0  0  0  0  0  0  0  0
    3.0402    1.4347   -1.4498 O   0  0  0  0  0  0  0  0  0  0  0  0
    3.0849    0.6707   -0.2812 C   0  0  0  0  0  0  0  0  0  0  0  0
    4.5397    0.3964    0.0498 C   0  0  0  0  0  0  0  0  0  0  0  0
    5.2171    1.7721    0.0289 C   0  0  0  0  0  0  0  0  0  0  0  0
    6.6102    1.6864    0.3375 N   0  0  0  0  0  0  0  0  0  0  0  0
    0.4780   -1.6399    1.7699 C   0  0  0  0  0  0  0  0  0  0  0  0
   -0.9021   -0.0023   -0.2036 N   0  0  0  0  0  0  0  0  0  0  0  0
   -0.5036    0.9684    0.7194 C   0  0  0  0  0  0  0  0  0  0  0  0
   -2.2962   -0.1973   -0.4285 C   0  0  0  0  0  0  0  0  0  0  0  0
   -3.1623    0.8290    0.1815 C   0  0  0  0  0  0  0  0  0  0  0  0
   -3.2920    2.1240   -0.5332 C   0  0  0  0  0  0  0  0  0  0  0  0
   -4.6224    2.6486    0.0183 C   0  0  0  0  0  0  0  0  0  0  0  0
   -5.2837    1.5098    0.6326 N   0  0  0  0  0  0  0  0  0  0  0  0
   -4.6260    0.3568    0.0624 C   0  0  0  0  0  0  0  0  0  0  0  0
   -4.6871   -0.8046    0.9062 N   0  0  0  0  0  0  0  0  0  0  0  0
   -3.9632   -1.8387    0.2154 C   0  0  0  0  0  0  0  0  0  0  0  0
   -2.6005   -1.5534   -0.0846 N   0  0  0  0  0  0  0  0  0  0  0  0
   -0.5434   -1.5595   -1.4948 H   0  0  0  0  0  0  0  0  0  0  0  0
    1.1412    0.5574   -1.6975 H   0  0  0  0  0  0  0  0  0  0  0  0
    1.5135   -1.1200   -2.1656 H   0  0  0  0  0  0  0  0  0  0  0  0
    3.2120   -1.7637    1.0321 H   0  0  0  0  0  0  0  0  0  0  0  0
    3.6088   -2.0554   -0.7441 H   0  0  0  0  0  0  0  0  0  0  0  0
    1.5068   -3.1994   -1.0181 H   0  0  0  0  0  0  0  0  0  0  0  0
    1.8271   -3.5293    0.7042 H   0  0  0  0  0  0  0  0  0  0  0  0
   -0.3993   -2.8703    0.3036 H   0  0  0  0  0  0  0  0  0  0  0  0
    3.5022    0.9995   -2.2067 H   0  0  0  0  0  0  0  0  0  0  0  0
    2.7386    1.3740    0.5282 H   0  0  0  0  0  0  0  0  0  0  0  0
    4.6720   -0.0474    1.0329 H   0  0  0  0  0  0  0  0  0  0  0  0
    5.0336   -0.2137   -0.7102 H   0  0  0  0  0  0  0  0  0  0  0  0
    5.1055    2.1537   -1.0089 H   0  0  0  0  0  0  0  0  0  0  0  0
    4.6401    2.4732    0.6964 H   0  0  0  0  0  0  0  0  0  0  0  0
    7.1731    1.7201   -0.5374 H   0  0  0  0  0  0  0  0  0  0  0  0
    6.8436    2.5796    0.8546 H   0  0  0  0  0  0  0  0  0  0  0  0
    1.4405   -1.1595    2.0521 H   0  0  0  0  0  0  0  0  0  0  0  0
    0.5190   -2.6313    2.3452 H   0  0  0  0  0  0  0  0  0  0  0  0
   -0.3680   -1.1159    2.2066 H   0  0  0  0  0  0  0  0  0  0  0  0
   -1.1066    1.0262    1.6287 H   0  0  0  0  0  0  0  0  0  0  0  0
    0.5374    0.7471    1.0556 H   0  0  0  0  0  0  0  0  0  0  0  0
   -0.4108    2.0032    0.2813 H   0  0  0  0  0  0  0  0  0  0  0  0
   -2.4514   -0.1238   -1.5488 H   0  0  0  0  0  0  0  0  0  0  0  0
   -3.0458    0.9574    1.2904 H   0  0  0  0  0  0  0  0  0  0  0  0
   -3.4745    1.8983   -1.6028 H   0  0  0  0  0  0  0  0  0  0  0  0
   -2.5244    2.8744   -0.3659 H   0  0  0  0  0  0  0  0  0  0  0  0
   -5.2230    3.1167   -0.7794 H   0  0  0  0  0  0  0  0  0  0  0  0
   -4.3722    3.4373    0.7769 H   0  0  0  0  0  0  0  0  0  0  0  0
   -5.0689    1.4905    1.6695 H   0  0  0  0  0  0  0  0  0  0  0  0
   -4.9194    0.1680   -0.9675 H   0  0  0  0  0  0  0  0  0  0  0  0
   -5.6265   -1.1450    1.1433 H   0  0  0  0  0  0  0  0  0  0  0  0
   -4.5087   -2.0014   -0.7560 H   0  0  0  0  0  0  0  0  0  0  0  0
   -4.0052   -2.7950    0.7863 H   0  0  0  0  0  0  0  0  0  0  0  0
   -2.3443   -2.1857   -0.8903 H   0  0  0  0  0  0  0  0  0  0  0  0
   -0.5434   -1.5595   -1.4948 H   0  0  0  0  0  0  0  0  0  0  0  0
    1.1412    0.5574   -1.6975 H   0  0  0  0  0  0  0  0  0  0  0  0
    1.5135   -1.1200   -2.1656 H   0  0  0  0  0  0  0  0  0  0  0  0
    3.2120   -1.7637    1.0321 H   0  0  0  0  0  0  0  0  0  0  0  0
    3.6088   -2.0554   -0.7441 H   0  0  0  0  0  0  0  0  0  0  0  0
    1.5068   -3.1994   -1.0181 H   0  0  0  0  0  0  0  0  0  0  0  0
    1.8271   -3.5293    0.7042 H   0  0  0  0  0  0  0  0  0  0  0  0
   -0.3993   -2.8703    0.3036 H   0  0  0  0  0  0  0  0  0  0  0  0
    3.5022    0.9995   -2.2067 H   0  0  0  0  0  0  0  0  0  0  0  0
    2.7386    1.3740    0.5282 H   0  0  0  0  0  0  0  0  0  0  0  0
    4.6720   -0.0474    1.0329 H   0  0  0  0  0  0  0  0  0  0  0  0
    5.0336   -0.2137   -0.7102 H   0  0  0  0  0  0  0  0  0  0  0  0
    5.1055    2.1537   -1.0089 H   0  0  0  0  0  0  0  0  0  0  0  0
    4.6401    2.4732    0.6964 H   0  0  0  0  0  0  0  0  0  0  0  0
    7.1731    1.7201   -0.5374 H   0  0  0  0  0  0  0  0  0  0  0  0
    6.8436    2.5796    0.8546 H   0  0  0  0  0  0  0  0  0  0  0  0
    1.4405   -1.1595    2.0521 H   0  0  0  0  0  0  0  0  0  0  0  0
    0.5190   -2.6313    2.3452 H   0  0  0  0  0  0  0  0  0  0  0  0
   -0.3680   -1.1159    2.2066 H   0  0  0  0  0  0  0  0  0  0  0  0
   -1.1066    1.0262    1.6287 H   0  0  0  0  0  0  0  0  0  0  0  0
    0.5374    0.7471    1.0556 H   0  0  0  0  0  0  0  0  0  0  0  0
   -0.4108    2.0032    0.2813 H   0  0  0  0  0  0  0  0  0  0  0  0
   -2.4514   -0.1238   -1.5488 H   0  0  0  0  0  0  0  0  0  0  0  0
   -3.0458    0.9574    1.2904 H   0  0  0  0  0  0  0  0  0  0  0  0
   -3.4745    1.8983   -1.6028 H   0  0  0  0  0  0  0  0  0  0  0  0
   -2.5244    2.8744   -0.3659 H   0  0  0  0  0  0  0  0  0  0  0  0
   -5.2230    3.1167   -0.7794 H   0  0  0  0  0  0  0  0  0  0  0  0
   -4.3722    3.4373    0.7769 H   0  0  0  0  0  0  0  0  0  0  0  0
   -5.0689    1.4905    1.6695 H   0  0  0  0  0  0  0  0  0  0  0  0
   -4.9194    0.1680   -0.9675 H   0  0  0  0  0  0  0  0  0  0  0  0
   -5.6265   -1.1450    1.1433 H   0  0  0  0  0  0  0  0  0  0  0  0
   -4.5087   -2.0014   -0.7560 H   0  0  0  0  0  0  0  0  0  0  0  0
   -4.0052   -2.7950    0.7863 H   0  0  0  0  0  0  0  0  0  0  0  0
   -2.3443   -2.1857   -0.8903 H   0  0  0  0  0  0  0  0  0  0  0  0
  1  2  1  0
  3  4  1  0
  1  5  1  0
  4  5  1  0
  2  6  1  0
  3  6  1  0
  6  8  1  0
  7  8  1  0
  8  9  1  0
  9 10  1  0
 10 11  1  0
  5 12  1  0
  1 13  1  0
 13 14  1  0
 13 15  1  0
 15 16  1  0
 16 17  1  0
 17 18  1  0
 18 19  1  0
 16 20  1  0
 19 20  1  0
 20 21  1  0
 21 22  1  0
 15 23  1  0
 22 23  1  0
 24 25  1  0
 26 27  1  0
 24 28  1  0
 27 28  1  0
 25 29  1  0
 26 29  1  0
 29 31  1  0
 30 31  1  0
 31 32  1  0
 32 33  1  0
 33 34  1  0
 28 35  1  0
 24 36  1  0
 36 37  1  0
 36 38  1  0
 38 39  1  0
 39 40  1  0
 40 41  1  0
 41 42  1  0
 39 43  1  0
 42 43  1  0
 43 44  1  0
 44 45  1  0
 38 46  1  0
 45 46  1  0
  1 47  1  6
  2 48  1  0
  2 49  1  0
  3 50  1  0
  3 51  1  0
  4 52  1  0
  4 53  1  0
  5 54  1  1
  7 55  1  0
  8 56  1  0
  9 57  1  0
  9 58  1  0
 10 59  1  0
 10 60  1  0
 11 61  1  0
 11 62  1  0
 12 63  1  0
 12 64  1  0
 12 65  1  0
 14 66  1  0
 14 67  1  0
 14 68  1  0
 15 69  1  0
 16 70  1  0
 17 71  1  0
 17 72  1  0
 18 73  1  0
 18 74  1  0
 19 75  1  0
 20 76  1  0
 21 77  1  0
 22 78  1  0
 22 79  1  0
 23 80  1  0
 24 81  1  6
 25 82  1  0
 25 83  1  0
 26 84  1  0
 26 85  1  0
 27 86  1  0
 27 87  1  0
 28 88  1  1
 30 89  1  0
 31 90  1  0
 32 91  1  0
 32 92  1  0
 33 93  1  0
 33 94  1  0
 34 95  1  0
 34 96  1  0
 35 97  1  0
 35 98  1  0
 35 99  1  0
 37100  1  0
 37101  1  0
 37102  1  0
 38103  1  0
 39104  1  0
 40105  1  0
 40106  1  0
 41107  1  0
 41108  1  0
 42109  1  0
 43110  1  0
 44111  1  0
 45112  1  0
 45113  1  0
 46114  1  0
M  END
>  <PDBID>  (1) 
3FUP

>  <PDB ID>  (1) 
3FUP

>  <Generic Name>  (1) 
Tofacitinib

>  <Brand Name>  (1) 
Xeljanz#Xeljanz XR

>  <DrugBank ID>  (1) 
DB08895

>  <ATC Codes>  (1) 
L04AA29

>  <Ligand ID>  (1) 
MI1

>  <Target Name>  (1) 
Tyrosine-protein kinase JAK2

>  <UniProt ID>  (1) 
O60674

>  <PDB ID.1>  (1) 
3FUP

>  <Seq. Identity>  (1) 
100%

$$$$
