PDB_DB01034_04
     RDKit          3D

 82 82  0  0  0  0  0  0  0  0999 V2000
    4.2975   -2.1855   -1.6695 O   0  0  0  0  0  0  0  0  0  0  0  0
    4.2730   -0.8978   -1.0954 C   0  0  0  0  0  0  0  0  0  0  0  0
    5.2907   -0.0942   -1.7895 N   0  0  0  0  0  0  0  0  0  0  0  0
    2.9531   -0.2990   -1.3839 C   0  0  2  0  0  0  0  0  0  0  0  0
    2.8655    1.0860   -0.9220 O   0  0  0  0  0  0  0  0  0  0  0  0
    1.9117    0.0411   -0.4980 C   0  0  2  0  0  0  0  0  0  0  0  0
    1.8614   -0.0517    0.9757 C   0  0  1  0  0  0  0  0  0  0  0  0
    3.0643   -0.3657    1.5853 O   0  0  0  0  0  0  0  0  0  0  0  0
    1.3669    1.2218    1.6392 C   0  0  0  0  0  0  0  0  0  0  0  0
   -0.0126    1.5993    1.2090 C   0  0  0  0  0  0  0  0  0  0  0  0
   -1.0609    0.5529    1.5201 C   0  0  0  0  0  0  0  0  0  0  0  0
   -2.3821    1.1042    1.0200 C   0  0  0  0  0  0  0  0  0  0  0  0
   -3.5321    0.1704    1.2597 C   0  0  0  0  0  0  0  0  0  0  0  0
   -3.3511   -1.1534    0.5774 C   0  0  0  0  0  0  0  0  0  0  0  0
   -3.2208   -1.0353   -0.9165 C   0  0  0  0  0  0  0  0  0  0  0  0
   -4.4059   -0.4137   -1.5749 C   0  0  0  0  0  0  0  0  0  0  0  0
    5.6615   -1.2153    0.6849 O   0  0  0  0  0  0  0  0  0  0  0  0
    4.7926   -0.1844    1.0558 C   0  0  0  0  0  0  0  0  0  0  0  0
    5.5232    0.5439    2.1067 N   0  0  0  0  0  0  0  0  0  0  0  0
    4.4797    0.7184   -0.1081 C   0  0  2  0  0  0  0  0  0  0  0  0
    3.6715    1.8693    0.1843 O   0  0  0  0  0  0  0  0  0  0  0  0
    3.2846    0.8463   -0.8248 C   0  0  2  0  0  0  0  0  0  0  0  0
    1.9102    0.3641   -0.5135 C   0  0  0  0  0  0  0  0  0  0  0  0
    1.7522   -0.2185    0.7294 O   0  0  0  0  0  0  0  0  0  0  0  0
    1.3638   -0.5661   -1.5840 C   0  0  0  0  0  0  0  0  0  0  0  0
   -0.0281   -1.0506   -1.2587 C   0  0  0  0  0  0  0  0  0  0  0  0
   -1.0185    0.0695   -1.1290 C   0  0  0  0  0  0  0  0  0  0  0  0
   -2.4046   -0.5043   -0.8016 C   0  0  0  0  0  0  0  0  0  0  0  0
   -3.3833    0.6620   -0.6775 C   0  0  0  0  0  0  0  0  0  0  0  0
   -4.7693    0.1553   -0.3577 C   0  0  0  0  0  0  0  0  0  0  0  0
   -4.8274   -0.6093    0.9303 C   0  0  0  0  0  0  0  0  0  0  0  0
   -4.3871    0.2719    2.0982 C   0  0  0  0  0  0  0  0  0  0  0  0
    5.0013   -2.7476   -1.2982 H   0  0  0  0  0  0  0  0  0  0  0  0
    4.5893   -0.9707   -0.0642 H   0  0  0  0  0  0  0  0  0  0  0  0
    4.8575    0.2477   -2.6609 H   0  0  0  0  0  0  0  0  0  0  0  0
    5.5768    0.6725   -1.1377 H   0  0  0  0  0  0  0  0  0  0  0  0
    2.7200   -0.3064   -2.4915 H   0  0  0  0  0  0  0  0  0  0  0  0
    0.9028    0.2969   -0.9403 H   0  0  0  0  0  0  0  0  0  0  0  0
    1.1552   -0.8726    1.2582 H   0  0  0  0  0  0  0  0  0  0  0  0
    2.9278   -0.3761    2.5514 H   0  0  0  0  0  0  0  0  0  0  0  0
    1.5060    1.2067    2.7232 H   0  0  0  0  0  0  0  0  0  0  0  0
    2.0431    2.0413    1.2580 H   0  0  0  0  0  0  0  0  0  0  0  0
   -0.0072    1.7835    0.1148 H   0  0  0  0  0  0  0  0  0  0  0  0
   -0.2916    2.5226    1.7616 H   0  0  0  0  0  0  0  0  0  0  0  0
   -0.7985   -0.3891    0.9773 H   0  0  0  0  0  0  0  0  0  0  0  0
   -1.0760    0.3147    2.5965 H   0  0  0  0  0  0  0  0  0  0  0  0
   -2.5388    2.0652    1.5501 H   0  0  0  0  0  0  0  0  0  0  0  0
   -2.2624    1.2951   -0.0554 H   0  0  0  0  0  0  0  0  0  0  0  0
   -3.6694   -0.0109    2.3454 H   0  0  0  0  0  0  0  0  0  0  0  0
   -4.4482    0.6830    0.9140 H   0  0  0  0  0  0  0  0  0  0  0  0
   -2.4215   -1.6214    0.9614 H   0  0  0  0  0  0  0  0  0  0  0  0
   -4.1708   -1.8516    0.8151 H   0  0  0  0  0  0  0  0  0  0  0  0
   -3.0624   -2.0447   -1.3472 H   0  0  0  0  0  0  0  0  0  0  0  0
   -2.3231   -0.4413   -1.2000 H   0  0  0  0  0  0  0  0  0  0  0  0
   -5.3670   -0.6459   -1.0683 H   0  0  0  0  0  0  0  0  0  0  0  0
   -4.4866   -0.8276   -2.6032 H   0  0  0  0  0  0  0  0  0  0  0  0
   -4.2751    0.6973   -1.7242 H   0  0  0  0  0  0  0  0  0  0  0  0
    6.1211   -1.0543   -0.1581 H   0  0  0  0  0  0  0  0  0  0  0  0
    3.9003   -0.6816    1.4782 H   0  0  0  0  0  0  0  0  0  0  0  0
    5.0995    0.4287    3.0294 H   0  0  0  0  0  0  0  0  0  0  0  0
    5.5759    1.5293    1.8301 H   0  0  0  0  0  0  0  0  0  0  0  0
    5.4352    1.0786   -0.5964 H   0  0  0  0  0  0  0  0  0  0  0  0
    3.3332    1.2701   -1.8751 H   0  0  0  0  0  0  0  0  0  0  0  0
    1.1924    1.2416   -0.5195 H   0  0  0  0  0  0  0  0  0  0  0  0
    1.6588   -1.1878    0.7170 H   0  0  0  0  0  0  0  0  0  0  0  0
    1.3998   -0.1150   -2.5836 H   0  0  0  0  0  0  0  0  0  0  0  0
    2.0091   -1.4935   -1.5943 H   0  0  0  0  0  0  0  0  0  0  0  0
   -0.0132   -1.6763   -0.3549 H   0  0  0  0  0  0  0  0  0  0  0  0
   -0.3504   -1.6925   -2.0941 H   0  0  0  0  0  0  0  0  0  0  0  0
   -1.1367    0.5963   -2.0983 H   0  0  0  0  0  0  0  0  0  0  0  0
   -0.7847    0.8105   -0.3613 H   0  0  0  0  0  0  0  0  0  0  0  0
   -2.3443   -1.1012    0.1166 H   0  0  0  0  0  0  0  0  0  0  0  0
   -2.7291   -1.1592   -1.6270 H   0  0  0  0  0  0  0  0  0  0  0  0
   -3.0655    1.3479    0.1390 H   0  0  0  0  0  0  0  0  0  0  0  0
   -3.3576    1.2458   -1.6039 H   0  0  0  0  0  0  0  0  0  0  0  0
   -5.4913    0.9811   -0.3657 H   0  0  0  0  0  0  0  0  0  0  0  0
   -5.0656   -0.5526   -1.1704 H   0  0  0  0  0  0  0  0  0  0  0  0
   -5.8972   -0.9012    1.0754 H   0  0  0  0  0  0  0  0  0  0  0  0
   -4.1804   -1.4965    0.8854 H   0  0  0  0  0  0  0  0  0  0  0  0
   -4.3073    1.3117    1.7569 H   0  0  0  0  0  0  0  0  0  0  0  0
   -3.4456   -0.1192    2.5567 H   0  0  0  0  0  0  0  0  0  0  0  0
   -5.1776    0.2372    2.8832 H   0  0  0  0  0  0  0  0  0  0  0  0
  1  2  1  0
  2  3  1  0
  2  4  1  0
  4  5  1  0
  4  6  1  0
  5  6  1  0
  6  7  1  0
  7  8  1  0
  7  9  1  0
  9 10  1  0
 10 11  1  0
 11 12  1  0
 12 13  1  0
 13 14  1  0
 14 15  1  0
 15 16  1  0
 17 18  1  0
 18 19  1  0
 18 20  1  0
 20 21  1  0
 20 22  1  0
 21 22  1  0
 22 23  1  0
 23 24  1  0
 23 25  1  0
 25 26  1  0
 26 27  1  0
 27 28  1  0
 28 29  1  0
 29 30  1  0
 30 31  1  0
 31 32  1  0
  1 33  1  0
  2 34  1  0
  3 35  1  0
  3 36  1  0
  4 37  1  6
  6 38  1  6
  7 39  1  6
  8 40  1  0
  9 41  1  0
  9 42  1  0
 10 43  1  0
 10 44  1  0
 11 45  1  0
 11 46  1  0
 12 47  1  0
 12 48  1  0
 13 49  1  0
 13 50  1  0
 14 51  1  0
 14 52  1  0
 15 53  1  0
 15 54  1  0
 16 55  1  0
 16 56  1  0
 16 57  1  0
 17 58  1  0
 18 59  1  0
 19 60  1  0
 19 61  1  0
 20 62  1  6
 22 63  1  6
 23 64  1  0
 24 65  1  0
 25 66  1  0
 25 67  1  0
 26 68  1  0
 26 69  1  0
 27 70  1  0
 27 71  1  0
 28 72  1  0
 28 73  1  0
 29 74  1  0
 29 75  1  0
 30 76  1  0
 30 77  1  0
 31 78  1  0
 31 79  1  0
 32 80  1  0
 32 81  1  0
 32 82  1  0
M  END
>  <PDBID>  (1) 
4LS7

>  <PDB ID>  (1) 
4LS7

>  <Generic Name>  (1) 
Cerulenin

>  <Brand Name>  (1) 
Helicocerin

>  <DrugBank ID>  (1) 
DB01034

>  <ATC Codes>  (1) 
nan

>  <Ligand ID>  (1) 
1X9

>  <Target Name>  (1) 
3-oxoacyl-[acyl-carrier-protein] synthase 2

>  <UniProt ID>  (1) 
P0AAI5

>  <PDB ID.1>  (1) 
4LS7

>  <Seq. Identity>  (1) 
51%

$$$$
