PDB_DB00540_08
     RDKit          3D

 55 57  0  0  0  0  0  0  0  0999 V2000
    5.4893    0.5944   -1.0616 C   0  0  0  0  0  0  0  0  0  0  0  0
    5.1282    0.2690    0.2861 N   0  0  0  0  0  0  0  0  0  0  0  0
    3.9180   -0.5020    0.3962 C   0  0  0  0  0  0  0  0  0  0  0  0
    2.7039    0.3646   -0.0183 C   0  0  0  0  0  0  0  0  0  0  0  0
    1.5529   -0.5118    0.1272 C   0  0  0  0  0  0  0  0  0  0  0  0
    0.1719    0.0059   -0.2139 C   0  0  0  0  0  0  0  0  0  0  0  0
   -0.1803    1.1425    0.6012 C   0  0  0  0  0  0  0  0  0  0  0  0
    0.3000    2.4357   -0.0578 C   0  0  0  0  0  0  0  0  0  0  0  0
   -0.7074    3.5524   -0.0499 C   0  0  0  0  0  0  0  0  0  0  0  0
   -2.0815    3.2122   -0.4839 C   0  0  0  0  0  0  0  0  0  0  0  0
   -0.6914   -1.2010   -0.3323 C   0  0  0  0  0  0  0  0  0  0  0  0
   -1.1934   -1.4657   -1.7513 C   0  0  0  0  0  0  0  0  0  0  0  0
   -1.5885   -2.9153   -1.8503 C   0  0  0  0  0  0  0  0  0  0  0  0
   -2.4593   -3.4054   -0.7666 C   0  0  0  0  0  0  0  0  0  0  0  0
   -2.2386   -2.8404    0.5820 C   0  0  0  0  0  0  0  0  0  0  0  0
   -1.8713   -1.3438    0.5417 C   0  0  0  0  0  0  0  0  0  0  0  0
   -1.6249   -0.9390    1.9708 C   0  0  0  0  0  0  0  0  0  0  0  0
   -2.1439    0.4783    2.0697 C   0  0  0  0  0  0  0  0  0  0  0  0
   -1.5589    1.4185    1.0676 C   0  0  0  0  0  0  0  0  0  0  0  0
   -2.5235    1.8335   -0.0132 C   0  0  0  0  0  0  0  0  0  0  0  0
    6.5686    0.8777   -1.0965 H   0  0  0  0  0  0  0  0  0  0  0  0
    4.8886    1.4234   -1.4600 H   0  0  0  0  0  0  0  0  0  0  0  0
    5.3854   -0.3458   -1.6712 H   0  0  0  0  0  0  0  0  0  0  0  0
    5.9062   -0.1021    0.8501 H   0  0  0  0  0  0  0  0  0  0  0  0
    3.7912   -0.7218    1.4950 H   0  0  0  0  0  0  0  0  0  0  0  0
    3.9690   -1.4234   -0.1804 H   0  0  0  0  0  0  0  0  0  0  0  0
    2.9222    0.6791   -1.0358 H   0  0  0  0  0  0  0  0  0  0  0  0
    2.7692    1.1904    0.7429 H   0  0  0  0  0  0  0  0  0  0  0  0
    1.5282   -0.9648    1.1620 H   0  0  0  0  0  0  0  0  0  0  0  0
    1.7165   -1.4152   -0.5276 H   0  0  0  0  0  0  0  0  0  0  0  0
    0.2971    0.3720   -1.2863 H   0  0  0  0  0  0  0  0  0  0  0  0
    0.4291    1.0820    1.5602 H   0  0  0  0  0  0  0  0  0  0  0  0
    0.5944    2.2595   -1.1138 H   0  0  0  0  0  0  0  0  0  0  0  0
    1.1781    2.8861    0.4820 H   0  0  0  0  0  0  0  0  0  0  0  0
   -0.6658    4.1345    0.9162 H   0  0  0  0  0  0  0  0  0  0  0  0
   -0.3107    4.2984   -0.8044 H   0  0  0  0  0  0  0  0  0  0  0  0
   -2.2618    3.3613   -1.5754 H   0  0  0  0  0  0  0  0  0  0  0  0
   -2.7792    3.9390    0.0159 H   0  0  0  0  0  0  0  0  0  0  0  0
   -0.0790   -2.1446   -0.1436 H   0  0  0  0  0  0  0  0  0  0  0  0
   -2.1154   -0.8730   -1.9050 H   0  0  0  0  0  0  0  0  0  0  0  0
   -0.4168   -1.2675   -2.5002 H   0  0  0  0  0  0  0  0  0  0  0  0
   -0.6684   -3.5236   -1.9628 H   0  0  0  0  0  0  0  0  0  0  0  0
   -2.1417   -3.0182   -2.8283 H   0  0  0  0  0  0  0  0  0  0  0  0
   -3.5328   -3.2730   -1.0704 H   0  0  0  0  0  0  0  0  0  0  0  0
   -2.3316   -4.5217   -0.7041 H   0  0  0  0  0  0  0  0  0  0  0  0
   -3.1621   -2.9404    1.1873 H   0  0  0  0  0  0  0  0  0  0  0  0
   -1.4347   -3.3716    1.1410 H   0  0  0  0  0  0  0  0  0  0  0  0
   -2.8117   -0.8751    0.1587 H   0  0  0  0  0  0  0  0  0  0  0  0
   -0.5800   -1.0017    2.2752 H   0  0  0  0  0  0  0  0  0  0  0  0
   -2.2724   -1.5673    2.6284 H   0  0  0  0  0  0  0  0  0  0  0  0
   -2.0326    0.7784    3.1258 H   0  0  0  0  0  0  0  0  0  0  0  0
   -3.2439    0.4128    1.8867 H   0  0  0  0  0  0  0  0  0  0  0  0
   -1.4374    2.3801    1.6768 H   0  0  0  0  0  0  0  0  0  0  0  0
   -3.5441    1.8662    0.4313 H   0  0  0  0  0  0  0  0  0  0  0  0
   -2.5228    1.2271   -0.9131 H   0  0  0  0  0  0  0  0  0  0  0  0
  1  2  1  0
  2  3  1  0
  3  4  1  0
  4  5  1  0
  5  6  1  0
  6  7  1  0
  7  8  1  0
  8  9  1  0
  9 10  1  0
  6 11  1  0
 11 12  1  0
 12 13  1  0
 13 14  1  0
 14 15  1  0
 11 16  1  0
 15 16  1  0
 16 17  1  0
 17 18  1  0
  7 19  1  0
 18 19  1  0
 10 20  1  0
 19 20  1  0
  1 21  1  0
  1 22  1  0
  1 23  1  0
  2 24  1  0
  3 25  1  0
  3 26  1  0
  4 27  1  0
  4 28  1  0
  5 29  1  0
  5 30  1  0
  6 31  1  0
  7 32  1  0
  8 33  1  0
  8 34  1  0
  9 35  1  0
  9 36  1  0
 10 37  1  0
 10 38  1  0
 11 39  1  0
 12 40  1  0
 12 41  1  0
 13 42  1  0
 13 43  1  0
 14 44  1  0
 14 45  1  0
 15 46  1  0
 15 47  1  0
 16 48  1  0
 17 49  1  0
 17 50  1  0
 18 51  1  0
 18 52  1  0
 19 53  1  0
 20 54  1  0
 20 55  1  0
M  END
>  <PDBID>  (1) 
4M48

>  <PDB ID>  (1) 
4M48

>  <Generic Name>  (1) 
Nortriptyline

>  <Brand Name>  (1) 
Apo-nortriptyline - Cap 10mg#Apo-nortriptyline - Cap 25mg#Ava-nortriptyline#Aventyl#Dom-nortriptyline 10mg Capsules#Dom-nortriptyline 25mg Capsules#Gen-nortriptyline Capsules 10mg#Gen-nortriptyline Capsules 25mg#Nortriptyline#Nortriptyline Hydrochloride#Nortriptyline-10#Nortriptyline-25#Norventyl#Nu-nortriptyline - Cap 10mg#Nu-nortriptyline - Cap 25mg#PMS-nortriptyline#Pamelor#Ratio-nortriptyline#Teva-nortriptyline#Allegron#Noritren#Norpress#Nortrilen#Sensoval

>  <DrugBank ID>  (1) 
DB00540

>  <ATC Codes>  (1) 
N06AA10

>  <Ligand ID>  (1) 
21B

>  <Target Name>  (1) 
Sodium-dependent noradrenaline transporter

>  <UniProt ID>  (1) 
P23975

>  <PDB ID.1>  (1) 
4M48

>  <Seq. Identity>  (1) 
57%

$$$$
