PDB_DB05239_00
     RDKit          3D

 65 68  0  0  0  0  0  0  0  0999 V2000
    0.0286   -2.0071   -1.8558 O   0  0  0  0  0  0  0  0  0  0  0  0
    0.1759   -0.7207   -1.2751 C   0  0  0  0  0  0  0  0  0  0  0  0
   -1.1088   -0.2520   -0.6892 C   0  0  0  0  0  0  0  0  0  0  0  0
   -1.0300    1.0691   -0.0771 C   0  0  0  0  0  0  0  0  0  0  0  0
   -0.9356    2.2198   -1.0404 C   0  0  0  0  0  0  0  0  0  0  0  0
   -2.0565    2.1786   -2.0546 C   0  0  2  0  0  0  0  0  0  0  0  0
   -3.2178    2.7507   -1.5346 F   0  0  0  0  0  0  0  0  0  0  0  0
   -2.3233    0.8217   -2.5942 C   0  0  1  0  0  0  0  0  0  0  0  0
   -1.4566    0.7201   -3.7102 F   0  0  0  0  0  0  0  0  0  0  0  0
   -2.2559   -0.3488   -1.7295 C   0  0  2  0  0  0  0  0  0  0  0  0
   -3.2917   -1.0945   -1.2771 N   0  0  0  0  0  0  0  0  0  0  0  0
   -4.1723   -1.0822   -0.2525 C   0  0  0  0  0  0  0  0  0  0  0  0
   -3.6927   -1.2431    1.1832 C   0  0  0  0  0  0  0  0  0  0  0  0
   -4.9593   -1.3692    2.0577 C   0  0  0  0  0  0  0  0  0  0  0  0
   -5.4543    0.0502    2.2343 C   0  0  1  0  0  0  0  0  0  0  0  0
   -4.2478    0.9859    3.7419 I   0  0  0  0  0  0  0  0  0  0  0  0
   -5.3285   -0.0790   -0.2718 C   0  0  0  0  0  0  0  0  0  0  0  0
   -5.3667    0.6727   -1.4004 F   0  0  0  0  0  0  0  0  0  0  0  0
   -5.2913    0.8175    0.9515 C   0  0  0  0  0  0  0  0  0  0  0  0
    1.2657   -0.7791   -0.4200 N   0  0  0  0  0  0  0  0  0  0  0  0
    1.9277    0.2761    0.1902 C   0  0  0  0  0  0  0  0  0  0  0  0
    3.2689   -0.3339   -0.2235 C   0  0  0  0  0  0  0  0  0  0  0  0
    2.4533   -1.4758   -0.7182 C   0  0  0  0  0  0  0  0  0  0  0  0
    3.8712    0.3353   -1.2873 O   0  0  0  0  0  0  0  0  0  0  0  0
    4.1339   -0.5493    0.9788 C   0  0  2  0  0  0  0  0  0  0  0  0
    4.4349    0.8231    1.5557 C   0  0  0  0  0  0  0  0  0  0  0  0
    5.8138    0.8867    2.1607 C   0  0  0  0  0  0  0  0  0  0  0  0
    6.8947    0.4399    1.2323 C   0  0  0  0  0  0  0  0  0  0  0  0
    6.3689   -0.5145    0.1994 C   0  0  0  0  0  0  0  0  0  0  0  0
    5.3080   -1.3225    0.7131 N   0  0  0  0  0  0  0  0  0  0  0  0
    0.0263   -2.7146   -1.1795 H   0  0  0  0  0  0  0  0  0  0  0  0
    0.4719   -0.0540   -2.1580 H   0  0  0  0  0  0  0  0  0  0  0  0
   -1.3723   -0.9943    0.1220 H   0  0  0  0  0  0  0  0  0  0  0  0
   -0.2555    1.1468    0.6710 H   0  0  0  0  0  0  0  0  0  0  0  0
   -1.9918    1.2573    0.5229 H   0  0  0  0  0  0  0  0  0  0  0  0
    0.0598    2.2447   -1.5118 H   0  0  0  0  0  0  0  0  0  0  0  0
   -1.0527    3.1542   -0.4616 H   0  0  0  0  0  0  0  0  0  0  0  0
   -1.7525    2.8722   -2.8645 H   0  0  0  0  0  0  0  0  0  0  0  0
   -3.3218    0.8626   -3.1081 H   0  0  0  0  0  0  0  0  0  0  0  0
   -1.7360   -1.1181   -2.4447 H   0  0  0  0  0  0  0  0  0  0  0  0
   -3.7192   -1.5768   -2.1618 H   0  0  0  0  0  0  0  0  0  0  0  0
   -4.7454   -2.0791   -0.3448 H   0  0  0  0  0  0  0  0  0  0  0  0
   -3.1640   -0.4115    1.6052 H   0  0  0  0  0  0  0  0  0  0  0  0
   -3.0780   -2.1720    1.3047 H   0  0  0  0  0  0  0  0  0  0  0  0
   -5.7064   -2.0190    1.5681 H   0  0  0  0  0  0  0  0  0  0  0  0
   -4.6066   -1.7503    3.0348 H   0  0  0  0  0  0  0  0  0  0  0  0
   -6.5006    0.0779    2.6129 H   0  0  0  0  0  0  0  0  0  0  0  0
   -6.3306   -0.5818   -0.2007 H   0  0  0  0  0  0  0  0  0  0  0  0
   -4.4010    1.4567    0.9844 H   0  0  0  0  0  0  0  0  0  0  0  0
   -6.1680    1.4928    0.8606 H   0  0  0  0  0  0  0  0  0  0  0  0
    1.8255    0.2694    1.3028 H   0  0  0  0  0  0  0  0  0  0  0  0
    1.8602    1.3116   -0.2387 H   0  0  0  0  0  0  0  0  0  0  0  0
    2.6202   -1.7723   -1.7783 H   0  0  0  0  0  0  0  0  0  0  0  0
    2.5794   -2.3691   -0.0459 H   0  0  0  0  0  0  0  0  0  0  0  0
    4.0145   -0.3248   -2.0265 H   0  0  0  0  0  0  0  0  0  0  0  0
    3.4876   -1.0489    1.7624 H   0  0  0  0  0  0  0  0  0  0  0  0
    4.3889    1.5824    0.7259 H   0  0  0  0  0  0  0  0  0  0  0  0
    3.7115    1.1220    2.3446 H   0  0  0  0  0  0  0  0  0  0  0  0
    5.9569    1.9678    2.4589 H   0  0  0  0  0  0  0  0  0  0  0  0
    5.7812    0.2707    3.1040 H   0  0  0  0  0  0  0  0  0  0  0  0
    7.2756    1.3516    0.6975 H   0  0  0  0  0  0  0  0  0  0  0  0
    7.7171   -0.0460    1.8111 H   0  0  0  0  0  0  0  0  0  0  0  0
    7.1965   -1.2032   -0.1275 H   0  0  0  0  0  0  0  0  0  0  0  0
    6.1059    0.0659   -0.7067 H   0  0  0  0  0  0  0  0  0  0  0  0
    5.0671   -2.1465    0.1554 H   0  0  0  0  0  0  0  0  0  0  0  0
  1  2  1  0
  2  3  1  0
  3  4  1  0
  4  5  1  0
  5  6  1  0
  6  7  1  0
  6  8  1  0
  8  9  1  0
  3 10  1  0
  8 10  1  0
 10 11  1  0
 11 12  1  0
 12 13  1  0
 13 14  1  0
 14 15  1  0
 15 16  1  0
 12 17  1  0
 17 18  1  0
 15 19  1  0
 17 19  1  0
  2 20  1  0
 20 21  1  0
 21 22  1  0
 20 23  1  0
 22 23  1  0
 22 24  1  0
 22 25  1  0
 25 26  1  0
 26 27  1  0
 27 28  1  0
 28 29  1  0
 25 30  1  0
 29 30  1  0
  1 31  1  0
  2 32  1  0
  3 33  1  0
  4 34  1  0
  4 35  1  0
  5 36  1  0
  5 37  1  0
  6 38  1  6
  8 39  1  6
 10 40  1  6
 11 41  1  0
 12 42  1  0
 13 43  1  0
 13 44  1  0
 14 45  1  0
 14 46  1  0
 15 47  1  1
 17 48  1  0
 19 49  1  0
 19 50  1  0
 21 51  1  0
 21 52  1  0
 23 53  1  0
 23 54  1  0
 24 55  1  0
 25 56  1  1
 26 57  1  0
 26 58  1  0
 27 59  1  0
 27 60  1  0
 28 61  1  0
 28 62  1  0
 29 63  1  0
 29 64  1  0
 30 65  1  0
M  END
>  <PDBID>  (1) 
4LMN

>  <PDB ID>  (1) 
4LMN

>  <Generic Name>  (1) 
Cobimetinib

>  <Brand Name>  (1) 
Cotellic

>  <DrugBank ID>  (1) 
DB05239

>  <ATC Codes>  (1) 
nan

>  <Ligand ID>  (1) 
EUI

>  <Target Name>  (1) 
Dual specificity mitogen-activated protein kinase kinase 1

>  <UniProt ID>  (1) 
Q02750

>  <PDB ID.1>  (1) 
4LMN

>  <Seq. Identity>  (1) 
97%

$$$$
