PDB_DB13139_03
     RDKit          3D

 88 88  0  0  0  0  0  0  0  0999 V2000
    4.2291    2.3072    1.0778 O   0  0  0  0  0  0  0  0  0  0  0  0
    3.6407    2.2618   -0.1582 C   0  0  0  0  0  0  0  0  0  0  0  0
    2.8941    0.9881   -0.4614 C   0  0  0  0  0  0  0  0  0  0  0  0
    3.7980   -0.2245   -0.4062 C   0  0  0  0  0  0  0  0  0  0  0  0
    4.0802   -0.6364    0.8822 O   0  0  0  0  0  0  0  0  0  0  0  0
    3.0735   -1.3478   -1.1308 C   0  0  0  0  0  0  0  0  0  0  0  0
    1.5825   -1.0773   -1.2149 C   0  0  0  0  0  0  0  0  0  0  0  0
    1.6695    0.7864    0.4045 C   0  0  0  0  0  0  0  0  0  0  0  0
    1.1574   -0.5820    0.1701 C   0  0  0  0  0  0  0  0  0  0  0  0
   -0.3241   -0.7737    0.3359 C   0  0  1  0  0  0  0  0  0  0  0  0
   -0.7183   -0.3330    1.5801 O   0  0  0  0  0  0  0  0  0  0  0  0
   -1.1552   -0.2662   -0.7633 C   0  0  0  0  0  0  0  0  0  0  0  0
   -2.4883   -0.6147   -0.7999 N   0  0  0  0  0  0  0  0  0  0  0  0
   -3.5085   -0.2333    0.0411 C   0  0  0  0  0  0  0  0  0  0  0  0
   -3.5174   -0.6474    1.4713 C   0  0  0  0  0  0  0  0  0  0  0  0
   -4.8279   -0.7895   -0.5630 C   0  0  0  0  0  0  0  0  0  0  0  0
   -3.7670    1.2900    0.0267 C   0  0  0  0  0  0  0  0  0  0  0  0
    4.2291    2.3072    1.0778 O   0  0  0  0  0  0  0  0  0  0  0  0
    3.6407    2.2618   -0.1582 C   0  0  0  0  0  0  0  0  0  0  0  0
    2.8941    0.9881   -0.4614 C   0  0  0  0  0  0  0  0  0  0  0  0
    3.7980   -0.2245   -0.4062 C   0  0  0  0  0  0  0  0  0  0  0  0
    4.0802   -0.6364    0.8822 O   0  0  0  0  0  0  0  0  0  0  0  0
    3.0735   -1.3478   -1.1308 C   0  0  0  0  0  0  0  0  0  0  0  0
    1.5825   -1.0773   -1.2149 C   0  0  0  0  0  0  0  0  0  0  0  0
    1.6695    0.7864    0.4045 C   0  0  0  0  0  0  0  0  0  0  0  0
    1.1574   -0.5820    0.1701 C   0  0  0  0  0  0  0  0  0  0  0  0
   -0.3241   -0.7737    0.3359 C   0  0  1  0  0  0  0  0  0  0  0  0
   -0.7183   -0.3330    1.5801 O   0  0  0  0  0  0  0  0  0  0  0  0
   -1.1552   -0.2662   -0.7633 C   0  0  0  0  0  0  0  0  0  0  0  0
   -2.4883   -0.6147   -0.7999 N   0  0  0  0  0  0  0  0  0  0  0  0
   -3.5085   -0.2333    0.0411 C   0  0  0  0  0  0  0  0  0  0  0  0
   -3.5174   -0.6474    1.4713 C   0  0  0  0  0  0  0  0  0  0  0  0
   -4.8279   -0.7895   -0.5630 C   0  0  0  0  0  0  0  0  0  0  0  0
   -3.7670    1.2900    0.0267 C   0  0  0  0  0  0  0  0  0  0  0  0
    5.1914    2.0903    1.0018 H   0  0  0  0  0  0  0  0  0  0  0  0
    4.4390    2.3465   -0.9306 H   0  0  0  0  0  0  0  0  0  0  0  0
    2.9504    3.1058   -0.3563 H   0  0  0  0  0  0  0  0  0  0  0  0
    2.5974    1.0885   -1.5466 H   0  0  0  0  0  0  0  0  0  0  0  0
    4.7567   -0.0008   -0.9047 H   0  0  0  0  0  0  0  0  0  0  0  0
    3.9954    0.0370    1.5728 H   0  0  0  0  0  0  0  0  0  0  0  0
    3.5377   -1.4848   -2.1279 H   0  0  0  0  0  0  0  0  0  0  0  0
    3.2130   -2.2999   -0.5772 H   0  0  0  0  0  0  0  0  0  0  0  0
    1.3014   -0.4046   -2.0220 H   0  0  0  0  0  0  0  0  0  0  0  0
    1.0686   -2.0546   -1.4046 H   0  0  0  0  0  0  0  0  0  0  0  0
    2.0127    0.8895    1.4591 H   0  0  0  0  0  0  0  0  0  0  0  0
    0.9777    1.6041    0.1997 H   0  0  0  0  0  0  0  0  0  0  0  0
    1.6477   -1.2682    0.8918 H   0  0  0  0  0  0  0  0  0  0  0  0
   -0.4500   -1.9038    0.3838 H   0  0  0  0  0  0  0  0  0  0  0  0
   -0.6482   -1.0169    2.2901 H   0  0  0  0  0  0  0  0  0  0  0  0
   -0.9860    0.8773   -0.7706 H   0  0  0  0  0  0  0  0  0  0  0  0
   -0.7168   -0.5274   -1.7865 H   0  0  0  0  0  0  0  0  0  0  0  0
   -2.8467   -1.0047   -1.7120 H   0  0  0  0  0  0  0  0  0  0  0  0
   -4.6139   -0.8179    1.7689 H   0  0  0  0  0  0  0  0  0  0  0  0
   -3.2372    0.1850    2.1677 H   0  0  0  0  0  0  0  0  0  0  0  0
   -3.0453   -1.5993    1.7129 H   0  0  0  0  0  0  0  0  0  0  0  0
   -5.1642   -0.0998   -1.3641 H   0  0  0  0  0  0  0  0  0  0  0  0
   -4.6252   -1.7636   -1.0568 H   0  0  0  0  0  0  0  0  0  0  0  0
   -5.5763   -0.9668    0.2110 H   0  0  0  0  0  0  0  0  0  0  0  0
   -2.9466    1.8338    0.5045 H   0  0  0  0  0  0  0  0  0  0  0  0
   -4.6938    1.4305    0.6190 H   0  0  0  0  0  0  0  0  0  0  0  0
   -3.9572    1.6169   -1.0100 H   0  0  0  0  0  0  0  0  0  0  0  0
    5.1914    2.0903    1.0018 H   0  0  0  0  0  0  0  0  0  0  0  0
    4.4390    2.3465   -0.9306 H   0  0  0  0  0  0  0  0  0  0  0  0
    2.9504    3.1058   -0.3563 H   0  0  0  0  0  0  0  0  0  0  0  0
    2.5974    1.0885   -1.5466 H   0  0  0  0  0  0  0  0  0  0  0  0
    4.7567   -0.0008   -0.9047 H   0  0  0  0  0  0  0  0  0  0  0  0
    3.9954    0.0370    1.5728 H   0  0  0  0  0  0  0  0  0  0  0  0
    3.5377   -1.4848   -2.1279 H   0  0  0  0  0  0  0  0  0  0  0  0
    3.2130   -2.2999   -0.5772 H   0  0  0  0  0  0  0  0  0  0  0  0
    1.3014   -0.4046   -2.0220 H   0  0  0  0  0  0  0  0  0  0  0  0
    1.0686   -2.0546   -1.4046 H   0  0  0  0  0  0  0  0  0  0  0  0
    2.0127    0.8895    1.4591 H   0  0  0  0  0  0  0  0  0  0  0  0
    0.9777    1.6041    0.1997 H   0  0  0  0  0  0  0  0  0  0  0  0
    1.6477   -1.2682    0.8918 H   0  0  0  0  0  0  0  0  0  0  0  0
   -0.4500   -1.9038    0.3838 H   0  0  0  0  0  0  0  0  0  0  0  0
   -0.6482   -1.0169    2.2901 H   0  0  0  0  0  0  0  0  0  0  0  0
   -0.9860    0.8773   -0.7706 H   0  0  0  0  0  0  0  0  0  0  0  0
   -0.7168   -0.5274   -1.7865 H   0  0  0  0  0  0  0  0  0  0  0  0
   -2.8467   -1.0047   -1.7120 H   0  0  0  0  0  0  0  0  0  0  0  0
   -4.6139   -0.8179    1.7689 H   0  0  0  0  0  0  0  0  0  0  0  0
   -3.2372    0.1850    2.1677 H   0  0  0  0  0  0  0  0  0  0  0  0
   -3.0453   -1.5993    1.7129 H   0  0  0  0  0  0  0  0  0  0  0  0
   -5.1642   -0.0998   -1.3641 H   0  0  0  0  0  0  0  0  0  0  0  0
   -4.6252   -1.7636   -1.0568 H   0  0  0  0  0  0  0  0  0  0  0  0
   -5.5763   -0.9668    0.2110 H   0  0  0  0  0  0  0  0  0  0  0  0
   -2.9466    1.8338    0.5045 H   0  0  0  0  0  0  0  0  0  0  0  0
   -4.6938    1.4305    0.6190 H   0  0  0  0  0  0  0  0  0  0  0  0
   -3.9572    1.6169   -1.0100 H   0  0  0  0  0  0  0  0  0  0  0  0
  1  2  1  0
  2  3  1  0
  3  4  1  0
  4  5  1  0
  4  6  1  0
  6  7  1  0
  3  8  1  0
  7  9  1  0
  8  9  1  0
  9 10  1  0
 10 11  1  0
 10 12  1  0
 12 13  1  0
 14 13  1  0
 14 15  1  0
 14 16  1  0
 14 17  1  0
 18 19  1  0
 19 20  1  0
 20 21  1  0
 21 22  1  0
 21 23  1  0
 23 24  1  0
 20 25  1  0
 24 26  1  0
 25 26  1  0
 26 27  1  0
 27 28  1  0
 27 29  1  0
 29 30  1  0
 31 30  1  0
 31 32  1  0
 31 33  1  0
 31 34  1  0
  1 35  1  0
  2 36  1  0
  2 37  1  0
  3 38  1  0
  4 39  1  0
  5 40  1  0
  6 41  1  0
  6 42  1  0
  7 43  1  0
  7 44  1  0
  8 45  1  0
  8 46  1  0
  9 47  1  0
 10 48  1  1
 11 49  1  0
 12 50  1  0
 12 51  1  0
 13 52  1  0
 15 53  1  0
 15 54  1  0
 15 55  1  0
 16 56  1  0
 16 57  1  0
 16 58  1  0
 17 59  1  0
 17 60  1  0
 17 61  1  0
 18 62  1  0
 19 63  1  0
 19 64  1  0
 20 65  1  0
 21 66  1  0
 22 67  1  0
 23 68  1  0
 23 69  1  0
 24 70  1  0
 24 71  1  0
 25 72  1  0
 25 73  1  0
 26 74  1  0
 27 75  1  1
 28 76  1  0
 29 77  1  0
 29 78  1  0
 30 79  1  0
 32 80  1  0
 32 81  1  0
 32 82  1  0
 33 83  1  0
 33 84  1  0
 33 85  1  0
 34 86  1  0
 34 87  1  0
 34 88  1  0
M  END
>  <PDBID>  (1) 
2Y04

>  <PDB ID>  (1) 
2Y04

>  <Generic Name>  (1) 
Levosalbutamol

>  <Brand Name>  (1) 
Levalbuterol#Levalbuterol Hydrochloride#Xopenex

>  <DrugBank ID>  (1) 
DB13139

>  <ATC Codes>  (1) 
nan

>  <Ligand ID>  (1) 
68H

>  <Target Name>  (1) 
Beta-2 adrenergic receptor

>  <UniProt ID>  (1) 
P07550

>  <PDB ID.1>  (1) 
2Y04

>  <Seq. Identity>  (1) 
58%

$$$$
