PDB_DB00428_03
     RDKit          3D

 37 37  0  0  0  0  0  0  0  0999 V2000
    0.5348   -2.7021   -0.0409 O   0  0  0  0  0  0  0  0  0  0  0  0
    1.0758   -1.4922    0.3109 C   0  0  1  0  0  0  0  0  0  0  0  0
    2.4574   -1.2799   -0.2970 C   0  0  2  0  0  0  0  0  0  0  0  0
    3.2422   -2.3795    0.0984 O   0  0  0  0  0  0  0  0  0  0  0  0
    3.0100    0.0062    0.2379 C   0  0  1  0  0  0  0  0  0  0  0  0
    3.6305    0.7955   -0.8758 C   0  0  0  0  0  0  0  0  0  0  0  0
    4.3200    1.9010   -0.3761 O   0  0  0  0  0  0  0  0  0  0  0  0
    2.1323    0.7469    1.0044 O   0  0  0  0  0  0  0  0  0  0  0  0
    0.9142    0.9538    0.4291 C   0  0  1  0  0  0  0  0  0  0  0  0
    0.9278    1.9478   -0.5403 O   0  0  0  0  0  0  0  0  0  0  0  0
    0.2556   -0.3080   -0.0611 C   0  0  2  0  0  0  0  0  0  0  0  0
   -1.0886   -0.4291    0.5045 N   0  0  0  0  0  0  0  0  0  0  0  0
   -2.0686   -0.1592   -0.5559 C   0  0  0  0  0  0  0  0  0  0  0  0
   -1.6150    0.8903   -1.3656 O   0  0  0  0  0  0  0  0  0  0  0  0
   -3.3055    0.1601    0.0491 N   0  0  0  0  0  0  0  0  0  0  0  0
   -4.0549   -0.8171    0.7234 C   0  0  0  0  0  0  0  0  0  0  0  0
   -3.7302    1.4460    0.0342 N   0  0  0  0  0  0  0  0  0  0  0  0
   -4.1385    1.8801   -1.1906 O   0  0  0  0  0  0  0  0  0  0  0  0
    0.7246   -3.3542    0.7057 H   0  0  0  0  0  0  0  0  0  0  0  0
    1.2412   -1.4405    1.4203 H   0  0  0  0  0  0  0  0  0  0  0  0
    2.3606   -1.2934   -1.3975 H   0  0  0  0  0  0  0  0  0  0  0  0
    3.4427   -2.2314    1.0692 H   0  0  0  0  0  0  0  0  0  0  0  0
    3.8479   -0.2696    0.9457 H   0  0  0  0  0  0  0  0  0  0  0  0
    4.3997    0.1563   -1.3596 H   0  0  0  0  0  0  0  0  0  0  0  0
    2.9136    1.0739   -1.6672 H   0  0  0  0  0  0  0  0  0  0  0  0
    3.9562    2.1184    0.5045 H   0  0  0  0  0  0  0  0  0  0  0  0
    0.2500    1.3575    1.2511 H   0  0  0  0  0  0  0  0  0  0  0  0
    0.3182    2.6949   -0.3534 H   0  0  0  0  0  0  0  0  0  0  0  0
    0.1709   -0.1937   -1.1822 H   0  0  0  0  0  0  0  0  0  0  0  0
   -1.2342   -1.4153    0.8620 H   0  0  0  0  0  0  0  0  0  0  0  0
   -2.1529   -1.0674   -1.1633 H   0  0  0  0  0  0  0  0  0  0  0  0
   -1.7955    1.7806   -1.0332 H   0  0  0  0  0  0  0  0  0  0  0  0
   -4.0554   -1.8034    0.1479 H   0  0  0  0  0  0  0  0  0  0  0  0
   -5.1171   -0.4993    0.8854 H   0  0  0  0  0  0  0  0  0  0  0  0
   -3.6330   -1.0538    1.7114 H   0  0  0  0  0  0  0  0  0  0  0  0
   -3.0583    2.0699    0.4996 H   0  0  0  0  0  0  0  0  0  0  0  0
   -5.0784    2.2097   -1.0340 H   0  0  0  0  0  0  0  0  0  0  0  0
  1  2  1  0
  2  3  1  0
  3  4  1  0
  3  5  1  0
  5  6  1  0
  6  7  1  0
  5  8  1  0
  8  9  1  0
  9 10  1  0
  2 11  1  0
  9 11  1  0
 11 12  1  0
 12 13  1  0
 13 14  1  0
 13 15  1  0
 15 16  1  0
 15 17  1  0
 17 18  1  0
  1 19  1  0
  2 20  1  1
  3 21  1  6
  4 22  1  0
  5 23  1  1
  6 24  1  0
  6 25  1  0
  7 26  1  0
  9 27  1  1
 10 28  1  0
 11 29  1  6
 12 30  1  0
 13 31  1  0
 14 32  1  0
 16 33  1  0
 16 34  1  0
 16 35  1  0
 17 36  1  0
 18 37  1  0
M  END
>  <PDBID>  (1) 
2W4X

>  <PDB ID>  (1) 
2W4X

>  <Generic Name>  (1) 
Streptozocin

>  <Brand Name>  (1) 
Zanosar#Zanosar Sterile Powder

>  <DrugBank ID>  (1) 
DB00428

>  <ATC Codes>  (1) 
L01AD04

>  <Ligand ID>  (1) 
STZ

>  <Target Name>  (1) 
O-GlcNAcase BT_4395

>  <UniProt ID>  (1) 
Q89ZI2

>  <PDB ID.1>  (1) 
2W4X

>  <Seq. Identity>  (1) 
100%

$$$$
