PDB_DB00360_03
     RDKit          3D

 38 39  0  0  0  0  0  0  0  0999 V2000
   -2.4868   -0.4610    1.4666 N   0  0  0  0  0  0  0  0  0  0  0  0
   -3.2105    0.6106    0.7691 C   0  0  2  0  0  0  0  0  0  0  0  0
   -4.6254    0.4948    0.9195 N   0  0  0  0  0  0  0  0  0  0  0  0
   -2.7976    0.7225   -0.6066 N   0  0  0  0  0  0  0  0  0  0  0  0
   -2.2522   -0.5178   -1.1137 C   0  0  1  0  0  0  0  0  0  0  0  0
   -2.0723   -0.4478   -2.4771 O   0  0  0  0  0  0  0  0  0  0  0  0
   -1.0276   -0.9272   -0.3589 C   0  0  2  0  0  0  0  0  0  0  0  0
   -1.1201   -0.3482    1.0488 C   0  0  2  0  0  0  0  0  0  0  0  0
    0.1959   -0.4244   -0.9076 N   0  0  0  0  0  0  0  0  0  0  0  0
   -0.1786   -1.0372    1.8562 N   0  0  0  0  0  0  0  0  0  0  0  0
    1.2944   -0.7478   -0.0936 C   0  0  2  0  0  0  0  0  0  0  0  0
    0.8464   -1.6329    1.0541 C   0  0  0  0  0  0  0  0  0  0  0  0
    2.0849    0.3713    0.4756 C   0  0  1  0  0  0  0  0  0  0  0  0
    3.1219   -0.1800    1.2470 O   0  0  0  0  0  0  0  0  0  0  0  0
    2.7141    1.2926   -0.5224 C   0  0  2  0  0  0  0  0  0  0  0  0
    3.7762    0.5532   -1.3373 C   0  0  0  0  0  0  0  0  0  0  0  0
    3.4017    2.2798    0.2013 O   0  0  0  0  0  0  0  0  0  0  0  0
   -2.5328   -0.2132    2.4886 H   0  0  0  0  0  0  0  0  0  0  0  0
   -2.8680    1.5587    1.2773 H   0  0  0  0  0  0  0  0  0  0  0  0
   -4.9652   -0.4811    0.8398 H   0  0  0  0  0  0  0  0  0  0  0  0
   -5.0914    1.0365    0.1588 H   0  0  0  0  0  0  0  0  0  0  0  0
   -2.2235    1.5446   -0.8170 H   0  0  0  0  0  0  0  0  0  0  0  0
   -3.0519   -1.2955   -0.9375 H   0  0  0  0  0  0  0  0  0  0  0  0
   -2.2165   -1.3650   -2.8698 H   0  0  0  0  0  0  0  0  0  0  0  0
   -1.0160   -2.0425   -0.3196 H   0  0  0  0  0  0  0  0  0  0  0  0
   -0.8937    0.7522    0.9485 H   0  0  0  0  0  0  0  0  0  0  0  0
    0.1543    0.4924   -1.3375 H   0  0  0  0  0  0  0  0  0  0  0  0
    0.1445   -0.5536    2.7012 H   0  0  0  0  0  0  0  0  0  0  0  0
    1.9953   -1.3911   -0.7050 H   0  0  0  0  0  0  0  0  0  0  0  0
    0.6198   -2.6682    0.7266 H   0  0  0  0  0  0  0  0  0  0  0  0
    1.7545   -1.7363    1.7186 H   0  0  0  0  0  0  0  0  0  0  0  0
    1.4841    0.9848    1.1785 H   0  0  0  0  0  0  0  0  0  0  0  0
    3.9201    0.4165    1.2484 H   0  0  0  0  0  0  0  0  0  0  0  0
    2.0101    1.8223   -1.1671 H   0  0  0  0  0  0  0  0  0  0  0  0
    3.4176    0.3820   -2.3818 H   0  0  0  0  0  0  0  0  0  0  0  0
    4.7083    1.1322   -1.4131 H   0  0  0  0  0  0  0  0  0  0  0  0
    4.0241   -0.4095   -0.8441 H   0  0  0  0  0  0  0  0  0  0  0  0
    2.9620    2.4335    1.0910 H   0  0  0  0  0  0  0  0  0  0  0  0
  1  2  1  0
  2  3  1  0
  2  4  1  0
  4  5  1  0
  5  6  1  0
  5  7  1  0
  1  8  1  0
  7  8  1  0
  7  9  1  0
  8 10  1  0
  9 11  1  0
 10 12  1  0
 11 12  1  0
 11 13  1  0
 13 14  1  0
 13 15  1  0
 15 16  1  0
 15 17  1  0
  1 18  1  0
  2 19  1  1
  3 20  1  0
  3 21  1  0
  4 22  1  0
  5 23  1  6
  6 24  1  0
  7 25  1  1
  8 26  1  6
  9 27  1  0
 10 28  1  0
 11 29  1  6
 12 30  1  0
 12 31  1  0
 13 32  1  1
 14 33  1  0
 15 34  1  6
 16 35  1  0
 16 36  1  0
 16 37  1  0
 17 38  1  0
M  END
>  <PDBID>  (1) 
1J8U

>  <PDB ID>  (1) 
1J8U

>  <Generic Name>  (1) 
Sapropterin

>  <Brand Name>  (1) 
Kuvan#BH4#Biopten

>  <DrugBank ID>  (1) 
DB00360

>  <ATC Codes>  (1) 
A16AX07

>  <Ligand ID>  (1) 
BH4,BHS,H4B,THB

>  <Target Name>  (1) 
Tryptophan 5-hydroxylase 1

>  <UniProt ID>  (1) 
P17752

>  <PDB ID.1>  (1) 
1J8U

>  <Seq. Identity>  (1) 
65%

$$$$
