PDB_DB00988_00
     RDKit          3D

 28 28  0  0  0  0  0  0  0  0999 V2000
    1.7055   -0.8631    0.0957 C   0  0  0  0  0  0  0  0  0  0  0  0
    0.4338   -0.3338    0.7368 C   0  0  0  0  0  0  0  0  0  0  0  0
   -1.9462    0.0778   -0.8622 C   0  0  0  0  0  0  0  0  0  0  0  0
    0.0719    0.9755    0.1145 C   0  0  0  0  0  0  0  0  0  0  0  0
   -0.6359   -1.3669    0.7281 C   0  0  0  0  0  0  0  0  0  0  0  0
   -1.5916   -1.3041   -0.4012 C   0  0  0  0  0  0  0  0  0  0  0  0
   -1.4421    1.0874    0.1552 C   0  0  0  0  0  0  0  0  0  0  0  0
   -1.9454    0.7676    1.4084 O   0  0  0  0  0  0  0  0  0  0  0  0
   -3.3124    0.2043   -1.0857 O   0  0  0  0  0  0  0  0  0  0  0  0
    2.8731    0.0642    0.2668 C   0  0  0  0  0  0  0  0  0  0  0  0
    2.6437    1.3614   -0.3201 N   0  0  0  0  0  0  0  0  0  0  0  0
    1.4873   -1.0442   -0.9733 H   0  0  0  0  0  0  0  0  0  0  0  0
    1.9166   -1.8334    0.5887 H   0  0  0  0  0  0  0  0  0  0  0  0
    0.3914    0.9404   -0.9593 H   0  0  0  0  0  0  0  0  0  0  0  0
   -1.1662   -1.4105    1.7243 H   0  0  0  0  0  0  0  0  0  0  0  0
   -2.5429   -1.8006   -0.0924 H   0  0  0  0  0  0  0  0  0  0  0  0
   -2.8211    0.3497    1.3616 H   0  0  0  0  0  0  0  0  0  0  0  0
   -3.6379    0.9369   -0.4923 H   0  0  0  0  0  0  0  0  0  0  0  0
    3.1076    0.1901    1.3351 H   0  0  0  0  0  0  0  0  0  0  0  0
    3.7490   -0.4314   -0.2004 H   0  0  0  0  0  0  0  0  0  0  0  0
    3.0391    1.4421   -1.2898 H   0  0  0  0  0  0  0  0  0  0  0  0
    2.9741    2.1210    0.3122 H   0  0  0  0  0  0  0  0  0  0  0  0
    0.6818   -0.1118    1.8176 H   0  0  0  0  0  0  0  0  0  0  0  0
   -1.4367    0.3139   -1.8202 H   0  0  0  0  0  0  0  0  0  0  0  0
    0.5314    1.8245    0.6631 H   0  0  0  0  0  0  0  0  0  0  0  0
   -0.1186   -2.3715    0.6716 H   0  0  0  0  0  0  0  0  0  0  0  0
   -1.2303   -1.8983   -1.2853 H   0  0  0  0  0  0  0  0  0  0  0  0
   -1.7788    2.1129   -0.1027 H   0  0  0  0  0  0  0  0  0  0  0  0
  1  2  1  0
  2  4  1  0
  2  5  1  0
  3  6  1  0
  5  6  1  0
  3  7  1  0
  4  7  1  0
  7  8  1  0
  3  9  1  0
  1 10  1  0
 10 11  1  0
  1 12  1  0
  1 13  1  0
  4 14  1  0
  5 15  1  0
  6 16  1  0
  8 17  1  0
  9 18  1  0
 10 19  1  0
 10 20  1  0
 11 21  1  0
 11 22  1  0
  2 23  1  0
  3 24  1  0
  4 25  1  0
  5 26  1  0
  6 27  1  0
  7 28  1  0
M  END
>  <PDBID>  (1) 
4XP1

>  <PDB ID>  (1) 
4XP1

>  <Generic Name>  (1) 
Dopamine

>  <Brand Name>  (1) 
Dopamine#Dopamine HCl#Dopamine HCl Inj 4%#Dopamine Hydrochloride#Dopamine Hydrochloride and Dextrose#Intropin Injection 40mg/ml#Intropin#Revimine

>  <DrugBank ID>  (1) 
DB00988

>  <ATC Codes>  (1) 
C01CA04

>  <Ligand ID>  (1) 
LDP

>  <Target Name>  (1) 
Sodium-dependent dopamine transporter

>  <UniProt ID>  (1) 
Q01959

>  <PDB ID.1>  (1) 
4XP1

>  <Seq. Identity>  (1) 
52%

$$$$
