PDB_DB01104_03
     RDKit          3D

 49 51  0  0  0  0  0  0  0  0999 V2000
    5.8671    0.2100    0.8154 Cl  0  0  0  0  0  0  0  0  0  0  0  0
    4.3551    0.7791    0.0252 C   0  0  0  0  0  0  0  0  0  0  0  0
    3.9073   -0.1477   -1.0315 C   0  0  0  0  0  0  0  0  0  0  0  0
    5.3157   -1.1743   -1.4889 Cl  0  0  0  0  0  0  0  0  0  0  0  0
    3.3733    1.0777    1.0964 C   0  0  0  0  0  0  0  0  0  0  0  0
    1.9605    0.9543    0.5102 C   0  0  0  0  0  0  0  0  0  0  0  0
    1.7613   -0.5108    0.2350 C   0  0  0  0  0  0  0  0  0  0  0  0
    2.7956   -1.0720   -0.6759 C   0  0  0  0  0  0  0  0  0  0  0  0
    0.3916   -0.8361   -0.2701 C   0  0  1  0  0  0  0  0  0  0  0  0
   -0.7139   -0.4683    0.6701 C   0  0  0  0  0  0  0  0  0  0  0  0
   -0.7387   -1.2757    1.9042 C   0  0  0  0  0  0  0  0  0  0  0  0
   -1.9140   -2.1862    2.0639 C   0  0  0  0  0  0  0  0  0  0  0  0
   -3.2296   -1.5977    1.7319 C   0  0  0  0  0  0  0  0  0  0  0  0
   -3.1660   -0.3958    0.8300 C   0  0  0  0  0  0  0  0  0  0  0  0
   -2.0233   -0.5832   -0.1210 C   0  0  0  0  0  0  0  0  0  0  0  0
   -2.1110    0.4579   -1.1897 C   0  0  1  0  0  0  0  0  0  0  0  0
   -2.8724    1.6098   -0.6832 N   0  0  0  0  0  0  0  0  0  0  0  0
   -2.9598    2.6244   -1.7182 C   0  0  0  0  0  0  0  0  0  0  0  0
   -0.7372    0.9875   -1.5361 C   0  0  0  0  0  0  0  0  0  0  0  0
    0.2192   -0.1790   -1.6178 C   0  0  0  0  0  0  0  0  0  0  0  0
    4.6396    1.7578   -0.4585 H   0  0  0  0  0  0  0  0  0  0  0  0
    3.6427    0.3992   -1.9840 H   0  0  0  0  0  0  0  0  0  0  0  0
    3.4613    2.1453    1.4325 H   0  0  0  0  0  0  0  0  0  0  0  0
    3.5127    0.4255    1.9624 H   0  0  0  0  0  0  0  0  0  0  0  0
    1.9540    1.5811   -0.3887 H   0  0  0  0  0  0  0  0  0  0  0  0
    1.2637    1.2799    1.3031 H   0  0  0  0  0  0  0  0  0  0  0  0
    1.8721   -1.0313    1.2319 H   0  0  0  0  0  0  0  0  0  0  0  0
    2.3246   -1.4078   -1.6456 H   0  0  0  0  0  0  0  0  0  0  0  0
    3.2409   -2.0230   -0.2596 H   0  0  0  0  0  0  0  0  0  0  0  0
    0.3472   -1.9325   -0.4360 H   0  0  0  0  0  0  0  0  0  0  0  0
   -0.6274    0.6201    0.9164 H   0  0  0  0  0  0  0  0  0  0  0  0
    0.1784   -1.9146    1.9470 H   0  0  0  0  0  0  0  0  0  0  0  0
   -0.6609   -0.6128    2.8084 H   0  0  0  0  0  0  0  0  0  0  0  0
   -1.9399   -2.4914    3.1517 H   0  0  0  0  0  0  0  0  0  0  0  0
   -1.7365   -3.1307    1.5038 H   0  0  0  0  0  0  0  0  0  0  0  0
   -3.8353   -1.3218    2.6197 H   0  0  0  0  0  0  0  0  0  0  0  0
   -3.8428   -2.3719    1.1840 H   0  0  0  0  0  0  0  0  0  0  0  0
   -3.0389    0.5270    1.4057 H   0  0  0  0  0  0  0  0  0  0  0  0
   -4.1055   -0.3482    0.2194 H   0  0  0  0  0  0  0  0  0  0  0  0
   -2.0265   -1.6019   -0.5567 H   0  0  0  0  0  0  0  0  0  0  0  0
   -2.6219    0.0455   -2.0788 H   0  0  0  0  0  0  0  0  0  0  0  0
   -2.3198    1.9639    0.1489 H   0  0  0  0  0  0  0  0  0  0  0  0
   -2.2813    3.4431   -1.4400 H   0  0  0  0  0  0  0  0  0  0  0  0
   -2.7125    2.1615   -2.6940 H   0  0  0  0  0  0  0  0  0  0  0  0
   -4.0044    3.0051   -1.7347 H   0  0  0  0  0  0  0  0  0  0  0  0
   -0.8006    1.4735   -2.5134 H   0  0  0  0  0  0  0  0  0  0  0  0
   -0.4080    1.7174   -0.7911 H   0  0  0  0  0  0  0  0  0  0  0  0
    1.1872    0.2468   -2.0058 H   0  0  0  0  0  0  0  0  0  0  0  0
   -0.1431   -0.8786   -2.3981 H   0  0  0  0  0  0  0  0  0  0  0  0
  1  2  1  0
  2  3  1  0
  3  4  1  0
  2  5  1  0
  5  6  1  0
  6  7  1  0
  3  8  1  0
  7  8  1  0
  7  9  1  0
  9 10  1  0
 10 11  1  0
 11 12  1  0
 12 13  1  0
 13 14  1  0
 10 15  1  0
 14 15  1  0
 15 16  1  0
 16 17  1  0
 17 18  1  0
 16 19  1  0
  9 20  1  0
 19 20  1  0
  2 21  1  0
  3 22  1  0
  5 23  1  0
  5 24  1  0
  6 25  1  0
  6 26  1  0
  7 27  1  0
  8 28  1  0
  8 29  1  0
  9 30  1  6
 10 31  1  0
 11 32  1  0
 11 33  1  0
 12 34  1  0
 12 35  1  0
 13 36  1  0
 13 37  1  0
 14 38  1  0
 14 39  1  0
 15 40  1  0
 16 41  1  6
 17 42  1  0
 18 43  1  0
 18 44  1  0
 18 45  1  0
 19 46  1  0
 19 47  1  0
 20 48  1  0
 20 49  1  0
M  END
>  <PDBID>  (1) 
6AWO

>  <PDB ID>  (1) 
6AWO

>  <Generic Name>  (1) 
Sertraline

>  <Brand Name>  (1) 
Act Sertraline#Apo-sertraline#Auro-sertraline#Bio-sertraline#Dom-sertraline#Gd-sertraline#Ipg-sertraline#Jamp-sertraline#Mar-sertraline#Mint-sertraline#Mylan-sertraline#Nu-sertraline Capsules#PHL-sertraline#PMS-sertraline#Priva-sertraline#Q-sertraline#Ran-sertraline#Ratio-sertraline#Riva-sertraline#Sandoz Sertraline#Sertraline#Sertraline Hydrochloride#Sertraline Hydrochloride Tablets#Sertraline-100#Sertraline-25#Sertraline-50#Teva-sertraline#Van-sertraline#Zoloft#Zoloft Cap 100mg#Zoloft Cap 50mg#Lustral

>  <DrugBank ID>  (1) 
DB01104

>  <ATC Codes>  (1) 
N06AB06

>  <Ligand ID>  (1) 
SRE

>  <Target Name>  (1) 
Sodium-dependent serotonin transporter

>  <UniProt ID>  (1) 
P31645

>  <PDB ID.1>  (1) 
6AWO

>  <Seq. Identity>  (1) 
99%

$$$$
