PDB_DB00966_07
     RDKit          3D

 99104  0  0  0  0  0  0  0  0999 V2000
   -1.7630   -1.2216   -0.2053 C   0  0  0  0  0  0  0  0  0  0  0  0
   -0.3408   -1.0449   -0.4421 N   0  0  0  0  0  0  0  0  0  0  0  0
   -1.7607   -2.3329    0.8189 C   0  0  0  0  0  0  0  0  0  0  0  0
   -2.5797   -0.0566    0.1593 C   0  0  0  0  0  0  0  0  0  0  0  0
   -0.1022   -2.4201   -0.7896 C   0  0  0  0  0  0  0  0  0  0  0  0
    0.2739   -0.5395    0.7282 C   0  0  0  0  0  0  0  0  0  0  0  0
   -0.6507   -3.1425    0.3540 N   0  0  0  0  0  0  0  0  0  0  0  0
   -3.1006   -3.0225    0.6796 C   0  0  0  0  0  0  0  0  0  0  0  0
   -3.8375   -0.6041    0.7974 C   0  0  0  0  0  0  0  0  0  0  0  0
    1.1755   -2.8875   -1.2653 C   0  0  0  0  0  0  0  0  0  0  0  0
    1.6854   -0.0354    0.5827 C   0  0  0  0  0  0  0  0  0  0  0  0
   -4.1122   -1.9991    0.2404 C   0  0  0  0  0  0  0  0  0  0  0  0
   -3.5338   -3.6794    1.9445 C   0  0  0  0  0  0  0  0  0  0  0  0
   -5.0638    0.2078    0.6205 C   0  0  0  0  0  0  0  0  0  0  0  0
    1.0207   -4.4083   -1.5478 C   0  0  0  0  0  0  0  0  0  0  0  0
    2.2405    0.5085    1.8844 C   0  0  0  0  0  0  0  0  0  0  0  0
    1.7860    1.0779   -0.4283 C   0  0  0  0  0  0  0  0  0  0  0  0
   -5.1618    1.4697    1.2213 N   0  0  0  0  0  0  0  0  0  0  0  0
   -5.3677    0.4048   -0.8171 N   0  0  0  0  0  0  0  0  0  0  0  0
    2.3792   -4.9134   -2.0459 C   0  0  0  0  0  0  0  0  0  0  0  0
    3.4497    1.3738    1.5327 C   0  0  0  0  0  0  0  0  0  0  0  0
    3.2205    1.1465   -0.8955 C   0  0  0  0  0  0  0  0  0  0  0  0
   -5.9046    2.2937    0.3294 C   0  0  0  0  0  0  0  0  0  0  0  0
   -4.0266    2.1419    1.7188 C   0  0  0  0  0  0  0  0  0  0  0  0
   -6.4933    1.3049   -0.6960 C   0  0  0  0  0  0  0  0  0  0  0  0
    4.1484    0.9127    0.3232 C   0  0  0  0  0  0  0  0  0  0  0  0
   -7.0997    2.9619    0.9631 C   0  0  0  0  0  0  0  0  0  0  0  0
   -6.7327    2.1171   -1.9424 C   0  0  0  0  0  0  0  0  0  0  0  0
    5.4707    1.5296    0.0626 C   0  0  1  0  0  0  0  0  0  0  0  0
   -8.0693    3.2720   -0.1617 C   0  0  0  0  0  0  0  0  0  0  0  0
   -7.3085    3.4401   -1.4862 C   0  0  0  0  0  0  0  0  0  0  0  0
    6.6410    1.2294    0.8737 C   0  0  0  0  0  0  0  0  0  0  0  0
    5.8864    1.2642   -1.4138 C   0  0  0  0  0  0  0  0  0  0  0  0
    7.6060    0.2377    0.1549 C   0  0  0  0  0  0  0  0  0  0  0  0
    6.5276    0.8494    2.3027 C   0  0  0  0  0  0  0  0  0  0  0  0
    7.2384    1.8972   -1.6556 C   0  0  0  0  0  0  0  0  0  0  0  0
    8.2487    1.0121   -0.9678 C   0  0  0  0  0  0  0  0  0  0  0  0
    7.8774    0.6197    2.7806 O   0  0  0  0  0  0  0  0  0  0  0  0
    5.8981   -0.3421    2.5695 O   0  0  0  0  0  0  0  0  0  0  0  0
   -2.1769   -1.6811   -1.1450 H   0  0  0  0  0  0  0  0  0  0  0  0
   -1.6349   -1.9616    1.8579 H   0  0  0  0  0  0  0  0  0  0  0  0
   -2.9366    0.4121   -0.8113 H   0  0  0  0  0  0  0  0  0  0  0  0
   -2.0901    0.7445    0.6928 H   0  0  0  0  0  0  0  0  0  0  0  0
   -0.8705   -2.6318   -1.6129 H   0  0  0  0  0  0  0  0  0  0  0  0
   -0.2734    0.2564    1.2709 H   0  0  0  0  0  0  0  0  0  0  0  0
    0.2677   -1.3997    1.4741 H   0  0  0  0  0  0  0  0  0  0  0  0
    0.0424   -3.3845    1.0617 H   0  0  0  0  0  0  0  0  0  0  0  0
   -3.0322   -3.7713   -0.1555 H   0  0  0  0  0  0  0  0  0  0  0  0
   -3.5903   -0.7927    1.8763 H   0  0  0  0  0  0  0  0  0  0  0  0
    1.4342   -2.4324   -2.2418 H   0  0  0  0  0  0  0  0  0  0  0  0
    2.0664   -2.8458   -0.6429 H   0  0  0  0  0  0  0  0  0  0  0  0
    2.3425   -0.8858    0.3506 H   0  0  0  0  0  0  0  0  0  0  0  0
   -4.1783   -1.9340   -0.8800 H   0  0  0  0  0  0  0  0  0  0  0  0
   -5.1038   -2.3545    0.5682 H   0  0  0  0  0  0  0  0  0  0  0  0
   -3.2534   -3.1306    2.8454 H   0  0  0  0  0  0  0  0  0  0  0  0
   -4.6551   -3.7714    1.9126 H   0  0  0  0  0  0  0  0  0  0  0  0
   -3.1619   -4.7348    2.0024 H   0  0  0  0  0  0  0  0  0  0  0  0
   -5.9693   -0.3839    0.9667 H   0  0  0  0  0  0  0  0  0  0  0  0
    0.2590   -4.5639   -2.3359 H   0  0  0  0  0  0  0  0  0  0  0  0
    0.6899   -4.9136   -0.6295 H   0  0  0  0  0  0  0  0  0  0  0  0
    2.5694   -0.2726    2.5673 H   0  0  0  0  0  0  0  0  0  0  0  0
    1.5220    1.1479    2.4161 H   0  0  0  0  0  0  0  0  0  0  0  0
    1.5006    2.0327    0.0484 H   0  0  0  0  0  0  0  0  0  0  0  0
    1.0809    0.9508   -1.2739 H   0  0  0  0  0  0  0  0  0  0  0  0
   -5.7165   -0.4620   -1.2509 H   0  0  0  0  0  0  0  0  0  0  0  0
    2.4940   -4.6658   -3.0992 H   0  0  0  0  0  0  0  0  0  0  0  0
    2.3847   -6.0115   -1.8423 H   0  0  0  0  0  0  0  0  0  0  0  0
    3.1839   -4.3939   -1.4587 H   0  0  0  0  0  0  0  0  0  0  0  0
    4.0350    1.5245    2.4261 H   0  0  0  0  0  0  0  0  0  0  0  0
    3.0300    2.4031    1.2906 H   0  0  0  0  0  0  0  0  0  0  0  0
    3.3719    2.1641   -1.3042 H   0  0  0  0  0  0  0  0  0  0  0  0
    3.4450    0.3599   -1.6338 H   0  0  0  0  0  0  0  0  0  0  0  0
   -5.3168    3.0704   -0.1917 H   0  0  0  0  0  0  0  0  0  0  0  0
   -4.3956    3.0097    2.3545 H   0  0  0  0  0  0  0  0  0  0  0  0
   -3.4610    2.6247    0.9070 H   0  0  0  0  0  0  0  0  0  0  0  0
   -3.4128    1.5591    2.4349 H   0  0  0  0  0  0  0  0  0  0  0  0
   -7.4081    0.8242   -0.3223 H   0  0  0  0  0  0  0  0  0  0  0  0
    4.3500   -0.2098    0.3477 H   0  0  0  0  0  0  0  0  0  0  0  0
   -7.5810    2.2277    1.6435 H   0  0  0  0  0  0  0  0  0  0  0  0
   -6.8317    3.8838    1.5076 H   0  0  0  0  0  0  0  0  0  0  0  0
   -5.7386    2.2788   -2.4288 H   0  0  0  0  0  0  0  0  0  0  0  0
   -7.4668    1.6534   -2.6317 H   0  0  0  0  0  0  0  0  0  0  0  0
    5.3269    2.6788    0.0397 H   0  0  0  0  0  0  0  0  0  0  0  0
   -8.6042    4.2103   -0.0097 H   0  0  0  0  0  0  0  0  0  0  0  0
   -8.8087    2.4674   -0.2701 H   0  0  0  0  0  0  0  0  0  0  0  0
   -6.5295    4.2198   -1.3472 H   0  0  0  0  0  0  0  0  0  0  0  0
   -8.0514    3.8612   -2.2021 H   0  0  0  0  0  0  0  0  0  0  0  0
    7.2901    2.1767    0.8769 H   0  0  0  0  0  0  0  0  0  0  0  0
    5.1895    1.7644   -2.1134 H   0  0  0  0  0  0  0  0  0  0  0  0
    6.0015    0.1806   -1.6001 H   0  0  0  0  0  0  0  0  0  0  0  0
    7.1050   -0.6766   -0.1374 H   0  0  0  0  0  0  0  0  0  0  0  0
    8.4112    0.0769    0.9198 H   0  0  0  0  0  0  0  0  0  0  0  0
    6.1888    1.6413    2.9844 H   0  0  0  0  0  0  0  0  0  0  0  0
    7.2339    2.9327   -1.3236 H   0  0  0  0  0  0  0  0  0  0  0  0
    7.4425    1.8555   -2.7585 H   0  0  0  0  0  0  0  0  0  0  0  0
    9.0547    1.6738   -0.5943 H   0  0  0  0  0  0  0  0  0  0  0  0
    8.7408    0.3165   -1.6954 H   0  0  0  0  0  0  0  0  0  0  0  0
    8.3159    1.5272    2.8032 H   0  0  0  0  0  0  0  0  0  0  0  0
    6.1139   -1.0677    1.9649 H   0  0  0  0  0  0  0  0  0  0  0  0
  1  2  1  0
  1  3  1  0
  1  4  1  0
  2  5  1  0
  2  6  1  0
  3  7  1  0
  5  7  1  0
  3  8  1  0
  4  9  1  0
  5 10  1  0
  6 11  1  0
  8 12  1  0
  9 12  1  0
  8 13  1  0
  9 14  1  0
 10 15  1  0
 11 16  1  0
 11 17  1  0
 14 18  1  0
 14 19  1  0
 15 20  1  0
 16 21  1  0
 17 22  1  0
 18 23  1  0
 18 24  1  0
 19 25  1  0
 23 25  1  0
 21 26  1  0
 22 26  1  0
 23 27  1  0
 25 28  1  0
 26 29  1  0
 27 30  1  0
 28 31  1  0
 30 31  1  0
 29 32  1  0
 29 33  1  0
 32 34  1  0
 32 35  1  0
 33 36  1  0
 34 37  1  0
 36 37  1  0
 35 38  1  0
 35 39  1  0
  1 40  1  0
  3 41  1  0
  4 42  1  0
  4 43  1  0
  5 44  1  0
  6 45  1  0
  6 46  1  0
  7 47  1  0
  8 48  1  0
  9 49  1  0
 10 50  1  0
 10 51  1  0
 11 52  1  0
 12 53  1  0
 12 54  1  0
 13 55  1  0
 13 56  1  0
 13 57  1  0
 14 58  1  0
 15 59  1  0
 15 60  1  0
 16 61  1  0
 16 62  1  0
 17 63  1  0
 17 64  1  0
 19 65  1  0
 20 66  1  0
 20 67  1  0
 20 68  1  0
 21 69  1  0
 21 70  1  0
 22 71  1  0
 22 72  1  0
 23 73  1  0
 24 74  1  0
 24 75  1  0
 24 76  1  0
 25 77  1  0
 26 78  1  0
 27 79  1  0
 27 80  1  0
 28 81  1  0
 28 82  1  0
 29 83  1  6
 30 84  1  0
 30 85  1  0
 31 86  1  0
 31 87  1  0
 32 88  1  0
 33 89  1  0
 33 90  1  0
 34 91  1  0
 34 92  1  0
 35 93  1  0
 36 94  1  0
 36 95  1  0
 37 96  1  0
 37 97  1  0
 38 98  1  0
 39 99  1  0
M  END
>  <PDBID>  (1) 
3VN2

>  <PDB ID>  (1) 
3VN2

>  <Generic Name>  (1) 
Telmisartan

>  <Brand Name>  (1) 
Ach-telmisartan Hctz#Act Telmisartan#Act Telmisartan/hct#Apo-telmisartan#Apo-telmisartan/hctz#Auro-telmisartan#Auro-telmisartan Hctz#Mar-telmisartan#Micardis#Micardis 40mg Tab#Micardis 80mg Tab#Micardis Hct#Micardis Plus#Mylan-telmisartan#Mylan-telmisartan Hctz#Ntp-telmisartan#Ntp-telmisartan Hctz#PMS-telmisartan#PMS-telmisartan-hctz#Pendo-telmisartan#Pendo-telmisartan-hctz#Ran-telmisartan#Ran-telmisartan Hctz#Sandoz Telmisartan#Sandoz Telmisartan Hct#Septa-telmisartan#Telmisartan#Telmisartan Hctz#Telmisartan Tablets#Telmisartan and Amlodipine#Telmisartan and Hydrochlorothiazide#Telmisartan and Hydrochlorothiazide 40 Mg/12.5 mg#Telmisartan and Hydrochlorothiazide 80 Mg/12.5 mg#Telmisartan and Hydrochlorothiazide 80 Mg/25 mg#Telmisartan and Hydrochlorthiazide#Telmisartan-hctz#Telmisartan/hctz#Teva-telmisartan#Teva-telmisartan Hctz#Torrent-telmisartan#Torrent-telmisartan and Hydrochlorothiazide#Twynsta#Van-telmisartan#Van-telmisartan-hctz#Zinda-telmisartan#Zinda-telmisartan/ Hctz#Pritor

>  <DrugBank ID>  (1) 
DB00966

>  <ATC Codes>  (1) 
C09DB04#C09DA07#C09CA07

>  <Ligand ID>  (1) 
TLS

>  <Target Name>  (1) 
Peroxisome proliferator-activated receptor gamma

>  <UniProt ID>  (1) 
P37231

>  <PDB ID.1>  (1) 
3VN2

>  <Seq. Identity>  (1) 
95%

$$$$
