PDB_DB00203_07
     RDKit          3D

 79 82  0  0  0  0  0  0  0  0999 V2000
    6.8287   -1.0772    2.6797 C   0  0  0  0  0  0  0  0  0  0  0  0
    5.7149   -1.8661    2.0573 C   0  0  0  0  0  0  0  0  0  0  0  0
    4.4400   -1.0195    1.9571 C   0  0  0  0  0  0  0  0  0  0  0  0
    4.7773    0.1665    1.1028 C   0  0  0  0  0  0  0  0  0  0  0  0
    5.2100   -0.1971   -0.2253 N   0  0  0  0  0  0  0  0  0  0  0  0
    5.1874    1.0274   -0.8821 N   0  0  0  0  0  0  0  0  0  0  0  0
    5.4130    0.9582   -2.2727 C   0  0  0  0  0  0  0  0  0  0  0  0
    4.0744    1.7777   -0.4393 C   0  0  0  0  0  0  0  0  0  0  0  0
    2.9889    1.9906   -1.4309 C   0  0  0  0  0  0  0  0  0  0  0  0
    3.2925    3.1823   -2.1334 O   0  0  0  0  0  0  0  0  0  0  0  0
    1.6835    2.1806   -0.8729 N   0  0  0  0  0  0  0  0  0  0  0  0
    1.3708    1.2958    0.2158 C   0  0  0  0  0  0  0  0  0  0  0  0
    2.4148    0.3247    0.4651 N   0  0  0  0  0  0  0  0  0  0  0  0
    3.6076    1.0574    0.8195 C   0  0  0  0  0  0  0  0  0  0  0  0
   -0.0043    0.6775    0.0755 C   0  0  0  0  0  0  0  0  0  0  0  0
   -0.9777    1.8337    0.0714 C   0  0  0  0  0  0  0  0  0  0  0  0
   -2.3638    1.5229   -0.3288 C   0  0  0  0  0  0  0  0  0  0  0  0
   -2.4280    0.4890   -1.3976 C   0  0  0  0  0  0  0  0  0  0  0  0
   -1.1101    0.4914   -2.1460 C   0  0  0  0  0  0  0  0  0  0  0  0
   -0.0432   -0.0850   -1.2320 C   0  0  0  0  0  0  0  0  0  0  0  0
   -0.1191   -1.4121   -1.0383 O   0  0  0  0  0  0  0  0  0  0  0  0
    0.8478   -2.2343   -1.4685 C   0  0  0  0  0  0  0  0  0  0  0  0
    0.6102   -3.7041   -1.1758 C   0  0  0  0  0  0  0  0  0  0  0  0
   -3.4175    1.0838    0.9575 S   0  0  0  0  0  0  0  0  0  0  0  0
   -3.5396    2.1647    2.0854 O   0  0  0  0  0  0  0  0  0  0  0  0
   -2.4158   -0.2693    1.7019 O   0  0  0  0  0  0  0  0  0  0  0  0
   -4.7188    0.3668    0.5543 N   0  0  0  0  0  0  0  0  0  0  0  0
   -4.8039   -1.0525    0.3581 C   0  0  0  0  0  0  0  0  0  0  0  0
   -6.0014   -1.6685    1.0427 C   0  0  0  0  0  0  0  0  0  0  0  0
   -7.2485   -1.0632    0.6431 N   0  0  0  0  0  0  0  0  0  0  0  0
   -7.9950   -1.9073   -0.2699 C   0  0  0  0  0  0  0  0  0  0  0  0
   -7.0447    0.2075    0.0111 C   0  0  0  0  0  0  0  0  0  0  0  0
   -6.0070    0.9673    0.8420 C   0  0  0  0  0  0  0  0  0  0  0  0
    7.5356   -1.7295    3.2546 H   0  0  0  0  0  0  0  0  0  0  0  0
    7.4299   -0.5334    1.9279 H   0  0  0  0  0  0  0  0  0  0  0  0
    6.4558   -0.3230    3.4114 H   0  0  0  0  0  0  0  0  0  0  0  0
    5.5188   -2.7480    2.7328 H   0  0  0  0  0  0  0  0  0  0  0  0
    6.0357   -2.2235    1.0561 H   0  0  0  0  0  0  0  0  0  0  0  0
    3.6299   -1.6377    1.5747 H   0  0  0  0  0  0  0  0  0  0  0  0
    4.2260   -0.6706    2.9747 H   0  0  0  0  0  0  0  0  0  0  0  0
    5.5574    0.7576    1.5823 H   0  0  0  0  0  0  0  0  0  0  0  0
    4.5017   -0.8083   -0.7122 H   0  0  0  0  0  0  0  0  0  0  0  0
    4.9342    1.7050   -2.8974 H   0  0  0  0  0  0  0  0  0  0  0  0
    6.5237    1.0614   -2.4515 H   0  0  0  0  0  0  0  0  0  0  0  0
    5.1705   -0.0692   -2.6707 H   0  0  0  0  0  0  0  0  0  0  0  0
    4.4556    2.7793   -0.0840 H   0  0  0  0  0  0  0  0  0  0  0  0
    3.0284    1.1876   -2.1987 H   0  0  0  0  0  0  0  0  0  0  0  0
    2.5868    3.2271   -2.8469 H   0  0  0  0  0  0  0  0  0  0  0  0
    1.5823    3.1760   -0.5743 H   0  0  0  0  0  0  0  0  0  0  0  0
    1.3331    1.9107    1.1683 H   0  0  0  0  0  0  0  0  0  0  0  0
    2.1050   -0.3423    1.1779 H   0  0  0  0  0  0  0  0  0  0  0  0
    3.3872    1.7766    1.6295 H   0  0  0  0  0  0  0  0  0  0  0  0
   -0.2345    0.0438    0.9432 H   0  0  0  0  0  0  0  0  0  0  0  0
   -0.5462    2.6735   -0.5432 H   0  0  0  0  0  0  0  0  0  0  0  0
   -0.9944    2.2410    1.1156 H   0  0  0  0  0  0  0  0  0  0  0  0
   -2.7909    2.4740   -0.7764 H   0  0  0  0  0  0  0  0  0  0  0  0
   -2.6604   -0.5304   -1.0178 H   0  0  0  0  0  0  0  0  0  0  0  0
   -3.2043    0.7730   -2.1642 H   0  0  0  0  0  0  0  0  0  0  0  0
   -1.2427   -0.0552   -3.0684 H   0  0  0  0  0  0  0  0  0  0  0  0
   -0.8955    1.5490   -2.3954 H   0  0  0  0  0  0  0  0  0  0  0  0
    0.9062    0.1388   -1.7523 H   0  0  0  0  0  0  0  0  0  0  0  0
    1.1014   -2.1723   -2.5477 H   0  0  0  0  0  0  0  0  0  0  0  0
    1.7913   -1.9821   -0.9384 H   0  0  0  0  0  0  0  0  0  0  0  0
    1.4286   -4.2565   -1.6912 H   0  0  0  0  0  0  0  0  0  0  0  0
    0.7590   -3.9206   -0.0855 H   0  0  0  0  0  0  0  0  0  0  0  0
   -0.3312   -4.0746   -1.5748 H   0  0  0  0  0  0  0  0  0  0  0  0
   -3.0845    1.9239    2.9468 H   0  0  0  0  0  0  0  0  0  0  0  0
   -2.0495    0.1775    2.5045 H   0  0  0  0  0  0  0  0  0  0  0  0
   -3.9069   -1.5735    0.7521 H   0  0  0  0  0  0  0  0  0  0  0  0
   -4.9159   -1.3007   -0.7357 H   0  0  0  0  0  0  0  0  0  0  0  0
   -5.8409   -1.7045    2.1218 H   0  0  0  0  0  0  0  0  0  0  0  0
   -6.0416   -2.7356    0.6914 H   0  0  0  0  0  0  0  0  0  0  0  0
   -8.7146   -1.2404   -0.8033 H   0  0  0  0  0  0  0  0  0  0  0  0
   -7.2829   -2.3108   -1.0486 H   0  0  0  0  0  0  0  0  0  0  0  0
   -8.5376   -2.7143    0.2211 H   0  0  0  0  0  0  0  0  0  0  0  0
   -6.6443    0.0036   -1.0171 H   0  0  0  0  0  0  0  0  0  0  0  0
   -8.0035    0.7464   -0.0150 H   0  0  0  0  0  0  0  0  0  0  0  0
   -6.0412    2.0295    0.5963 H   0  0  0  0  0  0  0  0  0  0  0  0
   -6.2437    0.7307    1.9009 H   0  0  0  0  0  0  0  0  0  0  0  0
  1  2  1  0
  2  3  1  0
  3  4  1  0
  4  5  1  0
  5  6  1  0
  6  7  1  0
  6  8  1  0
  8  9  1  0
  9 10  1  0
  9 11  1  0
 11 12  1  0
 12 13  1  0
  4 14  1  0
  8 14  1  0
 13 14  1  0
 12 15  1  0
 15 16  1  0
 16 17  1  0
 17 18  1  0
 18 19  1  0
 15 20  1  0
 19 20  1  0
 20 21  1  0
 21 22  1  0
 22 23  1  0
 17 24  1  0
 24 25  1  0
 24 26  1  0
 24 27  1  0
 27 28  1  0
 28 29  1  0
 29 30  1  0
 30 31  1  0
 30 32  1  0
 27 33  1  0
 32 33  1  0
  1 34  1  0
  1 35  1  0
  1 36  1  0
  2 37  1  0
  2 38  1  0
  3 39  1  0
  3 40  1  0
  4 41  1  0
  5 42  1  0
  7 43  1  0
  7 44  1  0
  7 45  1  0
  8 46  1  0
  9 47  1  0
 10 48  1  0
 11 49  1  0
 12 50  1  0
 13 51  1  0
 14 52  1  0
 15 53  1  0
 16 54  1  0
 16 55  1  0
 17 56  1  0
 18 57  1  0
 18 58  1  0
 19 59  1  0
 19 60  1  0
 20 61  1  0
 22 62  1  0
 22 63  1  0
 23 64  1  0
 23 65  1  0
 23 66  1  0
 25 67  1  0
 26 68  1  0
 28 69  1  0
 28 70  1  0
 29 71  1  0
 29 72  1  0
 31 73  1  0
 31 74  1  0
 31 75  1  0
 32 76  1  0
 32 77  1  0
 33 78  1  0
 33 79  1  0
M  END
>  <PDBID>  (1) 
1UDT

>  <PDB ID>  (1) 
1UDT

>  <Generic Name>  (1) 
Sildenafil

>  <Brand Name>  (1) 
Act Sildenafil#Apo-sildenafil#Apo-sildenafil R#Auro-sildenafil#Dom-sildenafil#Gd-sildenafil#Ipg-sildenafil#Jamp-sildenafil#M-sildenafil#Mar-sildenafil#Mint-sildenafil#Myl-sildenafil#Mylan-sildenafil#PMS-sildenafil#PMS-sildenafil R#Pb-sildenafil#Priva-sildenafil#Ran-sildenafil#Ratio-sildenafil#Ratio-sildenafil R#Revatio#Riva-sildenafil#Sandoz Sildenafil#Sildenafil#Sildenafil Citrate#Sildenafil R#Sildenafil Tablets#Teva-sildenafil#Van-sildenafil#Viagra

>  <DrugBank ID>  (1) 
DB00203

>  <ATC Codes>  (1) 
G04BE03

>  <Ligand ID>  (1) 
VIA

>  <Target Name>  (1) 
cGMP-specific 3',5'-cyclic phosphodiesterase

>  <UniProt ID>  (1) 
O76074

>  <PDB ID.1>  (1) 
1UDT

>  <Seq. Identity>  (1) 
94%

$$$$
