PDB_DB04835_05
     RDKit          3D

180188  0  0  0  0  0  0  0  0999 V2000
   -5.9773    4.5311    2.6311 F   0  0  0  0  0  0  0  0  0  0  0  0
   -4.3046    1.3553   -2.3830 O   0  0  0  0  0  0  0  0  0  0  0  0
    3.5056   -0.0750    0.3261 C   0  0  0  0  0  0  0  0  0  0  0  0
    4.8412    0.1991    0.0630 N   0  0  0  0  0  0  0  0  0  0  0  0
   -0.4663   -1.1210   -0.6028 C   0  0  0  0  0  0  0  0  0  0  0  0
    5.6376    1.4699    2.0417 C   0  0  0  0  0  0  0  0  0  0  0  0
   -1.6647   -0.3806   -0.0915 C   0  0  0  0  0  0  0  0  0  0  0  0
   -2.8871   -0.8751   -0.7947 C   0  0  1  0  0  0  0  0  0  0  0  0
    5.9905   -0.9376   -1.7896 C   0  0  0  0  0  0  0  0  0  0  0  0
   -3.0359   -2.3826   -0.5468 C   0  0  0  0  0  0  0  0  0  0  0  0
   -4.4721    1.0409   -1.0106 C   0  0  2  0  0  0  0  0  0  0  0  0
   -3.8861    2.2487   -0.2899 C   0  0  0  0  0  0  0  0  0  0  0  0
   -5.0440    4.2620    1.6471 C   0  0  0  0  0  0  0  0  0  0  0  0
    6.3789    2.7954    2.2980 C   0  0  0  0  0  0  0  0  0  0  0  0
   -4.4067    5.4522    1.3279 F   0  0  0  0  0  0  0  0  0  0  0  0
    0.7987   -0.7013   -0.0687 N   0  0  0  0  0  0  0  0  0  0  0  0
    1.2027    0.6040   -0.4970 C   0  0  1  0  0  0  0  0  0  0  0  0
    6.4974    0.4093    2.6859 C   0  0  0  0  0  0  0  0  0  0  0  0
   -4.0057    2.0080    1.1701 C   0  0  0  0  0  0  0  0  0  0  0  0
   -4.7459    3.4806   -0.6287 C   0  0  0  0  0  0  0  0  0  0  0  0
   -4.0431    3.2222    2.0423 C   0  0  0  0  0  0  0  0  0  0  0  0
   -5.7811    3.7326    0.4335 C   0  0  0  0  0  0  0  0  0  0  0  0
   -4.2938   -2.8260   -1.2820 C   0  0  0  0  0  0  0  0  0  0  0  0
   -3.1745   -2.7552    0.8749 C   0  0  0  0  0  0  0  0  0  0  0  0
   -4.2106   -4.3582   -1.3112 C   0  0  0  0  0  0  0  0  0  0  0  0
   -3.2122   -4.2639    0.9798 C   0  0  0  0  0  0  0  0  0  0  0  0
   -4.2776   -4.8795    0.1087 C   0  0  0  0  0  0  0  0  0  0  0  0
    1.7828   -1.5167   -0.7781 C   0  0  2  0  0  0  0  0  0  0  0  0
    6.8516    1.1231    0.0392 N   0  0  0  0  0  0  0  0  0  0  0  0
    5.4849    1.3177    0.5701 C   0  0  1  0  0  0  0  0  0  0  0  0
    7.0073   -0.2650    0.2521 N   0  0  0  0  0  0  0  0  0  0  0  0
   -4.0927   -0.2184   -0.6619 N   0  0  0  0  0  0  0  0  0  0  0  0
    2.6036    0.9754   -0.1949 C   0  0  0  0  0  0  0  0  0  0  0  0
    3.1462   -1.4521   -0.1860 C   0  0  0  0  0  0  0  0  0  0  0  0
    5.7551   -0.7779   -0.3253 C   0  0  0  0  0  0  0  0  0  0  0  0
    1.1389    0.4504   -2.0259 C   0  0  0  0  0  0  0  0  0  0  0  0
    1.7533   -0.9217   -2.1921 C   0  0  0  0  0  0  0  0  0  0  0  0
   -3.9175    5.8635    0.0862 F   0  0  0  0  0  0  0  0  0  0  0  0
   -5.4246    0.7192   -0.6713 O   0  0  0  0  0  0  0  0  0  0  0  0
    3.3005    0.1867   -0.0921 C   0  0  0  0  0  0  0  0  0  0  0  0
    4.5560    0.6895   -0.4300 N   0  0  0  0  0  0  0  0  0  0  0  0
   -0.6209   -1.1187   -0.4904 C   0  0  0  0  0  0  0  0  0  0  0  0
    5.2366    1.4915    1.8131 C   0  0  0  0  0  0  0  0  0  0  0  0
   -1.6540   -0.7438    0.5230 C   0  0  0  0  0  0  0  0  0  0  0  0
   -2.9856   -1.2950    0.0835 C   0  0  1  0  0  0  0  0  0  0  0  0
    5.7967   -0.1085   -2.4117 C   0  0  0  0  0  0  0  0  0  0  0  0
   -2.9472   -2.8060   -0.0361 C   0  0  0  0  0  0  0  0  0  0  0  0
   -4.7213    0.4324    0.5213 C   0  0  2  0  0  0  0  0  0  0  0  0
   -4.0514    1.7141    0.9158 C   0  0  0  0  0  0  0  0  0  0  0  0
   -3.6578    4.5841    0.5204 C   0  0  0  0  0  0  0  0  0  0  0  0
    5.9479    2.7176    2.4077 C   0  0  0  0  0  0  0  0  0  0  0  0
   -2.3982    4.5366    1.0666 F   0  0  0  0  0  0  0  0  0  0  0  0
    0.6991   -0.6288   -0.2090 N   0  0  0  0  0  0  0  0  0  0  0  0
    0.8512    0.7883   -0.3204 C   0  0  1  0  0  0  0  0  0  0  0  0
    6.0368    0.2925    2.2472 C   0  0  0  0  0  0  0  0  0  0  0  0
   -5.1812    2.7181    1.1800 C   0  0  0  0  0  0  0  0  0  0  0  0
   -3.2526    2.3141   -0.2351 C   0  0  0  0  0  0  0  0  0  0  0  0
   -4.6800    4.0792    1.5238 C   0  0  0  0  0  0  0  0  0  0  0  0
   -3.7562    3.6582   -0.6764 C   0  0  0  0  0  0  0  0  0  0  0  0
   -4.3230   -3.2794   -0.4734 C   0  0  0  0  0  0  0  0  0  0  0  0
   -2.5933   -3.5370    1.2035 C   0  0  0  0  0  0  0  0  0  0  0  0
   -4.0926   -4.6898   -1.0337 C   0  0  0  0  0  0  0  0  0  0  0  0
   -2.3572   -4.9951    0.7808 C   0  0  0  0  0  0  0  0  0  0  0  0
   -3.4825   -5.5731   -0.0009 C   0  0  0  0  0  0  0  0  0  0  0  0
    1.5377   -1.1126   -1.2893 C   0  0  2  0  0  0  0  0  0  0  0  0
    6.5294    1.6634   -0.1739 N   0  0  0  0  0  0  0  0  0  0  0  0
    5.1675    1.6846    0.3442 C   0  0  0  0  0  0  0  0  0  0  0  0
    6.7329    0.2569   -0.2474 N   0  0  0  0  0  0  0  0  0  0  0  0
   -4.1406   -0.7903    0.6477 N   0  0  0  0  0  0  0  0  0  0  0  0
    2.2567    1.2408   -0.1341 C   0  0  0  0  0  0  0  0  0  0  0  0
    3.0029   -1.0215   -0.9556 C   0  0  0  0  0  0  0  0  0  0  0  0
    5.5350   -0.2036   -0.9303 C   0  0  0  0  0  0  0  0  0  0  0  0
    0.5079    1.0189   -1.8005 C   0  0  0  0  0  0  0  0  0  0  0  0
    1.2410   -0.1415   -2.4387 C   0  0  0  0  0  0  0  0  0  0  0  0
   -5.1140    1.7289   -2.7800 H   0  0  0  0  0  0  0  0  0  0  0  0
    3.3586   -0.1106    1.4489 H   0  0  0  0  0  0  0  0  0  0  0  0
   -0.5822   -2.1846   -0.2155 H   0  0  0  0  0  0  0  0  0  0  0  0
   -0.4676   -1.1851   -1.6859 H   0  0  0  0  0  0  0  0  0  0  0  0
    4.7051    1.5265    2.6101 H   0  0  0  0  0  0  0  0  0  0  0  0
   -1.7304   -0.5576    1.0260 H   0  0  0  0  0  0  0  0  0  0  0  0
   -1.5974    0.6960   -0.2007 H   0  0  0  0  0  0  0  0  0  0  0  0
   -2.5986   -0.8561   -1.9043 H   0  0  0  0  0  0  0  0  0  0  0  0
    5.2112   -0.4841   -2.4411 H   0  0  0  0  0  0  0  0  0  0  0  0
    6.9238   -0.4129   -2.0646 H   0  0  0  0  0  0  0  0  0  0  0  0
    6.1803   -2.0083   -2.0833 H   0  0  0  0  0  0  0  0  0  0  0  0
   -2.2124   -2.8926   -1.0220 H   0  0  0  0  0  0  0  0  0  0  0  0
   -5.6192    1.1016   -0.9025 H   0  0  0  0  0  0  0  0  0  0  0  0
   -2.8890    2.4639   -0.6247 H   0  0  0  0  0  0  0  0  0  0  0  0
    6.7923    2.8411    3.3037 H   0  0  0  0  0  0  0  0  0  0  0  0
    7.1702    2.9569    1.5680 H   0  0  0  0  0  0  0  0  0  0  0  0
    5.6619    3.6640    2.1912 H   0  0  0  0  0  0  0  0  0  0  0  0
    0.5002    1.4044   -0.1849 H   0  0  0  0  0  0  0  0  0  0  0  0
    6.4444    0.5827    3.7794 H   0  0  0  0  0  0  0  0  0  0  0  0
    6.1324   -0.6171    2.5016 H   0  0  0  0  0  0  0  0  0  0  0  0
    7.5785    0.5328    2.4292 H   0  0  0  0  0  0  0  0  0  0  0  0
   -4.9345    1.3919    1.3615 H   0  0  0  0  0  0  0  0  0  0  0  0
   -3.1339    1.3997    1.5220 H   0  0  0  0  0  0  0  0  0  0  0  0
   -5.2844    3.3556   -1.5740 H   0  0  0  0  0  0  0  0  0  0  0  0
   -4.1046    4.3822   -0.6986 H   0  0  0  0  0  0  0  0  0  0  0  0
   -3.0512    3.6655    2.2403 H   0  0  0  0  0  0  0  0  0  0  0  0
   -4.3900    2.8545    3.0652 H   0  0  0  0  0  0  0  0  0  0  0  0
   -6.3368    2.8260    0.7156 H   0  0  0  0  0  0  0  0  0  0  0  0
   -6.4562    4.5132    0.0708 H   0  0  0  0  0  0  0  0  0  0  0  0
   -5.1632   -2.5777   -0.6446 H   0  0  0  0  0  0  0  0  0  0  0  0
   -4.3551   -2.4328   -2.2985 H   0  0  0  0  0  0  0  0  0  0  0  0
   -2.3623   -2.4051    1.5443 H   0  0  0  0  0  0  0  0  0  0  0  0
   -4.1469   -2.4034    1.3193 H   0  0  0  0  0  0  0  0  0  0  0  0
   -5.0053   -4.8230   -1.8911 H   0  0  0  0  0  0  0  0  0  0  0  0
   -3.1939   -4.5776   -1.7132 H   0  0  0  0  0  0  0  0  0  0  0  0
   -3.4392   -4.5481    2.0166 H   0  0  0  0  0  0  0  0  0  0  0  0
   -2.2383   -4.7115    0.6978 H   0  0  0  0  0  0  0  0  0  0  0  0
   -4.0840   -5.9676    0.0587 H   0  0  0  0  0  0  0  0  0  0  0  0
   -5.2899   -4.7360    0.4994 H   0  0  0  0  0  0  0  0  0  0  0  0
    1.4619   -2.5850   -0.8071 H   0  0  0  0  0  0  0  0  0  0  0  0
    6.8213    1.3001   -0.9771 H   0  0  0  0  0  0  0  0  0  0  0  0
    5.1838    2.3030    0.1544 H   0  0  0  0  0  0  0  0  0  0  0  0
    7.8365   -0.6621   -0.2131 H   0  0  0  0  0  0  0  0  0  0  0  0
   -4.7683   -0.6633    0.0261 H   0  0  0  0  0  0  0  0  0  0  0  0
    2.6039    1.8134    0.5656 H   0  0  0  0  0  0  0  0  0  0  0  0
    3.1155    1.4659   -1.0820 H   0  0  0  0  0  0  0  0  0  0  0  0
    3.1498   -2.2021    0.6573 H   0  0  0  0  0  0  0  0  0  0  0  0
    3.8437   -1.8039   -0.9986 H   0  0  0  0  0  0  0  0  0  0  0  0
    5.5627   -1.7873    0.0914 H   0  0  0  0  0  0  0  0  0  0  0  0
    1.7847    1.2369   -2.4794 H   0  0  0  0  0  0  0  0  0  0  0  0
    0.1406    0.5676   -2.4322 H   0  0  0  0  0  0  0  0  0  0  0  0
    2.8095   -0.7722   -2.4992 H   0  0  0  0  0  0  0  0  0  0  0  0
    1.1818   -1.5763   -2.8772 H   0  0  0  0  0  0  0  0  0  0  0  0
   -4.8903    0.4846   -1.4676 H   0  0  0  0  0  0  0  0  0  0  0  0
    3.3336   -0.2004    0.9693 H   0  0  0  0  0  0  0  0  0  0  0  0
   -0.5184   -2.2445   -0.4496 H   0  0  0  0  0  0  0  0  0  0  0  0
   -0.9394   -0.8863   -1.5193 H   0  0  0  0  0  0  0  0  0  0  0  0
    4.2634    1.4407    2.3334 H   0  0  0  0  0  0  0  0  0  0  0  0
   -1.3581   -1.2527    1.5135 H   0  0  0  0  0  0  0  0  0  0  0  0
   -1.7485    0.2877    0.7863 H   0  0  0  0  0  0  0  0  0  0  0  0
   -3.0097   -0.9812   -1.0427 H   0  0  0  0  0  0  0  0  0  0  0  0
    5.1184    0.6191   -2.9128 H   0  0  0  0  0  0  0  0  0  0  0  0
    6.8198    0.2807   -2.5626 H   0  0  0  0  0  0  0  0  0  0  0  0
    5.7803   -1.0999   -2.9077 H   0  0  0  0  0  0  0  0  0  0  0  0
   -2.2689   -3.0858   -0.8463 H   0  0  0  0  0  0  0  0  0  0  0  0
   -5.6750    0.3665    1.2533 H   0  0  0  0  0  0  0  0  0  0  0  0
   -3.4309    1.6354    1.7869 H   0  0  0  0  0  0  0  0  0  0  0  0
    6.0406    2.6240    3.5130 H   0  0  0  0  0  0  0  0  0  0  0  0
    6.9210    2.8856    1.9455 H   0  0  0  0  0  0  0  0  0  0  0  0
    5.3037    3.6035    2.2254 H   0  0  0  0  0  0  0  0  0  0  0  0
    0.1653    1.3803    0.2930 H   0  0  0  0  0  0  0  0  0  0  0  0
    5.8966    0.2231    3.3674 H   0  0  0  0  0  0  0  0  0  0  0  0
    5.6706   -0.6524    1.8403 H   0  0  0  0  0  0  0  0  0  0  0  0
    7.1239    0.4052    2.1056 H   0  0  0  0  0  0  0  0  0  0  0  0
   -5.8648    2.7053    0.3355 H   0  0  0  0  0  0  0  0  0  0  0  0
   -5.7002    2.3188    2.0964 H   0  0  0  0  0  0  0  0  0  0  0  0
   -3.2248    1.6543   -1.1130 H   0  0  0  0  0  0  0  0  0  0  0  0
   -2.1759    2.4886    0.0658 H   0  0  0  0  0  0  0  0  0  0  0  0
   -4.3340    4.1804    2.5637 H   0  0  0  0  0  0  0  0  0  0  0  0
   -5.5651    4.7747    1.4400 H   0  0  0  0  0  0  0  0  0  0  0  0
   -4.7772    3.6801   -1.0596 H   0  0  0  0  0  0  0  0  0  0  0  0
   -3.0103    4.0412   -1.4208 H   0  0  0  0  0  0  0  0  0  0  0  0
   -4.9397   -3.4481    0.4423 H   0  0  0  0  0  0  0  0  0  0  0  0
   -4.7972   -2.6520   -1.2228 H   0  0  0  0  0  0  0  0  0  0  0  0
   -1.6967   -3.2202    1.7336 H   0  0  0  0  0  0  0  0  0  0  0  0
   -3.4523   -3.5938    1.9340 H   0  0  0  0  0  0  0  0  0  0  0  0
   -5.0523   -5.1389   -1.3490 H   0  0  0  0  0  0  0  0  0  0  0  0
   -3.3989   -4.5524   -1.8874 H   0  0  0  0  0  0  0  0  0  0  0  0
   -2.1956   -5.6075    1.6894 H   0  0  0  0  0  0  0  0  0  0  0  0
   -1.4119   -5.0315    0.1690 H   0  0  0  0  0  0  0  0  0  0  0  0
   -3.0581   -6.4615   -0.5564 H   0  0  0  0  0  0  0  0  0  0  0  0
   -4.2780   -5.9928    0.6529 H   0  0  0  0  0  0  0  0  0  0  0  0
    1.3155   -2.1350   -1.5930 H   0  0  0  0  0  0  0  0  0  0  0  0
    6.5178    2.0407   -1.1481 H   0  0  0  0  0  0  0  0  0  0  0  0
    4.7846    2.7211    0.1524 H   0  0  0  0  0  0  0  0  0  0  0  0
    7.6006    0.0199   -0.7521 H   0  0  0  0  0  0  0  0  0  0  0  0
   -4.7339   -1.5348    1.0942 H   0  0  0  0  0  0  0  0  0  0  0  0
    2.3099    1.8036    0.8411 H   0  0  0  0  0  0  0  0  0  0  0  0
    2.5143    2.0337   -0.8951 H   0  0  0  0  0  0  0  0  0  0  0  0
    3.2621   -1.9677   -0.4185 H   0  0  0  0  0  0  0  0  0  0  0  0
    3.5440   -0.9678   -1.9367 H   0  0  0  0  0  0  0  0  0  0  0  0
    5.2978   -1.2578   -0.6862 H   0  0  0  0  0  0  0  0  0  0  0  0
    0.9199    1.9961   -2.1339 H   0  0  0  0  0  0  0  0  0  0  0  0
   -0.5611    1.0494   -1.9880 H   0  0  0  0  0  0  0  0  0  0  0  0
    2.2081    0.2493   -2.8592 H   0  0  0  0  0  0  0  0  0  0  0  0
    0.6573   -0.6341   -3.2296 H   0  0  0  0  0  0  0  0  0  0  0  0
  3  4  1  0
  5  7  1  0
  7  8  1  0
  8 10  1  0
  2 11  1  0
 11 12  1  0
 13  1  1  0
  6 14  1  0
 13 15  1  0
  5 16  1  0
 16 17  1  0
  6 18  1  0
 12 19  1  0
 12 20  1  0
 13 21  1  0
 19 21  1  0
 13 22  1  0
 20 22  1  0
 10 23  1  0
 10 24  1  0
 23 25  1  0
 24 26  1  0
 25 27  1  0
 26 27  1  0
 16 28  1  0
  4 30  1  0
  6 30  1  0
 29 30  1  0
 29 31  1  0
  8 32  1  0
 11 32  1  0
  3 33  1  0
 17 33  1  0
  3 34  1  0
 28 34  1  0
  4 35  1  0
  9 35  1  0
 31 35  1  0
 17 36  1  0
 28 37  1  0
 36 37  1  0
 40 41  1  0
 42 44  1  0
 44 45  1  0
 45 47  1  0
 39 48  1  0
 48 49  1  0
 50 38  1  0
 43 51  1  0
 50 52  1  0
 42 53  1  0
 53 54  1  0
 43 55  1  0
 49 56  1  0
 49 57  1  0
 50 58  1  0
 56 58  1  0
 50 59  1  0
 57 59  1  0
 47 60  1  0
 47 61  1  0
 60 62  1  0
 61 63  1  0
 62 64  1  0
 63 64  1  0
 53 65  1  0
 41 67  1  0
 43 67  1  0
 66 67  1  0
 66 68  1  0
 45 69  1  0
 48 69  1  0
 40 70  1  0
 54 70  1  0
 40 71  1  0
 65 71  1  0
 41 72  1  0
 46 72  1  0
 68 72  1  0
 54 73  1  0
 65 74  1  0
 73 74  1  0
  2 75  1  0
  3 76  1  0
  5 77  1  0
  5 78  1  0
  6 79  1  0
  7 80  1  0
  7 81  1  0
  8 82  1  6
  9 83  1  0
  9 84  1  0
  9 85  1  0
 10 86  1  0
 11 87  1  6
 12 88  1  0
 14 89  1  0
 14 90  1  0
 14 91  1  0
 17 92  1  1
 18 93  1  0
 18 94  1  0
 18 95  1  0
 19 96  1  0
 19 97  1  0
 20 98  1  0
 20 99  1  0
 21100  1  0
 21101  1  0
 22102  1  0
 22103  1  0
 23104  1  0
 23105  1  0
 24106  1  0
 24107  1  0
 25108  1  0
 25109  1  0
 26110  1  0
 26111  1  0
 27112  1  0
 27113  1  0
 28114  1  6
 29115  1  0
 30116  1  6
 31117  1  0
 32118  1  0
 33119  1  0
 33120  1  0
 34121  1  0
 34122  1  0
 35123  1  0
 36124  1  0
 36125  1  0
 37126  1  0
 37127  1  0
 39128  1  0
 40129  1  0
 42130  1  0
 42131  1  0
 43132  1  0
 44133  1  0
 44134  1  0
 45135  1  6
 46136  1  0
 46137  1  0
 46138  1  0
 47139  1  0
 48140  1  1
 49141  1  0
 51142  1  0
 51143  1  0
 51144  1  0
 54145  1  1
 55146  1  0
 55147  1  0
 55148  1  0
 56149  1  0
 56150  1  0
 57151  1  0
 57152  1  0
 58153  1  0
 58154  1  0
 59155  1  0
 59156  1  0
 60157  1  0
 60158  1  0
 61159  1  0
 61160  1  0
 62161  1  0
 62162  1  0
 63163  1  0
 63164  1  0
 64165  1  0
 64166  1  0
 65167  1  6
 66168  1  0
 67169  1  0
 68170  1  0
 69171  1  0
 70172  1  0
 70173  1  0
 71174  1  0
 71175  1  0
 72176  1  0
 73177  1  0
 73178  1  0
 74179  1  0
 74180  1  0
M  END
>  <PDBID>  (1) 
4MBS

>  <PDB ID>  (1) 
4MBS

>  <Generic Name>  (1) 
Maraviroc

>  <Brand Name>  (1) 
Celsentri#Selzentry

>  <DrugBank ID>  (1) 
DB04835

>  <ATC Codes>  (1) 
J05AX09

>  <Ligand ID>  (1) 
MRV

>  <Target Name>  (1) 
C-C chemokine receptor type 5

>  <UniProt ID>  (1) 
P51681

>  <PDB ID.1>  (1) 
4MBS

>  <Seq. Identity>  (1) 
74%

$$$$
