PDB_DB09063_03
     RDKit          3D

 94 97  0  0  0  0  0  0  0  0999 V2000
   -2.4669    4.2875    0.5156 C   0  0  0  0  0  0  0  0  0  0  0  0
   -3.0694    3.3309   -0.4927 C   0  0  0  0  0  0  0  0  0  0  0  0
   -4.4121    3.8986   -0.8943 C   0  0  0  0  0  0  0  0  0  0  0  0
   -3.1697    2.1029    0.1338 O   0  0  0  0  0  0  0  0  0  0  0  0
   -2.4742    1.0798   -0.4571 C   0  0  0  0  0  0  0  0  0  0  0  0
   -3.4985    0.0343   -0.8854 C   0  0  0  0  0  0  0  0  0  0  0  0
   -4.3172   -0.2502    0.3722 C   0  0  1  0  0  0  0  0  0  0  0  0
   -5.6232   -0.8821    0.0590 C   0  0  0  0  0  0  0  0  0  0  0  0
   -5.5489   -2.1955   -0.6586 C   0  0  0  0  0  0  0  0  0  0  0  0
   -6.9682   -2.5505   -1.0719 C   0  0  0  0  0  0  0  0  0  0  0  0
   -7.9493   -1.6749   -0.5096 N   0  0  0  0  0  0  0  0  0  0  0  0
   -7.8751   -1.5469    0.9229 C   0  0  0  0  0  0  0  0  0  0  0  0
   -6.4870   -1.0591    1.2783 C   0  0  0  0  0  0  0  0  0  0  0  0
   -3.5220   -0.8925    1.4565 C   0  0  0  0  0  0  0  0  0  0  0  0
   -2.9363   -2.2119    1.1441 C   0  0  0  0  0  0  0  0  0  0  0  0
   -2.3942    0.0999    1.7861 C   0  0  0  0  0  0  0  0  0  0  0  0
   -1.5891    0.3915    0.5418 C   0  0  0  0  0  0  0  0  0  0  0  0
   -0.4159    1.0930    0.9077 N   0  0  0  0  0  0  0  0  0  0  0  0
    0.5227    1.3451   -0.1427 C   0  0  0  0  0  0  0  0  0  0  0  0
    1.6690    2.0300    0.4119 N   0  0  0  0  0  0  0  0  0  0  0  0
    2.4325    2.6000   -0.6995 C   0  0  0  0  0  0  0  0  0  0  0  0
    2.3662    1.6509   -1.8873 C   0  0  1  0  0  0  0  0  0  0  0  0
    3.7022    1.9432   -2.9606 Cl  0  0  0  0  0  0  0  0  0  0  0  0
    2.2442    0.2435   -1.4431 C   0  0  0  0  0  0  0  0  0  0  0  0
    3.3141   -0.3037   -0.7262 N   0  0  0  0  0  0  0  0  0  0  0  0
    4.5387   -0.4902   -1.3844 C   0  0  2  0  0  0  0  0  0  0  0  0
    4.2933   -1.4938   -2.5339 C   0  0  0  0  0  0  0  0  0  0  0  0
    3.6244   -2.7505   -2.0370 C   0  0  0  0  0  0  0  0  0  0  0  0
    4.3253   -3.3788   -0.8585 C   0  0  0  0  0  0  0  0  0  0  0  0
    4.8893   -2.3948    0.1242 C   0  0  0  0  0  0  0  0  0  0  0  0
    5.5807   -1.2257   -0.5087 C   0  0  2  0  0  0  0  0  0  0  0  0
    6.4556   -0.3100    0.5426 S   0  0  0  0  0  0  0  0  0  0  0  0
    7.2082    0.9295   -0.5113 O   0  0  0  0  0  0  0  0  0  0  0  0
    7.7402   -1.1088    1.0712 O   0  0  0  0  0  0  0  0  0  0  0  0
    5.7078    0.5692    1.6810 C   0  0  0  0  0  0  0  0  0  0  0  0
    6.7138    1.4116    2.4923 C   0  0  0  0  0  0  0  0  0  0  0  0
    4.9882   -0.2684    2.7163 C   0  0  0  0  0  0  0  0  0  0  0  0
    0.9691    0.0765   -0.6757 N   0  0  0  0  0  0  0  0  0  0  0  0
   -3.0913    5.2052    0.6396 H   0  0  0  0  0  0  0  0  0  0  0  0
   -2.3391    3.8234    1.5152 H   0  0  0  0  0  0  0  0  0  0  0  0
   -1.4683    4.6510    0.1852 H   0  0  0  0  0  0  0  0  0  0  0  0
   -2.4362    3.3446   -1.3865 H   0  0  0  0  0  0  0  0  0  0  0  0
   -4.2249    4.9953   -1.0987 H   0  0  0  0  0  0  0  0  0  0  0  0
   -5.1233    3.8897   -0.0363 H   0  0  0  0  0  0  0  0  0  0  0  0
   -4.8174    3.4896   -1.8203 H   0  0  0  0  0  0  0  0  0  0  0  0
   -1.9339    1.3533   -1.3637 H   0  0  0  0  0  0  0  0  0  0  0  0
   -2.9884   -0.8536   -1.2696 H   0  0  0  0  0  0  0  0  0  0  0  0
   -4.1980    0.3899   -1.6394 H   0  0  0  0  0  0  0  0  0  0  0  0
   -4.5573    0.7906    0.7554 H   0  0  0  0  0  0  0  0  0  0  0  0
   -6.1762   -0.1658   -0.6141 H   0  0  0  0  0  0  0  0  0  0  0  0
   -4.9479   -2.1676   -1.5650 H   0  0  0  0  0  0  0  0  0  0  0  0
   -5.2364   -2.9542    0.0862 H   0  0  0  0  0  0  0  0  0  0  0  0
   -7.2122   -3.5773   -0.7834 H   0  0  0  0  0  0  0  0  0  0  0  0
   -7.0926   -2.4975   -2.1867 H   0  0  0  0  0  0  0  0  0  0  0  0
   -8.0816   -0.7723   -0.9811 H   0  0  0  0  0  0  0  0  0  0  0  0
   -8.1274   -2.5013    1.4280 H   0  0  0  0  0  0  0  0  0  0  0  0
   -8.6036   -0.7722    1.2296 H   0  0  0  0  0  0  0  0  0  0  0  0
   -5.9811   -1.7893    1.9514 H   0  0  0  0  0  0  0  0  0  0  0  0
   -6.5353   -0.0826    1.8012 H   0  0  0  0  0  0  0  0  0  0  0  0
   -4.1580   -0.9426    2.3553 H   0  0  0  0  0  0  0  0  0  0  0  0
   -2.8894   -2.4610    0.0635 H   0  0  0  0  0  0  0  0  0  0  0  0
   -3.4172   -3.0370    1.7285 H   0  0  0  0  0  0  0  0  0  0  0  0
   -1.8638   -2.2239    1.4884 H   0  0  0  0  0  0  0  0  0  0  0  0
   -1.7170   -0.4548    2.4958 H   0  0  0  0  0  0  0  0  0  0  0  0
   -2.7981    1.0144    2.2743 H   0  0  0  0  0  0  0  0  0  0  0  0
   -1.3095   -0.6059    0.1200 H   0  0  0  0  0  0  0  0  0  0  0  0
    0.0576    0.7004    1.7420 H   0  0  0  0  0  0  0  0  0  0  0  0
    0.0909    1.9082   -0.9926 H   0  0  0  0  0  0  0  0  0  0  0  0
    1.4266    2.7447    1.1281 H   0  0  0  0  0  0  0  0  0  0  0  0
    1.9236    3.5308   -0.9923 H   0  0  0  0  0  0  0  0  0  0  0  0
    3.4429    2.8268   -0.3633 H   0  0  0  0  0  0  0  0  0  0  0  0
    1.4297    1.9254   -2.4687 H   0  0  0  0  0  0  0  0  0  0  0  0
    2.0499   -0.3608   -2.3873 H   0  0  0  0  0  0  0  0  0  0  0  0
    2.9645   -1.2038   -0.2824 H   0  0  0  0  0  0  0  0  0  0  0  0
    4.9995    0.3919   -1.8222 H   0  0  0  0  0  0  0  0  0  0  0  0
    3.7038   -1.0656   -3.3409 H   0  0  0  0  0  0  0  0  0  0  0  0
    5.2946   -1.7464   -2.9396 H   0  0  0  0  0  0  0  0  0  0  0  0
    2.5408   -2.6119   -1.8599 H   0  0  0  0  0  0  0  0  0  0  0  0
    3.6870   -3.4778   -2.8785 H   0  0  0  0  0  0  0  0  0  0  0  0
    3.5370   -3.9582   -0.2920 H   0  0  0  0  0  0  0  0  0  0  0  0
    5.0945   -4.0943   -1.1527 H   0  0  0  0  0  0  0  0  0  0  0  0
    4.1940   -2.1332    0.9505 H   0  0  0  0  0  0  0  0  0  0  0  0
    5.7162   -2.9611    0.6643 H   0  0  0  0  0  0  0  0  0  0  0  0
    6.2759   -1.6958   -1.2827 H   0  0  0  0  0  0  0  0  0  0  0  0
    7.1308    0.5737   -1.4272 H   0  0  0  0  0  0  0  0  0  0  0  0
    8.5855   -0.7572    0.7395 H   0  0  0  0  0  0  0  0  0  0  0  0
    4.9891    1.3257    1.2922 H   0  0  0  0  0  0  0  0  0  0  0  0
    6.1936    2.1697    3.0982 H   0  0  0  0  0  0  0  0  0  0  0  0
    7.1871    0.6948    3.2063 H   0  0  0  0  0  0  0  0  0  0  0  0
    7.5170    1.8042    1.8482 H   0  0  0  0  0  0  0  0  0  0  0  0
    3.9039   -0.3173    2.5243 H   0  0  0  0  0  0  0  0  0  0  0  0
    5.4907   -1.2618    2.7325 H   0  0  0  0  0  0  0  0  0  0  0  0
    5.1140    0.1230    3.7534 H   0  0  0  0  0  0  0  0  0  0  0  0
    0.2163   -0.2914   -1.2850 H   0  0  0  0  0  0  0  0  0  0  0  0
  1  2  1  0
  2  3  1  0
  2  4  1  0
  4  5  1  0
  5  6  1  0
  6  7  1  0
  7  8  1  0
  8  9  1  0
  9 10  1  0
 10 11  1  0
 11 12  1  0
  8 13  1  0
 12 13  1  0
  7 14  1  0
 14 15  1  0
 14 16  1  0
  5 17  1  0
 16 17  1  0
 17 18  1  0
 18 19  1  0
 19 20  1  0
 20 21  1  0
 21 22  1  0
 22 23  1  0
 22 24  1  0
 24 25  1  0
 25 26  1  0
 26 27  1  0
 27 28  1  0
 28 29  1  0
 29 30  1  0
 26 31  1  0
 30 31  1  0
 31 32  1  0
 32 33  1  0
 32 34  1  0
 32 35  1  0
 35 36  1  0
 35 37  1  0
 19 38  1  0
 24 38  1  0
  1 39  1  0
  1 40  1  0
  1 41  1  0
  2 42  1  0
  3 43  1  0
  3 44  1  0
  3 45  1  0
  5 46  1  0
  6 47  1  0
  6 48  1  0
  7 49  1  1
  8 50  1  0
  9 51  1  0
  9 52  1  0
 10 53  1  0
 10 54  1  0
 11 55  1  0
 12 56  1  0
 12 57  1  0
 13 58  1  0
 13 59  1  0
 14 60  1  0
 15 61  1  0
 15 62  1  0
 15 63  1  0
 16 64  1  0
 16 65  1  0
 17 66  1  0
 18 67  1  0
 19 68  1  0
 20 69  1  0
 21 70  1  0
 21 71  1  0
 22 72  1  6
 24 73  1  0
 25 74  1  0
 26 75  1  6
 27 76  1  0
 27 77  1  0
 28 78  1  0
 28 79  1  0
 29 80  1  0
 29 81  1  0
 30 82  1  0
 30 83  1  0
 31 84  1  6
 33 85  1  0
 34 86  1  0
 35 87  1  0
 36 88  1  0
 36 89  1  0
 36 90  1  0
 37 91  1  0
 37 92  1  0
 37 93  1  0
 38 94  1  0
M  END
>  <PDBID>  (1) 
4MKC

>  <PDB ID>  (1) 
4MKC

>  <Generic Name>  (1) 
Ceritinib

>  <Brand Name>  (1) 
Zykadia

>  <DrugBank ID>  (1) 
DB09063

>  <ATC Codes>  (1) 
L01XE28

>  <Ligand ID>  (1) 
4MK

>  <Target Name>  (1) 
ALK tyrosine kinase receptor

>  <UniProt ID>  (1) 
Q9UM73

>  <PDB ID.1>  (1) 
4MKC

>  <Seq. Identity>  (1) 
99%

$$$$
