PDB_DB00869_00
     RDKit          3D

 43 44  0  0  0  0  0  0  0  0999 V2000
    1.8632   -1.9877   -0.4346 S   0  0  0  0  0  0  0  0  0  0  0  0
    2.3489   -0.5650    0.6188 C   0  0  0  0  0  0  0  0  0  0  0  0
    1.2111    0.3584    0.6278 C   0  0  0  0  0  0  0  0  0  0  0  0
    0.1558    0.0435   -0.3291 C   0  0  0  0  0  0  0  0  0  0  0  0
   -1.1833    0.3877    0.2939 C   0  0  2  0  0  0  0  0  0  0  0  0
   -2.3568    0.0033   -0.5653 C   0  0  0  0  0  0  0  0  0  0  0  0
   -2.5064   -1.4679   -0.7274 C   0  0  1  0  0  0  0  0  0  0  0  0
   -1.0574   -2.3045   -0.0998 S   0  0  0  0  0  0  0  0  0  0  0  0
    0.2009   -1.3386   -0.8332 C   0  0  2  0  0  0  0  0  0  0  0  0
    3.8224    0.1522    0.0368 S   0  0  0  0  0  0  0  0  0  0  0  0
    4.2347    1.2934    1.2249 O   0  0  0  0  0  0  0  0  0  0  0  0
    3.3880    1.1532   -1.2622 O   0  0  0  0  0  0  0  0  0  0  0  0
    4.9182   -0.8061   -0.3758 N   0  0  0  0  0  0  0  0  0  0  0  0
   -1.1579    1.7377    0.6927 N   0  0  0  0  0  0  0  0  0  0  0  0
   -3.7535   -2.0381   -0.1109 C   0  0  0  0  0  0  0  0  0  0  0  0
   -1.0228   -3.9930   -0.8433 O   0  0  0  0  0  0  0  0  0  0  0  0
   -1.0088   -2.5288    1.6036 O   0  0  0  0  0  0  0  0  0  0  0  0
   -1.0005    2.7368   -0.2685 C   0  0  0  0  0  0  0  0  0  0  0  0
   -1.0088    4.0984    0.4376 C   0  0  0  0  0  0  0  0  0  0  0  0
    2.5759   -1.0205    1.6064 H   0  0  0  0  0  0  0  0  0  0  0  0
    0.8121    0.4163    1.6849 H   0  0  0  0  0  0  0  0  0  0  0  0
    1.6056    1.4044    0.4506 H   0  0  0  0  0  0  0  0  0  0  0  0
    0.2488    0.7293   -1.2206 H   0  0  0  0  0  0  0  0  0  0  0  0
   -1.2629   -0.2409    1.2238 H   0  0  0  0  0  0  0  0  0  0  0  0
   -3.2637    0.3708   -0.0037 H   0  0  0  0  0  0  0  0  0  0  0  0
   -2.3599    0.5413   -1.5346 H   0  0  0  0  0  0  0  0  0  0  0  0
   -2.5812   -1.6748   -1.8331 H   0  0  0  0  0  0  0  0  0  0  0  0
    0.1018   -1.4098   -1.9356 H   0  0  0  0  0  0  0  0  0  0  0  0
    4.4944    0.8047    2.0701 H   0  0  0  0  0  0  0  0  0  0  0  0
    3.5995    0.6447   -2.0830 H   0  0  0  0  0  0  0  0  0  0  0  0
    4.9411   -1.7735    0.0179 H   0  0  0  0  0  0  0  0  0  0  0  0
    5.1730   -0.8940   -1.4004 H   0  0  0  0  0  0  0  0  0  0  0  0
   -0.9411    1.9482    1.6683 H   0  0  0  0  0  0  0  0  0  0  0  0
   -4.5199   -2.3223   -0.8904 H   0  0  0  0  0  0  0  0  0  0  0  0
   -3.4599   -3.0290    0.3448 H   0  0  0  0  0  0  0  0  0  0  0  0
   -4.2519   -1.3804    0.6006 H   0  0  0  0  0  0  0  0  0  0  0  0
   -0.1527   -4.3202   -0.5012 H   0  0  0  0  0  0  0  0  0  0  0  0
   -1.9243   -2.4997    1.9648 H   0  0  0  0  0  0  0  0  0  0  0  0
   -1.7847    2.8008   -1.0468 H   0  0  0  0  0  0  0  0  0  0  0  0
   -0.0095    2.6920   -0.7644 H   0  0  0  0  0  0  0  0  0  0  0  0
   -1.5687    4.8563   -0.1598 H   0  0  0  0  0  0  0  0  0  0  0  0
    0.0224    4.4353    0.6740 H   0  0  0  0  0  0  0  0  0  0  0  0
   -1.5813    3.9857    1.3816 H   0  0  0  0  0  0  0  0  0  0  0  0
  1  2  1  0
  2  3  1  0
  3  4  1  0
  4  5  1  0
  5  6  1  0
  6  7  1  0
  7  8  1  0
  1  9  1  0
  4  9  1  0
  8  9  1  0
  2 10  1  0
 10 11  1  0
 10 12  1  0
 10 13  1  0
  5 14  1  0
  7 15  1  0
  8 16  1  0
  8 17  1  0
 14 18  1  0
 18 19  1  0
  2 20  1  0
  3 21  1  0
  3 22  1  0
  4 23  1  0
  5 24  1  1
  6 25  1  0
  6 26  1  0
  7 27  1  6
  9 28  1  6
 11 29  1  0
 12 30  1  0
 13 31  1  0
 13 32  1  0
 14 33  1  0
 15 34  1  0
 15 35  1  0
 15 36  1  0
 16 37  1  0
 17 38  1  0
 18 39  1  0
 18 40  1  0
 19 41  1  0
 19 42  1  0
 19 43  1  0
M  END
>  <PDBID>  (1) 
1CIL

>  <PDB ID>  (1) 
1CIL

>  <Generic Name>  (1) 
Dorzolamide

>  <Brand Name>  (1) 
Act Dorzotimolol#Apo-dorzo-timop#Apo-dorzolamide#Cosopt#Cosopt PF#Dorzolamide#Dorzolamide HCl#Dorzolamide HCl /timolol Maleate#Dorzolamide HCl and Timolol Maleate#Dorzolamide Hydrochloride#Dorzolamide Hydrochloride Ophthalmic Solution#Dorzolamide Hydrochloride Ophthalmic Solution 2%, 10ml Ophthalmic Solution 2%, 10ml#Dorzolamide Hydrochloride and Timolol Maleate#Dorzolamide Hydrochloride and Timolol Maleate Ophthalmic Solution#Dorzolamide Hydrochloride-timolol Maleate#Dorzolamide Hydrochloride-timolol Maleate Ophthalmic Solution Sterile Ophthalmic Solution#Jamp-dorzolamide#Jamp-dorzolamide/timolol#Med-dorzolamide#Med-dorzolamide-timolol#Mint-dorzolamide/timolol#Mylan-dorzolamide/timolol#PMS-dorzolamide-timolol#Riva-dorzolamide#Riva-dorzolamide/timolol#Sandoz Dorzolamide#Sandoz Dorzolamide/timolol#Teva-dorzotimol#Trusopt#Van-dorzolamide-timolol

>  <DrugBank ID>  (1) 
DB00869

>  <ATC Codes>  (1) 
S01EC03

>  <Ligand ID>  (1) 
ETS

>  <Target Name>  (1) 
Carbonic anhydrase 2

>  <UniProt ID>  (1) 
P00918

>  <PDB ID.1>  (1) 
1CIL

>  <Seq. Identity>  (1) 
100%

$$$$
