PDB_DB06401_06
     RDKit          3D

348367  0  0  0  0  0  0  0  0999 V2000
    7.4062   -0.3508   -0.1359 C   0  0  1  0  0  0  0  0  0  0  0  0
    8.0712   -0.2878   -1.4829 C   0  0  0  0  0  0  0  0  0  0  0  0
    9.5762   -0.3226   -1.3918 C   0  0  0  0  0  0  0  0  0  0  0  0
   10.1252   -0.0268   -0.0371 C   0  0  0  0  0  0  0  0  0  0  0  0
    9.2924    1.1093    0.5631 C   0  0  0  0  0  0  0  0  0  0  0  0
    7.9500    0.4545    0.9022 C   0  0  1  0  0  0  0  0  0  0  0  0
    6.7724    0.9348    0.2496 N   0  0  0  0  0  0  0  0  0  0  0  0
    5.4894    0.7938    0.9192 C   0  0  0  0  0  0  0  0  0  0  0  0
    4.4815    0.2741   -0.0615 C   0  0  0  0  0  0  0  0  0  0  0  0
    3.2311    0.1111    0.5173 O   0  0  0  0  0  0  0  0  0  0  0  0
    2.3562   -0.3508   -0.4355 C   0  0  0  0  0  0  0  0  0  0  0  0
    1.7361   -1.6977   -0.0919 C   0  0  0  0  0  0  0  0  0  0  0  0
    0.3525   -1.8132   -0.6761 C   0  0  0  0  0  0  0  0  0  0  0  0
    1.2039    0.6261   -0.5361 C   0  0  0  0  0  0  0  0  0  0  0  0
    0.2280    0.2552    0.5953 C   0  0  0  0  0  0  0  0  0  0  0  0
   -0.5871   -0.8832    0.1540 C   0  0  0  0  0  0  0  0  0  0  0  0
   -1.8394   -0.6766   -0.6049 C   0  0  0  0  0  0  0  0  0  0  0  0
   -2.8442    0.0706   -0.1132 N   0  0  0  0  0  0  0  0  0  0  0  0
   -2.9176    1.4549    0.0179 C   0  0  0  0  0  0  0  0  0  0  0  0
   -2.3016    2.0697   -1.2177 C   0  0  0  0  0  0  0  0  0  0  0  0
   -2.6200    3.5259   -1.4122 C   0  0  0  0  0  0  0  0  0  0  0  0
   -4.1116    3.6153   -1.6327 C   0  0  0  0  0  0  0  0  0  0  0  0
   -4.4573    2.9817   -2.8180 O   0  0  0  0  0  0  0  0  0  0  0  0
   -4.8436    3.0505   -0.4728 C   0  0  0  0  0  0  0  0  0  0  0  0
   -4.4374    1.7411    0.0403 C   0  0  0  0  0  0  0  0  0  0  0  0
   -4.8975    0.5582   -0.7560 C   0  0  0  0  0  0  0  0  0  0  0  0
   -6.3165    0.4292   -1.0141 C   0  0  0  0  0  0  0  0  0  0  0  0
   -4.1726   -0.5151   -0.0375 C   0  0  2  0  0  0  0  0  0  0  0  0
   -4.4602   -0.8386    1.3331 C   0  0  0  0  0  0  0  0  0  0  0  0
   -3.4993   -1.8935    1.8348 C   0  0  0  0  0  0  0  0  0  0  0  0
   -4.1819   -2.8995    2.7605 C   0  0  0  0  0  0  0  0  0  0  0  0
   -5.2573   -3.6621    2.0589 C   0  0  0  0  0  0  0  0  0  0  0  0
   -4.6459   -4.6111    1.2349 O   0  0  0  0  0  0  0  0  0  0  0  0
   -6.1022   -2.7292    1.2271 C   0  0  0  0  0  0  0  0  0  0  0  0
   -5.8382   -1.3025    1.6989 C   0  0  0  0  0  0  0  0  0  0  0  0
    7.5622   -1.3514    0.4669 C   0  0  1  0  0  0  0  0  0  0  0  0
    7.4226   -0.7467   -0.9161 C   0  0  0  0  0  0  0  0  0  0  0  0
    8.8477   -0.3338   -1.3217 C   0  0  0  0  0  0  0  0  0  0  0  0
    9.1542    0.8852   -0.4817 C   0  0  0  0  0  0  0  0  0  0  0  0
    8.9210    0.7102    0.9742 C   0  0  0  0  0  0  0  0  0  0  0  0
    8.3263   -0.5839    1.3890 C   0  0  1  0  0  0  0  0  0  0  0  0
    6.9284   -0.7676    1.6052 N   0  0  0  0  0  0  0  0  0  0  0  0
    5.9380    0.2350    1.4386 C   0  0  0  0  0  0  0  0  0  0  0  0
    4.6960   -0.3854    0.8394 C   0  0  0  0  0  0  0  0  0  0  0  0
    3.6881    0.5230    0.6342 O   0  0  0  0  0  0  0  0  0  0  0  0
    2.5788   -0.1316    0.0943 C   0  0  0  0  0  0  0  0  0  0  0  0
    2.2790    0.4329   -1.2787 C   0  0  0  0  0  0  0  0  0  0  0  0
    1.0300   -0.2649   -1.7893 C   0  0  0  0  0  0  0  0  0  0  0  0
    1.4026    0.0530    1.0270 C   0  0  0  0  0  0  0  0  0  0  0  0
    0.1346   -0.5238    0.4223 C   0  0  0  0  0  0  0  0  0  0  0  0
   -0.0996    0.2221   -0.8562 C   0  0  0  0  0  0  0  0  0  0  0  0
   -1.4300   -0.1382   -1.5314 C   0  0  0  0  0  0  0  0  0  0  0  0
   -2.5804    0.2053   -0.9050 N   0  0  0  0  0  0  0  0  0  0  0  0
   -2.8620    1.6184   -0.8036 C   0  0  0  0  0  0  0  0  0  0  0  0
   -4.0925    1.9426   -1.5391 C   0  0  0  0  0  0  0  0  0  0  0  0
   -5.1652    2.6294   -0.7736 C   0  0  0  0  0  0  0  0  0  0  0  0
   -4.7125    3.4891    0.3556 C   0  0  0  0  0  0  0  0  0  0  0  0
   -4.5100    4.7954   -0.1593 O   0  0  0  0  0  0  0  0  0  0  0  0
   -3.5027    3.0240    1.0948 C   0  0  0  0  0  0  0  0  0  0  0  0
   -2.9041    1.7483    0.6946 C   0  0  0  0  0  0  0  0  0  0  0  0
   -3.4473    0.4616    1.2052 C   0  0  1  0  0  0  0  0  0  0  0  0
   -4.8093    0.5746    1.8166 C   0  0  0  0  0  0  0  0  0  0  0  0
   -3.3993   -0.4594   -0.0247 C   0  0  2  0  0  0  0  0  0  0  0  0
   -3.3105   -1.8880    0.2117 C   0  0  0  0  0  0  0  0  0  0  0  0
   -4.1867   -2.4751    1.2793 C   0  0  0  0  0  0  0  0  0  0  0  0
   -5.6230   -2.6521    0.9583 C   0  0  0  0  0  0  0  0  0  0  0  0
   -6.1139   -2.2425   -0.3726 C   0  0  0  0  0  0  0  0  0  0  0  0
   -7.1627   -3.1275   -0.7419 O   0  0  0  0  0  0  0  0  0  0  0  0
   -5.1271   -2.2703   -1.4882 C   0  0  0  0  0  0  0  0  0  0  0  0
   -3.7399   -2.6446   -1.0568 C   0  0  0  0  0  0  0  0  0  0  0  0
    6.7029    0.7757    0.4924 C   0  0  0  0  0  0  0  0  0  0  0  0
    7.8940    1.6263    0.3161 C   0  0  0  0  0  0  0  0  0  0  0  0
    8.8617    1.2736   -0.7477 C   0  0  0  0  0  0  0  0  0  0  0  0
    9.3024   -0.1474   -0.8018 C   0  0  0  0  0  0  0  0  0  0  0  0
    8.7676   -1.0180    0.3000 C   0  0  0  0  0  0  0  0  0  0  0  0
    7.3780   -1.4466   -0.1414 C   0  0  0  0  0  0  0  0  0  0  0  0
    6.5163   -0.3413   -0.3221 N   0  0  0  0  0  0  0  0  0  0  0  0
    5.9595   -0.1682   -1.6148 C   0  0  0  0  0  0  0  0  0  0  0  0
    4.5152    0.2600   -1.5829 C   0  0  0  0  0  0  0  0  0  0  0  0
    3.8116   -0.7334   -0.9148 O   0  0  0  0  0  0  0  0  0  0  0  0
    2.4734   -0.4763   -0.7824 C   0  0  0  0  0  0  0  0  0  0  0  0
    1.5538   -1.5726   -1.1983 C   0  0  0  0  0  0  0  0  0  0  0  0
    0.1749   -1.4931   -0.5547 C   0  0  0  0  0  0  0  0  0  0  0  0
    2.2347   -0.2936    0.7269 C   0  0  0  0  0  0  0  0  0  0  0  0
    0.9281    0.3838    0.8870 C   0  0  0  0  0  0  0  0  0  0  0  0
   -0.1614   -0.1486   -0.0679 C   0  0  0  0  0  0  0  0  0  0  0  0
   -1.4301    0.0064    0.6805 C   0  0  0  0  0  0  0  0  0  0  0  0
   -2.6653   -0.2892    0.1473 N   0  0  0  0  0  0  0  0  0  0  0  0
   -3.0544   -1.6595   -0.0167 C   0  0  0  0  0  0  0  0  0  0  0  0
   -3.8910   -1.7631   -1.2475 C   0  0  0  0  0  0  0  0  0  0  0  0
   -5.1784   -2.4853   -1.1422 C   0  0  0  0  0  0  0  0  0  0  0  0
   -4.9910   -3.6030   -0.1145 C   0  0  0  0  0  0  0  0  0  0  0  0
   -6.1231   -4.3822   -0.1168 O   0  0  0  0  0  0  0  0  0  0  0  0
   -4.9340   -2.8322    1.2207 C   0  0  0  0  0  0  0  0  0  0  0  0
   -3.7667   -1.9370    1.2943 C   0  0  0  0  0  0  0  0  0  0  0  0
   -4.0477   -0.5550    1.9245 C   0  0  0  0  0  0  0  0  0  0  0  0
   -5.3981   -0.5228    2.5536 C   0  0  0  0  0  0  0  0  0  0  0  0
   -3.8536    0.3046    0.7465 C   0  0  1  0  0  0  0  0  0  0  0  0
   -3.8399    1.7478    0.7929 C   0  0  0  0  0  0  0  0  0  0  0  0
   -3.6478    2.2844   -0.6503 C   0  0  0  0  0  0  0  0  0  0  0  0
   -3.9138    3.7505   -0.6921 C   0  0  0  0  0  0  0  0  0  0  0  0
   -5.4352    3.9137   -0.7194 C   0  0  0  0  0  0  0  0  0  0  0  0
   -5.8397    3.5849   -2.0107 O   0  0  0  0  0  0  0  0  0  0  0  0
   -6.0242    2.8686    0.2027 C   0  0  0  0  0  0  0  0  0  0  0  0
   -5.0208    2.4984    1.3047 C   0  0  0  0  0  0  0  0  0  0  0  0
    6.8397    0.1187   -0.8815 C   0  0  2  0  0  0  0  0  0  0  0  0
    7.4583   -1.2192   -0.6936 C   0  0  0  0  0  0  0  0  0  0  0  0
    8.8496   -1.1559   -1.3402 C   0  0  0  0  0  0  0  0  0  0  0  0
    9.7282   -0.3855   -0.3789 C   0  0  0  0  0  0  0  0  0  0  0  0
    8.8592    0.4816    0.5309 C   0  0  0  0  0  0  0  0  0  0  0  0
    7.7334    1.1378   -0.1740 C   0  0  2  0  0  0  0  0  0  0  0  0
    6.3539    0.9379    0.1628 N   0  0  0  0  0  0  0  0  0  0  0  0
    5.9221    0.4882    1.4317 C   0  0  0  0  0  0  0  0  0  0  0  0
    4.6572   -0.3220    1.4254 C   0  0  0  0  0  0  0  0  0  0  0  0
    3.5621    0.3875    0.9111 O   0  0  0  0  0  0  0  0  0  0  0  0
    2.4297   -0.3847    0.9173 C   0  0  0  0  0  0  0  0  0  0  0  0
    1.3121    0.1805    1.8005 C   0  0  0  0  0  0  0  0  0  0  0  0
   -0.0458   -0.3062    1.2129 C   0  0  0  0  0  0  0  0  0  0  0  0
    1.8699   -0.4775   -0.4843 C   0  0  0  0  0  0  0  0  0  0  0  0
    0.9810    0.7161   -0.7352 C   0  0  0  0  0  0  0  0  0  0  0  0
   -0.2962    0.6009    0.0598 C   0  0  0  0  0  0  0  0  0  0  0  0
   -1.4876    0.3050   -0.8025 C   0  0  0  0  0  0  0  0  0  0  0  0
   -2.6797    0.3774   -0.0738 N   0  0  0  0  0  0  0  0  0  0  0  0
   -3.0610    1.6758    0.3935 C   0  0  0  0  0  0  0  0  0  0  0  0
   -2.7980    2.7811   -0.5511 C   0  0  0  0  0  0  0  0  0  0  0  0
   -3.4941    4.0768   -0.0905 C   0  0  0  0  0  0  0  0  0  0  0  0
   -4.9769    3.8100   -0.1988 C   0  0  0  0  0  0  0  0  0  0  0  0
   -5.3811    3.5737   -1.4889 O   0  0  0  0  0  0  0  0  0  0  0  0
   -5.3145    2.7480    0.7932 C   0  0  0  0  0  0  0  0  0  0  0  0
   -4.5658    1.4831    0.6535 C   0  0  0  0  0  0  0  0  0  0  0  0
   -4.8529    0.7240   -0.6121 C   0  0  0  0  0  0  0  0  0  0  0  0
   -6.2693    0.4161   -0.8648 C   0  0  0  0  0  0  0  0  0  0  0  0
   -3.8416   -0.3301   -0.5274 C   0  0  2  0  0  0  0  0  0  0  0  0
   -4.0458   -1.4791    0.3525 C   0  0  0  0  0  0  0  0  0  0  0  0
   -2.9500   -2.4898    0.0743 C   0  0  0  0  0  0  0  0  0  0  0  0
   -3.3756   -3.9145    0.3856 C   0  0  0  0  0  0  0  0  0  0  0  0
   -4.4698   -4.3420   -0.5540 C   0  0  0  0  0  0  0  0  0  0  0  0
   -3.9749   -4.7806   -1.7776 O   0  0  0  0  0  0  0  0  0  0  0  0
   -5.4233   -3.2000   -0.8266 C   0  0  0  0  0  0  0  0  0  0  0  0
   -5.3185   -2.2278    0.3576 C   0  0  0  0  0  0  0  0  0  0  0  0
    6.8475   -1.2758    0.1121 H   0  0  0  0  0  0  0  0  0  0  0  0
    7.7618   -1.1759   -2.0914 H   0  0  0  0  0  0  0  0  0  0  0  0
    7.7282    0.5921   -2.0628 H   0  0  0  0  0  0  0  0  0  0  0  0
    9.9751   -1.3348   -1.6908 H   0  0  0  0  0  0  0  0  0  0  0  0
   10.0325    0.3813   -2.1198 H   0  0  0  0  0  0  0  0  0  0  0  0
   10.0550   -0.8912    0.6742 H   0  0  0  0  0  0  0  0  0  0  0  0
   11.1735    0.3061   -0.1555 H   0  0  0  0  0  0  0  0  0  0  0  0
    9.1262    1.8794   -0.2133 H   0  0  0  0  0  0  0  0  0  0  0  0
    9.7751    1.5555    1.4310 H   0  0  0  0  0  0  0  0  0  0  0  0
    7.9059    0.1137    1.9543 H   0  0  0  0  0  0  0  0  0  0  0  0
    5.1794    1.8276    1.1946 H   0  0  0  0  0  0  0  0  0  0  0  0
    5.6110    0.1386    1.7816 H   0  0  0  0  0  0  0  0  0  0  0  0
    4.4351    0.9769   -0.9289 H   0  0  0  0  0  0  0  0  0  0  0  0
    4.7900   -0.7477   -0.4299 H   0  0  0  0  0  0  0  0  0  0  0  0
    2.8650   -0.4660   -1.4216 H   0  0  0  0  0  0  0  0  0  0  0  0
    1.7679   -1.8043    1.0070 H   0  0  0  0  0  0  0  0  0  0  0  0
    2.3774   -2.4848   -0.5882 H   0  0  0  0  0  0  0  0  0  0  0  0
    0.0268   -2.8683   -0.5648 H   0  0  0  0  0  0  0  0  0  0  0  0
    0.3658   -1.5343   -1.7261 H   0  0  0  0  0  0  0  0  0  0  0  0
    1.5007    1.6709   -0.3771 H   0  0  0  0  0  0  0  0  0  0  0  0
    0.7072    0.4543   -1.5098 H   0  0  0  0  0  0  0  0  0  0  0  0
   -0.3637    1.1146    0.8776 H   0  0  0  0  0  0  0  0  0  0  0  0
    0.8349   -0.0702    1.4932 H   0  0  0  0  0  0  0  0  0  0  0  0
   -0.7782   -1.5412    1.0665 H   0  0  0  0  0  0  0  0  0  0  0  0
   -1.4931   -0.1861   -1.6028 H   0  0  0  0  0  0  0  0  0  0  0  0
   -2.2563   -1.6457   -1.0076 H   0  0  0  0  0  0  0  0  0  0  0  0
   -2.4562    1.8654    0.9124 H   0  0  0  0  0  0  0  0  0  0  0  0
   -2.5634    1.5169   -2.1519 H   0  0  0  0  0  0  0  0  0  0  0  0
   -1.2116    1.9956   -1.1314 H   0  0  0  0  0  0  0  0  0  0  0  0
   -2.2695    4.1521   -0.5968 H   0  0  0  0  0  0  0  0  0  0  0  0
   -2.1248    3.8366   -2.3541 H   0  0  0  0  0  0  0  0  0  0  0  0
   -4.3664    4.6888   -1.7400 H   0  0  0  0  0  0  0  0  0  0  0  0
   -5.4536    2.9925   -2.8575 H   0  0  0  0  0  0  0  0  0  0  0  0
   -4.8920    3.7897    0.3739 H   0  0  0  0  0  0  0  0  0  0  0  0
   -5.9248    2.9627   -0.7942 H   0  0  0  0  0  0  0  0  0  0  0  0
   -4.7292    1.6832    1.1170 H   0  0  0  0  0  0  0  0  0  0  0  0
   -4.3576    0.6578   -1.7484 H   0  0  0  0  0  0  0  0  0  0  0  0
   -6.6424   -0.6439   -0.9689 H   0  0  0  0  0  0  0  0  0  0  0  0
   -6.5771    0.7379   -2.0627 H   0  0  0  0  0  0  0  0  0  0  0  0
   -6.9913    1.0793   -0.3882 H   0  0  0  0  0  0  0  0  0  0  0  0
   -4.1375   -1.4098   -0.7087 H   0  0  0  0  0  0  0  0  0  0  0  0
   -4.2758    0.0302    2.0402 H   0  0  0  0  0  0  0  0  0  0  0  0
   -2.6844   -1.4699    2.4620 H   0  0  0  0  0  0  0  0  0  0  0  0
   -3.0840   -2.5123    1.0132 H   0  0  0  0  0  0  0  0  0  0  0  0
   -3.3666   -3.6559    2.9772 H   0  0  0  0  0  0  0  0  0  0  0  0
   -4.4417   -2.4901    3.7378 H   0  0  0  0  0  0  0  0  0  0  0  0
   -5.8550   -4.2222    2.7978 H   0  0  0  0  0  0  0  0  0  0  0  0
   -5.8302   -2.8454    0.1605 H   0  0  0  0  0  0  0  0  0  0  0  0
   -7.1616   -2.9390    1.4364 H   0  0  0  0  0  0  0  0  0  0  0  0
   -6.6375   -0.6110    1.4285 H   0  0  0  0  0  0  0  0  0  0  0  0
   -5.8571   -1.3685    2.8095 H   0  0  0  0  0  0  0  0  0  0  0  0
    7.6439   -2.4599    0.4534 H   0  0  0  0  0  0  0  0  0  0  0  0
    6.9620   -1.4175   -1.6446 H   0  0  0  0  0  0  0  0  0  0  0  0
    6.8502    0.2086   -0.9179 H   0  0  0  0  0  0  0  0  0  0  0  0
    9.5354   -1.1374   -1.0653 H   0  0  0  0  0  0  0  0  0  0  0  0
    8.8852   -0.0123   -2.3840 H   0  0  0  0  0  0  0  0  0  0  0  0
   10.1928    1.1930   -0.7399 H   0  0  0  0  0  0  0  0  0  0  0  0
    8.4959    1.7058   -0.8734 H   0  0  0  0  0  0  0  0  0  0  0  0
    8.2294    1.5233    1.3498 H   0  0  0  0  0  0  0  0  0  0  0  0
    9.8923    0.9377    1.5075 H   0  0  0  0  0  0  0  0  0  0  0  0
    8.9587   -1.1473    2.1396 H   0  0  0  0  0  0  0  0  0  0  0  0
    5.6399    0.6089    2.4624 H   0  0  0  0  0  0  0  0  0  0  0  0
    6.2671    1.1308    0.8970 H   0  0  0  0  0  0  0  0  0  0  0  0
    4.2726   -1.1543    1.5543 H   0  0  0  0  0  0  0  0  0  0  0  0
    4.9373   -0.9058   -0.0844 H   0  0  0  0  0  0  0  0  0  0  0  0
    2.7361   -1.2114   -0.0427 H   0  0  0  0  0  0  0  0  0  0  0  0
    2.0443    1.5187   -1.2403 H   0  0  0  0  0  0  0  0  0  0  0  0
    3.1343    0.2232   -1.9400 H   0  0  0  0  0  0  0  0  0  0  0  0
    0.7787    0.0513   -2.8213 H   0  0  0  0  0  0  0  0  0  0  0  0
    1.1582   -1.3568   -1.7020 H   0  0  0  0  0  0  0  0  0  0  0  0
    1.2239    1.1641    1.0748 H   0  0  0  0  0  0  0  0  0  0  0  0
    1.6269   -0.3673    2.0090 H   0  0  0  0  0  0  0  0  0  0  0  0
    0.3916   -1.5973    0.1838 H   0  0  0  0  0  0  0  0  0  0  0  0
   -0.6533   -0.4684    1.1630 H   0  0  0  0  0  0  0  0  0  0  0  0
    0.0411    1.2825   -0.6947 H   0  0  0  0  0  0  0  0  0  0  0  0
   -1.2895   -1.1463   -1.8789 H   0  0  0  0  0  0  0  0  0  0  0  0
   -1.3631    0.4801   -2.4919 H   0  0  0  0  0  0  0  0  0  0  0  0
   -2.0201    2.2300   -1.1957 H   0  0  0  0  0  0  0  0  0  0  0  0
   -4.5602    1.0152   -1.9843 H   0  0  0  0  0  0  0  0  0  0  0  0
   -3.8570    2.5562   -2.4612 H   0  0  0  0  0  0  0  0  0  0  0  0
   -5.7270    3.2906   -1.5016 H   0  0  0  0  0  0  0  0  0  0  0  0
   -5.9793    1.9157   -0.4548 H   0  0  0  0  0  0  0  0  0  0  0  0
   -5.6202    3.6354    1.0166 H   0  0  0  0  0  0  0  0  0  0  0  0
   -4.5694    5.3962    0.6233 H   0  0  0  0  0  0  0  0  0  0  0  0
   -3.5960    3.1316    2.2173 H   0  0  0  0  0  0  0  0  0  0  0  0
   -2.6965    3.8082    0.8983 H   0  0  0  0  0  0  0  0  0  0  0  0
   -1.8182    1.7701    1.0232 H   0  0  0  0  0  0  0  0  0  0  0  0
   -2.8089   -0.0227    1.9724 H   0  0  0  0  0  0  0  0  0  0  0  0
   -5.6426    0.2338    1.2075 H   0  0  0  0  0  0  0  0  0  0  0  0
   -4.9516    1.6492    2.1443 H   0  0  0  0  0  0  0  0  0  0  0  0
   -4.9011    0.0598    2.8166 H   0  0  0  0  0  0  0  0  0  0  0  0
   -4.4650   -0.2984   -0.4410 H   0  0  0  0  0  0  0  0  0  0  0  0
   -2.2730   -2.1959    0.4408 H   0  0  0  0  0  0  0  0  0  0  0  0
   -3.7800   -3.5357    1.4113 H   0  0  0  0  0  0  0  0  0  0  0  0
   -3.9796   -2.0583    2.3004 H   0  0  0  0  0  0  0  0  0  0  0  0
   -6.1885   -2.0341    1.7250 H   0  0  0  0  0  0  0  0  0  0  0  0
   -5.9988   -3.6914    1.1767 H   0  0  0  0  0  0  0  0  0  0  0  0
   -6.6662   -1.2538   -0.3180 H   0  0  0  0  0  0  0  0  0  0  0  0
   -7.2309   -3.1969   -1.7260 H   0  0  0  0  0  0  0  0  0  0  0  0
   -5.3989   -3.0363   -2.2744 H   0  0  0  0  0  0  0  0  0  0  0  0
   -5.1533   -1.3062   -2.0584 H   0  0  0  0  0  0  0  0  0  0  0  0
   -3.0851   -2.5401   -1.8997 H   0  0  0  0  0  0  0  0  0  0  0  0
   -3.7550   -3.7320   -0.7819 H   0  0  0  0  0  0  0  0  0  0  0  0
    6.7278    0.4020    1.5645 H   0  0  0  0  0  0  0  0  0  0  0  0
    5.7397    1.3736    0.4860 H   0  0  0  0  0  0  0  0  0  0  0  0
    7.5303    2.6705    0.0778 H   0  0  0  0  0  0  0  0  0  0  0  0
    8.4750    1.7868    1.2753 H   0  0  0  0  0  0  0  0  0  0  0  0
    8.5443    1.6665   -1.7592 H   0  0  0  0  0  0  0  0  0  0  0  0
    9.7982    1.8786   -0.5384 H   0  0  0  0  0  0  0  0  0  0  0  0
   10.4182   -0.2696   -0.7997 H   0  0  0  0  0  0  0  0  0  0  0  0
    8.9594   -0.6031   -1.7627 H   0  0  0  0  0  0  0  0  0  0  0  0
    9.3885   -1.9310    0.3608 H   0  0  0  0  0  0  0  0  0  0  0  0
    8.7778   -0.5507    1.2920 H   0  0  0  0  0  0  0  0  0  0  0  0
    6.9851   -2.0916    0.6772 H   0  0  0  0  0  0  0  0  0  0  0  0
    7.4652   -2.0747   -1.0366 H   0  0  0  0  0  0  0  0  0  0  0  0
    6.5217    0.5009   -2.2975 H   0  0  0  0  0  0  0  0  0  0  0  0
    5.9727   -1.1741   -2.1226 H   0  0  0  0  0  0  0  0  0  0  0  0
    4.3616    1.2641   -1.1950 H   0  0  0  0  0  0  0  0  0  0  0  0
    4.1563    0.2514   -2.6367 H   0  0  0  0  0  0  0  0  0  0  0  0
    2.2303    0.4882   -1.2498 H   0  0  0  0  0  0  0  0  0  0  0  0
    2.0056   -2.5340   -0.8947 H   0  0  0  0  0  0  0  0  0  0  0  0
    1.4736   -1.6346   -2.3188 H   0  0  0  0  0  0  0  0  0  0  0  0
    0.1359   -2.2715    0.2113 H   0  0  0  0  0  0  0  0  0  0  0  0
   -0.5165   -1.7041   -1.4347 H   0  0  0  0  0  0  0  0  0  0  0  0
    3.0184    0.3048    1.1865 H   0  0  0  0  0  0  0  0  0  0  0  0
    2.3014   -1.3147    1.1648 H   0  0  0  0  0  0  0  0  0  0  0  0
    1.0499    1.4677    0.8021 H   0  0  0  0  0  0  0  0  0  0  0  0
    0.6007    0.1997    1.9550 H   0  0  0  0  0  0  0  0  0  0  0  0
   -0.1181    0.5767   -0.9280 H   0  0  0  0  0  0  0  0  0  0  0  0
   -1.2368   -0.5048    1.6882 H   0  0  0  0  0  0  0  0  0  0  0  0
   -1.4299    1.1041    1.0145 H   0  0  0  0  0  0  0  0  0  0  0  0
   -2.1490   -2.2879   -0.0896 H   0  0  0  0  0  0  0  0  0  0  0  0
   -3.2766   -2.3202   -2.0207 H   0  0  0  0  0  0  0  0  0  0  0  0
   -4.0476   -0.7666   -1.7596 H   0  0  0  0  0  0  0  0  0  0  0  0
   -6.0430   -1.8503   -0.8651 H   0  0  0  0  0  0  0  0  0  0  0  0
   -5.4439   -2.9156   -2.1424 H   0  0  0  0  0  0  0  0  0  0  0  0
   -4.0584   -4.1262   -0.3217 H   0  0  0  0  0  0  0  0  0  0  0  0
   -6.5950   -4.3978    0.7656 H   0  0  0  0  0  0  0  0  0  0  0  0
   -5.9221   -2.3282    1.2452 H   0  0  0  0  0  0  0  0  0  0  0  0
   -4.9847   -3.6265    1.9961 H   0  0  0  0  0  0  0  0  0  0  0  0
   -2.9981   -2.4656    1.9242 H   0  0  0  0  0  0  0  0  0  0  0  0
   -3.2982   -0.4181    2.7323 H   0  0  0  0  0  0  0  0  0  0  0  0
   -6.2218   -0.1647    1.9435 H   0  0  0  0  0  0  0  0  0  0  0  0
   -5.6188   -1.5019    3.0556 H   0  0  0  0  0  0  0  0  0  0  0  0
   -5.3387    0.1750    3.4423 H   0  0  0  0  0  0  0  0  0  0  0  0
   -4.6828   -0.0090    0.0184 H   0  0  0  0  0  0  0  0  0  0  0  0
   -2.9633    2.1393    1.3370 H   0  0  0  0  0  0  0  0  0  0  0  0
   -2.5712    2.1296   -0.9009 H   0  0  0  0  0  0  0  0  0  0  0  0
   -4.2486    1.7026   -1.3633 H   0  0  0  0  0  0  0  0  0  0  0  0
   -3.5252    4.2523    0.1907 H   0  0  0  0  0  0  0  0  0  0  0  0
   -3.5183    4.1713   -1.6455 H   0  0  0  0  0  0  0  0  0  0  0  0
   -5.7625    4.9296   -0.5075 H   0  0  0  0  0  0  0  0  0  0  0  0
   -6.4948    4.2299   -2.3776 H   0  0  0  0  0  0  0  0  0  0  0  0
   -6.2230    1.9325   -0.3546 H   0  0  0  0  0  0  0  0  0  0  0  0
   -6.9300    3.2157    0.6986 H   0  0  0  0  0  0  0  0  0  0  0  0
   -5.5863    2.0919    2.1227 H   0  0  0  0  0  0  0  0  0  0  0  0
   -4.6923    3.5212    1.6738 H   0  0  0  0  0  0  0  0  0  0  0  0
    6.5426    0.3410   -1.9308 H   0  0  0  0  0  0  0  0  0  0  0  0
    6.8880   -1.9440   -1.3460 H   0  0  0  0  0  0  0  0  0  0  0  0
    7.5312   -1.5747    0.3323 H   0  0  0  0  0  0  0  0  0  0  0  0
    9.2319   -2.1412   -1.6024 H   0  0  0  0  0  0  0  0  0  0  0  0
    8.7580   -0.5082   -2.2513 H   0  0  0  0  0  0  0  0  0  0  0  0
   10.2590   -1.1410    0.2404 H   0  0  0  0  0  0  0  0  0  0  0  0
   10.5067    0.2131   -0.8816 H   0  0  0  0  0  0  0  0  0  0  0  0
    9.5461    1.2888    0.8934 H   0  0  0  0  0  0  0  0  0  0  0  0
    8.6171   -0.1251    1.3986 H   0  0  0  0  0  0  0  0  0  0  0  0
    8.0231    1.9931   -0.8152 H   0  0  0  0  0  0  0  0  0  0  0  0
    5.6849    1.4147    2.0386 H   0  0  0  0  0  0  0  0  0  0  0  0
    6.6949   -0.0284    2.0436 H   0  0  0  0  0  0  0  0  0  0  0  0
    4.7447   -1.2602    0.8552 H   0  0  0  0  0  0  0  0  0  0  0  0
    4.3803   -0.5240    2.5024 H   0  0  0  0  0  0  0  0  0  0  0  0
    2.6214   -1.4013    1.3240 H   0  0  0  0  0  0  0  0  0  0  0  0
    1.2839    1.2830    1.7734 H   0  0  0  0  0  0  0  0  0  0  0  0
    1.3847   -0.2313    2.8219 H   0  0  0  0  0  0  0  0  0  0  0  0
   -0.7639   -0.1954    2.0456 H   0  0  0  0  0  0  0  0  0  0  0  0
    0.0563   -1.3774    0.9717 H   0  0  0  0  0  0  0  0  0  0  0  0
    2.6890   -0.4814   -1.2436 H   0  0  0  0  0  0  0  0  0  0  0  0
    1.2813   -1.4267   -0.6155 H   0  0  0  0  0  0  0  0  0  0  0  0
    0.7649    0.8559   -1.8158 H   0  0  0  0  0  0  0  0  0  0  0  0
    1.5635    1.5992   -0.4036 H   0  0  0  0  0  0  0  0  0  0  0  0
   -0.4043    1.6291    0.5511 H   0  0  0  0  0  0  0  0  0  0  0  0
   -1.4438    1.0189   -1.6835 H   0  0  0  0  0  0  0  0  0  0  0  0
   -1.3539   -0.6860   -1.2537 H   0  0  0  0  0  0  0  0  0  0  0  0
   -2.5343    1.8764    1.3378 H   0  0  0  0  0  0  0  0  0  0  0  0
   -3.0729    2.6541   -1.5938 H   0  0  0  0  0  0  0  0  0  0  0  0
   -1.7188    3.0576   -0.5219 H   0  0  0  0  0  0  0  0  0  0  0  0
   -3.2841    4.2778    0.9787 H   0  0  0  0  0  0  0  0  0  0  0  0
   -3.1536    4.8843   -0.7558 H   0  0  0  0  0  0  0  0  0  0  0  0
   -5.5496    4.7293    0.1365 H   0  0  0  0  0  0  0  0  0  0  0  0
   -6.3124    3.8236   -1.5936 H   0  0  0  0  0  0  0  0  0  0  0  0
   -5.1072    3.1638    1.8064 H   0  0  0  0  0  0  0  0  0  0  0  0
   -6.3825    2.5435    0.7342 H   0  0  0  0  0  0  0  0  0  0  0  0
   -4.6528    0.8777    1.5544 H   0  0  0  0  0  0  0  0  0  0  0  0
   -4.5262    1.4027   -1.4457 H   0  0  0  0  0  0  0  0  0  0  0  0
   -6.4609   -0.5043   -1.4493 H   0  0  0  0  0  0  0  0  0  0  0  0
   -6.7410    1.2082   -1.5344 H   0  0  0  0  0  0  0  0  0  0  0  0
   -6.8811    0.5192    0.0551 H   0  0  0  0  0  0  0  0  0  0  0  0
   -3.5961   -0.6427   -1.5999 H   0  0  0  0  0  0  0  0  0  0  0  0
   -3.8506   -1.2026    1.4471 H   0  0  0  0  0  0  0  0  0  0  0  0
   -1.9875   -2.2390    0.4845 H   0  0  0  0  0  0  0  0  0  0  0  0
   -2.8503   -2.4817   -1.0568 H   0  0  0  0  0  0  0  0  0  0  0  0
   -2.4892   -4.5385    0.1283 H   0  0  0  0  0  0  0  0  0  0  0  0
   -3.5870   -4.0370    1.4443 H   0  0  0  0  0  0  0  0  0  0  0  0
   -5.1034   -5.1461   -0.0757 H   0  0  0  0  0  0  0  0  0  0  0  0
   -5.2083   -2.6620   -1.7530 H   0  0  0  0  0  0  0  0  0  0  0  0
   -6.4841   -3.5248   -0.8481 H   0  0  0  0  0  0  0  0  0  0  0  0
   -6.2368   -1.6912    0.5665 H   0  0  0  0  0  0  0  0  0  0  0  0
   -5.2505   -2.9440    1.2425 H   0  0  0  0  0  0  0  0  0  0  0  0
  1  2  1  0
  2  3  1  0
  3  4  1  0
  4  5  1  0
  5  6  1  0
  6  1  1  0
  1  7  1  0
  6  7  1  0
  7  8  1  0
  8  9  1  0
  9 10  1  0
 10 11  1  0
 11 12  1  0
 12 13  1  0
 11 14  1  0
 14 15  1  0
 13 16  1  0
 15 16  1  0
 16 17  1  0
 17 18  1  0
 18 19  1  0
 19 20  1  0
 20 21  1  0
 21 22  1  0
 22 23  1  0
 22 24  1  0
 19 25  1  0
 24 25  1  0
 25 26  1  0
 26 27  1  0
 18 28  1  0
 26 28  1  0
 28 29  1  0
 29 30  1  0
 30 31  1  0
 31 32  1  0
 32 33  1  0
 32 34  1  0
 29 35  1  0
 34 35  1  0
 36 37  1  0
 37 38  1  0
 38 39  1  0
 39 40  1  0
 40 41  1  0
 41 36  1  0
 36 42  1  0
 41 42  1  0
 42 43  1  0
 43 44  1  0
 44 45  1  0
 45 46  1  0
 46 47  1  0
 47 48  1  0
 46 49  1  0
 49 50  1  0
 48 51  1  0
 50 51  1  0
 51 52  1  0
 52 53  1  0
 53 54  1  0
 54 55  1  0
 55 56  1  0
 56 57  1  0
 57 58  1  0
 57 59  1  0
 54 60  1  0
 59 60  1  0
 60 61  1  0
 61 62  1  0
 53 63  1  0
 61 63  1  0
 63 64  1  0
 64 65  1  0
 65 66  1  0
 66 67  1  0
 67 68  1  0
 67 69  1  0
 64 70  1  0
 69 70  1  0
 71 72  1  0
 72 73  1  0
 73 74  1  0
 74 75  1  0
 75 76  1  0
 71 77  1  0
 76 77  1  0
 77 78  1  0
 78 79  1  0
 79 80  1  0
 80 81  1  0
 81 82  1  0
 82 83  1  0
 81 84  1  0
 84 85  1  0
 83 86  1  0
 85 86  1  0
 86 87  1  0
 87 88  1  0
 88 89  1  0
 89 90  1  0
 90 91  1  0
 91 92  1  0
 92 93  1  0
 92 94  1  0
 89 95  1  0
 94 95  1  0
 95 96  1  0
 96 97  1  0
 88 98  1  0
 96 98  1  0
 98 99  1  0
 99100  1  0
100101  1  0
101102  1  0
102103  1  0
102104  1  0
 99105  1  0
104105  1  0
106107  1  0
107108  1  0
108109  1  0
109110  1  0
110111  1  0
111106  1  0
106112  1  0
111112  1  0
112113  1  0
113114  1  0
114115  1  0
115116  1  0
116117  1  0
117118  1  0
116119  1  0
119120  1  0
118121  1  0
120121  1  0
121122  1  0
122123  1  0
123124  1  0
124125  1  0
125126  1  0
126127  1  0
127128  1  0
127129  1  0
124130  1  0
129130  1  0
130131  1  0
131132  1  0
123133  1  0
131133  1  0
133134  1  0
134135  1  0
135136  1  0
136137  1  0
137138  1  0
137139  1  0
134140  1  0
139140  1  0
  1141  1  1
  2142  1  0
  2143  1  0
  3144  1  0
  3145  1  0
  4146  1  0
  4147  1  0
  5148  1  0
  5149  1  0
  6150  1  1
  8151  1  0
  8152  1  0
  9153  1  0
  9154  1  0
 11155  1  0
 12156  1  0
 12157  1  0
 13158  1  0
 13159  1  0
 14160  1  0
 14161  1  0
 15162  1  0
 15163  1  0
 16164  1  0
 17165  1  0
 17166  1  0
 19167  1  0
 20168  1  0
 20169  1  0
 21170  1  0
 21171  1  0
 22172  1  0
 23173  1  0
 24174  1  0
 24175  1  0
 25176  1  0
 26177  1  0
 27178  1  0
 27179  1  0
 27180  1  0
 28181  1  6
 29182  1  0
 30183  1  0
 30184  1  0
 31185  1  0
 31186  1  0
 32187  1  0
 34188  1  0
 34189  1  0
 35190  1  0
 35191  1  0
 36192  1  6
 37193  1  0
 37194  1  0
 38195  1  0
 38196  1  0
 39197  1  0
 39198  1  0
 40199  1  0
 40200  1  0
 41201  1  1
 43202  1  0
 43203  1  0
 44204  1  0
 44205  1  0
 46206  1  0
 47207  1  0
 47208  1  0
 48209  1  0
 48210  1  0
 49211  1  0
 49212  1  0
 50213  1  0
 50214  1  0
 51215  1  0
 52216  1  0
 52217  1  0
 54218  1  0
 55219  1  0
 55220  1  0
 56221  1  0
 56222  1  0
 57223  1  0
 58224  1  0
 59225  1  0
 59226  1  0
 60227  1  0
 61228  1  1
 62229  1  0
 62230  1  0
 62231  1  0
 63232  1  6
 64233  1  0
 65234  1  0
 65235  1  0
 66236  1  0
 66237  1  0
 67238  1  0
 68239  1  0
 69240  1  0
 69241  1  0
 70242  1  0
 70243  1  0
 71244  1  0
 71245  1  0
 72246  1  0
 72247  1  0
 73248  1  0
 73249  1  0
 74250  1  0
 74251  1  0
 75252  1  0
 75253  1  0
 76254  1  0
 76255  1  0
 78256  1  0
 78257  1  0
 79258  1  0
 79259  1  0
 81260  1  0
 82261  1  0
 82262  1  0
 83263  1  0
 83264  1  0
 84265  1  0
 84266  1  0
 85267  1  0
 85268  1  0
 86269  1  0
 87270  1  0
 87271  1  0
 89272  1  0
 90273  1  0
 90274  1  0
 91275  1  0
 91276  1  0
 92277  1  0
 93278  1  0
 94279  1  0
 94280  1  0
 95281  1  0
 96282  1  0
 97283  1  0
 97284  1  0
 97285  1  0
 98286  1  6
 99287  1  0
100288  1  0
100289  1  0
101290  1  0
101291  1  0
102292  1  0
103293  1  0
104294  1  0
104295  1  0
105296  1  0
105297  1  0
106298  1  6
107299  1  0
107300  1  0
108301  1  0
108302  1  0
109303  1  0
109304  1  0
110305  1  0
110306  1  0
111307  1  6
113308  1  0
113309  1  0
114310  1  0
114311  1  0
116312  1  0
117313  1  0
117314  1  0
118315  1  0
118316  1  0
119317  1  0
119318  1  0
120319  1  0
120320  1  0
121321  1  0
122322  1  0
122323  1  0
124324  1  0
125325  1  0
125326  1  0
126327  1  0
126328  1  0
127329  1  0
128330  1  0
129331  1  0
129332  1  0
130333  1  0
131334  1  0
132335  1  0
132336  1  0
132337  1  0
133338  1  6
134339  1  0
135340  1  0
135341  1  0
136342  1  0
136343  1  0
137344  1  0
139345  1  0
139346  1  0
140347  1  0
140348  1  0
M  END
>  <PDBID>  (1) 
4XI3

>  <PDB ID>  (1) 
4XI3

>  <Generic Name>  (1) 
Bazedoxifene

>  <Brand Name>  (1) 
Duavee#Duavive#Aprela#Viviant

>  <DrugBank ID>  (1) 
DB06401

>  <ATC Codes>  (1) 
G03CC07#G03XC02

>  <Ligand ID>  (1) 
29S

>  <Target Name>  (1) 
Estrogen receptor

>  <UniProt ID>  (1) 
P03372

>  <PDB ID.1>  (1) 
4XI3

>  <Seq. Identity>  (1) 
92%

$$$$
