PDB_DB01011_04
     RDKit          3D

 45 46  0  0  0  0  0  0  0  0999 V2000
    2.8070    1.8593    1.0033 N   0  0  0  0  0  0  0  0  0  0  0  0
    1.6031    1.2955    0.4002 C   0  0  0  0  0  0  0  0  0  0  0  0
    1.8078   -0.1169    0.0182 C   0  0  0  0  0  0  0  0  0  0  0  0
    3.0061   -0.0846   -0.9722 C   0  0  0  0  0  0  0  0  0  0  0  0
    4.2388    0.2019   -0.1631 C   0  0  0  0  0  0  0  0  0  0  0  0
    3.8971    0.9712    1.0574 C   0  0  0  0  0  0  0  0  0  0  0  0
    0.7234   -0.9457   -0.5300 C   0  0  0  0  0  0  0  0  0  0  0  0
    1.3025   -2.2326   -0.7608 O   0  0  0  0  0  0  0  0  0  0  0  0
   -0.5261   -1.4536    1.5816 C   0  0  0  0  0  0  0  0  0  0  0  0
   -0.5776   -1.0445    0.1490 C   0  0  0  0  0  0  0  0  0  0  0  0
   -1.0803   -2.4902   -0.4657 C   0  0  0  0  0  0  0  0  0  0  0  0
   -1.7242   -0.1996   -0.2112 C   0  0  0  0  0  0  0  0  0  0  0  0
   -2.9379   -0.4613    0.6930 C   0  0  0  0  0  0  0  0  0  0  0  0
   -4.1075    0.0579    0.0241 N   0  0  0  0  0  0  0  0  0  0  0  0
   -3.9995    1.5107   -0.1357 C   0  0  0  0  0  0  0  0  0  0  0  0
   -2.8356    1.8308   -1.0052 C   0  0  0  0  0  0  0  0  0  0  0  0
   -1.5639    1.2702   -0.3346 C   0  0  0  0  0  0  0  0  0  0  0  0
    2.9755    2.8279    0.7777 H   0  0  0  0  0  0  0  0  0  0  0  0
    1.3858    1.9010   -0.5026 H   0  0  0  0  0  0  0  0  0  0  0  0
    0.8155    1.5010    1.1448 H   0  0  0  0  0  0  0  0  0  0  0  0
    2.2644   -0.6624    0.9333 H   0  0  0  0  0  0  0  0  0  0  0  0
    2.8623    0.7349   -1.6900 H   0  0  0  0  0  0  0  0  0  0  0  0
    3.1159   -1.0571   -1.4649 H   0  0  0  0  0  0  0  0  0  0  0  0
    4.7535   -0.7564    0.0570 H   0  0  0  0  0  0  0  0  0  0  0  0
    4.9407    0.7750   -0.8340 H   0  0  0  0  0  0  0  0  0  0  0  0
    3.8009    0.2415    1.9141 H   0  0  0  0  0  0  0  0  0  0  0  0
    4.8067    1.5743    1.3434 H   0  0  0  0  0  0  0  0  0  0  0  0
    0.5576   -0.6046   -1.6201 H   0  0  0  0  0  0  0  0  0  0  0  0
    1.7823   -2.4332    0.0919 H   0  0  0  0  0  0  0  0  0  0  0  0
   -0.4468   -0.6058    2.2879 H   0  0  0  0  0  0  0  0  0  0  0  0
   -1.4443   -2.0082    1.8378 H   0  0  0  0  0  0  0  0  0  0  0  0
    0.3135   -2.1792    1.7684 H   0  0  0  0  0  0  0  0  0  0  0  0
   -1.2633   -2.3342   -1.5112 H   0  0  0  0  0  0  0  0  0  0  0  0
   -1.8951   -2.7964    0.1845 H   0  0  0  0  0  0  0  0  0  0  0  0
   -0.2419   -3.1808   -0.3034 H   0  0  0  0  0  0  0  0  0  0  0  0
   -2.1369   -0.5809   -1.2371 H   0  0  0  0  0  0  0  0  0  0  0  0
   -2.8062    0.1653    1.6038 H   0  0  0  0  0  0  0  0  0  0  0  0
   -3.1336   -1.5033    0.8981 H   0  0  0  0  0  0  0  0  0  0  0  0
   -4.1609   -0.3707   -0.9261 H   0  0  0  0  0  0  0  0  0  0  0  0
   -3.9394    1.9874    0.8554 H   0  0  0  0  0  0  0  0  0  0  0  0
   -4.9435    1.8164   -0.6528 H   0  0  0  0  0  0  0  0  0  0  0  0
   -2.7362    2.9260   -1.1234 H   0  0  0  0  0  0  0  0  0  0  0  0
   -2.9926    1.3522   -1.9988 H   0  0  0  0  0  0  0  0  0  0  0  0
   -0.7702    1.5606   -1.0680 H   0  0  0  0  0  0  0  0  0  0  0  0
   -1.4968    1.7410    0.6405 H   0  0  0  0  0  0  0  0  0  0  0  0
  1  2  1  0
  2  3  1  0
  3  4  1  0
  4  5  1  0
  1  6  1  0
  5  6  1  0
  3  7  1  0
  7  8  1  0
 10  7  1  0
  9 10  1  0
 10 11  1  0
 10 12  1  0
 12 13  1  0
 13 14  1  0
 14 15  1  0
 15 16  1  0
 12 17  1  0
 16 17  1  0
  1 18  1  0
  2 19  1  0
  2 20  1  0
  3 21  1  0
  4 22  1  0
  4 23  1  0
  5 24  1  0
  5 25  1  0
  6 26  1  0
  6 27  1  0
  7 28  1  0
  8 29  1  0
  9 30  1  0
  9 31  1  0
  9 32  1  0
 11 33  1  0
 11 34  1  0
 11 35  1  0
 12 36  1  0
 13 37  1  0
 13 38  1  0
 14 39  1  0
 15 40  1  0
 15 41  1  0
 16 42  1  0
 16 43  1  0
 17 44  1  0
 17 45  1  0
M  END
>  <PDBID>  (1) 
1W0G

>  <PDB ID>  (1) 
1W0G

>  <Generic Name>  (1) 
Metyrapone

>  <Brand Name>  (1) 
Metopirone#Metopiron

>  <DrugBank ID>  (1) 
DB01011

>  <ATC Codes>  (1) 
V04CD01

>  <Ligand ID>  (1) 
MYT

>  <Target Name>  (1) 
Cytochrome P450 11B1, mitochondrial

>  <UniProt ID>  (1) 
P15538

>  <PDB ID.1>  (1) 
1W0G

>  <Seq. Identity>  (1) 
32%

$$$$
