PDB_DB05812_06
     RDKit          3D

268284  0  0  0  0  0  0  0  0999 V2000
   -3.3285    1.2056   -1.2766 C   0  0  0  0  0  0  0  0  0  0  0  0
   -4.7684    1.5900   -1.1870 C   0  0  0  0  0  0  0  0  0  0  0  0
   -5.6293    0.3570   -1.0868 C   0  0  2  0  0  0  0  0  0  0  0  0
   -6.4998    0.4067   -0.0054 O   0  0  0  0  0  0  0  0  0  0  0  0
   -4.7413   -0.8598   -0.9493 C   0  0  0  0  0  0  0  0  0  0  0  0
   -3.7605   -0.7080    0.1949 C   0  0  0  0  0  0  0  0  0  0  0  0
   -3.0061   -2.0064    0.2999 C   0  0  0  0  0  0  0  0  0  0  0  0
   -1.7676   -1.9107    1.1421 C   0  0  0  0  0  0  0  0  0  0  0  0
   -0.9219   -0.6998    0.8862 C   0  0  2  0  0  0  0  0  0  0  0  0
   -1.4360    0.0165   -0.3148 C   0  0  1  0  0  0  0  0  0  0  0  0
   -2.8451    0.4695   -0.0451 C   0  0  1  0  0  0  0  0  0  0  0  0
   -0.5893    1.1215   -0.8109 C   0  0  0  0  0  0  0  0  0  0  0  0
    0.9006    0.8285   -0.7726 C   0  0  0  0  0  0  0  0  0  0  0  0
    1.2918    0.2134    0.5010 C   0  0  1  0  0  0  0  0  0  0  0  0
    0.5092   -1.1101    0.5951 C   0  0  1  0  0  0  0  0  0  0  0  0
    1.1635   -1.7758    1.7521 C   0  0  0  0  0  0  0  0  0  0  0  0
    2.5673   -1.2175    1.8314 C   0  0  0  0  0  0  0  0  0  0  0  0
    2.6768   -0.1750    0.7588 C   0  0  0  0  0  0  0  0  0  0  0  0
    0.8516    1.1339    1.6473 C   0  0  0  0  0  0  0  0  0  0  0  0
   -2.9021    1.4279    1.1067 C   0  0  0  0  0  0  0  0  0  0  0  0
    3.6063   -0.4722   -0.3588 C   0  0  0  0  0  0  0  0  0  0  0  0
    4.8927   -1.0184    0.2494 C   0  0  0  0  0  0  0  0  0  0  0  0
    5.9976   -1.0347   -0.6907 N   0  0  0  0  0  0  0  0  0  0  0  0
    6.3537    0.3860   -0.8484 C   0  0  0  0  0  0  0  0  0  0  0  0
    5.2600    0.9651   -1.6652 C   0  0  0  0  0  0  0  0  0  0  0  0
    3.8702    0.7936   -1.1303 C   0  0  0  0  0  0  0  0  0  0  0  0
   -3.3285    1.2056   -1.2766 C   0  0  0  0  0  0  0  0  0  0  0  0
   -4.7684    1.5900   -1.1870 C   0  0  0  0  0  0  0  0  0  0  0  0
   -5.6293    0.3570   -1.0868 C   0  0  2  0  0  0  0  0  0  0  0  0
   -6.4998    0.4067   -0.0054 O   0  0  0  0  0  0  0  0  0  0  0  0
   -4.7413   -0.8598   -0.9493 C   0  0  0  0  0  0  0  0  0  0  0  0
   -3.7605   -0.7080    0.1949 C   0  0  0  0  0  0  0  0  0  0  0  0
   -3.0061   -2.0064    0.2999 C   0  0  0  0  0  0  0  0  0  0  0  0
   -1.7676   -1.9107    1.1421 C   0  0  0  0  0  0  0  0  0  0  0  0
   -0.9219   -0.6998    0.8862 C   0  0  2  0  0  0  0  0  0  0  0  0
   -1.4360    0.0165   -0.3148 C   0  0  1  0  0  0  0  0  0  0  0  0
   -2.8451    0.4695   -0.0451 C   0  0  1  0  0  0  0  0  0  0  0  0
   -0.5893    1.1215   -0.8109 C   0  0  0  0  0  0  0  0  0  0  0  0
    0.9006    0.8285   -0.7726 C   0  0  0  0  0  0  0  0  0  0  0  0
    1.2918    0.2134    0.5010 C   0  0  1  0  0  0  0  0  0  0  0  0
    0.5092   -1.1101    0.5951 C   0  0  1  0  0  0  0  0  0  0  0  0
    1.1635   -1.7758    1.7521 C   0  0  0  0  0  0  0  0  0  0  0  0
    2.5673   -1.2175    1.8314 C   0  0  0  0  0  0  0  0  0  0  0  0
    2.6768   -0.1750    0.7588 C   0  0  0  0  0  0  0  0  0  0  0  0
    0.8516    1.1339    1.6473 C   0  0  0  0  0  0  0  0  0  0  0  0
   -2.9021    1.4279    1.1067 C   0  0  0  0  0  0  0  0  0  0  0  0
    3.6063   -0.4722   -0.3588 C   0  0  0  0  0  0  0  0  0  0  0  0
    4.8927   -1.0184    0.2494 C   0  0  0  0  0  0  0  0  0  0  0  0
    5.9976   -1.0347   -0.6907 N   0  0  0  0  0  0  0  0  0  0  0  0
    6.3537    0.3860   -0.8484 C   0  0  0  0  0  0  0  0  0  0  0  0
    5.2600    0.9651   -1.6652 C   0  0  0  0  0  0  0  0  0  0  0  0
    3.8702    0.7936   -1.1303 C   0  0  0  0  0  0  0  0  0  0  0  0
   -3.1744    1.4461   -1.3001 C   0  0  0  0  0  0  0  0  0  0  0  0
   -4.6333    1.8336   -1.0847 C   0  0  0  0  0  0  0  0  0  0  0  0
   -5.5513    0.6571   -1.0927 C   0  0  2  0  0  0  0  0  0  0  0  0
   -6.7862    1.0788   -0.5860 O   0  0  0  0  0  0  0  0  0  0  0  0
   -5.0793   -0.4699   -0.2078 C   0  0  0  0  0  0  0  0  0  0  0  0
   -3.6173   -0.7523   -0.3619 C   0  0  0  0  0  0  0  0  0  0  0  0
   -3.1870   -1.7735    0.6471 C   0  0  0  0  0  0  0  0  0  0  0  0
   -1.7604   -2.1924    0.2641 C   0  0  0  0  0  0  0  0  0  0  0  0
   -0.8867   -0.9879    0.5395 C   0  0  2  0  0  0  0  0  0  0  0  0
   -1.3373    0.1439   -0.3771 C   0  0  1  0  0  0  0  0  0  0  0  0
   -2.7682    0.4954   -0.1943 C   0  0  1  0  0  0  0  0  0  0  0  0
   -0.4891    1.3601   -0.3101 C   0  0  0  0  0  0  0  0  0  0  0  0
    1.0112    1.0544   -0.2834 C   0  0  0  0  0  0  0  0  0  0  0  0
    1.2881    0.0391    0.7648 C   0  0  1  0  0  0  0  0  0  0  0  0
    0.5389   -1.2072    0.2564 C   0  0  1  0  0  0  0  0  0  0  0  0
    1.2421   -2.2998    0.9252 C   0  0  0  0  0  0  0  0  0  0  0  0
    2.7007   -1.9308    0.5976 C   0  0  0  0  0  0  0  0  0  0  0  0
    2.6545   -0.4305    0.9346 C   0  0  1  0  0  0  0  0  0  0  0  0
    0.6906    0.4126    2.1226 C   0  0  0  0  0  0  0  0  0  0  0  0
   -3.0508    1.1808    1.1144 C   0  0  0  0  0  0  0  0  0  0  0  0
    3.7661    0.3138    0.2766 C   0  0  1  0  0  0  0  0  0  0  0  0
    5.0433   -0.4480    0.6787 C   0  0  0  0  0  0  0  0  0  0  0  0
    6.2122    0.3500    0.4948 N   0  0  0  0  0  0  0  0  0  0  0  0
    6.0239    1.1231   -0.7296 C   0  0  0  0  0  0  0  0  0  0  0  0
    5.2257    0.2669   -1.6685 C   0  0  0  0  0  0  0  0  0  0  0  0
    3.7554    0.3244   -1.2165 C   0  0  0  0  0  0  0  0  0  0  0  0
   -3.2338    1.2360   -1.3755 C   0  0  0  0  0  0  0  0  0  0  0  0
   -4.6498    1.7325   -1.1811 C   0  0  0  0  0  0  0  0  0  0  0  0
   -5.6271    0.6001   -1.0075 C   0  0  2  0  0  0  0  0  0  0  0  0
   -6.4913    0.7812    0.0597 O   0  0  0  0  0  0  0  0  0  0  0  0
   -4.8589   -0.7006   -0.9050 C   0  0  0  0  0  0  0  0  0  0  0  0
   -3.7824   -0.6282    0.1554 C   0  0  1  0  0  0  0  0  0  0  0  0
   -3.0903   -1.9503    0.2171 C   0  0  0  0  0  0  0  0  0  0  0  0
   -1.8738   -1.9743    1.0857 C   0  0  0  0  0  0  0  0  0  0  0  0
   -0.9469   -0.7961    0.8522 C   0  0  2  0  0  0  0  0  0  0  0  0
   -1.4597   -0.0540   -0.3489 C   0  0  1  0  0  0  0  0  0  0  0  0
   -2.8253    0.5210   -0.0802 C   0  0  1  0  0  0  0  0  0  0  0  0
   -0.5653    1.0018   -0.8503 C   0  0  0  0  0  0  0  0  0  0  0  0
    0.9159    0.7231   -0.7794 C   0  0  0  0  0  0  0  0  0  0  0  0
    1.2979    0.0470    0.4741 C   0  0  1  0  0  0  0  0  0  0  0  0
    0.4582   -1.2448    0.5395 C   0  0  1  0  0  0  0  0  0  0  0  0
    1.1055   -1.9371    1.7138 C   0  0  0  0  0  0  0  0  0  0  0  0
    2.5609   -1.6813    1.4773 C   0  0  0  0  0  0  0  0  0  0  0  0
    2.6642   -0.3944    0.6990 C   0  0  0  0  0  0  0  0  0  0  0  0
    0.8708    0.9545    1.6324 C   0  0  0  0  0  0  0  0  0  0  0  0
   -2.8684    1.5305    1.0141 C   0  0  0  0  0  0  0  0  0  0  0  0
    3.6538   -0.4462   -0.4112 C   0  0  0  0  0  0  0  0  0  0  0  0
    4.9066   -1.0979    0.1615 C   0  0  0  0  0  0  0  0  0  0  0  0
    6.0838   -0.8736   -0.6472 N   0  0  0  0  0  0  0  0  0  0  0  0
    6.3847    0.5546   -0.4511 C   0  0  0  0  0  0  0  0  0  0  0  0
    5.3466    1.2731   -1.2331 C   0  0  0  0  0  0  0  0  0  0  0  0
    3.9222    0.9478   -0.8903 C   0  0  0  0  0  0  0  0  0  0  0  0
   -3.1809    0.6221   -2.2058 H   0  0  0  0  0  0  0  0  0  0  0  0
   -2.7341    2.1499   -1.4195 H   0  0  0  0  0  0  0  0  0  0  0  0
   -5.0122    2.2495   -0.3528 H   0  0  0  0  0  0  0  0  0  0  0  0
   -5.0029    2.1690   -2.1256 H   0  0  0  0  0  0  0  0  0  0  0  0
   -6.1912    0.2530   -2.0244 H   0  0  0  0  0  0  0  0  0  0  0  0
   -6.7982    1.3447    0.1756 H   0  0  0  0  0  0  0  0  0  0  0  0
   -5.3919   -1.7288   -0.6986 H   0  0  0  0  0  0  0  0  0  0  0  0
   -4.2449   -1.0944   -1.9106 H   0  0  0  0  0  0  0  0  0  0  0  0
   -4.3684   -0.4961    1.1027 H   0  0  0  0  0  0  0  0  0  0  0  0
   -3.6838   -2.7422    0.7799 H   0  0  0  0  0  0  0  0  0  0  0  0
   -2.7901   -2.3813   -0.7204 H   0  0  0  0  0  0  0  0  0  0  0  0
   -2.0240   -2.0204    2.2370 H   0  0  0  0  0  0  0  0  0  0  0  0
   -1.1555   -2.8074    0.9141 H   0  0  0  0  0  0  0  0  0  0  0  0
   -0.8898   -0.1217    1.8153 H   0  0  0  0  0  0  0  0  0  0  0  0
   -1.5351   -0.7727   -1.1226 H   0  0  0  0  0  0  0  0  0  0  0  0
   -0.7965    2.1280   -0.4000 H   0  0  0  0  0  0  0  0  0  0  0  0
   -0.8308    1.2453   -1.9118 H   0  0  0  0  0  0  0  0  0  0  0  0
    1.3788    1.8088   -0.8987 H   0  0  0  0  0  0  0  0  0  0  0  0
    1.0649    0.1063   -1.6001 H   0  0  0  0  0  0  0  0  0  0  0  0
    0.6315   -1.6098   -0.3688 H   0  0  0  0  0  0  0  0  0  0  0  0
    0.5881   -1.6415    2.6840 H   0  0  0  0  0  0  0  0  0  0  0  0
    1.1722   -2.8770    1.5577 H   0  0  0  0  0  0  0  0  0  0  0  0
    2.6611   -0.7653    2.8603 H   0  0  0  0  0  0  0  0  0  0  0  0
    3.2696   -2.0351    1.8056 H   0  0  0  0  0  0  0  0  0  0  0  0
    3.1659    0.7217    1.2950 H   0  0  0  0  0  0  0  0  0  0  0  0
    1.6972    1.8807    1.7306 H   0  0  0  0  0  0  0  0  0  0  0  0
   -0.0514    1.6886    1.4218 H   0  0  0  0  0  0  0  0  0  0  0  0
    0.8253    0.6239    2.6102 H   0  0  0  0  0  0  0  0  0  0  0  0
   -3.9811    1.6994    1.3199 H   0  0  0  0  0  0  0  0  0  0  0  0
   -2.3194    2.3549    0.9240 H   0  0  0  0  0  0  0  0  0  0  0  0
   -2.5405    1.0200    2.0694 H   0  0  0  0  0  0  0  0  0  0  0  0
    3.2258   -1.2441   -1.0427 H   0  0  0  0  0  0  0  0  0  0  0  0
    5.2250   -0.4556    1.1317 H   0  0  0  0  0  0  0  0  0  0  0  0
    4.7249   -2.1184    0.4635 H   0  0  0  0  0  0  0  0  0  0  0  0
    6.7800   -1.5207   -0.2067 H   0  0  0  0  0  0  0  0  0  0  0  0
    6.3720    0.8222    0.1653 H   0  0  0  0  0  0  0  0  0  0  0  0
    7.2974    0.5015   -1.3908 H   0  0  0  0  0  0  0  0  0  0  0  0
    5.3464    0.5242   -2.7016 H   0  0  0  0  0  0  0  0  0  0  0  0
    5.4627    2.0497   -1.7985 H   0  0  0  0  0  0  0  0  0  0  0  0
    3.2204    0.8662   -2.0211 H   0  0  0  0  0  0  0  0  0  0  0  0
    3.6680    1.6763   -0.4903 H   0  0  0  0  0  0  0  0  0  0  0  0
   -3.1809    0.6221   -2.2058 H   0  0  0  0  0  0  0  0  0  0  0  0
   -2.7341    2.1499   -1.4195 H   0  0  0  0  0  0  0  0  0  0  0  0
   -5.0122    2.2495   -0.3528 H   0  0  0  0  0  0  0  0  0  0  0  0
   -5.0029    2.1690   -2.1256 H   0  0  0  0  0  0  0  0  0  0  0  0
   -6.1912    0.2530   -2.0244 H   0  0  0  0  0  0  0  0  0  0  0  0
   -6.7982    1.3447    0.1756 H   0  0  0  0  0  0  0  0  0  0  0  0
   -5.3919   -1.7288   -0.6986 H   0  0  0  0  0  0  0  0  0  0  0  0
   -4.2449   -1.0944   -1.9106 H   0  0  0  0  0  0  0  0  0  0  0  0
   -4.3684   -0.4961    1.1027 H   0  0  0  0  0  0  0  0  0  0  0  0
   -3.6838   -2.7422    0.7799 H   0  0  0  0  0  0  0  0  0  0  0  0
   -2.7901   -2.3813   -0.7204 H   0  0  0  0  0  0  0  0  0  0  0  0
   -2.0240   -2.0204    2.2370 H   0  0  0  0  0  0  0  0  0  0  0  0
   -1.1555   -2.8074    0.9141 H   0  0  0  0  0  0  0  0  0  0  0  0
   -0.8898   -0.1217    1.8153 H   0  0  0  0  0  0  0  0  0  0  0  0
   -1.5351   -0.7727   -1.1226 H   0  0  0  0  0  0  0  0  0  0  0  0
   -0.7965    2.1280   -0.4000 H   0  0  0  0  0  0  0  0  0  0  0  0
   -0.8308    1.2453   -1.9118 H   0  0  0  0  0  0  0  0  0  0  0  0
    1.3788    1.8088   -0.8987 H   0  0  0  0  0  0  0  0  0  0  0  0
    1.0649    0.1063   -1.6001 H   0  0  0  0  0  0  0  0  0  0  0  0
    0.6315   -1.6098   -0.3688 H   0  0  0  0  0  0  0  0  0  0  0  0
    0.5881   -1.6415    2.6840 H   0  0  0  0  0  0  0  0  0  0  0  0
    1.1722   -2.8770    1.5577 H   0  0  0  0  0  0  0  0  0  0  0  0
    2.6611   -0.7653    2.8603 H   0  0  0  0  0  0  0  0  0  0  0  0
    3.2696   -2.0351    1.8056 H   0  0  0  0  0  0  0  0  0  0  0  0
    3.1659    0.7217    1.2950 H   0  0  0  0  0  0  0  0  0  0  0  0
    1.6972    1.8807    1.7306 H   0  0  0  0  0  0  0  0  0  0  0  0
   -0.0514    1.6886    1.4218 H   0  0  0  0  0  0  0  0  0  0  0  0
    0.8253    0.6239    2.6102 H   0  0  0  0  0  0  0  0  0  0  0  0
   -3.9811    1.6994    1.3199 H   0  0  0  0  0  0  0  0  0  0  0  0
   -2.3194    2.3549    0.9240 H   0  0  0  0  0  0  0  0  0  0  0  0
   -2.5405    1.0200    2.0694 H   0  0  0  0  0  0  0  0  0  0  0  0
    3.2258   -1.2441   -1.0427 H   0  0  0  0  0  0  0  0  0  0  0  0
    5.2250   -0.4556    1.1317 H   0  0  0  0  0  0  0  0  0  0  0  0
    4.7249   -2.1184    0.4635 H   0  0  0  0  0  0  0  0  0  0  0  0
    6.7800   -1.5207   -0.2067 H   0  0  0  0  0  0  0  0  0  0  0  0
    6.3720    0.8222    0.1653 H   0  0  0  0  0  0  0  0  0  0  0  0
    7.2974    0.5015   -1.3908 H   0  0  0  0  0  0  0  0  0  0  0  0
    5.3464    0.5242   -2.7016 H   0  0  0  0  0  0  0  0  0  0  0  0
    5.4627    2.0497   -1.7985 H   0  0  0  0  0  0  0  0  0  0  0  0
    3.2204    0.8662   -2.0211 H   0  0  0  0  0  0  0  0  0  0  0  0
    3.6680    1.6763   -0.4903 H   0  0  0  0  0  0  0  0  0  0  0  0
   -3.1272    0.9472   -2.2885 H   0  0  0  0  0  0  0  0  0  0  0  0
   -2.6048    2.3984   -1.2765 H   0  0  0  0  0  0  0  0  0  0  0  0
   -4.6875    2.4478   -0.1849 H   0  0  0  0  0  0  0  0  0  0  0  0
   -4.8965    2.4912   -1.9469 H   0  0  0  0  0  0  0  0  0  0  0  0
   -5.6907    0.3130   -2.1400 H   0  0  0  0  0  0  0  0  0  0  0  0
   -6.5604    1.5786    0.2572 H   0  0  0  0  0  0  0  0  0  0  0  0
   -5.3813   -0.3294    0.8516 H   0  0  0  0  0  0  0  0  0  0  0  0
   -5.6259   -1.3857   -0.5502 H   0  0  0  0  0  0  0  0  0  0  0  0
   -3.4247   -1.1561   -1.3725 H   0  0  0  0  0  0  0  0  0  0  0  0
   -3.0828   -1.2256    1.6293 H   0  0  0  0  0  0  0  0  0  0  0  0
   -3.8463   -2.6385    0.7207 H   0  0  0  0  0  0  0  0  0  0  0  0
   -1.4708   -2.9684    1.0039 H   0  0  0  0  0  0  0  0  0  0  0  0
   -1.7113   -2.5338   -0.7769 H   0  0  0  0  0  0  0  0  0  0  0  0
   -1.1181   -0.6633    1.5735 H   0  0  0  0  0  0  0  0  0  0  0  0
   -1.2349   -0.2710   -1.4233 H   0  0  0  0  0  0  0  0  0  0  0  0
   -0.7807    2.1084    0.4405 H   0  0  0  0  0  0  0  0  0  0  0  0
   -0.6281    1.8970   -1.2997 H   0  0  0  0  0  0  0  0  0  0  0  0
    1.1762    0.5463   -1.2815 H   0  0  0  0  0  0  0  0  0  0  0  0
    1.5497    1.9945   -0.1974 H   0  0  0  0  0  0  0  0  0  0  0  0
    0.6869   -1.2796   -0.8409 H   0  0  0  0  0  0  0  0  0  0  0  0
    1.0762   -2.4100    1.9940 H   0  0  0  0  0  0  0  0  0  0  0  0
    1.0593   -3.2548    0.3559 H   0  0  0  0  0  0  0  0  0  0  0  0
    3.3876   -2.4843    1.2382 H   0  0  0  0  0  0  0  0  0  0  0  0
    2.8642   -2.1068   -0.4671 H   0  0  0  0  0  0  0  0  0  0  0  0
    2.9387   -0.4280    2.0343 H   0  0  0  0  0  0  0  0  0  0  0  0
    1.5137    0.9855    2.6430 H   0  0  0  0  0  0  0  0  0  0  0  0
    0.5471   -0.4976    2.7481 H   0  0  0  0  0  0  0  0  0  0  0  0
   -0.1651    1.0687    2.0711 H   0  0  0  0  0  0  0  0  0  0  0  0
   -4.1260    1.2087    1.3429 H   0  0  0  0  0  0  0  0  0  0  0  0
   -2.7359    2.2530    1.0029 H   0  0  0  0  0  0  0  0  0  0  0  0
   -2.5400    0.7419    1.9756 H   0  0  0  0  0  0  0  0  0  0  0  0
    3.8448    1.3102    0.7068 H   0  0  0  0  0  0  0  0  0  0  0  0
    5.0288   -1.3825    0.0805 H   0  0  0  0  0  0  0  0  0  0  0  0
    4.9392   -0.7905    1.7489 H   0  0  0  0  0  0  0  0  0  0  0  0
    7.0090   -0.3192    0.2705 H   0  0  0  0  0  0  0  0  0  0  0  0
    6.9936    1.4570   -1.1478 H   0  0  0  0  0  0  0  0  0  0  0  0
    5.4085    1.9988   -0.4475 H   0  0  0  0  0  0  0  0  0  0  0  0
    5.5833   -0.7548   -1.7784 H   0  0  0  0  0  0  0  0  0  0  0  0
    5.3141    0.7502   -2.6861 H   0  0  0  0  0  0  0  0  0  0  0  0
    3.4126    1.3233   -1.6201 H   0  0  0  0  0  0  0  0  0  0  0  0
    3.2743   -0.5279   -1.6918 H   0  0  0  0  0  0  0  0  0  0  0  0
   -3.1219    0.6024   -2.2536 H   0  0  0  0  0  0  0  0  0  0  0  0
   -2.5998    2.1413   -1.5044 H   0  0  0  0  0  0  0  0  0  0  0  0
   -4.6711    2.4675   -0.3584 H   0  0  0  0  0  0  0  0  0  0  0  0
   -4.8826    2.3312   -2.1062 H   0  0  0  0  0  0  0  0  0  0  0  0
   -6.2400    0.5412   -1.9303 H   0  0  0  0  0  0  0  0  0  0  0  0
   -7.1357    1.4961   -0.1737 H   0  0  0  0  0  0  0  0  0  0  0  0
   -5.5719   -1.4876   -0.5768 H   0  0  0  0  0  0  0  0  0  0  0  0
   -4.4801   -0.9450   -1.9003 H   0  0  0  0  0  0  0  0  0  0  0  0
   -4.3027   -0.4187    1.1244 H   0  0  0  0  0  0  0  0  0  0  0  0
   -3.8235   -2.6766    0.6760 H   0  0  0  0  0  0  0  0  0  0  0  0
   -2.9174   -2.3455   -0.8096 H   0  0  0  0  0  0  0  0  0  0  0  0
   -2.1569   -2.0692    2.1539 H   0  0  0  0  0  0  0  0  0  0  0  0
   -1.2938   -2.8904    0.8257 H   0  0  0  0  0  0  0  0  0  0  0  0
   -0.9206   -0.2203    1.7810 H   0  0  0  0  0  0  0  0  0  0  0  0
   -1.6044   -0.8239   -1.1561 H   0  0  0  0  0  0  0  0  0  0  0  0
   -0.8146    1.9922   -0.3899 H   0  0  0  0  0  0  0  0  0  0  0  0
   -0.8089    1.1690   -1.9421 H   0  0  0  0  0  0  0  0  0  0  0  0
    1.3640    1.7618   -0.7751 H   0  0  0  0  0  0  0  0  0  0  0  0
    1.1832    0.1962   -1.7007 H   0  0  0  0  0  0  0  0  0  0  0  0
    0.5595   -1.7871   -0.3995 H   0  0  0  0  0  0  0  0  0  0  0  0
    0.7069   -1.5938    2.6650 H   0  0  0  0  0  0  0  0  0  0  0  0
    0.8660   -3.0230    1.6305 H   0  0  0  0  0  0  0  0  0  0  0  0
    3.0683   -1.6547    2.4614 H   0  0  0  0  0  0  0  0  0  0  0  0
    2.9639   -2.5631    0.9453 H   0  0  0  0  0  0  0  0  0  0  0  0
    3.1400    0.3302    1.4538 H   0  0  0  0  0  0  0  0  0  0  0  0
    1.7284    1.6859    1.7266 H   0  0  0  0  0  0  0  0  0  0  0  0
   -0.0019    1.5618    1.4171 H   0  0  0  0  0  0  0  0  0  0  0  0
    0.8285    0.4337    2.5902 H   0  0  0  0  0  0  0  0  0  0  0  0
   -3.9369    1.6487    1.3539 H   0  0  0  0  0  0  0  0  0  0  0  0
   -2.5153    2.5250    0.7020 H   0  0  0  0  0  0  0  0  0  0  0  0
   -2.3188    1.2513    1.9316 H   0  0  0  0  0  0  0  0  0  0  0  0
    3.2917   -1.1204   -1.2024 H   0  0  0  0  0  0  0  0  0  0  0  0
    5.1207   -0.7098    1.1778 H   0  0  0  0  0  0  0  0  0  0  0  0
    4.7862   -2.2207    0.1534 H   0  0  0  0  0  0  0  0  0  0  0  0
    6.8308   -1.4848   -0.3081 H   0  0  0  0  0  0  0  0  0  0  0  0
    6.3796    0.7558    0.6213 H   0  0  0  0  0  0  0  0  0  0  0  0
    7.3665    0.7643   -0.9142 H   0  0  0  0  0  0  0  0  0  0  0  0
    5.5455    1.0553   -2.3242 H   0  0  0  0  0  0  0  0  0  0  0  0
    5.5319    2.3627   -1.1303 H   0  0  0  0  0  0  0  0  0  0  0  0
    3.3496    1.1177   -1.8227 H   0  0  0  0  0  0  0  0  0  0  0  0
    3.6093    1.7190   -0.1585 H   0  0  0  0  0  0  0  0  0  0  0  0
  1  2  1  0
  2  3  1  0
  3  4  1  0
  3  5  1  0
  5  6  1  0
  6  7  1  0
  7  8  1  0
  8  9  1  0
  9 10  1  0
  1 11  1  0
  6 11  1  0
 10 11  1  0
 10 12  1  0
 12 13  1  0
 13 14  1  0
  9 15  1  0
 14 15  1  0
 15 16  1  0
 16 17  1  0
 14 18  1  0
 17 18  1  0
 14 19  1  1
 11 20  1  1
 18 21  1  0
 21 22  1  0
 22 23  1  0
 24 23  1  0
 24 25  1  0
 21 26  1  0
 25 26  1  0
 27 28  1  0
 28 29  1  0
 29 30  1  0
 29 31  1  0
 31 32  1  0
 32 33  1  0
 33 34  1  0
 34 35  1  0
 35 36  1  0
 27 37  1  0
 32 37  1  0
 36 37  1  0
 36 38  1  0
 38 39  1  0
 39 40  1  0
 35 41  1  0
 40 41  1  0
 41 42  1  0
 42 43  1  0
 40 44  1  0
 43 44  1  0
 40 45  1  1
 37 46  1  1
 44 47  1  0
 47 48  1  0
 48 49  1  0
 50 49  1  0
 50 51  1  0
 47 52  1  0
 51 52  1  0
 53 54  1  0
 54 55  1  0
 55 56  1  0
 55 57  1  0
 57 58  1  0
 58 59  1  0
 59 60  1  0
 60 61  1  0
 61 62  1  0
 53 63  1  0
 58 63  1  0
 62 63  1  0
 62 64  1  0
 64 65  1  0
 65 66  1  0
 61 67  1  0
 66 67  1  0
 67 68  1  0
 68 69  1  0
 66 70  1  0
 69 70  1  0
 66 71  1  1
 63 72  1  1
 70 73  1  0
 73 74  1  0
 74 75  1  0
 76 75  1  0
 76 77  1  0
 73 78  1  0
 77 78  1  0
 79 80  1  0
 80 81  1  0
 81 82  1  0
 81 83  1  0
 83 84  1  0
 84 85  1  0
 85 86  1  0
 86 87  1  0
 87 88  1  0
 79 89  1  0
 84 89  1  0
 88 89  1  0
 88 90  1  0
 90 91  1  0
 91 92  1  0
 87 93  1  0
 92 93  1  0
 93 94  1  0
 94 95  1  0
 92 96  1  0
 95 96  1  0
 92 97  1  1
 89 98  1  1
 96 99  1  0
 99100  1  0
100101  1  0
102101  1  0
102103  1  0
 99104  1  0
103104  1  0
  1105  1  0
  1106  1  0
  2107  1  0
  2108  1  0
  3109  1  6
  4110  1  0
  5111  1  0
  5112  1  0
  6113  1  0
  7114  1  0
  7115  1  0
  8116  1  0
  8117  1  0
  9118  1  1
 10119  1  6
 12120  1  0
 12121  1  0
 13122  1  0
 13123  1  0
 15124  1  6
 16125  1  0
 16126  1  0
 17127  1  0
 17128  1  0
 18129  1  0
 19130  1  0
 19131  1  0
 19132  1  0
 20133  1  0
 20134  1  0
 20135  1  0
 21136  1  0
 22137  1  0
 22138  1  0
 23139  1  0
 24140  1  0
 24141  1  0
 25142  1  0
 25143  1  0
 26144  1  0
 26145  1  0
 27146  1  0
 27147  1  0
 28148  1  0
 28149  1  0
 29150  1  6
 30151  1  0
 31152  1  0
 31153  1  0
 32154  1  0
 33155  1  0
 33156  1  0
 34157  1  0
 34158  1  0
 35159  1  1
 36160  1  6
 38161  1  0
 38162  1  0
 39163  1  0
 39164  1  0
 41165  1  6
 42166  1  0
 42167  1  0
 43168  1  0
 43169  1  0
 44170  1  0
 45171  1  0
 45172  1  0
 45173  1  0
 46174  1  0
 46175  1  0
 46176  1  0
 47177  1  0
 48178  1  0
 48179  1  0
 49180  1  0
 50181  1  0
 50182  1  0
 51183  1  0
 51184  1  0
 52185  1  0
 52186  1  0
 53187  1  0
 53188  1  0
 54189  1  0
 54190  1  0
 55191  1  6
 56192  1  0
 57193  1  0
 57194  1  0
 58195  1  0
 59196  1  0
 59197  1  0
 60198  1  0
 60199  1  0
 61200  1  1
 62201  1  6
 64202  1  0
 64203  1  0
 65204  1  0
 65205  1  0
 67206  1  6
 68207  1  0
 68208  1  0
 69209  1  0
 69210  1  0
 70211  1  1
 71212  1  0
 71213  1  0
 71214  1  0
 72215  1  0
 72216  1  0
 72217  1  0
 73218  1  1
 74219  1  0
 74220  1  0
 75221  1  0
 76222  1  0
 76223  1  0
 77224  1  0
 77225  1  0
 78226  1  0
 78227  1  0
 79228  1  0
 79229  1  0
 80230  1  0
 80231  1  0
 81232  1  6
 82233  1  0
 83234  1  0
 83235  1  0
 84236  1  1
 85237  1  0
 85238  1  0
 86239  1  0
 86240  1  0
 87241  1  1
 88242  1  6
 90243  1  0
 90244  1  0
 91245  1  0
 91246  1  0
 93247  1  6
 94248  1  0
 94249  1  0
 95250  1  0
 95251  1  0
 96252  1  0
 97253  1  0
 97254  1  0
 97255  1  0
 98256  1  0
 98257  1  0
 98258  1  0
 99259  1  0
100260  1  0
100261  1  0
101262  1  0
102263  1  0
102264  1  0
103265  1  0
103266  1  0
104267  1  0
104268  1  0
M  END
>  <PDBID>  (1) 
3RUK

>  <PDB ID>  (1) 
3RUK

>  <Generic Name>  (1) 
Abiraterone

>  <Brand Name>  (1) 
Zytiga

>  <DrugBank ID>  (1) 
DB05812

>  <ATC Codes>  (1) 
L02BX03

>  <Ligand ID>  (1) 
AER

>  <Target Name>  (1) 
Steroid 17-alpha-hydroxylase/17,20 lyase

>  <UniProt ID>  (1) 
P05093

>  <PDB ID.1>  (1) 
3RUK

>  <Seq. Identity>  (1) 
97%

$$$$
