PDB_DB01204_06
     RDKit          3D

152156  0  0  0  0  0  0  0  0999 V2000
    7.9157   -4.5986    1.1687 O   0  0  0  0  0  0  0  0  0  0  0  0
    7.6429   -3.3022    0.7267 C   0  0  0  0  0  0  0  0  0  0  0  0
    6.1363   -3.1805    0.5972 C   0  0  0  0  0  0  0  0  0  0  0  0
    5.7607   -1.8598    0.1446 N   0  0  0  0  0  0  0  0  0  0  0  0
    4.2960   -1.7402   -0.0148 C   0  0  0  0  0  0  0  0  0  0  0  0
    3.9742   -0.3436   -0.4528 C   0  0  0  0  0  0  0  0  0  0  0  0
    2.6587   -0.0112   -0.7287 N   0  0  0  0  0  0  0  0  0  0  0  0
    1.6440    0.0044    0.2636 C   0  0  0  0  0  0  0  0  0  0  0  0
    1.1880   -1.3118    0.7615 C   0  0  0  0  0  0  0  0  0  0  0  0
   -0.1780   -1.7283    0.2750 C   0  0  0  0  0  0  0  0  0  0  0  0
    0.5289    0.9941   -0.0805 C   0  0  0  0  0  0  0  0  0  0  0  0
    1.0163    2.3589    0.3891 C   0  0  0  0  0  0  0  0  0  0  0  0
    1.5102    2.1332    1.6996 O   0  0  0  0  0  0  0  0  0  0  0  0
   -0.0011    3.4197    0.4116 C   0  0  0  0  0  0  0  0  0  0  0  0
    0.4782    4.5316   -0.5265 C   0  0  0  0  0  0  0  0  0  0  0  0
    1.6869    5.0643   -0.0659 O   0  0  0  0  0  0  0  0  0  0  0  0
   -0.5267    5.6200   -0.6689 C   0  0  0  0  0  0  0  0  0  0  0  0
   -1.7331    5.0599   -1.3632 C   0  0  0  0  0  0  0  0  0  0  0  0
   -1.7092    3.5498   -1.3552 C   0  0  0  0  0  0  0  0  0  0  0  0
   -3.0446    3.1512   -1.5962 O   0  0  0  0  0  0  0  0  0  0  0  0
   -1.3808    3.0670    0.0526 C   0  0  0  0  0  0  0  0  0  0  0  0
   -1.8028    1.6531    0.2770 C   0  0  0  0  0  0  0  0  0  0  0  0
   -2.8105    1.5340    1.2663 O   0  0  0  0  0  0  0  0  0  0  0  0
   -0.7061    0.7115    0.7049 C   0  0  0  0  0  0  0  0  0  0  0  0
   -1.2097   -0.6876    0.4622 C   0  0  0  0  0  0  0  0  0  0  0  0
   -1.9997   -0.6339   -0.7573 N   0  0  0  0  0  0  0  0  0  0  0  0
   -2.7119   -1.8473   -1.0348 C   0  0  0  0  0  0  0  0  0  0  0  0
   -3.8635   -2.1273   -0.0847 C   0  0  0  0  0  0  0  0  0  0  0  0
   -4.4230   -3.3782   -0.4977 N   0  0  0  0  0  0  0  0  0  0  0  0
   -5.5704   -3.8255    0.1918 C   0  0  0  0  0  0  0  0  0  0  0  0
   -6.8315   -3.0335   -0.0595 C   0  0  0  0  0  0  0  0  0  0  0  0
   -7.8379   -3.6214    0.7020 O   0  0  0  0  0  0  0  0  0  0  0  0
    7.9157   -4.5986    1.1687 O   0  0  0  0  0  0  0  0  0  0  0  0
    7.6429   -3.3022    0.7267 C   0  0  0  0  0  0  0  0  0  0  0  0
    6.1363   -3.1805    0.5972 C   0  0  0  0  0  0  0  0  0  0  0  0
    5.7607   -1.8598    0.1446 N   0  0  0  0  0  0  0  0  0  0  0  0
    4.2960   -1.7402   -0.0148 C   0  0  0  0  0  0  0  0  0  0  0  0
    3.9742   -0.3436   -0.4528 C   0  0  0  0  0  0  0  0  0  0  0  0
    2.6587   -0.0112   -0.7287 N   0  0  0  0  0  0  0  0  0  0  0  0
    1.6440    0.0044    0.2636 C   0  0  0  0  0  0  0  0  0  0  0  0
    1.1880   -1.3118    0.7615 C   0  0  0  0  0  0  0  0  0  0  0  0
   -0.1780   -1.7283    0.2750 C   0  0  0  0  0  0  0  0  0  0  0  0
    0.5289    0.9941   -0.0805 C   0  0  0  0  0  0  0  0  0  0  0  0
    1.0163    2.3589    0.3891 C   0  0  0  0  0  0  0  0  0  0  0  0
    1.5102    2.1332    1.6996 O   0  0  0  0  0  0  0  0  0  0  0  0
   -0.0011    3.4197    0.4116 C   0  0  0  0  0  0  0  0  0  0  0  0
    0.4782    4.5316   -0.5265 C   0  0  0  0  0  0  0  0  0  0  0  0
    1.6869    5.0643   -0.0659 O   0  0  0  0  0  0  0  0  0  0  0  0
   -0.5267    5.6200   -0.6689 C   0  0  0  0  0  0  0  0  0  0  0  0
   -1.7331    5.0599   -1.3632 C   0  0  0  0  0  0  0  0  0  0  0  0
   -1.7092    3.5498   -1.3552 C   0  0  0  0  0  0  0  0  0  0  0  0
   -3.0446    3.1512   -1.5962 O   0  0  0  0  0  0  0  0  0  0  0  0
   -1.3808    3.0670    0.0526 C   0  0  0  0  0  0  0  0  0  0  0  0
   -1.8028    1.6531    0.2770 C   0  0  0  0  0  0  0  0  0  0  0  0
   -2.8105    1.5340    1.2663 O   0  0  0  0  0  0  0  0  0  0  0  0
   -0.7061    0.7115    0.7049 C   0  0  0  0  0  0  0  0  0  0  0  0
   -1.2097   -0.6876    0.4622 C   0  0  0  0  0  0  0  0  0  0  0  0
   -1.9997   -0.6339   -0.7573 N   0  0  0  0  0  0  0  0  0  0  0  0
   -2.7119   -1.8473   -1.0348 C   0  0  0  0  0  0  0  0  0  0  0  0
   -3.8635   -2.1273   -0.0847 C   0  0  0  0  0  0  0  0  0  0  0  0
   -4.4230   -3.3782   -0.4977 N   0  0  0  0  0  0  0  0  0  0  0  0
   -5.5704   -3.8255    0.1918 C   0  0  0  0  0  0  0  0  0  0  0  0
   -6.8315   -3.0335   -0.0595 C   0  0  0  0  0  0  0  0  0  0  0  0
   -7.8379   -3.6214    0.7020 O   0  0  0  0  0  0  0  0  0  0  0  0
    8.8733   -4.8585    0.9883 H   0  0  0  0  0  0  0  0  0  0  0  0
    8.0575   -2.6169    1.5011 H   0  0  0  0  0  0  0  0  0  0  0  0
    8.1404   -3.1387   -0.2514 H   0  0  0  0  0  0  0  0  0  0  0  0
    5.7849   -3.9709   -0.0733 H   0  0  0  0  0  0  0  0  0  0  0  0
    5.7501   -3.2925    1.6315 H   0  0  0  0  0  0  0  0  0  0  0  0
    6.0777   -1.1657    0.8503 H   0  0  0  0  0  0  0  0  0  0  0  0
    3.9510   -1.8056    1.0699 H   0  0  0  0  0  0  0  0  0  0  0  0
    3.9750   -2.5445   -0.6473 H   0  0  0  0  0  0  0  0  0  0  0  0
    4.3659    0.3316    0.3904 H   0  0  0  0  0  0  0  0  0  0  0  0
    4.6578   -0.0317   -1.3031 H   0  0  0  0  0  0  0  0  0  0  0  0
    2.3328   -0.3296   -1.6566 H   0  0  0  0  0  0  0  0  0  0  0  0
    2.2020    0.4569    1.1884 H   0  0  0  0  0  0  0  0  0  0  0  0
    1.2224   -1.3729    1.8441 H   0  0  0  0  0  0  0  0  0  0  0  0
    1.8705   -2.1020    0.3452 H   0  0  0  0  0  0  0  0  0  0  0  0
   -0.0836   -2.0936   -0.7728 H   0  0  0  0  0  0  0  0  0  0  0  0
   -0.4477   -2.6497    0.8718 H   0  0  0  0  0  0  0  0  0  0  0  0
    0.3976    1.0328   -1.1670 H   0  0  0  0  0  0  0  0  0  0  0  0
    1.9147    2.5856   -0.2140 H   0  0  0  0  0  0  0  0  0  0  0  0
    0.7708    2.4129    2.3240 H   0  0  0  0  0  0  0  0  0  0  0  0
    0.0215    3.9125    1.4299 H   0  0  0  0  0  0  0  0  0  0  0  0
    0.6843    4.0771   -1.5186 H   0  0  0  0  0  0  0  0  0  0  0  0
    2.4452    4.8595   -0.6918 H   0  0  0  0  0  0  0  0  0  0  0  0
   -0.0665    6.4296   -1.2689 H   0  0  0  0  0  0  0  0  0  0  0  0
   -0.7495    6.0469    0.3266 H   0  0  0  0  0  0  0  0  0  0  0  0
   -1.8131    5.4583   -2.3923 H   0  0  0  0  0  0  0  0  0  0  0  0
   -2.6468    5.3493   -0.7933 H   0  0  0  0  0  0  0  0  0  0  0  0
   -1.0890    3.1144   -2.1286 H   0  0  0  0  0  0  0  0  0  0  0  0
   -3.5725    3.8810   -2.0037 H   0  0  0  0  0  0  0  0  0  0  0  0
   -2.0768    3.6957    0.6976 H   0  0  0  0  0  0  0  0  0  0  0  0
   -2.2695    1.2766   -0.6605 H   0  0  0  0  0  0  0  0  0  0  0  0
   -2.4354    1.7274    2.1598 H   0  0  0  0  0  0  0  0  0  0  0  0
   -0.4441    0.8673    1.7914 H   0  0  0  0  0  0  0  0  0  0  0  0
   -1.8372   -0.9369    1.3464 H   0  0  0  0  0  0  0  0  0  0  0  0
   -1.2952   -0.5291   -1.5474 H   0  0  0  0  0  0  0  0  0  0  0  0
   -3.1038   -1.7638   -2.0850 H   0  0  0  0  0  0  0  0  0  0  0  0
   -2.0069   -2.7175   -1.0550 H   0  0  0  0  0  0  0  0  0  0  0  0
   -4.6329   -1.3213   -0.2748 H   0  0  0  0  0  0  0  0  0  0  0  0
   -3.5930   -2.0325    0.9642 H   0  0  0  0  0  0  0  0  0  0  0  0
   -3.7437   -4.1598   -0.5601 H   0  0  0  0  0  0  0  0  0  0  0  0
   -5.7835   -4.8857   -0.0770 H   0  0  0  0  0  0  0  0  0  0  0  0
   -5.3995   -3.8067    1.2976 H   0  0  0  0  0  0  0  0  0  0  0  0
   -7.1612   -3.0980   -1.1219 H   0  0  0  0  0  0  0  0  0  0  0  0
   -6.7469   -1.9856    0.2979 H   0  0  0  0  0  0  0  0  0  0  0  0
   -8.5936   -3.9278    0.1403 H   0  0  0  0  0  0  0  0  0  0  0  0
    8.8733   -4.8585    0.9883 H   0  0  0  0  0  0  0  0  0  0  0  0
    8.0575   -2.6169    1.5011 H   0  0  0  0  0  0  0  0  0  0  0  0
    8.1404   -3.1387   -0.2514 H   0  0  0  0  0  0  0  0  0  0  0  0
    5.7849   -3.9709   -0.0733 H   0  0  0  0  0  0  0  0  0  0  0  0
    5.7501   -3.2925    1.6315 H   0  0  0  0  0  0  0  0  0  0  0  0
    6.0777   -1.1657    0.8503 H   0  0  0  0  0  0  0  0  0  0  0  0
    3.9510   -1.8056    1.0699 H   0  0  0  0  0  0  0  0  0  0  0  0
    3.9750   -2.5445   -0.6473 H   0  0  0  0  0  0  0  0  0  0  0  0
    4.3659    0.3316    0.3904 H   0  0  0  0  0  0  0  0  0  0  0  0
    4.6578   -0.0317   -1.3031 H   0  0  0  0  0  0  0  0  0  0  0  0
    2.3328   -0.3296   -1.6566 H   0  0  0  0  0  0  0  0  0  0  0  0
    2.2020    0.4569    1.1884 H   0  0  0  0  0  0  0  0  0  0  0  0
    1.2224   -1.3729    1.8441 H   0  0  0  0  0  0  0  0  0  0  0  0
    1.8705   -2.1020    0.3452 H   0  0  0  0  0  0  0  0  0  0  0  0
   -0.0836   -2.0936   -0.7728 H   0  0  0  0  0  0  0  0  0  0  0  0
   -0.4477   -2.6497    0.8718 H   0  0  0  0  0  0  0  0  0  0  0  0
    0.3976    1.0328   -1.1670 H   0  0  0  0  0  0  0  0  0  0  0  0
    1.9147    2.5856   -0.2140 H   0  0  0  0  0  0  0  0  0  0  0  0
    0.7708    2.4129    2.3240 H   0  0  0  0  0  0  0  0  0  0  0  0
    0.0215    3.9125    1.4299 H   0  0  0  0  0  0  0  0  0  0  0  0
    0.6843    4.0771   -1.5186 H   0  0  0  0  0  0  0  0  0  0  0  0
    2.4452    4.8595   -0.6918 H   0  0  0  0  0  0  0  0  0  0  0  0
   -0.0665    6.4296   -1.2689 H   0  0  0  0  0  0  0  0  0  0  0  0
   -0.7495    6.0469    0.3266 H   0  0  0  0  0  0  0  0  0  0  0  0
   -1.8131    5.4583   -2.3923 H   0  0  0  0  0  0  0  0  0  0  0  0
   -2.6468    5.3493   -0.7933 H   0  0  0  0  0  0  0  0  0  0  0  0
   -1.0890    3.1144   -2.1286 H   0  0  0  0  0  0  0  0  0  0  0  0
   -3.5725    3.8810   -2.0037 H   0  0  0  0  0  0  0  0  0  0  0  0
   -2.0768    3.6957    0.6976 H   0  0  0  0  0  0  0  0  0  0  0  0
   -2.2695    1.2766   -0.6605 H   0  0  0  0  0  0  0  0  0  0  0  0
   -2.4354    1.7274    2.1598 H   0  0  0  0  0  0  0  0  0  0  0  0
   -0.4441    0.8673    1.7914 H   0  0  0  0  0  0  0  0  0  0  0  0
   -1.8372   -0.9369    1.3464 H   0  0  0  0  0  0  0  0  0  0  0  0
   -1.2952   -0.5291   -1.5474 H   0  0  0  0  0  0  0  0  0  0  0  0
   -3.1038   -1.7638   -2.0850 H   0  0  0  0  0  0  0  0  0  0  0  0
   -2.0069   -2.7175   -1.0550 H   0  0  0  0  0  0  0  0  0  0  0  0
   -4.6329   -1.3213   -0.2748 H   0  0  0  0  0  0  0  0  0  0  0  0
   -3.5930   -2.0325    0.9642 H   0  0  0  0  0  0  0  0  0  0  0  0
   -3.7437   -4.1598   -0.5601 H   0  0  0  0  0  0  0  0  0  0  0  0
   -5.7835   -4.8857   -0.0770 H   0  0  0  0  0  0  0  0  0  0  0  0
   -5.3995   -3.8067    1.2976 H   0  0  0  0  0  0  0  0  0  0  0  0
   -7.1612   -3.0980   -1.1219 H   0  0  0  0  0  0  0  0  0  0  0  0
   -6.7469   -1.9856    0.2979 H   0  0  0  0  0  0  0  0  0  0  0  0
   -8.5936   -3.9278    0.1403 H   0  0  0  0  0  0  0  0  0  0  0  0
  1  2  1  0
  2  3  1  0
  3  4  1  0
  4  5  1  0
  5  6  1  0
  6  7  1  0
  7  8  1  0
  8  9  1  0
  9 10  1  0
  8 11  1  0
 11 12  1  0
 12 13  1  0
 12 14  1  0
 14 15  1  0
 15 16  1  0
 15 17  1  0
 17 18  1  0
 18 19  1  0
 19 20  1  0
 14 21  1  0
 19 21  1  0
 21 22  1  0
 22 23  1  0
 11 24  1  0
 22 24  1  0
 10 25  1  0
 24 25  1  0
 25 26  1  0
 26 27  1  0
 27 28  1  0
 28 29  1  0
 29 30  1  0
 30 31  1  0
 31 32  1  0
 33 34  1  0
 34 35  1  0
 35 36  1  0
 36 37  1  0
 37 38  1  0
 38 39  1  0
 39 40  1  0
 40 41  1  0
 41 42  1  0
 40 43  1  0
 43 44  1  0
 44 45  1  0
 44 46  1  0
 46 47  1  0
 47 48  1  0
 47 49  1  0
 49 50  1  0
 50 51  1  0
 51 52  1  0
 46 53  1  0
 51 53  1  0
 53 54  1  0
 54 55  1  0
 43 56  1  0
 54 56  1  0
 42 57  1  0
 56 57  1  0
 57 58  1  0
 58 59  1  0
 59 60  1  0
 60 61  1  0
 61 62  1  0
 62 63  1  0
 63 64  1  0
  1 65  1  0
  2 66  1  0
  2 67  1  0
  3 68  1  0
  3 69  1  0
  4 70  1  0
  5 71  1  0
  5 72  1  0
  6 73  1  0
  6 74  1  0
  7 75  1  0
  8 76  1  0
  9 77  1  0
  9 78  1  0
 10 79  1  0
 10 80  1  0
 11 81  1  0
 12 82  1  0
 13 83  1  0
 14 84  1  0
 15 85  1  0
 16 86  1  0
 17 87  1  0
 17 88  1  0
 18 89  1  0
 18 90  1  0
 19 91  1  0
 20 92  1  0
 21 93  1  0
 22 94  1  0
 23 95  1  0
 24 96  1  0
 25 97  1  0
 26 98  1  0
 27 99  1  0
 27100  1  0
 28101  1  0
 28102  1  0
 29103  1  0
 30104  1  0
 30105  1  0
 31106  1  0
 31107  1  0
 32108  1  0
 33109  1  0
 34110  1  0
 34111  1  0
 35112  1  0
 35113  1  0
 36114  1  0
 37115  1  0
 37116  1  0
 38117  1  0
 38118  1  0
 39119  1  0
 40120  1  0
 41121  1  0
 41122  1  0
 42123  1  0
 42124  1  0
 43125  1  0
 44126  1  0
 45127  1  0
 46128  1  0
 47129  1  0
 48130  1  0
 49131  1  0
 49132  1  0
 50133  1  0
 50134  1  0
 51135  1  0
 52136  1  0
 53137  1  0
 54138  1  0
 55139  1  0
 56140  1  0
 57141  1  0
 58142  1  0
 59143  1  0
 59144  1  0
 60145  1  0
 60146  1  0
 61147  1  0
 62148  1  0
 62149  1  0
 63150  1  0
 63151  1  0
 64152  1  0
M  END
>  <PDBID>  (1) 
4G0V

>  <PDB ID>  (1) 
4G0V

>  <Generic Name>  (1) 
Mitoxantrone

>  <Brand Name>  (1) 
Mitoxantrone#Mitoxantrone Hydrochloride#Mitoxantrone Injection#Mitoxantrone Injection USP#Novantrone#Novantrone Inj 2mg/ml

>  <DrugBank ID>  (1) 
DB01204

>  <ATC Codes>  (1) 
L01DB07

>  <Ligand ID>  (1) 
MIX

>  <Target Name>  (1) 
DNA topoisomerase 2-alpha

>  <UniProt ID>  (1) 
P11388

>  <PDB ID.1>  (1) 
4G0V

>  <Seq. Identity>  (1) 
78%

$$$$
