PDB_DB01229_08
     RDKit          3D

290302  0  0  0  0  0  0  0  0999 V2000
   -2.0153   -0.0609   -2.2682 O   0  0  0  0  0  0  0  0  0  0  0  0
   -1.7116    0.0521   -0.8719 C   0  0  1  0  0  0  0  0  0  0  0  0
   -3.1036   -0.0310   -0.2444 C   0  0  1  0  0  0  0  0  0  0  0  0
   -4.0084   -0.6336   -1.1087 O   0  0  0  0  0  0  0  0  0  0  0  0
   -4.6722   -0.0217   -2.0616 C   0  0  0  0  0  0  0  0  0  0  0  0
   -4.3941   -0.6052   -3.2908 O   0  0  0  0  0  0  0  0  0  0  0  0
   -6.1624    0.1942   -1.9880 C   0  0  0  0  0  0  0  0  0  0  0  0
   -6.5962    1.0925   -0.8523 C   0  0  0  0  0  0  0  0  0  0  0  0
   -8.0589    0.8095   -0.6060 C   0  0  0  0  0  0  0  0  0  0  0  0
   -8.7766    1.3405   -1.8518 C   0  0  0  0  0  0  0  0  0  0  0  0
   -8.2567    0.6850   -3.1008 C   0  0  0  0  0  0  0  0  0  0  0  0
   -6.7343    0.8078   -3.2448 C   0  0  0  0  0  0  0  0  0  0  0  0
   -3.2289   -0.5264    1.1415 C   0  0  2  0  0  0  0  0  0  0  0  0
   -4.3008   -1.5509    1.1693 C   0  0  2  0  0  0  0  0  0  0  0  0
   -4.1886   -2.5284    0.1935 O   0  0  0  0  0  0  0  0  0  0  0  0
   -3.1657   -3.4065    0.2523 C   0  0  0  0  0  0  0  0  0  0  0  0
   -3.8214   -4.6570    0.6338 O   0  0  0  0  0  0  0  0  0  0  0  0
   -2.4879   -3.6521   -1.0609 C   0  0  0  0  0  0  0  0  0  0  0  0
   -5.7281   -1.2475    1.3737 C   0  0  0  0  0  0  0  0  0  0  0  0
   -5.8896   -2.3916    2.2181 O   0  0  0  0  0  0  0  0  0  0  0  0
   -4.5134   -2.2145    2.5098 C   0  0  2  0  0  0  0  0  0  0  0  0
   -4.3716   -1.3018    3.6564 C   0  0  0  0  0  0  0  0  0  0  0  0
   -3.2114   -0.4050    3.5689 C   0  0  2  0  0  0  0  0  0  0  0  0
   -3.3129    0.4628    4.6733 O   0  0  0  0  0  0  0  0  0  0  0  0
   -3.1514    0.4471    2.2619 C   0  0  2  0  0  0  0  0  0  0  0  0
   -4.1587    1.4638    2.4863 C   0  0  0  0  0  0  0  0  0  0  0  0
   -1.7086    0.9611    2.3854 C   0  0  0  0  0  0  0  0  0  0  0  0
   -1.6236    1.3678    3.7597 O   0  0  0  0  0  0  0  0  0  0  0  0
   -1.1965    2.0294    1.6019 C   0  0  2  0  0  0  0  0  0  0  0  0
   -2.1056    3.0270    1.3192 O   0  0  0  0  0  0  0  0  0  0  0  0
   -1.7859    4.2798    1.7987 C   0  0  0  0  0  0  0  0  0  0  0  0
   -1.5465    5.1946    0.7613 O   0  0  0  0  0  0  0  0  0  0  0  0
   -2.9170    4.8406    2.5995 C   0  0  0  0  0  0  0  0  0  0  0  0
   -0.3801    1.7794    0.3679 C   0  0  1  0  0  0  0  0  0  0  0  0
    0.7802    0.8863    0.4488 C   0  0  0  0  0  0  0  0  0  0  0  0
    0.7189   -0.4150   -0.2809 C   0  0  1  0  0  0  0  0  0  0  0  0
    1.5263   -1.3489    0.3608 O   0  0  0  0  0  0  0  0  0  0  0  0
    2.5125   -1.9424   -0.3526 C   0  0  0  0  0  0  0  0  0  0  0  0
    2.3306   -3.3112   -0.3665 O   0  0  0  0  0  0  0  0  0  0  0  0
    3.9371   -1.6928    0.1486 C   0  0  2  0  0  0  0  0  0  0  0  0
    3.9093   -2.0623    1.4658 O   0  0  0  0  0  0  0  0  0  0  0  0
    4.4992   -0.3881   -0.1157 C   0  0  1  0  0  0  0  0  0  0  0  0
    5.8078   -0.1572    0.3432 N   0  0  0  0  0  0  0  0  0  0  0  0
    6.2063   -0.0691    1.6624 C   0  0  0  0  0  0  0  0  0  0  0  0
    5.2838   -0.4747    2.6085 O   0  0  0  0  0  0  0  0  0  0  0  0
    7.5723   -0.7139    1.9529 C   0  0  0  0  0  0  0  0  0  0  0  0
    8.6531   -0.0521    1.1402 C   0  0  0  0  0  0  0  0  0  0  0  0
    9.7268   -0.9992    0.7165 C   0  0  0  0  0  0  0  0  0  0  0  0
    9.1221   -2.1503   -0.0560 C   0  0  0  0  0  0  0  0  0  0  0  0
    8.0790   -2.8738    0.7226 C   0  0  0  0  0  0  0  0  0  0  0  0
    7.5674   -2.1897    1.9409 C   0  0  0  0  0  0  0  0  0  0  0  0
    4.4803   -0.0442   -1.6517 C   0  0  0  0  0  0  0  0  0  0  0  0
    5.0827    1.3233   -1.7389 C   0  0  0  0  0  0  0  0  0  0  0  0
    5.7528    1.6453   -3.0229 C   0  0  0  0  0  0  0  0  0  0  0  0
    5.4590    0.6385   -4.1155 C   0  0  0  0  0  0  0  0  0  0  0  0
    5.9806   -0.6740   -3.5753 C   0  0  0  0  0  0  0  0  0  0  0  0
    5.0863   -1.1044   -2.4472 C   0  0  0  0  0  0  0  0  0  0  0  0
   -0.6899   -0.9219   -0.5484 C   0  0  0  0  0  0  0  0  0  0  0  0
    1.2565    0.5816    1.8863 C   0  0  0  0  0  0  0  0  0  0  0  0
   -1.1837    1.4936   -0.8699 C   0  0  0  0  0  0  0  0  0  0  0  0
   -0.1718    1.5401   -2.0334 C   0  0  0  0  0  0  0  0  0  0  0  0
   -2.1229    2.5439   -1.2647 C   0  0  0  0  0  0  0  0  0  0  0  0
   -2.0153   -0.0609   -2.2682 O   0  0  0  0  0  0  0  0  0  0  0  0
   -1.7116    0.0521   -0.8719 C   0  0  1  0  0  0  0  0  0  0  0  0
   -3.1036   -0.0310   -0.2444 C   0  0  1  0  0  0  0  0  0  0  0  0
   -4.0084   -0.6336   -1.1087 O   0  0  0  0  0  0  0  0  0  0  0  0
   -4.6722   -0.0217   -2.0616 C   0  0  0  0  0  0  0  0  0  0  0  0
   -4.3941   -0.6052   -3.2908 O   0  0  0  0  0  0  0  0  0  0  0  0
   -6.1624    0.1942   -1.9880 C   0  0  0  0  0  0  0  0  0  0  0  0
   -6.5962    1.0925   -0.8523 C   0  0  0  0  0  0  0  0  0  0  0  0
   -8.0589    0.8095   -0.6060 C   0  0  0  0  0  0  0  0  0  0  0  0
   -8.7766    1.3405   -1.8518 C   0  0  0  0  0  0  0  0  0  0  0  0
   -8.2567    0.6850   -3.1008 C   0  0  0  0  0  0  0  0  0  0  0  0
   -6.7343    0.8078   -3.2448 C   0  0  0  0  0  0  0  0  0  0  0  0
   -3.2289   -0.5264    1.1415 C   0  0  2  0  0  0  0  0  0  0  0  0
   -4.3008   -1.5509    1.1693 C   0  0  2  0  0  0  0  0  0  0  0  0
   -4.1886   -2.5284    0.1935 O   0  0  0  0  0  0  0  0  0  0  0  0
   -3.1657   -3.4065    0.2523 C   0  0  0  0  0  0  0  0  0  0  0  0
   -3.8214   -4.6570    0.6338 O   0  0  0  0  0  0  0  0  0  0  0  0
   -2.4879   -3.6521   -1.0609 C   0  0  0  0  0  0  0  0  0  0  0  0
   -5.7281   -1.2475    1.3737 C   0  0  0  0  0  0  0  0  0  0  0  0
   -5.8896   -2.3916    2.2181 O   0  0  0  0  0  0  0  0  0  0  0  0
   -4.5134   -2.2145    2.5098 C   0  0  2  0  0  0  0  0  0  0  0  0
   -4.3716   -1.3018    3.6564 C   0  0  0  0  0  0  0  0  0  0  0  0
   -3.2114   -0.4050    3.5689 C   0  0  2  0  0  0  0  0  0  0  0  0
   -3.3129    0.4628    4.6733 O   0  0  0  0  0  0  0  0  0  0  0  0
   -3.1514    0.4471    2.2619 C   0  0  2  0  0  0  0  0  0  0  0  0
   -4.1587    1.4638    2.4863 C   0  0  0  0  0  0  0  0  0  0  0  0
   -1.7086    0.9611    2.3854 C   0  0  0  0  0  0  0  0  0  0  0  0
   -1.6236    1.3678    3.7597 O   0  0  0  0  0  0  0  0  0  0  0  0
   -1.1965    2.0294    1.6019 C   0  0  2  0  0  0  0  0  0  0  0  0
   -2.1056    3.0270    1.3192 O   0  0  0  0  0  0  0  0  0  0  0  0
   -1.7859    4.2798    1.7987 C   0  0  0  0  0  0  0  0  0  0  0  0
   -1.5465    5.1946    0.7613 O   0  0  0  0  0  0  0  0  0  0  0  0
   -2.9170    4.8406    2.5995 C   0  0  0  0  0  0  0  0  0  0  0  0
   -0.3801    1.7794    0.3679 C   0  0  1  0  0  0  0  0  0  0  0  0
    0.7802    0.8863    0.4488 C   0  0  0  0  0  0  0  0  0  0  0  0
    0.7189   -0.4150   -0.2809 C   0  0  1  0  0  0  0  0  0  0  0  0
    1.5263   -1.3489    0.3608 O   0  0  0  0  0  0  0  0  0  0  0  0
    2.5125   -1.9424   -0.3526 C   0  0  0  0  0  0  0  0  0  0  0  0
    2.3306   -3.3112   -0.3665 O   0  0  0  0  0  0  0  0  0  0  0  0
    3.9371   -1.6928    0.1486 C   0  0  2  0  0  0  0  0  0  0  0  0
    3.9093   -2.0623    1.4658 O   0  0  0  0  0  0  0  0  0  0  0  0
    4.4992   -0.3881   -0.1157 C   0  0  1  0  0  0  0  0  0  0  0  0
    5.8078   -0.1572    0.3432 N   0  0  0  0  0  0  0  0  0  0  0  0
    6.2063   -0.0691    1.6624 C   0  0  0  0  0  0  0  0  0  0  0  0
    5.2838   -0.4747    2.6085 O   0  0  0  0  0  0  0  0  0  0  0  0
    7.5723   -0.7139    1.9529 C   0  0  0  0  0  0  0  0  0  0  0  0
    8.6531   -0.0521    1.1402 C   0  0  0  0  0  0  0  0  0  0  0  0
    9.7268   -0.9992    0.7165 C   0  0  0  0  0  0  0  0  0  0  0  0
    9.1221   -2.1503   -0.0560 C   0  0  0  0  0  0  0  0  0  0  0  0
    8.0790   -2.8738    0.7226 C   0  0  0  0  0  0  0  0  0  0  0  0
    7.5674   -2.1897    1.9409 C   0  0  0  0  0  0  0  0  0  0  0  0
    4.4803   -0.0442   -1.6517 C   0  0  0  0  0  0  0  0  0  0  0  0
    5.0827    1.3233   -1.7389 C   0  0  0  0  0  0  0  0  0  0  0  0
    5.7528    1.6453   -3.0229 C   0  0  0  0  0  0  0  0  0  0  0  0
    5.4590    0.6385   -4.1155 C   0  0  0  0  0  0  0  0  0  0  0  0
    5.9806   -0.6740   -3.5753 C   0  0  0  0  0  0  0  0  0  0  0  0
    5.0863   -1.1044   -2.4472 C   0  0  0  0  0  0  0  0  0  0  0  0
   -0.6899   -0.9219   -0.5484 C   0  0  0  0  0  0  0  0  0  0  0  0
    1.2565    0.5816    1.8863 C   0  0  0  0  0  0  0  0  0  0  0  0
   -1.1837    1.4936   -0.8699 C   0  0  0  0  0  0  0  0  0  0  0  0
   -0.1718    1.5401   -2.0334 C   0  0  0  0  0  0  0  0  0  0  0  0
   -2.1229    2.5439   -1.2647 C   0  0  0  0  0  0  0  0  0  0  0  0
   -1.5676   -0.8676   -2.6056 H   0  0  0  0  0  0  0  0  0  0  0  0
   -3.4018    1.0360   -0.2831 H   0  0  0  0  0  0  0  0  0  0  0  0
   -4.3303    1.0803   -2.2151 H   0  0  0  0  0  0  0  0  0  0  0  0
   -4.1956    0.0430   -4.0087 H   0  0  0  0  0  0  0  0  0  0  0  0
   -6.7043   -0.8060   -1.9245 H   0  0  0  0  0  0  0  0  0  0  0  0
   -5.9521    1.1580   -0.0022 H   0  0  0  0  0  0  0  0  0  0  0  0
   -6.5948    2.1670   -1.2749 H   0  0  0  0  0  0  0  0  0  0  0  0
   -8.4823    1.3107    0.2618 H   0  0  0  0  0  0  0  0  0  0  0  0
   -8.1816   -0.2923   -0.5589 H   0  0  0  0  0  0  0  0  0  0  0  0
   -8.6834    2.4351   -1.8660 H   0  0  0  0  0  0  0  0  0  0  0  0
   -9.8336    1.0739   -1.7336 H   0  0  0  0  0  0  0  0  0  0  0  0
   -8.4713   -0.3986   -3.0198 H   0  0  0  0  0  0  0  0  0  0  0  0
   -8.7547    1.1566   -3.9546 H   0  0  0  0  0  0  0  0  0  0  0  0
   -6.4808    1.9018   -3.2689 H   0  0  0  0  0  0  0  0  0  0  0  0
   -6.4501    0.2875   -4.1561 H   0  0  0  0  0  0  0  0  0  0  0  0
   -2.3213   -1.1884    1.4298 H   0  0  0  0  0  0  0  0  0  0  0  0
   -2.4513   -3.1822    1.0392 H   0  0  0  0  0  0  0  0  0  0  0  0
   -3.4455   -5.3792    0.0545 H   0  0  0  0  0  0  0  0  0  0  0  0
   -1.3964   -3.8452   -0.9461 H   0  0  0  0  0  0  0  0  0  0  0  0
   -2.5967   -2.8601   -1.8059 H   0  0  0  0  0  0  0  0  0  0  0  0
   -2.9023   -4.5792   -1.5132 H   0  0  0  0  0  0  0  0  0  0  0  0
   -6.3953   -1.4782    0.4823 H   0  0  0  0  0  0  0  0  0  0  0  0
   -6.0830   -0.3320    1.8032 H   0  0  0  0  0  0  0  0  0  0  0  0
   -4.0365   -3.1994    2.5351 H   0  0  0  0  0  0  0  0  0  0  0  0
   -5.3204   -0.7528    3.9207 H   0  0  0  0  0  0  0  0  0  0  0  0
   -4.1860   -1.9412    4.5732 H   0  0  0  0  0  0  0  0  0  0  0  0
   -2.2577   -0.9540    3.6874 H   0  0  0  0  0  0  0  0  0  0  0  0
   -3.7145    0.0413    5.4499 H   0  0  0  0  0  0  0  0  0  0  0  0
   -4.5777    2.0549    1.6977 H   0  0  0  0  0  0  0  0  0  0  0  0
   -3.6704    2.2233    3.1956 H   0  0  0  0  0  0  0  0  0  0  0  0
   -5.0076    1.1262    3.1598 H   0  0  0  0  0  0  0  0  0  0  0  0
   -1.1594   -0.0062    2.3929 H   0  0  0  0  0  0  0  0  0  0  0  0
   -0.9190    0.9092    4.2377 H   0  0  0  0  0  0  0  0  0  0  0  0
   -0.4372    2.6139    2.2366 H   0  0  0  0  0  0  0  0  0  0  0  0
   -0.8340    4.2667    2.3847 H   0  0  0  0  0  0  0  0  0  0  0  0
   -1.8516    6.0778    1.0177 H   0  0  0  0  0  0  0  0  0  0  0  0
   -3.8955    4.4915    2.1585 H   0  0  0  0  0  0  0  0  0  0  0  0
   -2.9146    5.9519    2.5119 H   0  0  0  0  0  0  0  0  0  0  0  0
   -2.8354    4.5992    3.6790 H   0  0  0  0  0  0  0  0  0  0  0  0
   -0.0089    2.8279    0.1054 H   0  0  0  0  0  0  0  0  0  0  0  0
    1.6742    1.4294    0.0371 H   0  0  0  0  0  0  0  0  0  0  0  0
    1.2332   -0.3484   -1.2526 H   0  0  0  0  0  0  0  0  0  0  0  0
    2.4211   -1.5857   -1.4100 H   0  0  0  0  0  0  0  0  0  0  0  0
    3.1499   -3.8496   -0.3698 H   0  0  0  0  0  0  0  0  0  0  0  0
    4.5403   -2.4880   -0.3737 H   0  0  0  0  0  0  0  0  0  0  0  0
    3.5649   -3.0117    1.5005 H   0  0  0  0  0  0  0  0  0  0  0  0
    3.8490    0.3973    0.3745 H   0  0  0  0  0  0  0  0  0  0  0  0
    6.4804   -0.7382   -0.2190 H   0  0  0  0  0  0  0  0  0  0  0  0
    6.4046    1.0303    1.9730 H   0  0  0  0  0  0  0  0  0  0  0  0
    5.6624   -0.2878    3.5276 H   0  0  0  0  0  0  0  0  0  0  0  0
    7.7826   -0.3765    3.0175 H   0  0  0  0  0  0  0  0  0  0  0  0
    9.0795    0.8480    1.6220 H   0  0  0  0  0  0  0  0  0  0  0  0
    8.1545    0.3348    0.2071 H   0  0  0  0  0  0  0  0  0  0  0  0
   10.4269   -0.4755    0.0359 H   0  0  0  0  0  0  0  0  0  0  0  0
   10.3335   -1.3816    1.5639 H   0  0  0  0  0  0  0  0  0  0  0  0
    9.9945   -2.8287   -0.3030 H   0  0  0  0  0  0  0  0  0  0  0  0
    8.7635   -1.7732   -1.0467 H   0  0  0  0  0  0  0  0  0  0  0  0
    8.5616   -3.8392    1.0768 H   0  0  0  0  0  0  0  0  0  0  0  0
    7.2358   -3.2577    0.0667 H   0  0  0  0  0  0  0  0  0  0  0  0
    6.5119   -2.5297    2.1365 H   0  0  0  0  0  0  0  0  0  0  0  0
    8.1482   -2.5479    2.8357 H   0  0  0  0  0  0  0  0  0  0  0  0
    3.4195    0.0555   -1.8829 H   0  0  0  0  0  0  0  0  0  0  0  0
    4.2775    2.1063   -1.5864 H   0  0  0  0  0  0  0  0  0  0  0  0
    5.8043    1.5206   -0.9170 H   0  0  0  0  0  0  0  0  0  0  0  0
    6.8668    1.6354   -2.8870 H   0  0  0  0  0  0  0  0  0  0  0  0
    5.5225    2.6904   -3.3575 H   0  0  0  0  0  0  0  0  0  0  0  0
    5.9850    0.9596   -5.0327 H   0  0  0  0  0  0  0  0  0  0  0  0
    4.3451    0.6244   -4.2435 H   0  0  0  0  0  0  0  0  0  0  0  0
    5.9555   -1.4035   -4.3915 H   0  0  0  0  0  0  0  0  0  0  0  0
    7.0287   -0.4993   -3.2605 H   0  0  0  0  0  0  0  0  0  0  0  0
    4.3405   -1.8179   -2.8921 H   0  0  0  0  0  0  0  0  0  0  0  0
    5.7387   -1.7489   -1.8009 H   0  0  0  0  0  0  0  0  0  0  0  0
   -0.8625   -1.6634    0.2509 H   0  0  0  0  0  0  0  0  0  0  0  0
   -0.5332   -1.6304   -1.4360 H   0  0  0  0  0  0  0  0  0  0  0  0
    2.3555    0.7156    2.0017 H   0  0  0  0  0  0  0  0  0  0  0  0
    0.8238    1.2260    2.6392 H   0  0  0  0  0  0  0  0  0  0  0  0
    1.1365   -0.5245    2.0921 H   0  0  0  0  0  0  0  0  0  0  0  0
    0.8216    1.8707   -1.7136 H   0  0  0  0  0  0  0  0  0  0  0  0
   -0.2282    0.6584   -2.6802 H   0  0  0  0  0  0  0  0  0  0  0  0
   -0.4623    2.3644   -2.7805 H   0  0  0  0  0  0  0  0  0  0  0  0
   -1.4934    3.4983   -1.3634 H   0  0  0  0  0  0  0  0  0  0  0  0
   -2.3941    2.3726   -2.3556 H   0  0  0  0  0  0  0  0  0  0  0  0
   -2.9961    2.8296   -0.7653 H   0  0  0  0  0  0  0  0  0  0  0  0
   -1.5676   -0.8676   -2.6056 H   0  0  0  0  0  0  0  0  0  0  0  0
   -3.4018    1.0360   -0.2831 H   0  0  0  0  0  0  0  0  0  0  0  0
   -4.3303    1.0803   -2.2151 H   0  0  0  0  0  0  0  0  0  0  0  0
   -4.1956    0.0430   -4.0087 H   0  0  0  0  0  0  0  0  0  0  0  0
   -6.7043   -0.8060   -1.9245 H   0  0  0  0  0  0  0  0  0  0  0  0
   -5.9521    1.1580   -0.0022 H   0  0  0  0  0  0  0  0  0  0  0  0
   -6.5948    2.1670   -1.2749 H   0  0  0  0  0  0  0  0  0  0  0  0
   -8.4823    1.3107    0.2618 H   0  0  0  0  0  0  0  0  0  0  0  0
   -8.1816   -0.2923   -0.5589 H   0  0  0  0  0  0  0  0  0  0  0  0
   -8.6834    2.4351   -1.8660 H   0  0  0  0  0  0  0  0  0  0  0  0
   -9.8336    1.0739   -1.7336 H   0  0  0  0  0  0  0  0  0  0  0  0
   -8.4713   -0.3986   -3.0198 H   0  0  0  0  0  0  0  0  0  0  0  0
   -8.7547    1.1566   -3.9546 H   0  0  0  0  0  0  0  0  0  0  0  0
   -6.4808    1.9018   -3.2689 H   0  0  0  0  0  0  0  0  0  0  0  0
   -6.4501    0.2875   -4.1561 H   0  0  0  0  0  0  0  0  0  0  0  0
   -2.3213   -1.1884    1.4298 H   0  0  0  0  0  0  0  0  0  0  0  0
   -2.4513   -3.1822    1.0392 H   0  0  0  0  0  0  0  0  0  0  0  0
   -3.4455   -5.3792    0.0545 H   0  0  0  0  0  0  0  0  0  0  0  0
   -1.3964   -3.8452   -0.9461 H   0  0  0  0  0  0  0  0  0  0  0  0
   -2.5967   -2.8601   -1.8059 H   0  0  0  0  0  0  0  0  0  0  0  0
   -2.9023   -4.5792   -1.5132 H   0  0  0  0  0  0  0  0  0  0  0  0
   -6.3953   -1.4782    0.4823 H   0  0  0  0  0  0  0  0  0  0  0  0
   -6.0830   -0.3320    1.8032 H   0  0  0  0  0  0  0  0  0  0  0  0
   -4.0365   -3.1994    2.5351 H   0  0  0  0  0  0  0  0  0  0  0  0
   -5.3204   -0.7528    3.9207 H   0  0  0  0  0  0  0  0  0  0  0  0
   -4.1860   -1.9412    4.5732 H   0  0  0  0  0  0  0  0  0  0  0  0
   -2.2577   -0.9540    3.6874 H   0  0  0  0  0  0  0  0  0  0  0  0
   -3.7145    0.0413    5.4499 H   0  0  0  0  0  0  0  0  0  0  0  0
   -4.5777    2.0549    1.6977 H   0  0  0  0  0  0  0  0  0  0  0  0
   -3.6704    2.2233    3.1956 H   0  0  0  0  0  0  0  0  0  0  0  0
   -5.0076    1.1262    3.1598 H   0  0  0  0  0  0  0  0  0  0  0  0
   -1.1594   -0.0062    2.3929 H   0  0  0  0  0  0  0  0  0  0  0  0
   -0.9190    0.9092    4.2377 H   0  0  0  0  0  0  0  0  0  0  0  0
   -0.4372    2.6139    2.2366 H   0  0  0  0  0  0  0  0  0  0  0  0
   -0.8340    4.2667    2.3847 H   0  0  0  0  0  0  0  0  0  0  0  0
   -1.8516    6.0778    1.0177 H   0  0  0  0  0  0  0  0  0  0  0  0
   -3.8955    4.4915    2.1585 H   0  0  0  0  0  0  0  0  0  0  0  0
   -2.9146    5.9519    2.5119 H   0  0  0  0  0  0  0  0  0  0  0  0
   -2.8354    4.5992    3.6790 H   0  0  0  0  0  0  0  0  0  0  0  0
   -0.0089    2.8279    0.1054 H   0  0  0  0  0  0  0  0  0  0  0  0
    1.6742    1.4294    0.0371 H   0  0  0  0  0  0  0  0  0  0  0  0
    1.2332   -0.3484   -1.2526 H   0  0  0  0  0  0  0  0  0  0  0  0
    2.4211   -1.5857   -1.4100 H   0  0  0  0  0  0  0  0  0  0  0  0
    3.1499   -3.8496   -0.3698 H   0  0  0  0  0  0  0  0  0  0  0  0
    4.5403   -2.4880   -0.3737 H   0  0  0  0  0  0  0  0  0  0  0  0
    3.5649   -3.0117    1.5005 H   0  0  0  0  0  0  0  0  0  0  0  0
    3.8490    0.3973    0.3745 H   0  0  0  0  0  0  0  0  0  0  0  0
    6.4804   -0.7382   -0.2190 H   0  0  0  0  0  0  0  0  0  0  0  0
    6.4046    1.0303    1.9730 H   0  0  0  0  0  0  0  0  0  0  0  0
    5.6624   -0.2878    3.5276 H   0  0  0  0  0  0  0  0  0  0  0  0
    7.7826   -0.3765    3.0175 H   0  0  0  0  0  0  0  0  0  0  0  0
    9.0795    0.8480    1.6220 H   0  0  0  0  0  0  0  0  0  0  0  0
    8.1545    0.3348    0.2071 H   0  0  0  0  0  0  0  0  0  0  0  0
   10.4269   -0.4755    0.0359 H   0  0  0  0  0  0  0  0  0  0  0  0
   10.3335   -1.3816    1.5639 H   0  0  0  0  0  0  0  0  0  0  0  0
    9.9945   -2.8287   -0.3030 H   0  0  0  0  0  0  0  0  0  0  0  0
    8.7635   -1.7732   -1.0467 H   0  0  0  0  0  0  0  0  0  0  0  0
    8.5616   -3.8392    1.0768 H   0  0  0  0  0  0  0  0  0  0  0  0
    7.2358   -3.2577    0.0667 H   0  0  0  0  0  0  0  0  0  0  0  0
    6.5119   -2.5297    2.1365 H   0  0  0  0  0  0  0  0  0  0  0  0
    8.1482   -2.5479    2.8357 H   0  0  0  0  0  0  0  0  0  0  0  0
    3.4195    0.0555   -1.8829 H   0  0  0  0  0  0  0  0  0  0  0  0
    4.2775    2.1063   -1.5864 H   0  0  0  0  0  0  0  0  0  0  0  0
    5.8043    1.5206   -0.9170 H   0  0  0  0  0  0  0  0  0  0  0  0
    6.8668    1.6354   -2.8870 H   0  0  0  0  0  0  0  0  0  0  0  0
    5.5225    2.6904   -3.3575 H   0  0  0  0  0  0  0  0  0  0  0  0
    5.9850    0.9596   -5.0327 H   0  0  0  0  0  0  0  0  0  0  0  0
    4.3451    0.6244   -4.2435 H   0  0  0  0  0  0  0  0  0  0  0  0
    5.9555   -1.4035   -4.3915 H   0  0  0  0  0  0  0  0  0  0  0  0
    7.0287   -0.4993   -3.2605 H   0  0  0  0  0  0  0  0  0  0  0  0
    4.3405   -1.8179   -2.8921 H   0  0  0  0  0  0  0  0  0  0  0  0
    5.7387   -1.7489   -1.8009 H   0  0  0  0  0  0  0  0  0  0  0  0
   -0.8625   -1.6634    0.2509 H   0  0  0  0  0  0  0  0  0  0  0  0
   -0.5332   -1.6304   -1.4360 H   0  0  0  0  0  0  0  0  0  0  0  0
    2.3555    0.7156    2.0017 H   0  0  0  0  0  0  0  0  0  0  0  0
    0.8238    1.2260    2.6392 H   0  0  0  0  0  0  0  0  0  0  0  0
    1.1365   -0.5245    2.0921 H   0  0  0  0  0  0  0  0  0  0  0  0
    0.8216    1.8707   -1.7136 H   0  0  0  0  0  0  0  0  0  0  0  0
   -0.2282    0.6584   -2.6802 H   0  0  0  0  0  0  0  0  0  0  0  0
   -0.4623    2.3644   -2.7805 H   0  0  0  0  0  0  0  0  0  0  0  0
   -1.4934    3.4983   -1.3634 H   0  0  0  0  0  0  0  0  0  0  0  0
   -2.3941    2.3726   -2.3556 H   0  0  0  0  0  0  0  0  0  0  0  0
   -2.9961    2.8296   -0.7653 H   0  0  0  0  0  0  0  0  0  0  0  0
  2  1  1  6
  2  3  1  0
  3  4  1  0
  4  5  1  0
  5  6  1  0
  5  7  1  0
  7  8  1  0
  8  9  1  0
  9 10  1  0
 10 11  1  0
  7 12  1  0
 11 12  1  0
  3 13  1  0
 13 14  1  0
 14 15  1  6
 15 16  1  0
 16 17  1  0
 16 18  1  0
 14 19  1  0
 19 20  1  0
 14 21  1  0
 20 21  1  0
 21 22  1  0
 22 23  1  0
 23 24  1  0
 13 25  1  0
 23 25  1  0
 25 26  1  1
 25 27  1  0
 27 28  1  0
 27 29  1  0
 29 30  1  0
 30 31  1  0
 31 32  1  0
 31 33  1  0
 29 34  1  0
 34 35  1  0
 35 36  1  0
 36 37  1  0
 37 38  1  0
 38 39  1  0
 38 40  1  0
 40 41  1  0
 40 42  1  0
 42 43  1  0
 43 44  1  0
 44 45  1  0
 44 46  1  0
 46 47  1  0
 47 48  1  0
 48 49  1  0
 49 50  1  0
 46 51  1  0
 50 51  1  0
 42 52  1  0
 52 53  1  0
 53 54  1  0
 54 55  1  0
 55 56  1  0
 52 57  1  0
 56 57  1  0
  2 58  1  0
 36 58  1  0
 35 59  1  0
  2 60  1  0
 34 60  1  0
 60 61  1  0
 60 62  1  0
 64 63  1  6
 64 65  1  0
 65 66  1  0
 66 67  1  0
 67 68  1  0
 67 69  1  0
 69 70  1  0
 70 71  1  0
 71 72  1  0
 72 73  1  0
 69 74  1  0
 73 74  1  0
 65 75  1  0
 75 76  1  0
 76 77  1  6
 77 78  1  0
 78 79  1  0
 78 80  1  0
 76 81  1  0
 81 82  1  0
 76 83  1  0
 82 83  1  0
 83 84  1  0
 84 85  1  0
 85 86  1  0
 75 87  1  0
 85 87  1  0
 87 88  1  1
 87 89  1  0
 89 90  1  0
 89 91  1  0
 91 92  1  0
 92 93  1  0
 93 94  1  0
 93 95  1  0
 91 96  1  0
 96 97  1  0
 97 98  1  0
 98 99  1  0
 99100  1  0
100101  1  0
100102  1  0
102103  1  0
102104  1  0
104105  1  0
105106  1  0
106107  1  0
106108  1  0
108109  1  0
109110  1  0
110111  1  0
111112  1  0
108113  1  0
112113  1  0
104114  1  0
114115  1  0
115116  1  0
116117  1  0
117118  1  0
114119  1  0
118119  1  0
 64120  1  0
 98120  1  0
 97121  1  0
 64122  1  0
 96122  1  0
122123  1  0
122124  1  0
  1125  1  0
  3126  1  1
  5127  1  0
  6128  1  0
  7129  1  0
  8130  1  0
  8131  1  0
  9132  1  0
  9133  1  0
 10134  1  0
 10135  1  0
 11136  1  0
 11137  1  0
 12138  1  0
 12139  1  0
 13140  1  1
 16141  1  0
 17142  1  0
 18143  1  0
 18144  1  0
 18145  1  0
 19146  1  0
 19147  1  0
 21148  1  1
 22149  1  0
 22150  1  0
 23151  1  1
 24152  1  0
 26153  1  0
 26154  1  0
 26155  1  0
 27156  1  0
 28157  1  0
 29158  1  1
 31159  1  0
 32160  1  0
 33161  1  0
 33162  1  0
 33163  1  0
 34164  1  6
 35165  1  0
 36166  1  6
 38167  1  0
 39168  1  0
 40169  1  6
 41170  1  0
 42171  1  1
 43172  1  0
 44173  1  0
 45174  1  0
 46175  1  0
 47176  1  0
 47177  1  0
 48178  1  0
 48179  1  0
 49180  1  0
 49181  1  0
 50182  1  0
 50183  1  0
 51184  1  0
 51185  1  0
 52186  1  0
 53187  1  0
 53188  1  0
 54189  1  0
 54190  1  0
 55191  1  0
 55192  1  0
 56193  1  0
 56194  1  0
 57195  1  0
 57196  1  0
 58197  1  0
 58198  1  0
 59199  1  0
 59200  1  0
 59201  1  0
 61202  1  0
 61203  1  0
 61204  1  0
 62205  1  0
 62206  1  0
 62207  1  0
 63208  1  0
 65209  1  1
 67210  1  0
 68211  1  0
 69212  1  0
 70213  1  0
 70214  1  0
 71215  1  0
 71216  1  0
 72217  1  0
 72218  1  0
 73219  1  0
 73220  1  0
 74221  1  0
 74222  1  0
 75223  1  1
 78224  1  0
 79225  1  0
 80226  1  0
 80227  1  0
 80228  1  0
 81229  1  0
 81230  1  0
 83231  1  1
 84232  1  0
 84233  1  0
 85234  1  1
 86235  1  0
 88236  1  0
 88237  1  0
 88238  1  0
 89239  1  0
 90240  1  0
 91241  1  1
 93242  1  0
 94243  1  0
 95244  1  0
 95245  1  0
 95246  1  0
 96247  1  6
 97248  1  0
 98249  1  6
100250  1  0
101251  1  0
102252  1  6
103253  1  0
104254  1  1
105255  1  0
106256  1  0
107257  1  0
108258  1  0
109259  1  0
109260  1  0
110261  1  0
110262  1  0
111263  1  0
111264  1  0
112265  1  0
112266  1  0
113267  1  0
113268  1  0
114269  1  0
115270  1  0
115271  1  0
116272  1  0
116273  1  0
117274  1  0
117275  1  0
118276  1  0
118277  1  0
119278  1  0
119279  1  0
120280  1  0
120281  1  0
121282  1  0
121283  1  0
121284  1  0
123285  1  0
123286  1  0
123287  1  0
124288  1  0
124289  1  0
124290  1  0
M  END
>  <PDBID>  (1) 
5M50

>  <PDB ID>  (1) 
5M50

>  <Generic Name>  (1) 
Paclitaxel

>  <Brand Name>  (1) 
Abraxane#Abraxane for Injectable Suspension#Aj-paclitaxel#Apo-paclitaxel Injectable#Paclitaxel#Paclitaxel Injection#Paclitaxel Injection USP#Paclitaxel Injection, USP#Paclitaxel Paclitaxel#Paclitaxel for Injection#Paclitaxel for Injection USP#Paxene#Taxol#Teva-paclitaxel for Injection#Onxol#Paxceed

>  <DrugBank ID>  (1) 
DB01229

>  <ATC Codes>  (1) 
L01CD01

>  <Ligand ID>  (1) 
TA1

>  <Target Name>  (1) 
Tubulin beta-1 chain

>  <UniProt ID>  (1) 
Q9H4B7

>  <PDB ID.1>  (1) 
5M50

>  <Seq. Identity>  (1) 
78%

$$$$
