PDB_DB00932_09
     RDKit          3D

 99102  0  0  0  0  0  0  0  0999 V2000
   -3.1557   -1.1488   -0.2870 O   0  0  0  0  0  0  0  0  0  0  0  0
   -2.0755   -1.8857    0.0925 C   0  0  0  0  0  0  0  0  0  0  0  0
   -0.7813   -1.0467   -0.1577 C   0  0  0  0  0  0  0  0  0  0  0  0
   -1.1778    0.3090    0.2162 C   0  0  0  0  0  0  0  0  0  0  0  0
   -2.3228    0.4715    1.1658 C   0  0  0  0  0  0  0  0  0  0  0  0
   -3.6281   -0.3173    0.7109 C   0  0  2  0  0  0  0  0  0  0  0  0
   -1.9976   -3.0358   -0.7103 O   0  0  0  0  0  0  0  0  0  0  0  0
   -1.5616    1.0097   -0.9629 O   0  0  0  0  0  0  0  0  0  0  0  0
   -4.0844   -0.8890    1.9635 C   0  0  0  0  0  0  0  0  0  0  0  0
   -5.1632   -1.8366    2.1808 C   0  0  0  0  0  0  0  0  0  0  0  0
   -6.5300   -1.3307    1.9157 C   0  0  0  0  0  0  0  0  0  0  0  0
   -4.4466    0.7348    0.0214 C   0  0  0  0  0  0  0  0  0  0  0  0
   -5.4928    0.2231   -0.8671 C   0  0  0  0  0  0  0  0  0  0  0  0
   -6.3329    1.3032   -1.5232 C   0  0  0  0  0  0  0  0  0  0  0  0
   -7.3406    0.5934   -2.3964 C   0  0  0  0  0  0  0  0  0  0  0  0
   -8.6072    1.3970   -2.6024 C   0  0  0  0  0  0  0  0  0  0  0  0
   -9.3431    1.6114   -1.2924 C   0  0  0  0  0  0  0  0  0  0  0  0
   -8.3861    1.4007   -0.1111 C   0  0  0  0  0  0  0  0  0  0  0  0
   -7.0963    2.1198   -0.5172 C   0  0  0  0  0  0  0  0  0  0  0  0
    0.4161   -1.7134    0.3933 C   0  0  2  0  0  0  0  0  0  0  0  0
    0.5098   -1.9611    1.8398 C   0  0  0  0  0  0  0  0  0  0  0  0
    0.4980   -0.9048    2.8408 C   0  0  0  0  0  0  0  0  0  0  0  0
    1.6786   -1.5378   -0.4063 C   0  0  0  0  0  0  0  0  0  0  0  0
    2.8844   -2.2434    0.1681 C   0  0  0  0  0  0  0  0  0  0  0  0
    3.7075   -1.4517    1.0887 C   0  0  0  0  0  0  0  0  0  0  0  0
    3.5433    0.0254    1.0474 C   0  0  0  0  0  0  0  0  0  0  0  0
    3.1315    0.5252   -0.2831 C   0  0  0  0  0  0  0  0  0  0  0  0
    4.2819    0.6776   -1.1336 N   0  0  0  0  0  0  0  0  0  0  0  0
    1.9968   -0.1963   -0.9499 C   0  0  0  0  0  0  0  0  0  0  0  0
    5.4316    1.7495   -0.6728 S   0  0  0  0  0  0  0  0  0  0  0  0
    5.1167    3.1516   -1.8445 O   0  0  0  0  0  0  0  0  0  0  0  0
    5.8154    2.2368    0.4946 O   0  0  0  0  0  0  0  0  0  0  0  0
    6.8705    1.0904   -1.6737 C   0  0  1  0  0  0  0  0  0  0  0  0
    8.0056    1.8937   -1.3285 N   0  0  0  0  0  0  0  0  0  0  0  0
    9.2059    1.1056   -1.5387 C   0  0  0  0  0  0  0  0  0  0  0  0
    9.2759    0.0636   -0.4585 C   0  0  2  0  0  0  0  0  0  0  0  0
    7.8926   -0.2866    0.0425 C   0  0  0  0  0  0  0  0  0  0  0  0
    6.9871   -0.3270   -1.1759 C   0  0  0  0  0  0  0  0  0  0  0  0
   10.1814    0.5398    0.6530 C   0  0  0  0  0  0  0  0  0  0  0  0
   10.2308   -0.4289    1.6288 F   0  0  0  0  0  0  0  0  0  0  0  0
    9.7469    1.7283    1.1654 F   0  0  0  0  0  0  0  0  0  0  0  0
   11.4490    0.7119    0.1218 F   0  0  0  0  0  0  0  0  0  0  0  0
   -2.0963   -2.1617    1.1419 H   0  0  0  0  0  0  0  0  0  0  0  0
   -0.6759   -1.1161   -1.2773 H   0  0  0  0  0  0  0  0  0  0  0  0
   -0.3607    0.9616    0.6076 H   0  0  0  0  0  0  0  0  0  0  0  0
   -2.0559    0.1823    2.1856 H   0  0  0  0  0  0  0  0  0  0  0  0
   -2.5951    1.5423    1.2090 H   0  0  0  0  0  0  0  0  0  0  0  0
   -2.5637   -3.7555   -0.3195 H   0  0  0  0  0  0  0  0  0  0  0  0
   -1.2815    0.5195   -1.7544 H   0  0  0  0  0  0  0  0  0  0  0  0
   -4.2918    0.0509    2.6465 H   0  0  0  0  0  0  0  0  0  0  0  0
   -3.1476   -1.2626    2.5524 H   0  0  0  0  0  0  0  0  0  0  0  0
   -5.1512   -2.1189    3.2906 H   0  0  0  0  0  0  0  0  0  0  0  0
   -4.9852   -2.8468    1.7057 H   0  0  0  0  0  0  0  0  0  0  0  0
   -7.0660   -1.8621    1.0997 H   0  0  0  0  0  0  0  0  0  0  0  0
   -7.2034   -1.4305    2.8377 H   0  0  0  0  0  0  0  0  0  0  0  0
   -6.5690   -0.2423    1.7155 H   0  0  0  0  0  0  0  0  0  0  0  0
   -4.8300    1.4103    0.8349 H   0  0  0  0  0  0  0  0  0  0  0  0
   -3.7338    1.4184   -0.5338 H   0  0  0  0  0  0  0  0  0  0  0  0
   -6.1417   -0.5781   -0.6010 H   0  0  0  0  0  0  0  0  0  0  0  0
   -4.9130   -0.2093   -1.7818 H   0  0  0  0  0  0  0  0  0  0  0  0
   -5.7418    1.9722   -2.1524 H   0  0  0  0  0  0  0  0  0  0  0  0
   -7.6600   -0.3764   -1.9591 H   0  0  0  0  0  0  0  0  0  0  0  0
   -6.9361    0.3596   -3.4008 H   0  0  0  0  0  0  0  0  0  0  0  0
   -9.2685    0.7694   -3.2361 H   0  0  0  0  0  0  0  0  0  0  0  0
   -8.4369    2.3392   -3.1547 H   0  0  0  0  0  0  0  0  0  0  0  0
   -9.6560    2.6660   -1.2547 H   0  0  0  0  0  0  0  0  0  0  0  0
  -10.1984    0.9499   -1.1705 H   0  0  0  0  0  0  0  0  0  0  0  0
   -8.1922    0.3367    0.0457 H   0  0  0  0  0  0  0  0  0  0  0  0
   -8.7770    1.8775    0.7954 H   0  0  0  0  0  0  0  0  0  0  0  0
   -6.5194    2.4383    0.3583 H   0  0  0  0  0  0  0  0  0  0  0  0
   -7.4220    3.0503   -1.0332 H   0  0  0  0  0  0  0  0  0  0  0  0
    0.1720   -2.8203    0.0641 H   0  0  0  0  0  0  0  0  0  0  0  0
    1.3465   -2.6656    2.0128 H   0  0  0  0  0  0  0  0  0  0  0  0
   -0.3919   -2.6214    2.1086 H   0  0  0  0  0  0  0  0  0  0  0  0
    1.3344   -1.0958    3.5887 H   0  0  0  0  0  0  0  0  0  0  0  0
   -0.4015   -0.9087    3.5345 H   0  0  0  0  0  0  0  0  0  0  0  0
    0.6334    0.1310    2.5695 H   0  0  0  0  0  0  0  0  0  0  0  0
    1.4622   -2.1600   -1.3408 H   0  0  0  0  0  0  0  0  0  0  0  0
    2.5556   -3.2049    0.5858 H   0  0  0  0  0  0  0  0  0  0  0  0
    3.5825   -2.5628   -0.6796 H   0  0  0  0  0  0  0  0  0  0  0  0
    4.8097   -1.6796    0.9542 H   0  0  0  0  0  0  0  0  0  0  0  0
    3.5311   -1.7679    2.1582 H   0  0  0  0  0  0  0  0  0  0  0  0
    2.8921    0.4137    1.8871 H   0  0  0  0  0  0  0  0  0  0  0  0
    4.5344    0.4862    1.2889 H   0  0  0  0  0  0  0  0  0  0  0  0
    2.7534    1.5819   -0.1210 H   0  0  0  0  0  0  0  0  0  0  0  0
    3.9897    0.7080   -2.1359 H   0  0  0  0  0  0  0  0  0  0  0  0
    2.3605   -0.3175   -2.0262 H   0  0  0  0  0  0  0  0  0  0  0  0
    1.0778    0.3850   -1.0908 H   0  0  0  0  0  0  0  0  0  0  0  0
    4.8653    3.8648   -1.1996 H   0  0  0  0  0  0  0  0  0  0  0  0
    5.7465    2.9051    1.2212 H   0  0  0  0  0  0  0  0  0  0  0  0
    6.5551    1.1544   -2.7188 H   0  0  0  0  0  0  0  0  0  0  0  0
    7.9392    2.2604   -0.3607 H   0  0  0  0  0  0  0  0  0  0  0  0
   10.1318    1.7338   -1.5353 H   0  0  0  0  0  0  0  0  0  0  0  0
    9.0908    0.5869   -2.5147 H   0  0  0  0  0  0  0  0  0  0  0  0
    9.6924   -0.8714   -0.9009 H   0  0  0  0  0  0  0  0  0  0  0  0
    7.5133    0.4796    0.7705 H   0  0  0  0  0  0  0  0  0  0  0  0
    7.8514   -1.2556    0.5405 H   0  0  0  0  0  0  0  0  0  0  0  0
    6.0282   -0.7817   -0.9153 H   0  0  0  0  0  0  0  0  0  0  0  0
    7.4802   -0.9935   -1.9161 H   0  0  0  0  0  0  0  0  0  0  0  0
  1  2  1  0
  2  3  1  0
  3  4  1  0
  4  5  1  0
  1  6  1  0
  5  6  1  0
  2  7  1  0
  4  8  1  0
  6  9  1  1
  9 10  1  0
 10 11  1  0
  6 12  1  0
 12 13  1  0
 13 14  1  0
 14 15  1  0
 15 16  1  0
 16 17  1  0
 17 18  1  0
 14 19  1  0
 18 19  1  0
  3 20  1  0
 20 21  1  0
 21 22  1  0
 20 23  1  0
 23 24  1  0
 24 25  1  0
 25 26  1  0
 26 27  1  0
 27 28  1  0
 23 29  1  0
 27 29  1  0
 28 30  1  0
 30 31  1  0
 30 32  1  0
 30 33  1  0
 33 34  1  0
 34 35  1  0
 35 36  1  0
 36 37  1  0
 33 38  1  0
 37 38  1  0
 36 39  1  0
 39 40  1  0
 39 41  1  0
 39 42  1  0
  2 43  1  0
  3 44  1  0
  4 45  1  0
  5 46  1  0
  5 47  1  0
  7 48  1  0
  8 49  1  0
  9 50  1  0
  9 51  1  0
 10 52  1  0
 10 53  1  0
 11 54  1  0
 11 55  1  0
 11 56  1  0
 12 57  1  0
 12 58  1  0
 13 59  1  0
 13 60  1  0
 14 61  1  0
 15 62  1  0
 15 63  1  0
 16 64  1  0
 16 65  1  0
 17 66  1  0
 17 67  1  0
 18 68  1  0
 18 69  1  0
 19 70  1  0
 19 71  1  0
 20 72  1  6
 21 73  1  0
 21 74  1  0
 22 75  1  0
 22 76  1  0
 22 77  1  0
 23 78  1  0
 24 79  1  0
 24 80  1  0
 25 81  1  0
 25 82  1  0
 26 83  1  0
 26 84  1  0
 27 85  1  0
 28 86  1  0
 29 87  1  0
 29 88  1  0
 31 89  1  0
 32 90  1  0
 33 91  1  6
 34 92  1  0
 35 93  1  0
 35 94  1  0
 36 95  1  6
 37 96  1  0
 37 97  1  0
 38 98  1  0
 38 99  1  0
M  END
>  <PDBID>  (1) 
2O4P

>  <PDB ID>  (1) 
2O4P

>  <Generic Name>  (1) 
Tipranavir

>  <Brand Name>  (1) 
Aptivus

>  <DrugBank ID>  (1) 
DB00932

>  <ATC Codes>  (1) 
J05AE09

>  <Ligand ID>  (1) 
TPV

>  <Target Name>  (1) 
Pol polyprotein

>  <UniProt ID>  (1) 
Q72874

>  <PDB ID.1>  (1) 
2O4P

>  <Seq. Identity>  (1) 
98%

$$$$
