PDB_DB01144_04
     RDKit          3D

 32 32  0  0  0  0  0  0  0  0999 V2000
    2.6977   -0.0393   -0.2403 S   0  0  0  0  0  0  0  0  0  0  0  0
    3.8544   -0.4636    0.5760 O   0  0  0  0  0  0  0  0  0  0  0  0
    2.6254   -0.7094   -1.7483 O   0  0  0  0  0  0  0  0  0  0  0  0
    2.7483    1.6749   -0.5541 N   0  0  0  0  0  0  0  0  0  0  0  0
   -2.5093    0.9221   -0.2588 S   0  0  0  0  0  0  0  0  0  0  0  0
   -1.7165    2.7686   -0.1639 O   0  0  0  0  0  0  0  0  0  0  0  0
   -2.9576    0.8879   -1.6004 O   0  0  0  0  0  0  0  0  0  0  0  0
   -3.6017    1.3129    0.9541 N   0  0  0  0  0  0  0  0  0  0  0  0
    1.1676   -0.3017    0.4897 C   0  0  0  0  0  0  0  0  0  0  0  0
    0.0654    0.2747   -0.3760 C   0  0  0  0  0  0  0  0  0  0  0  0
   -1.2309    0.1365    0.3969 C   0  0  0  0  0  0  0  0  0  0  0  0
   -1.5099   -1.3398    0.5337 C   0  0  0  0  0  0  0  0  0  0  0  0
   -0.4379   -1.9340    1.4409 C   0  0  0  0  0  0  0  0  0  0  0  0
    0.9367   -1.7363    0.8525 C   0  0  0  0  0  0  0  0  0  0  0  0
   -1.3746   -2.1021   -1.0651 Cl  0  0  0  0  0  0  0  0  0  0  0  0
   -0.5653   -1.0813    3.0027 Cl  0  0  0  0  0  0  0  0  0  0  0  0
    4.5586    0.2026    0.8556 H   0  0  0  0  0  0  0  0  0  0  0  0
    3.0841   -1.5824   -1.8341 H   0  0  0  0  0  0  0  0  0  0  0  0
    2.1043    2.1581    0.1303 H   0  0  0  0  0  0  0  0  0  0  0  0
    3.7305    1.9899   -0.4314 H   0  0  0  0  0  0  0  0  0  0  0  0
   -1.2074    2.6117   -0.9832 H   0  0  0  0  0  0  0  0  0  0  0  0
   -2.8794    1.6318   -2.2788 H   0  0  0  0  0  0  0  0  0  0  0  0
   -3.1571    1.1691    1.8858 H   0  0  0  0  0  0  0  0  0  0  0  0
   -4.4437    0.6928    0.8324 H   0  0  0  0  0  0  0  0  0  0  0  0
    1.1379    0.2818    1.4525 H   0  0  0  0  0  0  0  0  0  0  0  0
    0.3329    1.3545   -0.5272 H   0  0  0  0  0  0  0  0  0  0  0  0
   -0.0558   -0.2633   -1.3215 H   0  0  0  0  0  0  0  0  0  0  0  0
   -0.9908    0.4920    1.4435 H   0  0  0  0  0  0  0  0  0  0  0  0
   -2.4790   -1.5765    0.9692 H   0  0  0  0  0  0  0  0  0  0  0  0
   -0.6846   -2.9922    1.5649 H   0  0  0  0  0  0  0  0  0  0  0  0
    1.6813   -2.0097    1.6250 H   0  0  0  0  0  0  0  0  0  0  0  0
    1.0764   -2.4305    0.0043 H   0  0  0  0  0  0  0  0  0  0  0  0
  1  2  1  0
  1  3  1  0
  1  4  1  0
  5  6  1  0
  5  7  1  0
  5  8  1  0
  1  9  1  0
  9 10  1  0
  5 11  1  0
 10 11  1  0
 11 12  1  0
 12 13  1  0
  9 14  1  0
 13 14  1  0
 12 15  1  0
 13 16  1  0
  2 17  1  0
  3 18  1  0
  4 19  1  0
  4 20  1  0
  6 21  1  0
  7 22  1  0
  8 23  1  0
  8 24  1  0
  9 25  1  0
 10 26  1  0
 10 27  1  0
 11 28  1  0
 12 29  1  0
 13 30  1  0
 14 31  1  0
 14 32  1  0
M  END
>  <PDBID>  (1) 
2POU

>  <PDB ID>  (1) 
2POU

>  <Generic Name>  (1) 
Diclofenamide

>  <Brand Name>  (1) 
Daranide#Keveyis#Oratrol

>  <DrugBank ID>  (1) 
DB01144

>  <ATC Codes>  (1) 
S01EC02

>  <Ligand ID>  (1) 
I7A

>  <Target Name>  (1) 
Carbonic anhydrase 1

>  <UniProt ID>  (1) 
P00915

>  <PDB ID.1>  (1) 
2POU

>  <Seq. Identity>  (1) 
61%

$$$$
