PDB_DB00619_05
     RDKit          3D

 94 98  0  0  0  0  0  0  0  0999 V2000
   -8.4040    1.4748   -2.1531 C   0  0  0  0  0  0  0  0  0  0  0  0
   -8.1387    0.3136   -1.1810 C   0  0  0  0  0  0  0  0  0  0  0  0
   -6.6964    0.3859   -0.8222 C   0  0  0  0  0  0  0  0  0  0  0  0
   -5.9189   -0.2351   -1.9638 C   0  0  0  0  0  0  0  0  0  0  0  0
   -6.6389    0.0953   -3.1990 N   0  0  0  0  0  0  0  0  0  0  0  0
   -7.2359    1.4192   -3.1379 C   0  0  0  0  0  0  0  0  0  0  0  0
   -6.3640   -0.1673    0.5162 C   0  0  0  0  0  0  0  0  0  0  0  0
   -7.0531    0.6015    1.6194 C   0  0  0  0  0  0  0  0  0  0  0  0
   -6.9741   -0.2782    2.8782 C   0  0  0  0  0  0  0  0  0  0  0  0
   -5.8661   -1.1533    2.6653 N   0  0  0  0  0  0  0  0  0  0  0  0
   -4.7444   -0.3177    2.1790 C   0  0  0  0  0  0  0  0  0  0  0  0
   -4.9260   -0.2876    0.7364 N   0  0  0  0  0  0  0  0  0  0  0  0
   -3.5705   -0.9152    2.6290 N   0  0  0  0  0  0  0  0  0  0  0  0
   -2.3022   -0.4308    2.3875 C   0  0  0  0  0  0  0  0  0  0  0  0
   -1.9163    0.9215    2.9195 C   0  0  0  0  0  0  0  0  0  0  0  0
   -0.3889    1.0056    2.7428 C   0  0  0  0  0  0  0  0  0  0  0  0
    0.0034    0.8216    1.2902 C   0  0  0  0  0  0  0  0  0  0  0  0
   -0.3752   -0.5781    0.8980 C   0  0  1  0  0  0  0  0  0  0  0  0
   -1.9245   -0.6029    0.9223 C   0  0  0  0  0  0  0  0  0  0  0  0
    0.1577   -1.1430   -0.2414 N   0  0  0  0  0  0  0  0  0  0  0  0
    1.4705   -1.5541   -0.4342 C   0  0  0  0  0  0  0  0  0  0  0  0
    2.6090   -0.6087   -0.3187 C   0  0  0  0  0  0  0  0  0  0  0  0
    2.6118    0.5678   -1.2004 C   0  0  0  0  0  0  0  0  0  0  0  0
    3.1603    0.4367   -2.5726 C   0  0  0  0  0  0  0  0  0  0  0  0
    4.5335   -0.2745   -2.5635 C   0  0  0  0  0  0  0  0  0  0  0  0
    4.2630   -1.5733   -1.8604 C   0  0  0  0  0  0  0  0  0  0  0  0
    3.9510   -1.3445   -0.4260 C   0  0  0  0  0  0  0  0  0  0  0  0
    5.5681    0.6124   -1.9848 C   0  0  0  0  0  0  0  0  0  0  0  0
    6.8781    0.1753   -1.9034 N   0  0  0  0  0  0  0  0  0  0  0  0
    7.3551   -0.8054   -1.0475 C   0  0  0  0  0  0  0  0  0  0  0  0
    7.8827   -0.1942    0.2561 C   0  0  0  0  0  0  0  0  0  0  0  0
    8.8680    0.7898   -0.0362 N   0  0  0  0  0  0  0  0  0  0  0  0
   10.1331    0.3460    0.5645 C   0  0  0  0  0  0  0  0  0  0  0  0
    9.1419    0.9966   -1.4296 C   0  0  0  0  0  0  0  0  0  0  0  0
    7.8799    1.1276   -2.2530 C   0  0  0  0  0  0  0  0  0  0  0  0
    1.7425   -2.7207    0.3669 O   0  0  0  0  0  0  0  0  0  0  0  0
   -2.1480    0.9709    4.3989 C   0  0  0  0  0  0  0  0  0  0  0  0
   -9.3776    1.4065   -2.6403 H   0  0  0  0  0  0  0  0  0  0  0  0
   -8.2521    2.4030   -1.5440 H   0  0  0  0  0  0  0  0  0  0  0  0
   -8.3462   -0.6006   -1.8226 H   0  0  0  0  0  0  0  0  0  0  0  0
   -8.8600    0.2650   -0.3746 H   0  0  0  0  0  0  0  0  0  0  0  0
   -6.4136    1.4789   -0.8096 H   0  0  0  0  0  0  0  0  0  0  0  0
   -5.9900   -1.3411   -1.8663 H   0  0  0  0  0  0  0  0  0  0  0  0
   -4.9032    0.1546   -2.0176 H   0  0  0  0  0  0  0  0  0  0  0  0
   -6.0208    0.0895   -4.0308 H   0  0  0  0  0  0  0  0  0  0  0  0
   -7.6763    1.6143   -4.1331 H   0  0  0  0  0  0  0  0  0  0  0  0
   -6.4612    2.1602   -2.9160 H   0  0  0  0  0  0  0  0  0  0  0  0
   -6.8198   -1.2017    0.5560 H   0  0  0  0  0  0  0  0  0  0  0  0
   -6.6010    1.5999    1.8056 H   0  0  0  0  0  0  0  0  0  0  0  0
   -8.0975    0.7713    1.3839 H   0  0  0  0  0  0  0  0  0  0  0  0
   -7.9035   -0.8973    2.8827 H   0  0  0  0  0  0  0  0  0  0  0  0
   -6.9132    0.3528    3.7837 H   0  0  0  0  0  0  0  0  0  0  0  0
   -5.6029   -1.7717    3.4351 H   0  0  0  0  0  0  0  0  0  0  0  0
   -4.9093    0.7356    2.5021 H   0  0  0  0  0  0  0  0  0  0  0  0
   -4.6627   -1.2603    0.3928 H   0  0  0  0  0  0  0  0  0  0  0  0
   -3.6939   -1.9184    2.8459 H   0  0  0  0  0  0  0  0  0  0  0  0
   -1.5695   -1.1361    2.9145 H   0  0  0  0  0  0  0  0  0  0  0  0
   -2.3203    1.7585    2.3443 H   0  0  0  0  0  0  0  0  0  0  0  0
    0.0497    0.1882    3.3400 H   0  0  0  0  0  0  0  0  0  0  0  0
   -0.0748    2.0099    3.0931 H   0  0  0  0  0  0  0  0  0  0  0  0
   -0.6760    1.5354    0.7001 H   0  0  0  0  0  0  0  0  0  0  0  0
    1.0187    1.1339    1.1873 H   0  0  0  0  0  0  0  0  0  0  0  0
   -0.1381   -1.2015    1.8405 H   0  0  0  0  0  0  0  0  0  0  0  0
   -2.2588   -1.6033    0.6226 H   0  0  0  0  0  0  0  0  0  0  0  0
   -2.3107    0.1903    0.2894 H   0  0  0  0  0  0  0  0  0  0  0  0
   -0.2582   -0.7407   -1.1052 H   0  0  0  0  0  0  0  0  0  0  0  0
    1.5422   -2.0125   -1.4852 H   0  0  0  0  0  0  0  0  0  0  0  0
    2.6235   -0.2621    0.7607 H   0  0  0  0  0  0  0  0  0  0  0  0
    1.5570    0.9667   -1.3228 H   0  0  0  0  0  0  0  0  0  0  0  0
    3.1430    1.4132   -0.6756 H   0  0  0  0  0  0  0  0  0  0  0  0
    3.3146    1.4555   -2.9826 H   0  0  0  0  0  0  0  0  0  0  0  0
    2.4992   -0.1074   -3.2508 H   0  0  0  0  0  0  0  0  0  0  0  0
    4.7542   -0.4934   -3.6234 H   0  0  0  0  0  0  0  0  0  0  0  0
    4.9883   -2.3634   -1.9923 H   0  0  0  0  0  0  0  0  0  0  0  0
    3.3121   -1.9677   -2.3765 H   0  0  0  0  0  0  0  0  0  0  0  0
    3.9205   -2.2982    0.1343 H   0  0  0  0  0  0  0  0  0  0  0  0
    4.6958   -0.6991    0.0657 H   0  0  0  0  0  0  0  0  0  0  0  0
    5.2043    1.0834   -1.0052 H   0  0  0  0  0  0  0  0  0  0  0  0
    5.5713    1.5446   -2.6568 H   0  0  0  0  0  0  0  0  0  0  0  0
    8.3138   -1.2235   -1.5221 H   0  0  0  0  0  0  0  0  0  0  0  0
    6.7671   -1.6998   -0.8419 H   0  0  0  0  0  0  0  0  0  0  0  0
    7.0956    0.1940    0.9001 H   0  0  0  0  0  0  0  0  0  0  0  0
    8.3145   -1.0789    0.8094 H   0  0  0  0  0  0  0  0  0  0  0  0
   10.3838   -0.6891    0.2015 H   0  0  0  0  0  0  0  0  0  0  0  0
   10.9585    1.0423    0.3970 H   0  0  0  0  0  0  0  0  0  0  0  0
    9.9799    0.2321    1.6697 H   0  0  0  0  0  0  0  0  0  0  0  0
    9.6821    1.9675   -1.5084 H   0  0  0  0  0  0  0  0  0  0  0  0
    9.8227    0.2178   -1.8240 H   0  0  0  0  0  0  0  0  0  0  0  0
    7.5329    2.1773   -2.2318 H   0  0  0  0  0  0  0  0  0  0  0  0
    8.1925    0.9294   -3.3215 H   0  0  0  0  0  0  0  0  0  0  0  0
    1.7574   -2.4829    1.3143 H   0  0  0  0  0  0  0  0  0  0  0  0
   -2.3236    2.0077    4.7877 H   0  0  0  0  0  0  0  0  0  0  0  0
   -1.2400    0.6256    4.9800 H   0  0  0  0  0  0  0  0  0  0  0  0
   -2.9436    0.2590    4.6997 H   0  0  0  0  0  0  0  0  0  0  0  0
  1  2  1  0
  2  3  1  0
  3  4  1  0
  4  5  1  0
  1  6  1  0
  5  6  1  0
  3  7  1  0
  7  8  1  0
  8  9  1  0
  9 10  1  0
 10 11  1  0
  7 12  1  0
 11 12  1  0
 11 13  1  0
 13 14  1  0
 14 15  1  0
 15 16  1  0
 16 17  1  0
 17 18  1  0
 14 19  1  0
 18 19  1  0
 18 20  1  0
 20 21  1  0
 21 22  1  0
 22 23  1  0
 23 24  1  0
 24 25  1  0
 25 26  1  0
 22 27  1  0
 26 27  1  0
 25 28  1  0
 28 29  1  0
 29 30  1  0
 30 31  1  0
 31 32  1  0
 32 33  1  0
 32 34  1  0
 29 35  1  0
 34 35  1  0
 21 36  1  0
 15 37  1  0
  1 38  1  0
  1 39  1  0
  2 40  1  0
  2 41  1  0
  3 42  1  0
  4 43  1  0
  4 44  1  0
  5 45  1  0
  6 46  1  0
  6 47  1  0
  7 48  1  0
  8 49  1  0
  8 50  1  0
  9 51  1  0
  9 52  1  0
 10 53  1  0
 11 54  1  0
 12 55  1  0
 13 56  1  0
 14 57  1  0
 15 58  1  0
 16 59  1  0
 16 60  1  0
 17 61  1  0
 17 62  1  0
 18 63  1  1
 19 64  1  0
 19 65  1  0
 20 66  1  0
 21 67  1  0
 22 68  1  0
 23 69  1  0
 23 70  1  0
 24 71  1  0
 24 72  1  0
 25 73  1  0
 26 74  1  0
 26 75  1  0
 27 76  1  0
 27 77  1  0
 28 78  1  0
 28 79  1  0
 30 80  1  0
 30 81  1  0
 31 82  1  0
 31 83  1  0
 33 84  1  0
 33 85  1  0
 33 86  1  0
 34 87  1  0
 34 88  1  0
 35 89  1  0
 35 90  1  0
 36 91  1  0
 37 92  1  0
 37 93  1  0
 37 94  1  0
M  END
>  <PDBID>  (1) 
1T46

>  <PDB ID>  (1) 
1T46

>  <Generic Name>  (1) 
Imatinib

>  <Brand Name>  (1) 
Apo-imatinib#Gleevec#Imatinib Mesylate#Mylan-imatinib#Nat-imatinib#PMS-imatinib#Ran-imatinib#Teva-imatinib#Celonib#Enliven#Glivec#Imatib#Mesylonib#Mitinab#Plivatinib#Shantinib

>  <DrugBank ID>  (1) 
DB00619

>  <ATC Codes>  (1) 
L01XE01

>  <Ligand ID>  (1) 
STI

>  <Target Name>  (1) 
Mast/stem cell growth factor receptor Kit

>  <UniProt ID>  (1) 
P10721

>  <PDB ID.1>  (1) 
1T46

>  <Seq. Identity>  (1) 
90%

$$$$
