PDB_DB00951_01
     RDKit          3D

 25 25  0  0  0  0  0  0  0  0999 V2000
   -1.3685   -0.8462    0.5050 C   0  0  2  0  0  0  0  0  0  0  0  0
   -0.1074   -0.3168   -0.1003 C   0  0  0  0  0  0  0  0  0  0  0  0
    2.4282    0.6929   -0.3421 N   0  0  0  0  0  0  0  0  0  0  0  0
   -1.4407   -2.2151    0.1577 O   0  0  0  0  0  0  0  0  0  0  0  0
    0.1200    1.1408    0.1794 C   0  0  0  0  0  0  0  0  0  0  0  0
   -2.5651   -0.2373   -0.0221 N   0  0  0  0  0  0  0  0  0  0  0  0
    1.5793    1.4276    0.5550 C   0  0  0  0  0  0  0  0  0  0  0  0
   -2.6381    1.1248    0.1630 N   0  0  0  0  0  0  0  0  0  0  0  0
    2.3742   -0.7018    0.0298 C   0  0  0  0  0  0  0  0  0  0  0  0
    1.0260   -1.1376    0.5097 C   0  0  0  0  0  0  0  0  0  0  0  0
   -1.2861   -0.7837    1.5981 H   0  0  0  0  0  0  0  0  0  0  0  0
   -0.0783   -0.5104   -1.2087 H   0  0  0  0  0  0  0  0  0  0  0  0
    3.4069    1.0808   -0.2251 H   0  0  0  0  0  0  0  0  0  0  0  0
   -2.1285   -2.3905   -0.5136 H   0  0  0  0  0  0  0  0  0  0  0  0
   -0.4696    1.5072    1.0650 H   0  0  0  0  0  0  0  0  0  0  0  0
   -0.1775    1.7670   -0.6844 H   0  0  0  0  0  0  0  0  0  0  0  0
   -3.3663   -0.6699    0.5074 H   0  0  0  0  0  0  0  0  0  0  0  0
    1.7048    2.5192    0.4889 H   0  0  0  0  0  0  0  0  0  0  0  0
    1.6889    1.0919    1.6083 H   0  0  0  0  0  0  0  0  0  0  0  0
   -3.3931    1.4946   -0.4558 H   0  0  0  0  0  0  0  0  0  0  0  0
   -2.9574    1.3464    1.1514 H   0  0  0  0  0  0  0  0  0  0  0  0
    3.1024   -0.8620    0.8518 H   0  0  0  0  0  0  0  0  0  0  0  0
    2.6857   -1.3199   -0.8187 H   0  0  0  0  0  0  0  0  0  0  0  0
    0.9670   -0.9928    1.5954 H   0  0  0  0  0  0  0  0  0  0  0  0
    0.8931   -2.2091    0.2772 H   0  0  0  0  0  0  0  0  0  0  0  0
  1  2  1  0
  1  4  1  0
  2  5  1  0
  1  6  1  0
  3  7  1  0
  5  7  1  0
  6  8  1  0
  3  9  1  0
  2 10  1  0
  9 10  1  0
  1 11  1  1
  2 12  1  0
  3 13  1  0
  4 14  1  0
  5 15  1  0
  5 16  1  0
  6 17  1  0
  7 18  1  0
  7 19  1  0
  8 20  1  0
  8 21  1  0
  9 22  1  0
  9 23  1  0
 10 24  1  0
 10 25  1  0
M  END
>  <PDBID>  (1) 
5KSG

>  <PDB ID>  (1) 
5KSG

>  <Generic Name>  (1) 
Isoniazid

>  <Brand Name>  (1) 
Dom-isoniazid 300mg Tablets#Isonarif#Isoniazid#Isoniazid Syrup 50mg/5ml#Isoniazid Tab 100mg#Isoniazid Tab 300mg#Isoniazid Tab 50mg#Isoniazide 100mg Tablets#Isotamine B 300#Isotamine Powder#Isotamine Syr Pediatric 50mg/5ml#Isotamine-100#Isotamine-300#Pdp-isoniazid#Rifamate#Rifater#Nicozid#Nidrazid#Nydrazid#Rimicid#Rimifon#Servizid#Tibinide

>  <DrugBank ID>  (1) 
DB00951

>  <ATC Codes>  (1) 
J04AM04#J04AM02#J04AM06#J04AM03#J04AM05#J04AM01#J04AC51#J04AC01

>  <Ligand ID>  (1) 
NIZ

>  <Target Name>  (1) 
Catalase-peroxidase

>  <UniProt ID>  (1) 
Q08129

>  <PDB ID.1>  (1) 
5KSG

>  <Seq. Identity>  (1) 
66%

$$$$
