PDB_DB00396_08
     RDKit          3D

118124  0  0  0  0  0  0  0  0999 V2000
    2.8941   -0.3669    1.6305 C   0  0  0  0  0  0  0  0  0  0  0  0
    4.3757   -0.5711    1.5148 C   0  0  0  0  0  0  0  0  0  0  0  0
    4.6072   -1.7587    0.5920 C   0  0  0  0  0  0  0  0  0  0  0  0
    3.8250   -2.8025    1.0699 O   0  0  0  0  0  0  0  0  0  0  0  0
    4.0995   -1.3232   -0.7863 C   0  0  0  0  0  0  0  0  0  0  0  0
    2.6167   -1.1088   -0.7013 C   0  0  2  0  0  0  0  0  0  0  0  0
    1.9666   -0.9040   -2.0138 C   0  0  0  0  0  0  0  0  0  0  0  0
    0.9667    0.1686   -2.1180 C   0  0  0  0  0  0  0  0  0  0  0  0
    0.1805    0.5044   -0.9093 C   0  0  2  0  0  0  0  0  0  0  0  0
    0.7938   -0.0255    0.3818 C   0  0  1  0  0  0  0  0  0  0  0  0
    2.2762   -0.0078    0.3162 C   0  0  1  0  0  0  0  0  0  0  0  0
    0.1724    0.6314    1.5615 C   0  0  0  0  0  0  0  0  0  0  0  0
   -1.2789    0.1245    1.6233 C   0  0  0  0  0  0  0  0  0  0  0  0
   -1.9373    0.5527    0.3494 C   0  0  1  0  0  0  0  0  0  0  0  0
   -1.2200    0.0446   -0.8936 C   0  0  1  0  0  0  0  0  0  0  0  0
   -2.1276    0.5048   -1.9590 C   0  0  0  0  0  0  0  0  0  0  0  0
   -3.5163    0.2741   -1.3445 C   0  0  0  0  0  0  0  0  0  0  0  0
   -3.2606   -0.1262    0.0980 C   0  0  2  0  0  0  0  0  0  0  0  0
   -2.1539    2.0226    0.3398 C   0  0  0  0  0  0  0  0  0  0  0  0
    2.8692    1.2927   -0.1444 C   0  0  0  0  0  0  0  0  0  0  0  0
   -4.3648    0.2878    1.0107 C   0  0  0  0  0  0  0  0  0  0  0  0
   -4.6955    1.6167    0.9800 O   0  0  0  0  0  0  0  0  0  0  0  0
   -5.6370   -0.5005    0.7048 C   0  0  0  0  0  0  0  0  0  0  0  0
    2.8941   -0.3669    1.6305 C   0  0  0  0  0  0  0  0  0  0  0  0
    4.3757   -0.5711    1.5148 C   0  0  0  0  0  0  0  0  0  0  0  0
    4.6072   -1.7587    0.5920 C   0  0  0  0  0  0  0  0  0  0  0  0
    3.8250   -2.8025    1.0699 O   0  0  0  0  0  0  0  0  0  0  0  0
    4.0995   -1.3232   -0.7863 C   0  0  0  0  0  0  0  0  0  0  0  0
    2.6167   -1.1088   -0.7013 C   0  0  2  0  0  0  0  0  0  0  0  0
    1.9666   -0.9040   -2.0138 C   0  0  0  0  0  0  0  0  0  0  0  0
    0.9667    0.1686   -2.1180 C   0  0  0  0  0  0  0  0  0  0  0  0
    0.1805    0.5044   -0.9093 C   0  0  2  0  0  0  0  0  0  0  0  0
    0.7938   -0.0255    0.3818 C   0  0  1  0  0  0  0  0  0  0  0  0
    2.2762   -0.0078    0.3162 C   0  0  1  0  0  0  0  0  0  0  0  0
    0.1724    0.6314    1.5615 C   0  0  0  0  0  0  0  0  0  0  0  0
   -1.2789    0.1245    1.6233 C   0  0  0  0  0  0  0  0  0  0  0  0
   -1.9373    0.5527    0.3494 C   0  0  1  0  0  0  0  0  0  0  0  0
   -1.2200    0.0446   -0.8936 C   0  0  1  0  0  0  0  0  0  0  0  0
   -2.1276    0.5048   -1.9590 C   0  0  0  0  0  0  0  0  0  0  0  0
   -3.5163    0.2741   -1.3445 C   0  0  0  0  0  0  0  0  0  0  0  0
   -3.2606   -0.1262    0.0980 C   0  0  2  0  0  0  0  0  0  0  0  0
   -2.1539    2.0226    0.3398 C   0  0  0  0  0  0  0  0  0  0  0  0
    2.8692    1.2927   -0.1444 C   0  0  0  0  0  0  0  0  0  0  0  0
   -4.3648    0.2878    1.0107 C   0  0  0  0  0  0  0  0  0  0  0  0
   -4.6955    1.6167    0.9800 O   0  0  0  0  0  0  0  0  0  0  0  0
   -5.6370   -0.5005    0.7048 C   0  0  0  0  0  0  0  0  0  0  0  0
    2.7335    0.5048    2.3196 H   0  0  0  0  0  0  0  0  0  0  0  0
    2.4311   -1.2355    2.1207 H   0  0  0  0  0  0  0  0  0  0  0  0
    4.8847    0.2837    1.0571 H   0  0  0  0  0  0  0  0  0  0  0  0
    4.8403   -0.7303    2.5067 H   0  0  0  0  0  0  0  0  0  0  0  0
    5.6624   -2.0480    0.5271 H   0  0  0  0  0  0  0  0  0  0  0  0
    3.8054   -2.7568    2.0610 H   0  0  0  0  0  0  0  0  0  0  0  0
    4.6735   -0.4641   -1.1266 H   0  0  0  0  0  0  0  0  0  0  0  0
    4.2613   -2.2026   -1.4458 H   0  0  0  0  0  0  0  0  0  0  0  0
    2.1983   -2.0453   -0.2238 H   0  0  0  0  0  0  0  0  0  0  0  0
    2.7934   -0.7328   -2.7684 H   0  0  0  0  0  0  0  0  0  0  0  0
    1.5141   -1.8810   -2.3613 H   0  0  0  0  0  0  0  0  0  0  0  0
    0.2274   -0.1193   -2.9248 H   0  0  0  0  0  0  0  0  0  0  0  0
    1.4746    1.0796   -2.5551 H   0  0  0  0  0  0  0  0  0  0  0  0
    0.1862    1.6178   -0.7984 H   0  0  0  0  0  0  0  0  0  0  0  0
    0.4755   -1.1111    0.4175 H   0  0  0  0  0  0  0  0  0  0  0  0
    0.1884    1.7300    1.4158 H   0  0  0  0  0  0  0  0  0  0  0  0
    0.6984    0.3203    2.4792 H   0  0  0  0  0  0  0  0  0  0  0  0
   -1.2030   -0.9736    1.6542 H   0  0  0  0  0  0  0  0  0  0  0  0
   -1.8203    0.5676    2.4575 H   0  0  0  0  0  0  0  0  0  0  0  0
   -1.2915   -1.0794   -0.8264 H   0  0  0  0  0  0  0  0  0  0  0  0
   -1.9980    1.5747   -2.1758 H   0  0  0  0  0  0  0  0  0  0  0  0
   -1.9925   -0.1389   -2.8618 H   0  0  0  0  0  0  0  0  0  0  0  0
   -4.1699    1.1372   -1.4526 H   0  0  0  0  0  0  0  0  0  0  0  0
   -3.9979   -0.5680   -1.9178 H   0  0  0  0  0  0  0  0  0  0  0  0
   -3.1176   -1.2322    0.0692 H   0  0  0  0  0  0  0  0  0  0  0  0
   -2.5200    2.3015    1.3715 H   0  0  0  0  0  0  0  0  0  0  0  0
   -2.9493    2.3497   -0.3590 H   0  0  0  0  0  0  0  0  0  0  0  0
   -1.2297    2.6274    0.2337 H   0  0  0  0  0  0  0  0  0  0  0  0
    2.1181    2.0786   -0.3582 H   0  0  0  0  0  0  0  0  0  0  0  0
    3.5433    1.7566    0.6348 H   0  0  0  0  0  0  0  0  0  0  0  0
    3.4604    1.1731   -1.0734 H   0  0  0  0  0  0  0  0  0  0  0  0
   -4.1272    0.0155    2.0813 H   0  0  0  0  0  0  0  0  0  0  0  0
   -5.3644    1.8577    0.2921 H   0  0  0  0  0  0  0  0  0  0  0  0
   -6.4656   -0.0861    1.3021 H   0  0  0  0  0  0  0  0  0  0  0  0
   -5.8491   -0.5332   -0.3712 H   0  0  0  0  0  0  0  0  0  0  0  0
   -5.5261   -1.5675    1.0315 H   0  0  0  0  0  0  0  0  0  0  0  0
    2.7335    0.5048    2.3196 H   0  0  0  0  0  0  0  0  0  0  0  0
    2.4311   -1.2355    2.1207 H   0  0  0  0  0  0  0  0  0  0  0  0
    4.8847    0.2837    1.0571 H   0  0  0  0  0  0  0  0  0  0  0  0
    4.8403   -0.7303    2.5067 H   0  0  0  0  0  0  0  0  0  0  0  0
    5.6624   -2.0480    0.5271 H   0  0  0  0  0  0  0  0  0  0  0  0
    3.8054   -2.7568    2.0610 H   0  0  0  0  0  0  0  0  0  0  0  0
    4.6735   -0.4641   -1.1266 H   0  0  0  0  0  0  0  0  0  0  0  0
    4.2613   -2.2026   -1.4458 H   0  0  0  0  0  0  0  0  0  0  0  0
    2.1983   -2.0453   -0.2238 H   0  0  0  0  0  0  0  0  0  0  0  0
    2.7934   -0.7328   -2.7684 H   0  0  0  0  0  0  0  0  0  0  0  0
    1.5141   -1.8810   -2.3613 H   0  0  0  0  0  0  0  0  0  0  0  0
    0.2274   -0.1193   -2.9248 H   0  0  0  0  0  0  0  0  0  0  0  0
    1.4746    1.0796   -2.5551 H   0  0  0  0  0  0  0  0  0  0  0  0
    0.1862    1.6178   -0.7984 H   0  0  0  0  0  0  0  0  0  0  0  0
    0.4755   -1.1111    0.4175 H   0  0  0  0  0  0  0  0  0  0  0  0
    0.1884    1.7300    1.4158 H   0  0  0  0  0  0  0  0  0  0  0  0
    0.6984    0.3203    2.4792 H   0  0  0  0  0  0  0  0  0  0  0  0
   -1.2030   -0.9736    1.6542 H   0  0  0  0  0  0  0  0  0  0  0  0
   -1.8203    0.5676    2.4575 H   0  0  0  0  0  0  0  0  0  0  0  0
   -1.2915   -1.0794   -0.8264 H   0  0  0  0  0  0  0  0  0  0  0  0
   -1.9980    1.5747   -2.1758 H   0  0  0  0  0  0  0  0  0  0  0  0
   -1.9925   -0.1389   -2.8618 H   0  0  0  0  0  0  0  0  0  0  0  0
   -4.1699    1.1372   -1.4526 H   0  0  0  0  0  0  0  0  0  0  0  0
   -3.9979   -0.5680   -1.9178 H   0  0  0  0  0  0  0  0  0  0  0  0
   -3.1176   -1.2322    0.0692 H   0  0  0  0  0  0  0  0  0  0  0  0
   -2.5200    2.3015    1.3715 H   0  0  0  0  0  0  0  0  0  0  0  0
   -2.9493    2.3497   -0.3590 H   0  0  0  0  0  0  0  0  0  0  0  0
   -1.2297    2.6274    0.2337 H   0  0  0  0  0  0  0  0  0  0  0  0
    2.1181    2.0786   -0.3582 H   0  0  0  0  0  0  0  0  0  0  0  0
    3.5433    1.7566    0.6348 H   0  0  0  0  0  0  0  0  0  0  0  0
    3.4604    1.1731   -1.0734 H   0  0  0  0  0  0  0  0  0  0  0  0
   -4.1272    0.0155    2.0813 H   0  0  0  0  0  0  0  0  0  0  0  0
   -5.3644    1.8577    0.2921 H   0  0  0  0  0  0  0  0  0  0  0  0
   -6.4656   -0.0861    1.3021 H   0  0  0  0  0  0  0  0  0  0  0  0
   -5.8491   -0.5332   -0.3712 H   0  0  0  0  0  0  0  0  0  0  0  0
   -5.5261   -1.5675    1.0315 H   0  0  0  0  0  0  0  0  0  0  0  0
  1  2  1  0
  2  3  1  0
  3  4  1  0
  3  5  1  0
  5  6  1  0
  6  7  1  0
  7  8  1  0
  8  9  1  0
  9 10  1  0
  1 11  1  0
  6 11  1  0
 10 11  1  0
 10 12  1  0
 12 13  1  0
 13 14  1  0
  9 15  1  0
 14 15  1  0
 15 16  1  0
 16 17  1  0
 14 18  1  0
 17 18  1  0
 14 19  1  6
 11 20  1  6
 18 21  1  0
 21 22  1  0
 21 23  1  0
 24 25  1  0
 25 26  1  0
 26 27  1  0
 26 28  1  0
 28 29  1  0
 29 30  1  0
 30 31  1  0
 31 32  1  0
 32 33  1  0
 24 34  1  0
 29 34  1  0
 33 34  1  0
 33 35  1  0
 35 36  1  0
 36 37  1  0
 32 38  1  0
 37 38  1  0
 38 39  1  0
 39 40  1  0
 37 41  1  0
 40 41  1  0
 37 42  1  6
 34 43  1  6
 41 44  1  0
 44 45  1  0
 44 46  1  0
  1 47  1  0
  1 48  1  0
  2 49  1  0
  2 50  1  0
  3 51  1  0
  4 52  1  0
  5 53  1  0
  5 54  1  0
  6 55  1  1
  7 56  1  0
  7 57  1  0
  8 58  1  0
  8 59  1  0
  9 60  1  1
 10 61  1  1
 12 62  1  0
 12 63  1  0
 13 64  1  0
 13 65  1  0
 15 66  1  1
 16 67  1  0
 16 68  1  0
 17 69  1  0
 17 70  1  0
 18 71  1  6
 19 72  1  0
 19 73  1  0
 19 74  1  0
 20 75  1  0
 20 76  1  0
 20 77  1  0
 21 78  1  0
 22 79  1  0
 23 80  1  0
 23 81  1  0
 23 82  1  0
 24 83  1  0
 24 84  1  0
 25 85  1  0
 25 86  1  0
 26 87  1  0
 27 88  1  0
 28 89  1  0
 28 90  1  0
 29 91  1  1
 30 92  1  0
 30 93  1  0
 31 94  1  0
 31 95  1  0
 32 96  1  1
 33 97  1  1
 35 98  1  0
 35 99  1  0
 36100  1  0
 36101  1  0
 38102  1  1
 39103  1  0
 39104  1  0
 40105  1  0
 40106  1  0
 41107  1  6
 42108  1  0
 42109  1  0
 42110  1  0
 43111  1  0
 43112  1  0
 43113  1  0
 44114  1  0
 45115  1  0
 46116  1  0
 46117  1  0
 46118  1  0
M  END
>  <PDBID>  (1) 
4FN9

>  <PDB ID>  (1) 
4FN9

>  <Generic Name>  (1) 
Progesterone

>  <Brand Name>  (1) 
Act Progesterone Injection#Crinone#Endometrin#Estrogel Propak#Gesterol In Oil-liq Im 50mg/ml#PMS-progesterone Inj 50mg/ml USP#Prochieve#Progesterone#Progesterone Inj 50mg/ml USP#Progesterone Injection USP#Prometrium#Teva-progesterone#Agolutin#Cyclogest#Gesterol#Gestone#Progestasert#Progestogel#Qi Ning#Relantan#Susten#Utrogestan#Utrogestran#Utrovin#Vasclor

>  <DrugBank ID>  (1) 
DB00396

>  <ATC Codes>  (1) 
G03DA04#G03FA04

>  <Ligand ID>  (1) 
STR

>  <Target Name>  (1) 
Estrogen receptor

>  <UniProt ID>  (1) 
P03372

>  <PDB ID.1>  (1) 
4FN9

>  <Seq. Identity>  (1) 
32%

$$$$
