PDB_DB00814_03
     RDKit          3D

104109  0  0  0  0  0  0  0  0999 V2000
    6.6181    0.2833    0.0206 C   0  0  0  0  0  0  0  0  0  0  0  0
    5.4299   -0.1041   -0.8111 C   0  0  0  0  0  0  0  0  0  0  0  0
    4.0685    1.0411   -0.3392 S   0  0  0  0  0  0  0  0  0  0  0  0
    4.8031   -1.3955   -0.3305 C   0  0  0  0  0  0  0  0  0  0  0  0
    4.2206   -1.1764    0.9473 N   0  0  0  0  0  0  0  0  0  0  0  0
    3.3187   -0.0726    0.8945 C   0  0  0  0  0  0  0  0  0  0  0  0
    1.9637   -0.4426    0.5648 N   0  0  0  0  0  0  0  0  0  0  0  0
    1.1606    0.7513    0.5324 C   0  0  1  0  0  0  0  0  0  0  0  0
    1.8281    1.6920   -0.2515 O   0  0  0  0  0  0  0  0  0  0  0  0
   -0.2015    0.5727   -0.0685 C   0  0  1  0  0  0  0  0  0  0  0  0
   -0.9952   -0.5699    0.4708 C   0  0  2  0  0  0  0  0  0  0  0  0
   -0.2715   -1.7636    0.3990 O   0  0  0  0  0  0  0  0  0  0  0  0
   -2.1472   -0.7929   -0.5237 C   0  0  1  0  0  0  0  0  0  0  0  0
   -2.7148   -2.1674   -0.4286 C   0  0  0  0  0  0  0  0  0  0  0  0
   -4.1295   -2.1640    0.0896 C   0  0  0  0  0  0  0  0  0  0  0  0
   -5.0386   -1.2296   -0.6365 C   0  0  0  0  0  0  0  0  0  0  0  0
   -4.3412   -0.0193   -1.2067 C   0  0  0  0  0  0  0  0  0  0  0  0
   -3.1537    0.2838   -0.2858 C   0  0  2  0  0  0  0  0  0  0  0  0
   -2.4412    1.8108   -0.5952 S   0  0  0  0  0  0  0  0  0  0  0  0
   -2.5812    2.2043   -2.4512 O   0  0  0  0  0  0  0  0  0  0  0  0
   -3.4323    3.1673    0.1058 O   0  0  0  0  0  0  0  0  0  0  0  0
   -0.9063    1.8121   -0.0610 N   0  0  0  0  0  0  0  0  0  0  0  0
   -0.5708    2.6993    1.0066 C   0  0  0  0  0  0  0  0  0  0  0  0
    4.9993    1.6847    0.9096 C   0  0  0  0  0  0  0  0  0  0  0  0
    3.9525    0.6380    0.7132 C   0  0  0  0  0  0  0  0  0  0  0  0
    2.8421    1.0669   -0.6926 S   0  0  0  0  0  0  0  0  0  0  0  0
    4.5420   -0.6399    0.0993 C   0  0  0  0  0  0  0  0  0  0  0  0
    3.4499   -1.3776   -0.4410 N   0  0  0  0  0  0  0  0  0  0  0  0
    2.7955   -0.5656   -1.4523 C   0  0  1  0  0  0  0  0  0  0  0  0
    1.6483   -1.0424   -2.0105 N   0  0  0  0  0  0  0  0  0  0  0  0
    0.4170   -1.2723   -1.4715 C   0  0  1  0  0  0  0  0  0  0  0  0
    0.4008   -2.2837   -0.5107 O   0  0  0  0  0  0  0  0  0  0  0  0
   -0.4586   -0.1204   -0.9500 C   0  0  2  0  0  0  0  0  0  0  0  0
   -0.3640    0.0730    0.4820 C   0  0  2  0  0  0  0  0  0  0  0  0
    0.6428   -0.4782    1.2038 O   0  0  0  0  0  0  0  0  0  0  0  0
   -1.6303   -0.6983    0.8888 C   0  0  1  0  0  0  0  0  0  0  0  0
   -1.8477   -0.4922    2.3297 C   0  0  0  0  0  0  0  0  0  0  0  0
   -2.7102    0.6738    2.7040 C   0  0  0  0  0  0  0  0  0  0  0  0
   -4.0352    0.5269    1.9899 C   0  0  0  0  0  0  0  0  0  0  0  0
   -3.9211   -0.0184    0.6353 C   0  0  0  0  0  0  0  0  0  0  0  0
   -2.5814    0.2111    0.0704 C   0  0  2  0  0  0  0  0  0  0  0  0
   -2.0699   -0.1111   -1.5258 S   0  0  0  0  0  0  0  0  0  0  0  0
   -2.2541   -0.0128   -3.4161 O   0  0  0  0  0  0  0  0  0  0  0  0
   -2.8715   -1.6749   -1.7300 O   0  0  0  0  0  0  0  0  0  0  0  0
   -0.4159    0.8299   -1.8395 N   0  0  0  0  0  0  0  0  0  0  0  0
   -0.3298    2.1318   -1.5288 C   0  0  0  0  0  0  0  0  0  0  0  0
    7.3319   -0.5274    0.1564 H   0  0  0  0  0  0  0  0  0  0  0  0
    7.0345    1.2192   -0.3844 H   0  0  0  0  0  0  0  0  0  0  0  0
    6.2124    0.5525    1.0405 H   0  0  0  0  0  0  0  0  0  0  0  0
    5.5994   -0.1115   -1.8817 H   0  0  0  0  0  0  0  0  0  0  0  0
    4.1212   -1.8026   -1.0947 H   0  0  0  0  0  0  0  0  0  0  0  0
    5.6544   -2.1094   -0.1882 H   0  0  0  0  0  0  0  0  0  0  0  0
    3.6583   -2.0278    1.1821 H   0  0  0  0  0  0  0  0  0  0  0  0
    3.3499    0.4570    1.8746 H   0  0  0  0  0  0  0  0  0  0  0  0
    1.6464   -0.9832    1.4297 H   0  0  0  0  0  0  0  0  0  0  0  0
    1.1203    1.1310    1.5776 H   0  0  0  0  0  0  0  0  0  0  0  0
    1.4822    1.7003   -1.1716 H   0  0  0  0  0  0  0  0  0  0  0  0
   -0.0177    0.3296   -1.1588 H   0  0  0  0  0  0  0  0  0  0  0  0
   -1.4117   -0.3998    1.4830 H   0  0  0  0  0  0  0  0  0  0  0  0
   -0.2767   -2.1240   -0.5164 H   0  0  0  0  0  0  0  0  0  0  0  0
   -1.6786   -0.6755   -1.5343 H   0  0  0  0  0  0  0  0  0  0  0  0
   -2.1281   -2.8479    0.2208 H   0  0  0  0  0  0  0  0  0  0  0  0
   -2.7341   -2.6653   -1.4335 H   0  0  0  0  0  0  0  0  0  0  0  0
   -4.1164   -2.0137    1.1810 H   0  0  0  0  0  0  0  0  0  0  0  0
   -4.5246   -3.2102   -0.0672 H   0  0  0  0  0  0  0  0  0  0  0  0
   -5.6693   -1.7397   -1.4008 H   0  0  0  0  0  0  0  0  0  0  0  0
   -5.7699   -0.8269    0.1245 H   0  0  0  0  0  0  0  0  0  0  0  0
   -3.8594   -0.3127   -2.1859 H   0  0  0  0  0  0  0  0  0  0  0  0
   -4.9882    0.8520   -1.2945 H   0  0  0  0  0  0  0  0  0  0  0  0
   -3.5317    0.2304    0.7339 H   0  0  0  0  0  0  0  0  0  0  0  0
   -1.9146    1.5424   -2.7707 H   0  0  0  0  0  0  0  0  0  0  0  0
   -3.5199    2.9079    1.0455 H   0  0  0  0  0  0  0  0  0  0  0  0
   -1.3519    3.5134    1.0105 H   0  0  0  0  0  0  0  0  0  0  0  0
   -0.5943    2.2630    2.0140 H   0  0  0  0  0  0  0  0  0  0  0  0
    0.3901    3.2587    0.8176 H   0  0  0  0  0  0  0  0  0  0  0  0
    5.8783    1.1906    1.3855 H   0  0  0  0  0  0  0  0  0  0  0  0
    4.6291    2.4275    1.6413 H   0  0  0  0  0  0  0  0  0  0  0  0
    5.3541    2.1331   -0.0302 H   0  0  0  0  0  0  0  0  0  0  0  0
    3.3969    0.4455    1.6262 H   0  0  0  0  0  0  0  0  0  0  0  0
    5.0685   -1.2523    0.8241 H   0  0  0  0  0  0  0  0  0  0  0  0
    5.2235   -0.2609   -0.7145 H   0  0  0  0  0  0  0  0  0  0  0  0
    2.8546   -1.7390    0.2973 H   0  0  0  0  0  0  0  0  0  0  0  0
    3.5929   -0.5138   -2.2891 H   0  0  0  0  0  0  0  0  0  0  0  0
    1.7016   -1.2311   -3.0569 H   0  0  0  0  0  0  0  0  0  0  0  0
   -0.2123   -1.7568   -2.3049 H   0  0  0  0  0  0  0  0  0  0  0  0
    1.0672   -2.9892   -0.7020 H   0  0  0  0  0  0  0  0  0  0  0  0
   -0.5962    1.1332    0.8025 H   0  0  0  0  0  0  0  0  0  0  0  0
    0.4594   -1.3381    1.6291 H   0  0  0  0  0  0  0  0  0  0  0  0
   -1.6369   -1.7186    0.5180 H   0  0  0  0  0  0  0  0  0  0  0  0
   -0.8627   -0.3375    2.8633 H   0  0  0  0  0  0  0  0  0  0  0  0
   -2.2797   -1.4169    2.7723 H   0  0  0  0  0  0  0  0  0  0  0  0
   -2.2268    1.6422    2.5493 H   0  0  0  0  0  0  0  0  0  0  0  0
   -2.8771    0.5949    3.8192 H   0  0  0  0  0  0  0  0  0  0  0  0
   -4.6653   -0.1242    2.6504 H   0  0  0  0  0  0  0  0  0  0  0  0
   -4.5133    1.5288    2.0045 H   0  0  0  0  0  0  0  0  0  0  0  0
   -4.6726    0.5026   -0.0268 H   0  0  0  0  0  0  0  0  0  0  0  0
   -4.2343   -1.0913    0.6387 H   0  0  0  0  0  0  0  0  0  0  0  0
   -2.2695    1.1857    0.5629 H   0  0  0  0  0  0  0  0  0  0  0  0
   -3.2119    1.2717   -2.0889 H   0  0  0  0  0  0  0  0  0  0  0  0
   -1.7046   -0.6001   -3.8501 H   0  0  0  0  0  0  0  0  0  0  0  0
   -2.3806   -2.4283   -1.5775 H   0  0  0  0  0  0  0  0  0  0  0  0
   -1.3659    2.5877   -1.4061 H   0  0  0  0  0  0  0  0  0  0  0  0
    0.0837    2.7335   -2.3908 H   0  0  0  0  0  0  0  0  0  0  0  0
    0.1997    2.3728   -0.6040 H   0  0  0  0  0  0  0  0  0  0  0  0
  1  2  1  0
  2  3  1  0
  2  4  1  0
  4  5  1  0
  3  6  1  0
  5  6  1  0
  6  7  1  0
  7  8  1  0
  8  9  1  0
  8 10  1  0
 10 11  1  0
 11 12  1  0
 11 13  1  0
 13 14  1  0
 14 15  1  0
 15 16  1  0
 16 17  1  0
 13 18  1  0
 17 18  1  0
 18 19  1  0
 19 20  1  0
 19 21  1  0
 10 22  1  0
 19 22  1  0
 22 23  1  0
 24 25  1  0
 25 26  1  0
 25 27  1  0
 27 28  1  0
 26 29  1  0
 28 29  1  0
 29 30  1  0
 30 31  1  0
 31 32  1  0
 31 33  1  0
 33 34  1  0
 34 35  1  0
 34 36  1  0
 36 37  1  0
 37 38  1  0
 38 39  1  0
 39 40  1  0
 36 41  1  0
 40 41  1  0
 41 42  1  0
 42 33  1  0
 42 43  1  0
 42 44  1  0
 33 45  1  6
 42 45  1  0
 45 46  1  0
  1 47  1  0
  1 48  1  0
  1 49  1  0
  2 50  1  0
  4 51  1  0
  4 52  1  0
  5 53  1  0
  6 54  1  0
  7 55  1  0
  8 56  1  1
  9 57  1  0
 10 58  1  6
 11 59  1  1
 12 60  1  0
 13 61  1  6
 14 62  1  0
 14 63  1  0
 15 64  1  0
 15 65  1  0
 16 66  1  0
 16 67  1  0
 17 68  1  0
 17 69  1  0
 18 70  1  1
 20 71  1  0
 21 72  1  0
 23 73  1  0
 23 74  1  0
 23 75  1  0
 24 76  1  0
 24 77  1  0
 24 78  1  0
 25 79  1  0
 27 80  1  0
 27 81  1  0
 28 82  1  0
 29 83  1  6
 30 84  1  0
 31 85  1  6
 32 86  1  0
 34 87  1  6
 35 88  1  0
 36 89  1  6
 37 90  1  0
 37 91  1  0
 38 92  1  0
 38 93  1  0
 39 94  1  0
 39 95  1  0
 40 96  1  0
 40 97  1  0
 41 98  1  1
 42 99  1  0
 43100  1  0
 44101  1  0
 46102  1  0
 46103  1  0
 46104  1  0
M  END
>  <PDBID>  (1) 
4O1Z

>  <PDB ID>  (1) 
4O1Z

>  <Generic Name>  (1) 
Meloxicam

>  <Brand Name>  (1) 
Act Meloxicam#Apo-meloxicam#Auro-meloxicam#Ava-meloxicam#Comfort Pac With Meloxicam#Dom-meloxicam#Meloxicam#Mobic#Mobicox#Mylan-meloxicam#Nu-meloxicam#PHL-meloxicam#PMS-meloxicam#Ratio-meloxicam#Teva-meloxicam#Trepoxicam-7.5#Vivlodex#Achefree#Acticam#Aflamid#Afloxx#Aglan#Ainecox#Aldoron#Alentum#Algiflex#Aliviodol#Anaxicam#Anposel#Antrend#Aponip#Areloger#Aremil#Armex#Arrox#Arsitec#Artex#Arthrobic#Arthrox#Articam#Artipro#Artriclox#Artrifilm#Artriflam#Artrilom#Artrilox#Artrox#Aspicam#Atiflam#Atrozan#Auroxicam#Axius

>  <DrugBank ID>  (1) 
DB00814

>  <ATC Codes>  (1) 
M01AC56#M01AC06

>  <Ligand ID>  (1) 
MXM

>  <Target Name>  (1) 
Prostaglandin G/H synthase 2

>  <UniProt ID>  (1) 
P35354

>  <PDB ID.1>  (1) 
4O1Z

>  <Seq. Identity>  (1) 
61%

$$$$
