PDB_DB00864_08
     RDKit          3D

140143  0  0  0  0  0  0  0  0999 V2000
    1.2002   -1.3918   -0.1982 C   0  0  0  0  0  0  0  0  0  0  0  0
    1.2963   -2.7999    0.3331 C   0  0  2  0  0  0  0  0  0  0  0  0
    1.9587   -3.7513   -0.6176 C   0  0  0  0  0  0  0  0  0  0  0  0
    2.1173   -5.0907    0.0683 C   0  0  0  0  0  0  0  0  0  0  0  0
    1.6923   -5.0477    1.5269 C   0  0  0  0  0  0  0  0  0  0  0  0
    0.2741   -4.5356    1.5588 C   0  0  0  0  0  0  0  0  0  0  0  0
   -1.0186   -3.3613   -0.0857 C   0  0  0  0  0  0  0  0  0  0  0  0
   -2.2426   -2.9487    0.6678 C   0  0  0  0  0  0  0  0  0  0  0  0
   -3.3000   -2.3108   -0.2105 C   0  0  1  0  0  0  0  0  0  0  0  0
   -4.1701   -3.3717   -0.7511 C   0  0  1  0  0  0  0  0  0  0  0  0
   -5.6250   -3.0133   -0.8961 C   0  0  0  0  0  0  0  0  0  0  0  0
   -6.0238   -2.0843    0.2497 C   0  0  1  0  0  0  0  0  0  0  0  0
   -5.1158   -0.8998    0.0741 C   0  0  1  0  0  0  0  0  0  0  0  0
   -5.6057    0.2280    0.9519 C   0  0  2  0  0  0  0  0  0  0  0  0
   -6.1352    1.3218    0.0699 C   0  0  0  0  0  0  0  0  0  0  0  0
   -5.5404    2.6761    0.3183 C   0  0  2  0  0  0  0  0  0  0  0  0
   -4.0380    2.5666    0.3014 C   0  0  0  0  0  0  0  0  0  0  0  0
   -3.4251    3.7022   -0.5327 C   0  0  0  0  0  0  0  0  0  0  0  0
   -2.1998    4.2762    0.0550 C   0  0  0  0  0  0  0  0  0  0  0  0
   -1.1673    4.7351   -0.9127 C   0  0  2  0  0  0  0  0  0  0  0  0
    0.2470    4.4051   -0.5489 C   0  0  0  0  0  0  0  0  0  0  0  0
    0.4804    2.9177   -0.4201 C   0  0  0  0  0  0  0  0  0  0  0  0
    1.8913    2.4886   -0.8176 C   0  0  1  0  0  0  0  0  0  0  0  0
    1.8617    1.1673   -1.5174 C   0  0  2  0  0  0  0  0  0  0  0  0
    2.7752    0.1141   -1.0246 C   0  0  1  0  0  0  0  0  0  0  0  0
    4.1801    0.5700   -0.5915 C   0  0  0  0  0  0  0  0  0  0  0  0
    4.8315   -0.7036   -0.1031 C   0  0  0  0  0  0  0  0  0  0  0  0
    6.1833   -0.6710    0.4399 C   0  0  1  0  0  0  0  0  0  0  0  0
    6.4821   -2.1486    0.8569 C   0  0  0  0  0  0  0  0  0  0  0  0
    7.8318   -2.1899    1.5078 C   0  0  2  0  0  0  0  0  0  0  0  0
    8.8536   -1.8940    0.4015 C   0  0  1  0  0  0  0  0  0  0  0  0
    8.6363   -0.4701   -0.0082 C   0  0  0  0  0  0  0  0  0  0  0  0
    7.2169   -0.2465   -0.5378 C   0  0  0  0  0  0  0  0  0  0  0  0
   -3.7119   -3.9121   -2.0936 C   0  0  0  0  0  0  0  0  0  0  0  0
   -6.0524    3.3303    1.5960 C   0  0  0  0  0  0  0  0  0  0  0  0
   -3.3180    3.2113   -1.9366 C   0  0  0  0  0  0  0  0  0  0  0  0
   -1.3056    6.1338   -1.3702 C   0  0  0  0  0  0  0  0  0  0  0  0
   -1.2996    7.2329   -0.3913 C   0  0  0  0  0  0  0  0  0  0  0  0
   -0.0802    7.4131    0.4414 C   0  0  0  0  0  0  0  0  0  0  0  0
    1.6794    1.2018   -2.9992 C   0  0  0  0  0  0  0  0  0  0  0  0
    4.8171    1.1654   -1.8012 C   0  0  0  0  0  0  0  0  0  0  0  0
   -7.9761   -2.4079    1.3117 C   0  0  0  0  0  0  0  0  0  0  0  0
   -4.9935    0.4705    3.1473 C   0  0  0  0  0  0  0  0  0  0  0  0
    8.2992   -3.2272    3.4445 C   0  0  0  0  0  0  0  0  0  0  0  0
    0.0837   -3.3435    0.8045 N   0  0  0  0  0  0  0  0  0  0  0  0
    2.3014   -0.6323    0.0369 O   0  0  0  0  0  0  0  0  0  0  0  0
    0.1323   -0.7801    0.4958 O   0  0  0  0  0  0  0  0  0  0  0  0
   -1.1990   -4.7060   -0.4906 O   0  0  0  0  0  0  0  0  0  0  0  0
   -2.7508   -4.1105    1.2942 O   0  0  0  0  0  0  0  0  0  0  0  0
   -3.8657   -1.2952    0.4981 O   0  0  0  0  0  0  0  0  0  0  0  0
   -2.6028   -1.7277   -1.2897 O   0  0  0  0  0  0  0  0  0  0  0  0
   -7.3634   -1.8322    0.2057 O   0  0  0  0  0  0  0  0  0  0  0  0
   -4.6010    0.6497    1.8247 O   0  0  0  0  0  0  0  0  0  0  0  0
    1.0359    4.9433   -1.5927 O   0  0  0  0  0  0  0  0  0  0  0  0
    2.6112    3.4938   -1.3643 O   0  0  0  0  0  0  0  0  0  0  0  0
    8.0497   -3.4241    2.0742 O   0  0  0  0  0  0  0  0  0  0  0  0
   10.1448   -2.0497    0.8408 O   0  0  0  0  0  0  0  0  0  0  0  0
    0.8700   -1.3600   -1.2694 H   0  0  0  0  0  0  0  0  0  0  0  0
    1.9973   -2.7297    1.2208 H   0  0  0  0  0  0  0  0  0  0  0  0
    1.4246   -3.8810   -1.5750 H   0  0  0  0  0  0  0  0  0  0  0  0
    3.0135   -3.3813   -0.7864 H   0  0  0  0  0  0  0  0  0  0  0  0
    1.4718   -5.8420   -0.4665 H   0  0  0  0  0  0  0  0  0  0  0  0
    3.1335   -5.4885    0.0349 H   0  0  0  0  0  0  0  0  0  0  0  0
    2.3898   -4.4977    2.1539 H   0  0  0  0  0  0  0  0  0  0  0  0
    1.6698   -6.1069    1.8726 H   0  0  0  0  0  0  0  0  0  0  0  0
   -0.3721   -5.3897    1.2072 H   0  0  0  0  0  0  0  0  0  0  0  0
   -0.0660   -4.3438    2.6141 H   0  0  0  0  0  0  0  0  0  0  0  0
   -0.8696   -2.8038   -1.0289 H   0  0  0  0  0  0  0  0  0  0  0  0
   -1.9333   -2.2818    1.4981 H   0  0  0  0  0  0  0  0  0  0  0  0
   -4.1496   -4.2540   -0.0437 H   0  0  0  0  0  0  0  0  0  0  0  0
   -5.7382   -2.4252   -1.8281 H   0  0  0  0  0  0  0  0  0  0  0  0
   -6.2576   -3.8976   -0.9275 H   0  0  0  0  0  0  0  0  0  0  0  0
   -5.7044   -2.6433    1.1671 H   0  0  0  0  0  0  0  0  0  0  0  0
   -5.1373   -0.6271   -1.0028 H   0  0  0  0  0  0  0  0  0  0  0  0
   -6.4457   -0.1167    1.5887 H   0  0  0  0  0  0  0  0  0  0  0  0
   -5.9698    1.0803   -1.0033 H   0  0  0  0  0  0  0  0  0  0  0  0
   -7.2551    1.4066    0.1710 H   0  0  0  0  0  0  0  0  0  0  0  0
   -5.9175    3.3323   -0.5028 H   0  0  0  0  0  0  0  0  0  0  0  0
   -3.6696    2.7254    1.3361 H   0  0  0  0  0  0  0  0  0  0  0  0
   -3.6669    1.6047   -0.0874 H   0  0  0  0  0  0  0  0  0  0  0  0
   -4.2158    4.5088   -0.5307 H   0  0  0  0  0  0  0  0  0  0  0  0
   -2.4366    5.0913    0.8012 H   0  0  0  0  0  0  0  0  0  0  0  0
   -1.7228    3.4765    0.6957 H   0  0  0  0  0  0  0  0  0  0  0  0
   -1.3352    4.0231   -1.8264 H   0  0  0  0  0  0  0  0  0  0  0  0
    0.5290    4.9441    0.3671 H   0  0  0  0  0  0  0  0  0  0  0  0
    0.2216    2.6404    0.6205 H   0  0  0  0  0  0  0  0  0  0  0  0
   -0.2185    2.3283   -1.0728 H   0  0  0  0  0  0  0  0  0  0  0  0
    2.3860    2.2722    0.1828 H   0  0  0  0  0  0  0  0  0  0  0  0
    0.8250    0.7554   -1.1654 H   0  0  0  0  0  0  0  0  0  0  0  0
    2.9731   -0.5695   -1.9035 H   0  0  0  0  0  0  0  0  0  0  0  0
    4.1347    1.2464    0.2855 H   0  0  0  0  0  0  0  0  0  0  0  0
    4.0649   -1.1451    0.6144 H   0  0  0  0  0  0  0  0  0  0  0  0
    4.7418   -1.4143   -0.9857 H   0  0  0  0  0  0  0  0  0  0  0  0
    6.2774   -0.1422    1.4304 H   0  0  0  0  0  0  0  0  0  0  0  0
    6.4298   -2.7436   -0.0851 H   0  0  0  0  0  0  0  0  0  0  0  0
    5.6835   -2.4006    1.5716 H   0  0  0  0  0  0  0  0  0  0  0  0
    7.8955   -1.3513    2.2267 H   0  0  0  0  0  0  0  0  0  0  0  0
    8.5859   -2.5726   -0.4362 H   0  0  0  0  0  0  0  0  0  0  0  0
    8.8919    0.2340    0.7942 H   0  0  0  0  0  0  0  0  0  0  0  0
    9.3113   -0.2546   -0.8649 H   0  0  0  0  0  0  0  0  0  0  0  0
    7.1382   -0.8702   -1.4420 H   0  0  0  0  0  0  0  0  0  0  0  0
    7.1687    0.8046   -0.7873 H   0  0  0  0  0  0  0  0  0  0  0  0
   -4.5073   -3.8538   -2.8695 H   0  0  0  0  0  0  0  0  0  0  0  0
   -3.4456   -5.0004   -2.0448 H   0  0  0  0  0  0  0  0  0  0  0  0
   -2.8587   -3.3148   -2.5063 H   0  0  0  0  0  0  0  0  0  0  0  0
   -6.2955    4.4094    1.4393 H   0  0  0  0  0  0  0  0  0  0  0  0
   -7.0050    2.8538    1.9137 H   0  0  0  0  0  0  0  0  0  0  0  0
   -5.2897    3.3059    2.4054 H   0  0  0  0  0  0  0  0  0  0  0  0
   -2.5816    2.4305   -2.1074 H   0  0  0  0  0  0  0  0  0  0  0  0
   -3.2114    4.0530   -2.6829 H   0  0  0  0  0  0  0  0  0  0  0  0
   -4.3160    2.7555   -2.2007 H   0  0  0  0  0  0  0  0  0  0  0  0
   -0.4959    6.4043   -2.1282 H   0  0  0  0  0  0  0  0  0  0  0  0
   -2.2352    6.1974   -1.9937 H   0  0  0  0  0  0  0  0  0  0  0  0
   -2.2435    7.2971    0.2163 H   0  0  0  0  0  0  0  0  0  0  0  0
   -1.3735    8.1897   -1.0106 H   0  0  0  0  0  0  0  0  0  0  0  0
    0.0088    8.5212    0.7345 H   0  0  0  0  0  0  0  0  0  0  0  0
    0.8167    7.2233   -0.1684 H   0  0  0  0  0  0  0  0  0  0  0  0
   -0.0969    6.9145    1.4306 H   0  0  0  0  0  0  0  0  0  0  0  0
    1.9595    2.1212   -3.5120 H   0  0  0  0  0  0  0  0  0  0  0  0
    0.6087    1.0250   -3.3327 H   0  0  0  0  0  0  0  0  0  0  0  0
    2.2014    0.2942   -3.4276 H   0  0  0  0  0  0  0  0  0  0  0  0
    5.4278    0.4026   -2.3085 H   0  0  0  0  0  0  0  0  0  0  0  0
    5.4263    2.0657   -1.6359 H   0  0  0  0  0  0  0  0  0  0  0  0
    4.0020    1.5227   -2.4956 H   0  0  0  0  0  0  0  0  0  0  0  0
   -7.6051   -2.0391    2.2762 H   0  0  0  0  0  0  0  0  0  0  0  0
   -9.0790   -2.2869    1.2993 H   0  0  0  0  0  0  0  0  0  0  0  0
   -7.7603   -3.4968    1.2887 H   0  0  0  0  0  0  0  0  0  0  0  0
   -5.9070    1.0522    3.3539 H   0  0  0  0  0  0  0  0  0  0  0  0
   -5.2885   -0.6049    3.3177 H   0  0  0  0  0  0  0  0  0  0  0  0
   -4.2287    0.7924    3.8653 H   0  0  0  0  0  0  0  0  0  0  0  0
    8.4846   -4.2064    3.9540 H   0  0  0  0  0  0  0  0  0  0  0  0
    7.4282   -2.7855    3.9399 H   0  0  0  0  0  0  0  0  0  0  0  0
    9.1977   -2.6080    3.6231 H   0  0  0  0  0  0  0  0  0  0  0  0
    0.3736   -0.8225    1.4606 H   0  0  0  0  0  0  0  0  0  0  0  0
   -0.8166   -4.8764   -1.3715 H   0  0  0  0  0  0  0  0  0  0  0  0
   -3.1700   -3.9093    2.1516 H   0  0  0  0  0  0  0  0  0  0  0  0
   -2.7649   -0.7613   -1.3554 H   0  0  0  0  0  0  0  0  0  0  0  0
    0.6383    4.7367   -2.4786 H   0  0  0  0  0  0  0  0  0  0  0  0
    2.7479    3.5449   -2.3124 H   0  0  0  0  0  0  0  0  0  0  0  0
   10.6696   -2.5226    0.1455 H   0  0  0  0  0  0  0  0  0  0  0  0
  1  2  1  0
  2  3  1  0
  3  4  1  0
  4  5  1  0
  5  6  1  0
  7  8  1  0
  8  9  1  0
  9 10  1  0
 10 11  1  0
 11 12  1  0
 12 13  1  0
 13 14  1  0
 14 15  1  0
 15 16  1  0
 16 17  1  0
 17 18  1  0
 18 19  1  0
 19 20  1  0
 20 21  1  0
 21 22  1  0
 22 23  1  0
 23 24  1  0
 24 25  1  0
 25 26  1  0
 26 27  1  0
 27 28  1  0
 28 29  1  0
 29 30  1  0
 30 31  1  0
 31 32  1  0
 28 33  1  0
 32 33  1  0
 10 34  1  0
 16 35  1  0
 18 36  1  0
 20 37  1  0
 37 38  1  0
 38 39  1  0
 24 40  1  0
 26 41  1  0
  2 45  1  0
  6 45  1  0
  7 45  1  0
  1 46  1  0
 25 46  1  0
  1 47  1  0
  7 48  1  0
  8 49  1  0
  9 50  1  0
 13 50  1  0
  9 51  1  6
 12 52  1  0
 42 52  1  0
 14 53  1  0
 43 53  1  0
 21 54  1  0
 23 55  1  0
 30 56  1  0
 44 56  1  0
 31 57  1  0
  1 58  1  0
  2 59  1  1
  3 60  1  0
  3 61  1  0
  4 62  1  0
  4 63  1  0
  5 64  1  0
  5 65  1  0
  6 66  1  0
  6 67  1  0
  7 68  1  0
  8 69  1  0
 10 70  1  1
 11 71  1  0
 11 72  1  0
 12 73  1  1
 13 74  1  6
 14 75  1  1
 15 76  1  0
 15 77  1  0
 16 78  1  6
 17 79  1  0
 17 80  1  0
 18 81  1  0
 19 82  1  0
 19 83  1  0
 20 84  1  6
 21 85  1  0
 22 86  1  0
 22 87  1  0
 23 88  1  1
 24 89  1  1
 25 90  1  6
 26 91  1  0
 27 92  1  0
 27 93  1  0
 28 94  1  1
 29 95  1  0
 29 96  1  0
 30 97  1  1
 31 98  1  6
 32 99  1  0
 32100  1  0
 33101  1  0
 33102  1  0
 34103  1  0
 34104  1  0
 34105  1  0
 35106  1  0
 35107  1  0
 35108  1  0
 36109  1  0
 36110  1  0
 36111  1  0
 37112  1  0
 37113  1  0
 38114  1  0
 38115  1  0
 39116  1  0
 39117  1  0
 39118  1  0
 40119  1  0
 40120  1  0
 40121  1  0
 41122  1  0
 41123  1  0
 41124  1  0
 42125  1  0
 42126  1  0
 42127  1  0
 43128  1  0
 43129  1  0
 43130  1  0
 44131  1  0
 44132  1  0
 44133  1  0
 47134  1  0
 48135  1  0
 49136  1  0
 51137  1  0
 54138  1  0
 55139  1  0
 57140  1  0
M  END
>  <PDBID>  (1) 
1FKF

>  <PDB ID>  (1) 
1FKF

>  <Generic Name>  (1) 
Tacrolimus

>  <Brand Name>  (1) 
Ach-tacrolimus#Advagraf#Astagraf XL#Envarsus XR#Hecoria#Prograf#Protopic#Ran-tacrolimus#Sandoz Tacrolimus#Tacrolimus

>  <DrugBank ID>  (1) 
DB00864

>  <ATC Codes>  (1) 
D11AH01#L04AD02

>  <Ligand ID>  (1) 
FK5

>  <Target Name>  (1) 
Peptidyl-prolyl cis-trans isomerase FKBP1A

>  <UniProt ID>  (1) 
P62942

>  <PDB ID.1>  (1) 
1FKF

>  <Seq. Identity>  (1) 
100%

$$$$
