PDB_DB01167_09
     RDKit          3D

113119  0  0  0  0  0  0  0  0999 V2000
    6.6943    1.4303   -0.8121 C   0  0  0  0  0  0  0  0  0  0  0  0
    7.1046    1.7521    0.5996 C   0  0  0  0  0  0  0  0  0  0  0  0
   11.1913   -1.1680   -0.9302 C   0  0  0  0  0  0  0  0  0  0  0  0
   11.4063   -1.5498    0.4830 C   0  0  0  0  0  0  0  0  0  0  0  0
   10.2133   -1.7349    1.3494 C   0  0  1  0  0  0  0  0  0  0  0  0
   10.7731   -2.1746    2.7426 C   0  0  0  0  0  0  0  0  0  0  0  0
    9.4443   -0.6007    1.5707 N   0  0  0  0  0  0  0  0  0  0  0  0
    8.7351   -0.0012    0.5450 C   0  0  0  0  0  0  0  0  0  0  0  0
    9.4258    1.0518   -0.0379 O   0  0  0  0  0  0  0  0  0  0  0  0
    7.5315    0.5501    1.2365 N   0  0  0  0  0  0  0  0  0  0  0  0
    7.9688    0.7071    2.6071 C   0  0  0  0  0  0  0  0  0  0  0  0
    8.7989   -0.4933    2.7848 N   0  0  0  0  0  0  0  0  0  0  0  0
    5.5354    0.4439   -0.8640 C   0  0  0  0  0  0  0  0  0  0  0  0
    4.5416    0.8196    0.1820 C   0  0  0  0  0  0  0  0  0  0  0  0
    4.7165    2.2701    0.5401 C   0  0  0  0  0  0  0  0  0  0  0  0
    5.9938    2.4048    1.3722 C   0  0  0  0  0  0  0  0  0  0  0  0
    3.1648    0.5216   -0.1637 N   0  0  0  0  0  0  0  0  0  0  0  0
    3.0173   -0.8995   -0.3242 C   0  0  0  0  0  0  0  0  0  0  0  0
    1.5723   -1.2280   -0.5186 C   0  0  0  0  0  0  0  0  0  0  0  0
    0.9005   -0.4228   -1.5069 N   0  0  0  0  0  0  0  0  0  0  0  0
    1.9351    0.2977   -2.2263 C   0  0  0  0  0  0  0  0  0  0  0  0
    2.6743    1.2507   -1.2899 C   0  0  0  0  0  0  0  0  0  0  0  0
   -0.1016    0.4385   -0.9386 C   0  0  0  0  0  0  0  0  0  0  0  0
   -0.8326    1.1285   -2.0693 C   0  0  0  0  0  0  0  0  0  0  0  0
   -1.7208    0.0565   -2.7174 C   0  0  0  0  0  0  0  0  0  0  0  0
   -2.9858    0.0509   -1.8360 C   0  0  0  0  0  0  0  0  0  0  0  0
   -2.5326    0.1026   -0.4000 C   0  0  0  0  0  0  0  0  0  0  0  0
   -1.1204   -0.4466   -0.2460 C   0  0  0  0  0  0  0  0  0  0  0  0
   -3.7420   -1.0757   -2.0414 O   0  0  0  0  0  0  0  0  0  0  0  0
   -4.9886   -0.8760   -2.5718 C   0  0  0  0  0  0  0  0  0  0  0  0
   -5.8900    0.0179   -1.7411 C   0  0  1  0  0  0  0  0  0  0  0  0
   -7.2247    0.0474   -2.4063 C   0  0  0  0  0  0  0  0  0  0  0  0
   -8.0936   -0.3948   -1.4133 O   0  0  0  0  0  0  0  0  0  0  0  0
   -7.4875   -0.1152   -0.2086 C   0  0  2  0  0  0  0  0  0  0  0  0
   -6.1362   -0.4404   -0.4788 O   0  0  0  0  0  0  0  0  0  0  0  0
   -7.9339   -1.1007    0.8222 C   0  0  0  0  0  0  0  0  0  0  0  0
   -7.5191   -2.4243    0.3168 N   0  0  0  0  0  0  0  0  0  0  0  0
   -7.9339   -3.4443    1.2905 C   0  0  0  0  0  0  0  0  0  0  0  0
   -9.3610   -3.5765    1.0798 N   0  0  0  0  0  0  0  0  0  0  0  0
   -9.5634   -3.1318   -0.2908 C   0  0  0  0  0  0  0  0  0  0  0  0
   -8.2661   -2.7850   -0.8084 N   0  0  0  0  0  0  0  0  0  0  0  0
   -7.6303    1.3376    0.1933 C   0  0  0  0  0  0  0  0  0  0  0  0
   -7.0349    1.6735    1.5016 C   0  0  0  0  0  0  0  0  0  0  0  0
   -7.9283    1.8324    2.6566 C   0  0  0  0  0  0  0  0  0  0  0  0
   -9.3453    2.1813    2.4076 C   0  0  0  0  0  0  0  0  0  0  0  0
   -9.8836    1.7841    1.0708 C   0  0  0  0  0  0  0  0  0  0  0  0
   -8.9580    1.9387   -0.0715 C   0  0  0  0  0  0  0  0  0  0  0  0
  -10.4324    1.4991    3.6511 Cl  0  0  0  0  0  0  0  0  0  0  0  0
   -5.9950    3.1448    1.3575 Cl  0  0  0  0  0  0  0  0  0  0  0  0
    6.4472    2.3754   -1.3753 H   0  0  0  0  0  0  0  0  0  0  0  0
    7.5285    0.9708   -1.3588 H   0  0  0  0  0  0  0  0  0  0  0  0
    7.9259    2.5083    0.5134 H   0  0  0  0  0  0  0  0  0  0  0  0
   10.1698   -1.2803   -1.3139 H   0  0  0  0  0  0  0  0  0  0  0  0
   11.8988   -1.7584   -1.6161 H   0  0  0  0  0  0  0  0  0  0  0  0
   11.5351   -0.1106   -1.1446 H   0  0  0  0  0  0  0  0  0  0  0  0
   12.0169   -2.5007    0.5552 H   0  0  0  0  0  0  0  0  0  0  0  0
   12.0718   -0.7633    0.9431 H   0  0  0  0  0  0  0  0  0  0  0  0
    9.6159   -2.6455    1.0269 H   0  0  0  0  0  0  0  0  0  0  0  0
   11.2366   -1.3181    3.2335 H   0  0  0  0  0  0  0  0  0  0  0  0
   11.5443   -2.9407    2.5638 H   0  0  0  0  0  0  0  0  0  0  0  0
    9.9572   -2.5757    3.3425 H   0  0  0  0  0  0  0  0  0  0  0  0
    8.3062   -0.6386   -0.2568 H   0  0  0  0  0  0  0  0  0  0  0  0
    9.7863    1.6866    0.6212 H   0  0  0  0  0  0  0  0  0  0  0  0
    7.1095    0.5960    3.2848 H   0  0  0  0  0  0  0  0  0  0  0  0
    8.5738    1.6045    2.7617 H   0  0  0  0  0  0  0  0  0  0  0  0
    9.4439   -0.3405    3.5818 H   0  0  0  0  0  0  0  0  0  0  0  0
    5.1096    0.4750   -1.8885 H   0  0  0  0  0  0  0  0  0  0  0  0
    5.9425   -0.5728   -0.6526 H   0  0  0  0  0  0  0  0  0  0  0  0
    4.7734    0.2022    1.1003 H   0  0  0  0  0  0  0  0  0  0  0  0
    4.7548    2.8855   -0.3652 H   0  0  0  0  0  0  0  0  0  0  0  0
    3.8484    2.6356    1.1340 H   0  0  0  0  0  0  0  0  0  0  0  0
    5.7937    1.7947    2.2985 H   0  0  0  0  0  0  0  0  0  0  0  0
    6.1972    3.4385    1.6492 H   0  0  0  0  0  0  0  0  0  0  0  0
    3.3275   -1.3728    0.6564 H   0  0  0  0  0  0  0  0  0  0  0  0
    3.7069   -1.3485   -1.0621 H   0  0  0  0  0  0  0  0  0  0  0  0
    1.0507   -1.1200    0.4545 H   0  0  0  0  0  0  0  0  0  0  0  0
    1.4252   -2.2906   -0.8176 H   0  0  0  0  0  0  0  0  0  0  0  0
    2.6823   -0.4607   -2.5565 H   0  0  0  0  0  0  0  0  0  0  0  0
    1.5911    0.7852   -3.1473 H   0  0  0  0  0  0  0  0  0  0  0  0
    2.0126    2.0874   -0.9758 H   0  0  0  0  0  0  0  0  0  0  0  0
    3.4929    1.7097   -1.8549 H   0  0  0  0  0  0  0  0  0  0  0  0
    0.3386    1.1582   -0.2255 H   0  0  0  0  0  0  0  0  0  0  0  0
   -0.1994    1.6438   -2.7859 H   0  0  0  0  0  0  0  0  0  0  0  0
   -1.4797    1.9252   -1.6109 H   0  0  0  0  0  0  0  0  0  0  0  0
   -1.9610    0.3201   -3.7616 H   0  0  0  0  0  0  0  0  0  0  0  0
   -1.2178   -0.9119   -2.6046 H   0  0  0  0  0  0  0  0  0  0  0  0
   -3.4964    0.9960   -2.1092 H   0  0  0  0  0  0  0  0  0  0  0  0
   -3.1782   -0.5916    0.1911 H   0  0  0  0  0  0  0  0  0  0  0  0
   -2.6413    1.0930    0.0691 H   0  0  0  0  0  0  0  0  0  0  0  0
   -0.8973   -0.4486    0.8385 H   0  0  0  0  0  0  0  0  0  0  0  0
   -1.0800   -1.4762   -0.5953 H   0  0  0  0  0  0  0  0  0  0  0  0
   -5.4707   -1.8731   -2.6572 H   0  0  0  0  0  0  0  0  0  0  0  0
   -4.9780   -0.4663   -3.6031 H   0  0  0  0  0  0  0  0  0  0  0  0
   -5.4984    1.0579   -1.7108 H   0  0  0  0  0  0  0  0  0  0  0  0
   -7.2975   -0.6596   -3.2589 H   0  0  0  0  0  0  0  0  0  0  0  0
   -7.5176    1.0407   -2.8049 H   0  0  0  0  0  0  0  0  0  0  0  0
   -7.3304   -0.9843    1.7727 H   0  0  0  0  0  0  0  0  0  0  0  0
   -9.0011   -1.1511    1.0204 H   0  0  0  0  0  0  0  0  0  0  0  0
   -7.4029   -4.3844    1.1080 H   0  0  0  0  0  0  0  0  0  0  0  0
   -7.7524   -3.0364    2.2990 H   0  0  0  0  0  0  0  0  0  0  0  0
   -9.9327   -2.9902    1.7202 H   0  0  0  0  0  0  0  0  0  0  0  0
   -9.9585   -4.0277   -0.8428 H   0  0  0  0  0  0  0  0  0  0  0  0
  -10.2398   -2.2723   -0.3407 H   0  0  0  0  0  0  0  0  0  0  0  0
   -7.8185   -3.6373   -1.2016 H   0  0  0  0  0  0  0  0  0  0  0  0
   -6.9536    1.8569   -0.5841 H   0  0  0  0  0  0  0  0  0  0  0  0
   -6.2750    0.8645    1.7290 H   0  0  0  0  0  0  0  0  0  0  0  0
   -7.5081    2.6249    3.3412 H   0  0  0  0  0  0  0  0  0  0  0  0
   -7.9085    0.9076    3.2867 H   0  0  0  0  0  0  0  0  0  0  0  0
   -9.5054    3.2997    2.4920 H   0  0  0  0  0  0  0  0  0  0  0  0
  -10.3618    0.7763    1.1263 H   0  0  0  0  0  0  0  0  0  0  0  0
  -10.7782    2.4469    0.8189 H   0  0  0  0  0  0  0  0  0  0  0  0
   -9.4343    1.5079   -0.9789 H   0  0  0  0  0  0  0  0  0  0  0  0
   -8.8376    3.0242   -0.2938 H   0  0  0  0  0  0  0  0  0  0  0  0
  1  2  1  0
  3  4  1  0
  4  5  1  0
  5  6  1  0
  5  7  1  0
  7  8  1  0
  8  9  1  0
  2 10  1  0
  8 10  1  0
 10 11  1  0
  7 12  1  0
 11 12  1  0
  1 13  1  0
 13 14  1  0
 14 15  1  0
  2 16  1  0
 15 16  1  0
 14 17  1  0
 17 18  1  0
 18 19  1  0
 19 20  1  0
 20 21  1  0
 17 22  1  0
 21 22  1  0
 20 23  1  0
 23 24  1  0
 24 25  1  0
 25 26  1  0
 26 27  1  0
 23 28  1  0
 27 28  1  0
 26 29  1  0
 29 30  1  0
 30 31  1  0
 31 32  1  0
 32 33  1  0
 33 34  1  0
 31 35  1  0
 34 35  1  0
 34 36  1  1
 36 37  1  0
 37 38  1  0
 38 39  1  0
 40 39  1  0
 37 41  1  0
 40 41  1  0
 34 42  1  0
 42 43  1  0
 43 44  1  0
 44 45  1  0
 45 46  1  0
 42 47  1  0
 46 47  1  0
 45 48  1  0
 43 49  1  0
  1 50  1  0
  1 51  1  0
  2 52  1  0
  3 53  1  0
  3 54  1  0
  3 55  1  0
  4 56  1  0
  4 57  1  0
  5 58  1  6
  6 59  1  0
  6 60  1  0
  6 61  1  0
  8 62  1  0
  9 63  1  0
 11 64  1  0
 11 65  1  0
 12 66  1  0
 13 67  1  0
 13 68  1  0
 14 69  1  0
 15 70  1  0
 15 71  1  0
 16 72  1  0
 16 73  1  0
 18 74  1  0
 18 75  1  0
 19 76  1  0
 19 77  1  0
 21 78  1  0
 21 79  1  0
 22 80  1  0
 22 81  1  0
 23 82  1  0
 24 83  1  0
 24 84  1  0
 25 85  1  0
 25 86  1  0
 26 87  1  0
 27 88  1  0
 27 89  1  0
 28 90  1  0
 28 91  1  0
 30 92  1  0
 30 93  1  0
 31 94  1  1
 32 95  1  0
 32 96  1  0
 36 97  1  0
 36 98  1  0
 38 99  1  0
 38100  1  0
 39101  1  0
 40102  1  0
 40103  1  0
 41104  1  0
 42105  1  0
 43106  1  0
 44107  1  0
 44108  1  0
 45109  1  0
 46110  1  0
 46111  1  0
 47112  1  0
 47113  1  0
M  END
>  <PDBID>  (1) 
5JLC

>  <PDB ID>  (1) 
5JLC

>  <Generic Name>  (1) 
Itraconazole

>  <Brand Name>  (1) 
Itraconazole#Onmel#Sporanox#Sporanox Oral Solution 10mg/ml#Itrizole#Oriconazole#Sporal

>  <DrugBank ID>  (1) 
DB01167

>  <ATC Codes>  (1) 
J02AC02

>  <Ligand ID>  (1) 
1YN

>  <Target Name>  (1) 
Lanosterol 14-alpha demethylase

>  <UniProt ID>  (1) 
P50859

>  <PDB ID.1>  (1) 
5JLC

>  <Seq. Identity>  (1) 
97%

$$$$
