PDB_DB00300_01
     RDKit          3D

 41 42  0  0  0  0  0  0  0  0999 V2000
    4.7092   -0.0137    1.5467 P   0  0  0  0  0  0  0  0  0  0  0  0
    5.8727   -1.1832    1.7410 O   0  0  0  0  0  0  0  0  0  0  0  0
    5.3809    1.3859    0.9638 O   0  0  0  0  0  0  0  0  0  0  0  0
    3.4606   -0.6130    0.4162 C   0  0  0  0  0  0  0  0  0  0  0  0
    2.6133    0.4000    0.0052 O   0  0  0  0  0  0  0  0  0  0  0  0
    1.8540    0.5827   -2.1782 C   0  0  0  0  0  0  0  0  0  0  0  0
    1.6434   -0.1251   -0.8745 C   0  0  2  0  0  0  0  0  0  0  0  0
    0.2884   -0.0441   -0.2691 C   0  0  0  0  0  0  0  0  0  0  0  0
   -0.7314   -0.5890   -1.1036 N   0  0  0  0  0  0  0  0  0  0  0  0
   -1.9423   -0.8555   -0.3233 C   0  0  1  0  0  0  0  0  0  0  0  0
   -1.7479   -1.5733    0.8651 N   0  0  0  0  0  0  0  0  0  0  0  0
   -2.3263   -0.9459    2.0004 C   0  0  0  0  0  0  0  0  0  0  0  0
   -3.7041   -0.5755    1.6408 N   0  0  0  0  0  0  0  0  0  0  0  0
   -3.7436    0.4579    0.6238 C   0  0  0  0  0  0  0  0  0  0  0  0
   -4.7258    0.1040   -0.3543 N   0  0  0  0  0  0  0  0  0  0  0  0
   -2.3603    0.5549    0.0260 C   0  0  0  0  0  0  0  0  0  0  0  0
   -2.2956    1.1644   -1.2619 N   0  0  0  0  0  0  0  0  0  0  0  0
   -1.2869    0.3914   -2.0140 C   0  0  0  0  0  0  0  0  0  0  0  0
    4.1086    0.2446    2.7846 H   0  0  0  0  0  0  0  0  0  0  0  0
    5.5229   -2.0919    1.5140 H   0  0  0  0  0  0  0  0  0  0  0  0
    5.9193    1.1691    0.1700 H   0  0  0  0  0  0  0  0  0  0  0  0
    2.8431   -1.3830    0.9537 H   0  0  0  0  0  0  0  0  0  0  0  0
    3.9761   -1.0640   -0.4693 H   0  0  0  0  0  0  0  0  0  0  0  0
    1.3926   -0.0204   -2.9898 H   0  0  0  0  0  0  0  0  0  0  0  0
    1.5838    1.6357   -2.1425 H   0  0  0  0  0  0  0  0  0  0  0  0
    2.9887    0.5953   -2.3624 H   0  0  0  0  0  0  0  0  0  0  0  0
    1.8856   -1.2178   -0.9790 H   0  0  0  0  0  0  0  0  0  0  0  0
    0.0909    1.0320   -0.0129 H   0  0  0  0  0  0  0  0  0  0  0  0
    0.3468   -0.5540    0.7227 H   0  0  0  0  0  0  0  0  0  0  0  0
   -2.6816   -1.2607   -1.0280 H   0  0  0  0  0  0  0  0  0  0  0  0
   -0.9132   -2.1313    0.9995 H   0  0  0  0  0  0  0  0  0  0  0  0
   -1.7818   -0.1040    2.4379 H   0  0  0  0  0  0  0  0  0  0  0  0
   -2.4517   -1.6987    2.8290 H   0  0  0  0  0  0  0  0  0  0  0  0
   -4.1638   -0.3077    2.5366 H   0  0  0  0  0  0  0  0  0  0  0  0
   -4.0336    1.4257    1.0913 H   0  0  0  0  0  0  0  0  0  0  0  0
   -4.7659    0.7674   -1.1422 H   0  0  0  0  0  0  0  0  0  0  0  0
   -4.6542   -0.8875   -0.6683 H   0  0  0  0  0  0  0  0  0  0  0  0
   -1.7231    1.0506    0.7695 H   0  0  0  0  0  0  0  0  0  0  0  0
   -1.9172    2.1334   -1.2043 H   0  0  0  0  0  0  0  0  0  0  0  0
   -1.9292   -0.2177   -2.7280 H   0  0  0  0  0  0  0  0  0  0  0  0
   -0.6016    1.0348   -2.5321 H   0  0  0  0  0  0  0  0  0  0  0  0
  1  2  1  0
  1  3  1  0
  1  4  1  0
  4  5  1  0
  5  7  1  0
  6  7  1  0
  7  8  1  0
  8  9  1  0
  9 10  1  0
 10 11  1  0
 11 12  1  0
 12 13  1  0
 13 14  1  0
 14 15  1  0
 10 16  1  0
 14 16  1  0
 16 17  1  0
  9 18  1  0
 17 18  1  0
  1 19  1  0
  2 20  1  0
  3 21  1  0
  4 22  1  0
  4 23  1  0
  6 24  1  0
  6 25  1  0
  6 26  1  0
  7 27  1  6
  8 28  1  0
  8 29  1  0
 10 30  1  6
 11 31  1  0
 12 32  1  0
 12 33  1  0
 13 34  1  0
 14 35  1  0
 15 36  1  0
 15 37  1  0
 16 38  1  0
 17 39  1  0
 18 40  1  0
 18 41  1  0
M  END
>  <PDBID>  (1) 
1T03

>  <PDB ID>  (1) 
1T03

>  <Generic Name>  (1) 
Tenofovir

>  <Brand Name>  (1) 
Atripla#Complera#Stribild#Truvada#Viread

>  <DrugBank ID>  (1) 
DB00300

>  <ATC Codes>  (1) 
nan

>  <Ligand ID>  (1) 
TFO

>  <Target Name>  (1) 
Reverse transcriptase/RNaseH

>  <UniProt ID>  (1) 
Q72547

>  <PDB ID.1>  (1) 
1T03

>  <Seq. Identity>  (1) 
95%

$$$$
