PDB_DB08873_09
     RDKit          3D

 91 93  0  0  0  0  0  0  0  0999 V2000
    4.4744    0.4245    0.9897 C   0  0  0  0  0  0  0  0  0  0  0  0
    4.6424    0.8602    2.3392 O   0  0  0  0  0  0  0  0  0  0  0  0
    4.4041    1.5913    0.1747 N   0  0  0  0  0  0  0  0  0  0  0  0
    5.5573    2.4075    0.0808 C   0  0  0  0  0  0  0  0  0  0  0  0
    6.7450    1.6908   -0.5404 C   0  0  0  0  0  0  0  0  0  0  0  0
    5.9667    2.9936    1.3945 C   0  0  0  0  0  0  0  0  0  0  0  0
    5.2655    3.5794   -0.8743 C   0  0  0  0  0  0  0  0  0  0  0  0
    3.1622   -0.1983    0.9796 N   0  0  0  0  0  0  0  0  0  0  0  0
    2.6843   -0.6413   -0.2945 C   0  0  1  0  0  0  0  0  0  0  0  0
    3.3130   -1.8086   -0.9250 C   0  0  0  0  0  0  0  0  0  0  0  0
    4.7726   -1.5807   -1.2342 C   0  0  0  0  0  0  0  0  0  0  0  0
    3.2392   -3.0722   -0.0743 C   0  0  0  0  0  0  0  0  0  0  0  0
    2.6702   -2.1825   -2.2418 C   0  0  0  0  0  0  0  0  0  0  0  0
    1.2267   -0.3991   -0.4492 C   0  0  1  0  0  0  0  0  0  0  0  0
    0.8230   -0.7217   -1.7873 O   0  0  0  0  0  0  0  0  0  0  0  0
    0.3162   -1.0695    0.3910 N   0  0  0  0  0  0  0  0  0  0  0  0
    0.2616   -0.8926    1.7591 C   0  0  0  0  0  0  0  0  0  0  0  0
   -1.0105   -1.1377   -0.1091 C   0  0  1  0  0  0  0  0  0  0  0  0
   -1.7308   -1.9718    0.9179 C   0  0  2  0  0  0  0  0  0  0  0  0
   -0.9107   -1.7657    2.2037 C   0  0  1  0  0  0  0  0  0  0  0  0
   -1.0542   -3.1021    1.6233 C   0  0  0  0  0  0  0  0  0  0  0  0
    0.0949   -3.8081    0.9609 C   0  0  0  0  0  0  0  0  0  0  0  0
   -1.9854   -4.0559    2.3630 C   0  0  0  0  0  0  0  0  0  0  0  0
   -1.7258    0.1884   -0.2865 C   0  0  0  0  0  0  0  0  0  0  0  0
   -1.0315    1.0902   -1.1038 O   0  0  0  0  0  0  0  0  0  0  0  0
   -2.9768   -0.0070   -0.9859 N   0  0  0  0  0  0  0  0  0  0  0  0
   -4.1673    0.4203   -0.3822 C   0  0  1  0  0  0  0  0  0  0  0  0
   -4.3044    1.8924   -0.1074 C   0  0  0  0  0  0  0  0  0  0  0  0
   -5.6666    2.1502    0.4934 C   0  0  0  0  0  0  0  0  0  0  0  0
   -5.9143    3.5959    0.8441 C   0  0  0  0  0  0  0  0  0  0  0  0
   -5.8816    1.7089    1.8956 C   0  0  0  0  0  0  0  0  0  0  0  0
   -6.4676    3.0831    2.1768 C   0  0  0  0  0  0  0  0  0  0  0  0
   -5.4300   -1.4718   -1.1087 O   0  0  0  0  0  0  0  0  0  0  0  0
   -5.4060   -0.0449   -1.1558 C   0  0  0  0  0  0  0  0  0  0  0  0
   -5.2203    1.6983   -2.8257 O   0  0  0  0  0  0  0  0  0  0  0  0
   -6.3094   -0.2263   -3.3773 N   0  0  0  0  0  0  0  0  0  0  0  0
   -5.2125    0.3318   -2.6357 C   0  0  0  0  0  0  0  0  0  0  0  0
    5.2947   -0.2478    0.7825 H   0  0  0  0  0  0  0  0  0  0  0  0
    5.5068    0.5339    2.6916 H   0  0  0  0  0  0  0  0  0  0  0  0
    3.5139    2.0923    0.2190 H   0  0  0  0  0  0  0  0  0  0  0  0
    7.1008    0.8645    0.0740 H   0  0  0  0  0  0  0  0  0  0  0  0
    7.5561    2.4414   -0.6006 H   0  0  0  0  0  0  0  0  0  0  0  0
    6.4990    1.4064   -1.5930 H   0  0  0  0  0  0  0  0  0  0  0  0
    6.7697    2.4080    1.9023 H   0  0  0  0  0  0  0  0  0  0  0  0
    5.0939    3.0949    2.0557 H   0  0  0  0  0  0  0  0  0  0  0  0
    6.4388    3.9974    1.1932 H   0  0  0  0  0  0  0  0  0  0  0  0
    4.8171    4.4136   -0.3296 H   0  0  0  0  0  0  0  0  0  0  0  0
    4.5881    3.2037   -1.6692 H   0  0  0  0  0  0  0  0  0  0  0  0
    6.2073    3.8954   -1.3680 H   0  0  0  0  0  0  0  0  0  0  0  0
    3.2927   -1.0147    1.6511 H   0  0  0  0  0  0  0  0  0  0  0  0
    3.1243    0.2394   -0.9870 H   0  0  0  0  0  0  0  0  0  0  0  0
    4.9455   -0.5371   -1.4736 H   0  0  0  0  0  0  0  0  0  0  0  0
    5.4652   -2.0465   -0.4991 H   0  0  0  0  0  0  0  0  0  0  0  0
    4.9794   -2.1135   -2.2372 H   0  0  0  0  0  0  0  0  0  0  0  0
    4.2583   -3.5205   -0.0729 H   0  0  0  0  0  0  0  0  0  0  0  0
    2.5922   -3.8375   -0.5419 H   0  0  0  0  0  0  0  0  0  0  0  0
    2.9942   -2.8777    0.9600 H   0  0  0  0  0  0  0  0  0  0  0  0
    2.6729   -1.4157   -3.0014 H   0  0  0  0  0  0  0  0  0  0  0  0
    1.7285   -2.7373   -2.0782 H   0  0  0  0  0  0  0  0  0  0  0  0
    3.3419   -3.0049   -2.7009 H   0  0  0  0  0  0  0  0  0  0  0  0
    1.0703    0.7279   -0.3998 H   0  0  0  0  0  0  0  0  0  0  0  0
    1.0514    0.0695   -2.3736 H   0  0  0  0  0  0  0  0  0  0  0  0
   -0.0085    0.1316    2.1189 H   0  0  0  0  0  0  0  0  0  0  0  0
    1.1649   -1.1684    2.3588 H   0  0  0  0  0  0  0  0  0  0  0  0
   -1.0647   -1.6976   -1.0804 H   0  0  0  0  0  0  0  0  0  0  0  0
   -2.8347   -1.8705    1.0187 H   0  0  0  0  0  0  0  0  0  0  0  0
   -1.4420   -1.4698    3.1306 H   0  0  0  0  0  0  0  0  0  0  0  0
    0.9712   -3.9163    1.6227 H   0  0  0  0  0  0  0  0  0  0  0  0
    0.3253   -3.3834   -0.0429 H   0  0  0  0  0  0  0  0  0  0  0  0
   -0.2020   -4.8766    0.7125 H   0  0  0  0  0  0  0  0  0  0  0  0
   -2.0380   -3.7849    3.4427 H   0  0  0  0  0  0  0  0  0  0  0  0
   -1.6406   -5.1041    2.2985 H   0  0  0  0  0  0  0  0  0  0  0  0
   -2.9839   -4.0300    1.9161 H   0  0  0  0  0  0  0  0  0  0  0  0
   -1.8588    0.6453    0.7029 H   0  0  0  0  0  0  0  0  0  0  0  0
   -1.0661    2.0208   -0.7394 H   0  0  0  0  0  0  0  0  0  0  0  0
   -3.0626   -1.0450   -1.1766 H   0  0  0  0  0  0  0  0  0  0  0  0
   -4.2645   -0.0654    0.6335 H   0  0  0  0  0  0  0  0  0  0  0  0
   -4.1266    2.5307   -1.0055 H   0  0  0  0  0  0  0  0  0  0  0  0
   -3.5089    2.2368    0.6142 H   0  0  0  0  0  0  0  0  0  0  0  0
   -6.5160    1.8043   -0.1414 H   0  0  0  0  0  0  0  0  0  0  0  0
   -6.7035    4.1078    0.2739 H   0  0  0  0  0  0  0  0  0  0  0  0
   -4.9858    4.2017    0.9592 H   0  0  0  0  0  0  0  0  0  0  0  0
   -6.6453    0.8877    2.0127 H   0  0  0  0  0  0  0  0  0  0  0  0
   -4.9638    1.4519    2.4179 H   0  0  0  0  0  0  0  0  0  0  0  0
   -7.5611    3.0382    2.2049 H   0  0  0  0  0  0  0  0  0  0  0  0
   -6.0302    3.5551    3.0577 H   0  0  0  0  0  0  0  0  0  0  0  0
   -5.3611   -1.8434   -1.9995 H   0  0  0  0  0  0  0  0  0  0  0  0
   -4.4017    2.0182   -3.3274 H   0  0  0  0  0  0  0  0  0  0  0  0
   -5.9874   -0.3434   -4.3813 H   0  0  0  0  0  0  0  0  0  0  0  0
   -7.1176    0.4293   -3.3285 H   0  0  0  0  0  0  0  0  0  0  0  0
   -4.2027   -0.0447   -2.9652 H   0  0  0  0  0  0  0  0  0  0  0  0
  1  2  1  0
  1  3  1  0
  4  3  1  0
  4  5  1  0
  4  6  1  0
  4  7  1  0
  1  8  1  0
  8  9  1  0
  9 10  1  0
 10 11  1  0
 10 12  1  0
 10 13  1  0
  9 14  1  0
 14 15  1  0
 14 16  1  0
 16 17  1  0
 16 18  1  0
 18 19  1  0
 17 20  1  0
 19 20  1  0
 19 21  1  0
 20 21  1  0
 21 22  1  0
 21 23  1  0
 18 24  1  0
 24 25  1  0
 24 26  1  0
 26 27  1  0
 27 28  1  0
 28 29  1  0
 29 30  1  0
 29 31  1  0
 30 32  1  0
 31 32  1  0
 27 34  1  0
 34 33  1  0
 34 37  1  0
 35 37  1  0
 36 37  1  0
  1 38  1  0
  2 39  1  0
  3 40  1  0
  5 41  1  0
  5 42  1  0
  5 43  1  0
  6 44  1  0
  6 45  1  0
  6 46  1  0
  7 47  1  0
  7 48  1  0
  7 49  1  0
  8 50  1  0
  9 51  1  6
 11 52  1  0
 11 53  1  0
 11 54  1  0
 12 55  1  0
 12 56  1  0
 12 57  1  0
 13 58  1  0
 13 59  1  0
 13 60  1  0
 14 61  1  6
 15 62  1  0
 17 63  1  0
 17 64  1  0
 18 65  1  6
 19 66  1  1
 20 67  1  1
 22 68  1  0
 22 69  1  0
 22 70  1  0
 23 71  1  0
 23 72  1  0
 23 73  1  0
 24 74  1  0
 25 75  1  0
 26 76  1  0
 27 77  1  1
 28 78  1  0
 28 79  1  0
 29 80  1  0
 30 81  1  0
 30 82  1  0
 31 83  1  0
 31 84  1  0
 32 85  1  0
 32 86  1  0
 33 87  1  0
 35 88  1  0
 36 89  1  0
 36 90  1  0
 37 91  1  0
M  END
>  <PDBID>  (1) 
2OC8

>  <PDB ID>  (1) 
2OC8

>  <Generic Name>  (1) 
Boceprevir

>  <Brand Name>  (1) 
Victrelis#Victrelis Triple

>  <DrugBank ID>  (1) 
DB08873

>  <ATC Codes>  (1) 
J05AE12

>  <Ligand ID>  (1) 
HU5

>  <Target Name>  (1) 
Genome polyprotein

>  <UniProt ID>  (1) 
B0B3C9

>  <PDB ID.1>  (1) 
2OC8

>  <Seq. Identity>  (1) 
69%

$$$$
