PDB_DB01764_03
     RDKit          3D

354360  0  0  0  0  0  0  0  0999 V2000
   -1.2226   -1.9830    1.3811 O   0  0  0  0  0  0  0  0  0  0  0  0
   -0.4581   -1.4452    0.3360 C   0  0  0  0  0  0  0  0  0  0  0  0
   -1.2683   -0.9190   -0.7177 N   0  0  0  0  0  0  0  0  0  0  0  0
   -2.0387   -1.8714   -1.4363 C   0  0  0  0  0  0  0  0  0  0  0  0
   -3.4918   -1.4622   -1.3771 C   0  0  0  0  0  0  0  0  0  0  0  0
   -3.5143   -0.1330   -0.7063 C   0  0  1  0  0  0  0  0  0  0  0  0
   -4.6428   -0.0764    0.5856 S   0  0  0  0  0  0  0  0  0  0  0  0
   -4.7869    1.1309    1.2923 O   0  0  0  0  0  0  0  0  0  0  0  0
   -4.3049   -1.4708    1.5184 O   0  0  0  0  0  0  0  0  0  0  0  0
   -6.1960   -0.5316   -0.2439 C   0  0  0  0  0  0  0  0  0  0  0  0
   -7.2363   -0.5066    0.8398 C   0  0  0  0  0  0  0  0  0  0  0  0
   -8.5324   -0.8370    0.3571 N   0  0  0  0  0  0  0  0  0  0  0  0
   -9.5421   -0.8465    1.3647 C   0  0  0  0  0  0  0  0  0  0  0  0
   -9.8494    0.5168    1.9164 C   0  0  0  0  0  0  0  0  0  0  0  0
   -8.6177   -1.9200   -0.5628 C   0  0  0  0  0  0  0  0  0  0  0  0
   -8.3094   -3.2719   -0.0075 C   0  0  0  0  0  0  0  0  0  0  0  0
   -2.0913    0.1540   -0.2814 C   0  0  2  0  0  0  0  0  0  0  0  0
    0.5127   -2.5035   -0.0892 C   0  0  2  0  0  0  0  0  0  0  0  0
    0.2911   -3.8242    0.6392 C   0  0  0  0  0  0  0  0  0  0  0  0
    1.5369   -4.2530    1.0470 O   0  0  0  0  0  0  0  0  0  0  0  0
    1.8819   -2.2004    0.2827 N   0  0  0  0  0  0  0  0  0  0  0  0
    2.5006   -3.4787    0.4502 C   0  0  0  0  0  0  0  0  0  0  0  0
    2.9080   -4.1489   -0.8367 C   0  0  0  0  0  0  0  0  0  0  0  0
    4.4084   -4.4569   -0.7779 C   0  0  1  0  0  0  0  0  0  0  0  0
    4.7827   -5.3438   -1.7880 O   0  0  0  0  0  0  0  0  0  0  0  0
    5.1272   -3.1644   -1.0127 C   0  0  0  0  0  0  0  0  0  0  0  0
    6.4605   -3.0988   -0.2850 C   0  0  2  0  0  0  0  0  0  0  0  0
    6.3547   -3.6285    0.9881 O   0  0  0  0  0  0  0  0  0  0  0  0
    6.9571   -1.6873   -0.3053 C   0  0  0  0  0  0  0  0  0  0  0  0
    6.9432   -1.0175    1.0402 C   0  0  2  0  0  0  0  0  0  0  0  0
    5.6084   -0.9995    1.7018 C   0  0  0  0  0  0  0  0  0  0  0  0
    7.4157    0.4003    0.8584 C   0  0  0  0  0  0  0  0  0  0  0  0
    6.4062    1.2462    0.1209 C   0  0  0  0  0  0  0  0  0  0  0  0
    5.9341    2.3306    1.0643 C   0  0  0  0  0  0  0  0  0  0  0  0
    4.5039    2.4228    0.9958 N   0  0  0  0  0  0  0  0  0  0  0  0
    4.0735    3.5877    0.2847 C   0  0  2  0  0  0  0  0  0  0  0  0
    5.0573    4.5362    0.0955 O   0  0  0  0  0  0  0  0  0  0  0  0
    2.8206    4.1895    0.9391 C   0  0  0  0  0  0  0  0  0  0  0  0
    1.7458    3.1427    0.8350 C   0  0  0  0  0  0  0  0  0  0  0  0
    0.3527    3.6754    0.7819 C   0  0  1  0  0  0  0  0  0  0  0  0
    0.2679    5.1440    1.1679 C   0  0  0  0  0  0  0  0  0  0  0  0
   -0.4364    3.3292   -0.4242 C   0  0  1  0  0  0  0  0  0  0  0  0
   -0.1458    3.9883   -1.7050 C   0  0  0  0  0  0  0  0  0  0  0  0
    1.2222    3.8253   -2.2717 C   0  0  0  0  0  0  0  0  0  0  0  0
   -0.5342    5.4386   -1.7877 C   0  0  0  0  0  0  0  0  0  0  0  0
   -0.4474    1.9290   -0.5501 O   0  0  0  0  0  0  0  0  0  0  0  0
   -1.7107    1.4912   -0.8343 C   0  0  0  0  0  0  0  0  0  0  0  0
   -1.8370    1.3903   -2.2338 O   0  0  0  0  0  0  0  0  0  0  0  0
   -1.2226   -1.9830    1.3811 O   0  0  0  0  0  0  0  0  0  0  0  0
   -0.4581   -1.4452    0.3360 C   0  0  0  0  0  0  0  0  0  0  0  0
   -1.2683   -0.9190   -0.7177 N   0  0  0  0  0  0  0  0  0  0  0  0
   -2.0387   -1.8714   -1.4363 C   0  0  0  0  0  0  0  0  0  0  0  0
   -3.4918   -1.4622   -1.3771 C   0  0  0  0  0  0  0  0  0  0  0  0
   -3.5143   -0.1330   -0.7063 C   0  0  1  0  0  0  0  0  0  0  0  0
   -4.6428   -0.0764    0.5856 S   0  0  0  0  0  0  0  0  0  0  0  0
   -4.7869    1.1309    1.2923 O   0  0  0  0  0  0  0  0  0  0  0  0
   -4.3049   -1.4708    1.5184 O   0  0  0  0  0  0  0  0  0  0  0  0
   -6.1960   -0.5316   -0.2439 C   0  0  0  0  0  0  0  0  0  0  0  0
   -7.2363   -0.5066    0.8398 C   0  0  0  0  0  0  0  0  0  0  0  0
   -8.5324   -0.8370    0.3571 N   0  0  0  0  0  0  0  0  0  0  0  0
   -9.5421   -0.8465    1.3647 C   0  0  0  0  0  0  0  0  0  0  0  0
   -9.8494    0.5168    1.9164 C   0  0  0  0  0  0  0  0  0  0  0  0
   -8.6177   -1.9200   -0.5628 C   0  0  0  0  0  0  0  0  0  0  0  0
   -8.3094   -3.2719   -0.0075 C   0  0  0  0  0  0  0  0  0  0  0  0
   -2.0913    0.1540   -0.2814 C   0  0  2  0  0  0  0  0  0  0  0  0
    0.5127   -2.5035   -0.0892 C   0  0  2  0  0  0  0  0  0  0  0  0
    0.2911   -3.8242    0.6392 C   0  0  0  0  0  0  0  0  0  0  0  0
    1.5369   -4.2530    1.0470 O   0  0  0  0  0  0  0  0  0  0  0  0
    1.8819   -2.2004    0.2827 N   0  0  0  0  0  0  0  0  0  0  0  0
    2.5006   -3.4787    0.4502 C   0  0  0  0  0  0  0  0  0  0  0  0
    2.9080   -4.1489   -0.8367 C   0  0  0  0  0  0  0  0  0  0  0  0
    4.4084   -4.4569   -0.7779 C   0  0  1  0  0  0  0  0  0  0  0  0
    4.7827   -5.3438   -1.7880 O   0  0  0  0  0  0  0  0  0  0  0  0
    5.1272   -3.1644   -1.0127 C   0  0  0  0  0  0  0  0  0  0  0  0
    6.4605   -3.0988   -0.2850 C   0  0  2  0  0  0  0  0  0  0  0  0
    6.3547   -3.6285    0.9881 O   0  0  0  0  0  0  0  0  0  0  0  0
    6.9571   -1.6873   -0.3053 C   0  0  0  0  0  0  0  0  0  0  0  0
    6.9432   -1.0175    1.0402 C   0  0  2  0  0  0  0  0  0  0  0  0
    5.6084   -0.9995    1.7018 C   0  0  0  0  0  0  0  0  0  0  0  0
    7.4157    0.4003    0.8584 C   0  0  0  0  0  0  0  0  0  0  0  0
    6.4062    1.2462    0.1209 C   0  0  0  0  0  0  0  0  0  0  0  0
    5.9341    2.3306    1.0643 C   0  0  0  0  0  0  0  0  0  0  0  0
    4.5039    2.4228    0.9958 N   0  0  0  0  0  0  0  0  0  0  0  0
    4.0735    3.5877    0.2847 C   0  0  2  0  0  0  0  0  0  0  0  0
    5.0573    4.5362    0.0955 O   0  0  0  0  0  0  0  0  0  0  0  0
    2.8206    4.1895    0.9391 C   0  0  0  0  0  0  0  0  0  0  0  0
    1.7458    3.1427    0.8350 C   0  0  0  0  0  0  0  0  0  0  0  0
    0.3527    3.6754    0.7819 C   0  0  1  0  0  0  0  0  0  0  0  0
    0.2679    5.1440    1.1679 C   0  0  0  0  0  0  0  0  0  0  0  0
   -0.4364    3.3292   -0.4242 C   0  0  1  0  0  0  0  0  0  0  0  0
   -0.1458    3.9883   -1.7050 C   0  0  0  0  0  0  0  0  0  0  0  0
    1.2222    3.8253   -2.2717 C   0  0  0  0  0  0  0  0  0  0  0  0
   -0.5342    5.4386   -1.7877 C   0  0  0  0  0  0  0  0  0  0  0  0
   -0.4474    1.9290   -0.5501 O   0  0  0  0  0  0  0  0  0  0  0  0
   -1.7107    1.4912   -0.8343 C   0  0  0  0  0  0  0  0  0  0  0  0
   -1.8370    1.3903   -2.2338 O   0  0  0  0  0  0  0  0  0  0  0  0
    0.6474   -0.5521    0.9263 O   0  0  0  0  0  0  0  0  0  0  0  0
   -0.2412   -1.3123    0.1246 C   0  0  1  0  0  0  0  0  0  0  0  0
   -1.0542   -0.3760   -0.5622 N   0  0  0  0  0  0  0  0  0  0  0  0
   -1.7687   -0.8288   -1.7032 C   0  0  0  0  0  0  0  0  0  0  0  0
   -3.2162   -0.3887   -1.5467 C   0  0  0  0  0  0  0  0  0  0  0  0
   -3.3869   -0.1743   -0.0792 C   0  0  1  0  0  0  0  0  0  0  0  0
   -3.9921   -1.5546    0.6942 S   0  0  0  0  0  0  0  0  0  0  0  0
   -4.0796   -1.5386    2.1962 O   0  0  0  0  0  0  0  0  0  0  0  0
   -3.2403   -2.9174    0.0691 O   0  0  0  0  0  0  0  0  0  0  0  0
   -5.6488   -1.7577   -0.0085 C   0  0  0  0  0  0  0  0  0  0  0  0
   -6.4638   -0.5507    0.3233 C   0  0  0  0  0  0  0  0  0  0  0  0
   -7.7606   -0.6940   -0.1992 N   0  0  0  0  0  0  0  0  0  0  0  0
   -8.7101    0.3301    0.0362 C   0  0  0  0  0  0  0  0  0  0  0  0
   -9.1408    0.4703    1.4842 C   0  0  0  0  0  0  0  0  0  0  0  0
   -8.3212   -1.9768   -0.3441 C   0  0  0  0  0  0  0  0  0  0  0  0
   -8.6393   -2.7135    0.9314 C   0  0  0  0  0  0  0  0  0  0  0  0
   -1.9773    0.2026    0.3842 C   0  0  2  0  0  0  0  0  0  0  0  0
    0.5586   -2.2656   -0.6915 C   0  0  2  0  0  0  0  0  0  0  0  0
   -0.0281   -3.6710   -0.6788 C   0  0  0  0  0  0  0  0  0  0  0  0
    1.0474   -4.5304   -0.5182 O   0  0  0  0  0  0  0  0  0  0  0  0
    1.8080   -2.5035    0.0029 N   0  0  0  0  0  0  0  0  0  0  0  0
    2.2056   -3.8083   -0.4539 C   0  0  1  0  0  0  0  0  0  0  0  0
    3.1661   -4.4699    0.5233 C   0  0  0  0  0  0  0  0  0  0  0  0
    4.4970   -4.7502   -0.0934 C   0  0  1  0  0  0  0  0  0  0  0  0
    4.4427   -5.7162   -1.0827 O   0  0  0  0  0  0  0  0  0  0  0  0
    5.1422   -3.5039   -0.6688 C   0  0  0  0  0  0  0  0  0  0  0  0
    6.4712   -3.2299   -0.0011 C   0  0  2  0  0  0  0  0  0  0  0  0
    6.4879   -3.6805    1.3212 O   0  0  0  0  0  0  0  0  0  0  0  0
    6.8361   -1.7884   -0.1371 C   0  0  0  0  0  0  0  0  0  0  0  0
    6.7467   -1.0207    1.1592 C   0  0  2  0  0  0  0  0  0  0  0  0
    5.3870   -1.0133    1.7699 C   0  0  0  0  0  0  0  0  0  0  0  0
    7.2688    0.3747    0.9052 C   0  0  0  0  0  0  0  0  0  0  0  0
    6.3758    1.1867    0.0175 C   0  0  0  0  0  0  0  0  0  0  0  0
    5.6606    2.2145    0.8831 C   0  0  0  0  0  0  0  0  0  0  0  0
    4.2338    2.1295    0.7451 N   0  0  0  0  0  0  0  0  0  0  0  0
    3.6636    3.2904    0.1166 C   0  0  2  0  0  0  0  0  0  0  0  0
    4.6070    4.2510   -0.2018 O   0  0  0  0  0  0  0  0  0  0  0  0
    2.5678    3.9118    0.9934 C   0  0  0  0  0  0  0  0  0  0  0  0
    1.3192    3.1458    0.7258 C   0  0  0  0  0  0  0  0  0  0  0  0
    0.0680    3.9815    0.6815 C   0  0  1  0  0  0  0  0  0  0  0  0
    0.3383    5.4552    0.7787 C   0  0  0  0  0  0  0  0  0  0  0  0
   -0.8815    3.5758   -0.3688 C   0  0  1  0  0  0  0  0  0  0  0  0
   -0.7103    4.0755   -1.7471 C   0  0  0  0  0  0  0  0  0  0  0  0
    0.5916    3.7220   -2.4161 C   0  0  0  0  0  0  0  0  0  0  0  0
   -1.0646    5.5292   -1.9749 C   0  0  0  0  0  0  0  0  0  0  0  0
   -0.8914    2.1707   -0.4189 O   0  0  0  0  0  0  0  0  0  0  0  0
   -1.8457    1.6811    0.4624 C   0  0  0  0  0  0  0  0  0  0  0  0
   -3.0486    2.3502    0.1409 O   0  0  0  0  0  0  0  0  0  0  0  0
   -1.8797   -2.5921    0.9124 H   0  0  0  0  0  0  0  0  0  0  0  0
    0.1182   -0.6017    0.7799 H   0  0  0  0  0  0  0  0  0  0  0  0
   -1.7443   -1.7952   -2.5244 H   0  0  0  0  0  0  0  0  0  0  0  0
   -1.9688   -2.9066   -1.0958 H   0  0  0  0  0  0  0  0  0  0  0  0
   -4.0925   -2.2005   -0.8032 H   0  0  0  0  0  0  0  0  0  0  0  0
   -3.9658   -1.4517   -2.4014 H   0  0  0  0  0  0  0  0  0  0  0  0
   -3.8529    0.6292   -1.4691 H   0  0  0  0  0  0  0  0  0  0  0  0
   -4.6635    1.3751    2.2347 H   0  0  0  0  0  0  0  0  0  0  0  0
   -5.0398   -2.1271    1.4230 H   0  0  0  0  0  0  0  0  0  0  0  0
   -6.3864    0.2165   -1.0301 H   0  0  0  0  0  0  0  0  0  0  0  0
   -6.0629   -1.5141   -0.7202 H   0  0  0  0  0  0  0  0  0  0  0  0
   -7.2542    0.5544    1.2228 H   0  0  0  0  0  0  0  0  0  0  0  0
   -6.8648   -1.1501    1.6646 H   0  0  0  0  0  0  0  0  0  0  0  0
  -10.4821   -1.3314    1.0014 H   0  0  0  0  0  0  0  0  0  0  0  0
   -9.1759   -1.4712    2.2070 H   0  0  0  0  0  0  0  0  0  0  0  0
   -9.3164    1.3302    1.3801 H   0  0  0  0  0  0  0  0  0  0  0  0
  -10.9254    0.7199    1.7902 H   0  0  0  0  0  0  0  0  0  0  0  0
   -9.6609    0.5673    3.0183 H   0  0  0  0  0  0  0  0  0  0  0  0
   -8.0354   -1.7048   -1.4919 H   0  0  0  0  0  0  0  0  0  0  0  0
   -9.6890   -1.9502   -0.9178 H   0  0  0  0  0  0  0  0  0  0  0  0
   -9.2186   -3.8224    0.3499 H   0  0  0  0  0  0  0  0  0  0  0  0
   -7.8836   -3.9278   -0.8192 H   0  0  0  0  0  0  0  0  0  0  0  0
   -7.6079   -3.2522    0.8347 H   0  0  0  0  0  0  0  0  0  0  0  0
   -2.1029    0.2084    0.8290 H   0  0  0  0  0  0  0  0  0  0  0  0
    0.5224   -2.6548   -1.1965 H   0  0  0  0  0  0  0  0  0  0  0  0
   -0.2139   -4.5361   -0.0438 H   0  0  0  0  0  0  0  0  0  0  0  0
   -0.2982   -3.6737    1.5874 H   0  0  0  0  0  0  0  0  0  0  0  0
    1.9451   -1.6898    1.1749 H   0  0  0  0  0  0  0  0  0  0  0  0
    3.3684   -3.4492    1.1581 H   0  0  0  0  0  0  0  0  0  0  0  0
    2.4238   -5.1626   -0.9464 H   0  0  0  0  0  0  0  0  0  0  0  0
    2.7108   -3.5690   -1.7362 H   0  0  0  0  0  0  0  0  0  0  0  0
    4.6843   -4.8741    0.2195 H   0  0  0  0  0  0  0  0  0  0  0  0
    4.5523   -6.2816   -1.5299 H   0  0  0  0  0  0  0  0  0  0  0  0
    5.3633   -2.9970   -2.1039 H   0  0  0  0  0  0  0  0  0  0  0  0
    4.4968   -2.3245   -0.7137 H   0  0  0  0  0  0  0  0  0  0  0  0
    7.1495   -3.7594   -0.8614 H   0  0  0  0  0  0  0  0  0  0  0  0
    7.2184   -3.5515    1.4400 H   0  0  0  0  0  0  0  0  0  0  0  0
    6.4055   -1.1072   -1.0652 H   0  0  0  0  0  0  0  0  0  0  0  0
    8.0233   -1.6959   -0.6479 H   0  0  0  0  0  0  0  0  0  0  0  0
    7.6580   -1.5212    1.7133 H   0  0  0  0  0  0  0  0  0  0  0  0
    5.6467   -0.1977    2.4974 H   0  0  0  0  0  0  0  0  0  0  0  0
    5.3516   -1.9300    2.2425 H   0  0  0  0  0  0  0  0  0  0  0  0
    4.7774   -0.7161    1.0434 H   0  0  0  0  0  0  0  0  0  0  0  0
    8.3412    0.3748    0.2621 H   0  0  0  0  0  0  0  0  0  0  0  0
    7.6763    0.8058    1.8532 H   0  0  0  0  0  0  0  0  0  0  0  0
    6.8640    1.7204   -0.7872 H   0  0  0  0  0  0  0  0  0  0  0  0
    5.5479    0.6405   -0.2690 H   0  0  0  0  0  0  0  0  0  0  0  0
    6.4484    3.2767    0.8035 H   0  0  0  0  0  0  0  0  0  0  0  0
    6.2031    2.1103    2.1230 H   0  0  0  0  0  0  0  0  0  0  0  0
    4.0389    1.5444    0.7199 H   0  0  0  0  0  0  0  0  0  0  0  0
    3.7422    3.2544   -0.7399 H   0  0  0  0  0  0  0  0  0  0  0  0
    5.5516    4.3478   -0.7492 H   0  0  0  0  0  0  0  0  0  0  0  0
    2.6252    5.1164    0.4023 H   0  0  0  0  0  0  0  0  0  0  0  0
    3.0605    4.4584    1.9928 H   0  0  0  0  0  0  0  0  0  0  0  0
    1.9264    2.4573    1.7193 H   0  0  0  0  0  0  0  0  0  0  0  0
    1.9023    2.4653   -0.0430 H   0  0  0  0  0  0  0  0  0  0  0  0
   -0.1996    3.1645    1.6384 H   0  0  0  0  0  0  0  0  0  0  0  0
    0.7420    5.2003    2.1925 H   0  0  0  0  0  0  0  0  0  0  0  0
    0.7223    5.8270    0.4591 H   0  0  0  0  0  0  0  0  0  0  0  0
   -0.8181    5.3473    1.3725 H   0  0  0  0  0  0  0  0  0  0  0  0
   -1.5061    3.6200   -0.1701 H   0  0  0  0  0  0  0  0  0  0  0  0
   -0.8216    3.4712   -2.4600 H   0  0  0  0  0  0  0  0  0  0  0  0
    1.5430    2.7586   -2.3867 H   0  0  0  0  0  0  0  0  0  0  0  0
    1.1504    4.1840   -3.3469 H   0  0  0  0  0  0  0  0  0  0  0  0
    1.9902    4.4693   -1.8227 H   0  0  0  0  0  0  0  0  0  0  0  0
   -1.2098    5.7586   -0.9564 H   0  0  0  0  0  0  0  0  0  0  0  0
   -1.1349    5.6768   -2.7173 H   0  0  0  0  0  0  0  0  0  0  0  0
    0.3559    6.1204   -1.8858 H   0  0  0  0  0  0  0  0  0  0  0  0
   -2.4429    2.2390   -0.4180 H   0  0  0  0  0  0  0  0  0  0  0  0
   -1.1879    0.6906   -2.4987 H   0  0  0  0  0  0  0  0  0  0  0  0
   -1.8797   -2.5921    0.9124 H   0  0  0  0  0  0  0  0  0  0  0  0
    0.1182   -0.6017    0.7799 H   0  0  0  0  0  0  0  0  0  0  0  0
   -1.7443   -1.7952   -2.5244 H   0  0  0  0  0  0  0  0  0  0  0  0
   -1.9688   -2.9066   -1.0958 H   0  0  0  0  0  0  0  0  0  0  0  0
   -4.0925   -2.2005   -0.8032 H   0  0  0  0  0  0  0  0  0  0  0  0
   -3.9658   -1.4517   -2.4014 H   0  0  0  0  0  0  0  0  0  0  0  0
   -3.8529    0.6292   -1.4691 H   0  0  0  0  0  0  0  0  0  0  0  0
   -4.6635    1.3751    2.2347 H   0  0  0  0  0  0  0  0  0  0  0  0
   -5.0398   -2.1271    1.4230 H   0  0  0  0  0  0  0  0  0  0  0  0
   -6.3864    0.2165   -1.0301 H   0  0  0  0  0  0  0  0  0  0  0  0
   -6.0629   -1.5141   -0.7202 H   0  0  0  0  0  0  0  0  0  0  0  0
   -7.2542    0.5544    1.2228 H   0  0  0  0  0  0  0  0  0  0  0  0
   -6.8648   -1.1501    1.6646 H   0  0  0  0  0  0  0  0  0  0  0  0
  -10.4821   -1.3314    1.0014 H   0  0  0  0  0  0  0  0  0  0  0  0
   -9.1759   -1.4712    2.2070 H   0  0  0  0  0  0  0  0  0  0  0  0
   -9.3164    1.3302    1.3801 H   0  0  0  0  0  0  0  0  0  0  0  0
  -10.9254    0.7199    1.7902 H   0  0  0  0  0  0  0  0  0  0  0  0
   -9.6609    0.5673    3.0183 H   0  0  0  0  0  0  0  0  0  0  0  0
   -8.0354   -1.7048   -1.4919 H   0  0  0  0  0  0  0  0  0  0  0  0
   -9.6890   -1.9502   -0.9178 H   0  0  0  0  0  0  0  0  0  0  0  0
   -9.2186   -3.8224    0.3499 H   0  0  0  0  0  0  0  0  0  0  0  0
   -7.8836   -3.9278   -0.8192 H   0  0  0  0  0  0  0  0  0  0  0  0
   -7.6079   -3.2522    0.8347 H   0  0  0  0  0  0  0  0  0  0  0  0
   -2.1029    0.2084    0.8290 H   0  0  0  0  0  0  0  0  0  0  0  0
    0.5224   -2.6548   -1.1965 H   0  0  0  0  0  0  0  0  0  0  0  0
   -0.2139   -4.5361   -0.0438 H   0  0  0  0  0  0  0  0  0  0  0  0
   -0.2982   -3.6737    1.5874 H   0  0  0  0  0  0  0  0  0  0  0  0
    1.9451   -1.6898    1.1749 H   0  0  0  0  0  0  0  0  0  0  0  0
    3.3684   -3.4492    1.1581 H   0  0  0  0  0  0  0  0  0  0  0  0
    2.4238   -5.1626   -0.9464 H   0  0  0  0  0  0  0  0  0  0  0  0
    2.7108   -3.5690   -1.7362 H   0  0  0  0  0  0  0  0  0  0  0  0
    4.6843   -4.8741    0.2195 H   0  0  0  0  0  0  0  0  0  0  0  0
    4.5523   -6.2816   -1.5299 H   0  0  0  0  0  0  0  0  0  0  0  0
    5.3633   -2.9970   -2.1039 H   0  0  0  0  0  0  0  0  0  0  0  0
    4.4968   -2.3245   -0.7137 H   0  0  0  0  0  0  0  0  0  0  0  0
    7.1495   -3.7594   -0.8614 H   0  0  0  0  0  0  0  0  0  0  0  0
    7.2184   -3.5515    1.4400 H   0  0  0  0  0  0  0  0  0  0  0  0
    6.4055   -1.1072   -1.0652 H   0  0  0  0  0  0  0  0  0  0  0  0
    8.0233   -1.6959   -0.6479 H   0  0  0  0  0  0  0  0  0  0  0  0
    7.6580   -1.5212    1.7133 H   0  0  0  0  0  0  0  0  0  0  0  0
    5.6467   -0.1977    2.4974 H   0  0  0  0  0  0  0  0  0  0  0  0
    5.3516   -1.9300    2.2425 H   0  0  0  0  0  0  0  0  0  0  0  0
    4.7774   -0.7161    1.0434 H   0  0  0  0  0  0  0  0  0  0  0  0
    8.3412    0.3748    0.2621 H   0  0  0  0  0  0  0  0  0  0  0  0
    7.6763    0.8058    1.8532 H   0  0  0  0  0  0  0  0  0  0  0  0
    6.8640    1.7204   -0.7872 H   0  0  0  0  0  0  0  0  0  0  0  0
    5.5479    0.6405   -0.2690 H   0  0  0  0  0  0  0  0  0  0  0  0
    6.4484    3.2767    0.8035 H   0  0  0  0  0  0  0  0  0  0  0  0
    6.2031    2.1103    2.1230 H   0  0  0  0  0  0  0  0  0  0  0  0
    4.0389    1.5444    0.7199 H   0  0  0  0  0  0  0  0  0  0  0  0
    3.7422    3.2544   -0.7399 H   0  0  0  0  0  0  0  0  0  0  0  0
    5.5516    4.3478   -0.7492 H   0  0  0  0  0  0  0  0  0  0  0  0
    2.6252    5.1164    0.4023 H   0  0  0  0  0  0  0  0  0  0  0  0
    3.0605    4.4584    1.9928 H   0  0  0  0  0  0  0  0  0  0  0  0
    1.9264    2.4573    1.7193 H   0  0  0  0  0  0  0  0  0  0  0  0
    1.9023    2.4653   -0.0430 H   0  0  0  0  0  0  0  0  0  0  0  0
   -0.1996    3.1645    1.6384 H   0  0  0  0  0  0  0  0  0  0  0  0
    0.7420    5.2003    2.1925 H   0  0  0  0  0  0  0  0  0  0  0  0
    0.7223    5.8270    0.4591 H   0  0  0  0  0  0  0  0  0  0  0  0
   -0.8181    5.3473    1.3725 H   0  0  0  0  0  0  0  0  0  0  0  0
   -1.5061    3.6200   -0.1701 H   0  0  0  0  0  0  0  0  0  0  0  0
   -0.8216    3.4712   -2.4600 H   0  0  0  0  0  0  0  0  0  0  0  0
    1.5430    2.7586   -2.3867 H   0  0  0  0  0  0  0  0  0  0  0  0
    1.1504    4.1840   -3.3469 H   0  0  0  0  0  0  0  0  0  0  0  0
    1.9902    4.4693   -1.8227 H   0  0  0  0  0  0  0  0  0  0  0  0
   -1.2098    5.7586   -0.9564 H   0  0  0  0  0  0  0  0  0  0  0  0
   -1.1349    5.6768   -2.7173 H   0  0  0  0  0  0  0  0  0  0  0  0
    0.3559    6.1204   -1.8858 H   0  0  0  0  0  0  0  0  0  0  0  0
   -2.4429    2.2390   -0.4180 H   0  0  0  0  0  0  0  0  0  0  0  0
   -1.1879    0.6906   -2.4987 H   0  0  0  0  0  0  0  0  0  0  0  0
    0.3074   -0.4187    1.8274 H   0  0  0  0  0  0  0  0  0  0  0  0
   -0.8152   -1.9269    0.8767 H   0  0  0  0  0  0  0  0  0  0  0  0
   -1.3664   -0.2902   -2.6017 H   0  0  0  0  0  0  0  0  0  0  0  0
   -1.6774   -1.8877   -1.9330 H   0  0  0  0  0  0  0  0  0  0  0  0
   -3.8263   -1.2513   -1.9238 H   0  0  0  0  0  0  0  0  0  0  0  0
   -3.4377    0.4789   -2.1799 H   0  0  0  0  0  0  0  0  0  0  0  0
   -4.0270    0.7008    0.1012 H   0  0  0  0  0  0  0  0  0  0  0  0
   -4.8755   -1.9546    2.6503 H   0  0  0  0  0  0  0  0  0  0  0  0
   -3.8690   -3.6026   -0.2490 H   0  0  0  0  0  0  0  0  0  0  0  0
   -5.5421   -1.9215   -1.1070 H   0  0  0  0  0  0  0  0  0  0  0  0
   -6.0712   -2.6618    0.4926 H   0  0  0  0  0  0  0  0  0  0  0  0
   -5.9768    0.3390   -0.1711 H   0  0  0  0  0  0  0  0  0  0  0  0
   -6.4474   -0.4363    1.4283 H   0  0  0  0  0  0  0  0  0  0  0  0
   -8.3212    1.3449   -0.2641 H   0  0  0  0  0  0  0  0  0  0  0  0
   -9.6425    0.2024   -0.5554 H   0  0  0  0  0  0  0  0  0  0  0  0
   -8.2468    0.8290    2.0739 H   0  0  0  0  0  0  0  0  0  0  0  0
   -9.8797    1.2976    1.5433 H   0  0  0  0  0  0  0  0  0  0  0  0
   -9.4984   -0.4602    1.9239 H   0  0  0  0  0  0  0  0  0  0  0  0
   -7.7599   -2.6366   -1.0627 H   0  0  0  0  0  0  0  0  0  0  0  0
   -9.3216   -1.8404   -0.8610 H   0  0  0  0  0  0  0  0  0  0  0  0
   -9.7396   -2.7005    1.1717 H   0  0  0  0  0  0  0  0  0  0  0  0
   -8.4130   -3.7924    0.7489 H   0  0  0  0  0  0  0  0  0  0  0  0
   -8.0618   -2.3684    1.7984 H   0  0  0  0  0  0  0  0  0  0  0  0
   -1.8058   -0.2120    1.4169 H   0  0  0  0  0  0  0  0  0  0  0  0
    0.8001   -1.9304   -1.7100 H   0  0  0  0  0  0  0  0  0  0  0  0
   -0.5304   -3.9540   -1.6024 H   0  0  0  0  0  0  0  0  0  0  0  0
   -0.6676   -3.7885    0.2451 H   0  0  0  0  0  0  0  0  0  0  0  0
    1.6414   -2.5265    1.0387 H   0  0  0  0  0  0  0  0  0  0  0  0
    2.6766   -3.7019   -1.4557 H   0  0  0  0  0  0  0  0  0  0  0  0
    2.7375   -5.4297    0.8589 H   0  0  0  0  0  0  0  0  0  0  0  0
    3.3069   -3.8567    1.4312 H   0  0  0  0  0  0  0  0  0  0  0  0
    5.1733   -5.1368    0.7151 H   0  0  0  0  0  0  0  0  0  0  0  0
    3.6537   -6.2959   -1.0269 H   0  0  0  0  0  0  0  0  0  0  0  0
    5.3309   -3.5980   -1.7543 H   0  0  0  0  0  0  0  0  0  0  0  0
    4.4103   -2.6823   -0.5317 H   0  0  0  0  0  0  0  0  0  0  0  0
    7.2191   -3.8688   -0.5462 H   0  0  0  0  0  0  0  0  0  0  0  0
    7.4450   -3.5980    1.6116 H   0  0  0  0  0  0  0  0  0  0  0  0
    6.2217   -1.3335   -0.9470 H   0  0  0  0  0  0  0  0  0  0  0  0
    7.8895   -1.7126   -0.4773 H   0  0  0  0  0  0  0  0  0  0  0  0
    7.4391   -1.5016    1.8748 H   0  0  0  0  0  0  0  0  0  0  0  0
    5.3732   -0.2211    2.5526 H   0  0  0  0  0  0  0  0  0  0  0  0
    5.2322   -1.9790    2.3119 H   0  0  0  0  0  0  0  0  0  0  0  0
    4.5558   -0.8945    1.0604 H   0  0  0  0  0  0  0  0  0  0  0  0
    8.2997    0.2569    0.5007 H   0  0  0  0  0  0  0  0  0  0  0  0
    7.3989    0.8429    1.9222 H   0  0  0  0  0  0  0  0  0  0  0  0
    7.0039    1.6726   -0.7646 H   0  0  0  0  0  0  0  0  0  0  0  0
    5.6192    0.5741   -0.5285 H   0  0  0  0  0  0  0  0  0  0  0  0
    6.0306    3.2234    0.5837 H   0  0  0  0  0  0  0  0  0  0  0  0
    5.9148    2.0758    1.9665 H   0  0  0  0  0  0  0  0  0  0  0  0
    4.0317    1.2714    0.1722 H   0  0  0  0  0  0  0  0  0  0  0  0
    3.1629    2.9908   -0.8288 H   0  0  0  0  0  0  0  0  0  0  0  0
    4.9653    4.0356   -1.0988 H   0  0  0  0  0  0  0  0  0  0  0  0
    2.5477    4.9685    0.7402 H   0  0  0  0  0  0  0  0  0  0  0  0
    2.9250    3.7925    2.0551 H   0  0  0  0  0  0  0  0  0  0  0  0
    1.2643    2.3254    1.4946 H   0  0  0  0  0  0  0  0  0  0  0  0
    1.3648    2.5834   -0.2480 H   0  0  0  0  0  0  0  0  0  0  0  0
   -0.4648    3.7527    1.6613 H   0  0  0  0  0  0  0  0  0  0  0  0
    0.8973    5.6043    1.7508 H   0  0  0  0  0  0  0  0  0  0  0  0
    0.9014    5.8710   -0.0481 H   0  0  0  0  0  0  0  0  0  0  0  0
   -0.6477    5.9572    0.9697 H   0  0  0  0  0  0  0  0  0  0  0  0
   -1.9130    3.8837   -0.0485 H   0  0  0  0  0  0  0  0  0  0  0  0
   -1.4833    3.5027   -2.3568 H   0  0  0  0  0  0  0  0  0  0  0  0
    1.4623    4.2344   -1.9800 H   0  0  0  0  0  0  0  0  0  0  0  0
    0.7023    2.6425   -2.5519 H   0  0  0  0  0  0  0  0  0  0  0  0
    0.5157    4.1508   -3.4618 H   0  0  0  0  0  0  0  0  0  0  0  0
   -1.6846    5.9747   -1.1886 H   0  0  0  0  0  0  0  0  0  0  0  0
   -1.6702    5.6688   -2.9231 H   0  0  0  0  0  0  0  0  0  0  0  0
   -0.1276    6.1122   -2.1943 H   0  0  0  0  0  0  0  0  0  0  0  0
   -1.5782    2.0299    1.5017 H   0  0  0  0  0  0  0  0  0  0  0  0
   -3.0589    2.4198   -0.8470 H   0  0  0  0  0  0  0  0  0  0  0  0
  1  2  1  0
  2  3  1  0
  3  4  1  0
  4  5  1  0
  5  6  1  0
  6  7  1  0
  7  8  1  0
  7  9  1  0
  7 10  1  0
 10 11  1  0
 11 12  1  0
 12 13  1  0
 13 14  1  0
 12 15  1  0
 15 16  1  0
  3 17  1  0
  6 17  1  0
  2 18  1  0
 18 19  1  0
 19 20  1  0
 18 21  1  0
 20 22  1  0
 21 22  1  0
 22 23  1  0
 23 24  1  0
 24 25  1  0
 24 26  1  0
 26 27  1  0
 27 28  1  0
 27 29  1  0
 29 30  1  0
 30 31  1  0
 30 32  1  0
 32 33  1  0
 33 34  1  0
 34 35  1  0
 35 36  1  0
 36 37  1  0
 36 38  1  0
 38 39  1  0
 39 40  1  0
 40 41  1  0
 40 42  1  0
 42 43  1  0
 43 44  1  0
 43 45  1  0
 42 46  1  0
 17 47  1  0
 46 47  1  0
 47 48  1  0
 49 50  1  0
 50 51  1  0
 51 52  1  0
 52 53  1  0
 53 54  1  0
 54 55  1  0
 55 56  1  0
 55 57  1  0
 55 58  1  0
 58 59  1  0
 59 60  1  0
 60 61  1  0
 61 62  1  0
 60 63  1  0
 63 64  1  0
 51 65  1  0
 54 65  1  0
 50 66  1  0
 66 67  1  0
 67 68  1  0
 66 69  1  0
 68 70  1  0
 69 70  1  0
 70 71  1  0
 71 72  1  0
 72 73  1  0
 72 74  1  0
 74 75  1  0
 75 76  1  0
 75 77  1  0
 77 78  1  0
 78 79  1  0
 78 80  1  0
 80 81  1  0
 81 82  1  0
 82 83  1  0
 83 84  1  0
 84 85  1  0
 84 86  1  0
 86 87  1  0
 87 88  1  0
 88 89  1  0
 88 90  1  0
 90 91  1  0
 91 92  1  0
 91 93  1  0
 90 94  1  0
 65 95  1  0
 94 95  1  0
 95 96  1  0
 97 98  1  0
 98 99  1  0
 99100  1  0
100101  1  0
101102  1  0
102103  1  0
103104  1  0
103105  1  0
103106  1  0
106107  1  0
107108  1  0
108109  1  0
109110  1  0
108111  1  0
111112  1  0
 99113  1  0
102113  1  0
 98114  1  0
114115  1  0
115116  1  0
114117  1  0
116118  1  0
117118  1  0
118119  1  0
119120  1  0
120121  1  0
120122  1  0
122123  1  0
123124  1  0
123125  1  0
125126  1  0
126127  1  0
126128  1  0
128129  1  0
129130  1  0
130131  1  0
131132  1  0
132133  1  0
132134  1  0
134135  1  0
135136  1  0
136137  1  0
136138  1  0
138139  1  0
139140  1  0
139141  1  0
138142  1  0
113143  1  0
142143  1  0
143144  1  0
  1145  1  0
  2146  1  0
  4147  1  0
  4148  1  0
  5149  1  0
  5150  1  0
  6151  1  6
  8152  1  0
  9153  1  0
 10154  1  0
 10155  1  0
 11156  1  0
 11157  1  0
 13158  1  0
 13159  1  0
 14160  1  0
 14161  1  0
 14162  1  0
 15163  1  0
 15164  1  0
 16165  1  0
 16166  1  0
 16167  1  0
 17168  1  1
 18169  1  6
 19170  1  0
 19171  1  0
 21172  1  0
 22173  1  0
 23174  1  0
 23175  1  0
 24176  1  1
 25177  1  0
 26178  1  0
 26179  1  0
 27180  1  6
 28181  1  0
 29182  1  0
 29183  1  0
 30184  1  1
 31185  1  0
 31186  1  0
 31187  1  0
 32188  1  0
 32189  1  0
 33190  1  0
 33191  1  0
 34192  1  0
 34193  1  0
 35194  1  0
 36195  1  6
 37196  1  0
 38197  1  0
 38198  1  0
 39199  1  0
 39200  1  0
 40201  1  1
 41202  1  0
 41203  1  0
 41204  1  0
 42205  1  1
 43206  1  0
 44207  1  0
 44208  1  0
 44209  1  0
 45210  1  0
 45211  1  0
 45212  1  0
 47213  1  0
 48214  1  0
 49215  1  0
 50216  1  0
 52217  1  0
 52218  1  0
 53219  1  0
 53220  1  0
 54221  1  6
 56222  1  0
 57223  1  0
 58224  1  0
 58225  1  0
 59226  1  0
 59227  1  0
 61228  1  0
 61229  1  0
 62230  1  0
 62231  1  0
 62232  1  0
 63233  1  0
 63234  1  0
 64235  1  0
 64236  1  0
 64237  1  0
 65238  1  1
 66239  1  6
 67240  1  0
 67241  1  0
 69242  1  0
 70243  1  0
 71244  1  0
 71245  1  0
 72246  1  1
 73247  1  0
 74248  1  0
 74249  1  0
 75250  1  6
 76251  1  0
 77252  1  0
 77253  1  0
 78254  1  1
 79255  1  0
 79256  1  0
 79257  1  0
 80258  1  0
 80259  1  0
 81260  1  0
 81261  1  0
 82262  1  0
 82263  1  0
 83264  1  0
 84265  1  6
 85266  1  0
 86267  1  0
 86268  1  0
 87269  1  0
 87270  1  0
 88271  1  1
 89272  1  0
 89273  1  0
 89274  1  0
 90275  1  1
 91276  1  0
 92277  1  0
 92278  1  0
 92279  1  0
 93280  1  0
 93281  1  0
 93282  1  0
 95283  1  0
 96284  1  0
 97285  1  0
 98286  1  1
100287  1  0
100288  1  0
101289  1  0
101290  1  0
102291  1  6
104292  1  0
105293  1  0
106294  1  0
106295  1  0
107296  1  0
107297  1  0
109298  1  0
109299  1  0
110300  1  0
110301  1  0
110302  1  0
111303  1  0
111304  1  0
112305  1  0
112306  1  0
112307  1  0
113308  1  1
114309  1  6
115310  1  0
115311  1  0
117312  1  0
118313  1  6
119314  1  0
119315  1  0
120316  1  1
121317  1  0
122318  1  0
122319  1  0
123320  1  6
124321  1  0
125322  1  0
125323  1  0
126324  1  1
127325  1  0
127326  1  0
127327  1  0
128328  1  0
128329  1  0
129330  1  0
129331  1  0
130332  1  0
130333  1  0
131334  1  0
132335  1  6
133336  1  0
134337  1  0
134338  1  0
135339  1  0
135340  1  0
136341  1  1
137342  1  0
137343  1  0
137344  1  0
138345  1  1
139346  1  0
140347  1  0
140348  1  0
140349  1  0
141350  1  0
141351  1  0
141352  1  0
143353  1  0
144354  1  0
M  END
>  <PDBID>  (1) 
1MRL

>  <PDB ID>  (1) 
1MRL

>  <Generic Name>  (1) 
Dalfopristin

>  <Brand Name>  (1) 
Synercid

>  <DrugBank ID>  (1) 
DB01764

>  <ATC Codes>  (1) 
nan

>  <Ligand ID>  (1) 
DOL

>  <Target Name>  (1) 
Streptogramin A acetyltransferase

>  <UniProt ID>  (1) 
P50870

>  <PDB ID.1>  (1) 
1MRL

>  <Seq. Identity>  (1) 
100%

$$$$
