PDB_DB00238_05
     RDKit          3D

 48 51  0  0  0  0  0  0  0  0999 V2000
   -0.4525    0.8088   -0.0734 N   0  0  0  0  0  0  0  0  0  0  0  0
   -0.9193    2.1642    0.2128 C   0  0  0  0  0  0  0  0  0  0  0  0
   -1.8009    2.8551   -0.7952 C   0  0  0  0  0  0  0  0  0  0  0  0
   -0.3919    3.3317   -0.5045 C   0  0  0  0  0  0  0  0  0  0  0  0
    1.5697    1.9275    0.2986 N   0  0  0  0  0  0  0  0  0  0  0  0
    2.9868    1.9169    0.2859 C   0  0  0  0  0  0  0  0  0  0  0  0
    3.6401    0.7259   -0.3354 C   0  0  0  0  0  0  0  0  0  0  0  0
    3.0207   -0.4981    0.3293 C   0  0  0  0  0  0  0  0  0  0  0  0
    3.7508   -1.7649    0.0125 C   0  0  0  0  0  0  0  0  0  0  0  0
    0.9051    0.6750    0.4528 C   0  0  2  0  0  0  0  0  0  0  0  0
    1.5895   -0.4942   -0.1840 C   0  0  2  0  0  0  0  0  0  0  0  0
    0.9562   -1.7118    0.2689 N   0  0  0  0  0  0  0  0  0  0  0  0
   -0.1744   -1.9171   -0.6340 C   0  0  0  0  0  0  0  0  0  0  0  0
   -0.2822   -3.3037   -0.8120 O   0  0  0  0  0  0  0  0  0  0  0  0
   -1.4198   -1.4622    0.0555 C   0  0  1  0  0  0  0  0  0  0  0  0
   -1.3886   -0.0683    0.5756 C   0  0  2  0  0  0  0  0  0  0  0  0
   -2.5990   -1.7464   -0.8548 C   0  0  0  0  0  0  0  0  0  0  0  0
   -3.8324   -1.6459    0.0025 C   0  0  0  0  0  0  0  0  0  0  0  0
   -3.7620   -0.3919    0.8514 C   0  0  0  0  0  0  0  0  0  0  0  0
   -2.7166    0.5074    0.3696 N   0  0  0  0  0  0  0  0  0  0  0  0
   -1.1889    2.2784    1.2899 H   0  0  0  0  0  0  0  0  0  0  0  0
   -2.6618    3.3931   -0.3700 H   0  0  0  0  0  0  0  0  0  0  0  0
   -1.9129    2.4494   -1.8106 H   0  0  0  0  0  0  0  0  0  0  0  0
    0.3705    3.2760   -1.2932 H   0  0  0  0  0  0  0  0  0  0  0  0
   -0.3823    4.3055    0.0474 H   0  0  0  0  0  0  0  0  0  0  0  0
    1.2734    2.5285    1.1144 H   0  0  0  0  0  0  0  0  0  0  0  0
    3.3853    2.0168    1.3202 H   0  0  0  0  0  0  0  0  0  0  0  0
    3.3329    2.8132   -0.2893 H   0  0  0  0  0  0  0  0  0  0  0  0
    3.3822    0.6315   -1.4207 H   0  0  0  0  0  0  0  0  0  0  0  0
    4.7229    0.7953   -0.1606 H   0  0  0  0  0  0  0  0  0  0  0  0
    2.9711   -0.3138    1.4118 H   0  0  0  0  0  0  0  0  0  0  0  0
    4.8500   -1.5567    0.0479 H   0  0  0  0  0  0  0  0  0  0  0  0
    3.4593   -2.2382   -0.9363 H   0  0  0  0  0  0  0  0  0  0  0  0
    3.5690   -2.4631    0.8689 H   0  0  0  0  0  0  0  0  0  0  0  0
    0.8148    0.4463    1.5430 H   0  0  0  0  0  0  0  0  0  0  0  0
    1.6203   -0.4038   -1.2833 H   0  0  0  0  0  0  0  0  0  0  0  0
    1.6616   -2.4796    0.1150 H   0  0  0  0  0  0  0  0  0  0  0  0
   -0.0073   -1.4785   -1.6266 H   0  0  0  0  0  0  0  0  0  0  0  0
   -0.3081   -3.7012    0.1043 H   0  0  0  0  0  0  0  0  0  0  0  0
   -1.5670   -2.1403    0.9353 H   0  0  0  0  0  0  0  0  0  0  0  0
   -1.2178   -0.0410    1.6755 H   0  0  0  0  0  0  0  0  0  0  0  0
   -2.6209   -1.1161   -1.7515 H   0  0  0  0  0  0  0  0  0  0  0  0
   -2.5002   -2.8211   -1.1525 H   0  0  0  0  0  0  0  0  0  0  0  0
   -3.7855   -2.5080    0.7148 H   0  0  0  0  0  0  0  0  0  0  0  0
   -4.7744   -1.7332   -0.5538 H   0  0  0  0  0  0  0  0  0  0  0  0
   -3.5455   -0.5945    1.9083 H   0  0  0  0  0  0  0  0  0  0  0  0
   -4.7181    0.1475    0.6906 H   0  0  0  0  0  0  0  0  0  0  0  0
   -2.9020    0.5997   -0.6613 H   0  0  0  0  0  0  0  0  0  0  0  0
  1  2  1  0
  2  3  1  0
  2  4  1  0
  3  4  1  0
  5  6  1  0
  6  7  1  0
  7  8  1  0
  8  9  1  0
  1 10  1  0
  5 10  1  0
  8 11  1  0
 10 11  1  0
 11 12  1  0
 12 13  1  0
 13 14  1  0
 13 15  1  0
  1 16  1  0
 15 16  1  0
 15 17  1  0
 17 18  1  0
 18 19  1  0
 16 20  1  0
 19 20  1  0
  2 21  1  0
  3 22  1  0
  3 23  1  0
  4 24  1  0
  4 25  1  0
  5 26  1  0
  6 27  1  0
  6 28  1  0
  7 29  1  0
  7 30  1  0
  8 31  1  0
  9 32  1  0
  9 33  1  0
  9 34  1  0
 10 35  1  1
 11 36  1  6
 12 37  1  0
 13 38  1  0
 14 39  1  0
 15 40  1  1
 16 41  1  1
 17 42  1  0
 17 43  1  0
 18 44  1  0
 18 45  1  0
 19 46  1  0
 19 47  1  0
 20 48  1  0
M  END
>  <PDBID>  (1) 
2HND

>  <PDB ID>  (1) 
2HND

>  <Generic Name>  (1) 
Nevirapine

>  <Brand Name>  (1) 
Apo-nevirapine#Apo-nevirapine XR#Apo-zidovudine-lamivudine-nevirapine#Auro-nevirapine#Mylan-nevirapine#Nevirapine#Nevirapine Extended Release#PMS-nevirapine#Teva-nevirapine#Viramune#Viramune XR

>  <DrugBank ID>  (1) 
DB00238

>  <ATC Codes>  (1) 
J05AR05#J05AG01#J05AR07

>  <Ligand ID>  (1) 
NVP

>  <Target Name>  (1) 
Reverse transcriptase/RNaseH

>  <UniProt ID>  (1) 
Q72547

>  <PDB ID.1>  (1) 
2HND

>  <Seq. Identity>  (1) 
96%

$$$$
