PDB_DB01597_02
     RDKit          3D

 82 82  0  0  0  0  0  0  0  0999 V2000
   -3.1143    1.1550   -1.2470 C   0  0  0  0  0  0  0  0  0  0  0  0
   -2.1852    0.8798   -0.0900 C   0  0  1  0  0  0  0  0  0  0  0  0
   -3.5364    0.3823    0.0205 C   0  0  0  0  0  0  0  0  0  0  0  0
   -4.0282   -0.9865   -0.2920 C   0  0  0  0  0  0  0  0  0  0  0  0
   -4.4697    1.1349    0.9826 C   0  0  0  0  0  0  0  0  0  0  0  0
   -0.9495    0.0365   -0.3257 C   0  0  0  0  0  0  0  0  0  0  0  0
   -0.2495   -0.0778    0.8847 N   0  0  0  0  0  0  0  0  0  0  0  0
    1.1029   -0.5456    0.8677 C   0  0  0  0  0  0  0  0  0  0  0  0
    2.0124    0.3801    0.1100 C   0  0  0  0  0  0  0  0  0  0  0  0
   -1.3190   -1.2707   -0.7265 O   0  0  0  0  0  0  0  0  0  0  0  0
    1.2887   -1.9381    0.4117 C   0  0  0  0  0  0  0  0  0  0  0  0
    0.5698   -2.8754    1.1700 O   0  0  0  0  0  0  0  0  0  0  0  0
    1.1468   -2.1315   -0.9496 O   0  0  0  0  0  0  0  0  0  0  0  0
    3.4155   -0.1645    0.1305 C   0  0  0  0  0  0  0  0  0  0  0  0
    4.3702    0.7954   -0.5876 C   0  0  0  0  0  0  0  0  0  0  0  0
    4.3767    2.1378    0.0728 C   0  0  0  0  0  0  0  0  0  0  0  0
   -3.1143    1.1550   -1.2470 C   0  0  0  0  0  0  0  0  0  0  0  0
   -2.1852    0.8798   -0.0900 C   0  0  1  0  0  0  0  0  0  0  0  0
   -3.5364    0.3823    0.0205 C   0  0  0  0  0  0  0  0  0  0  0  0
   -4.0282   -0.9865   -0.2920 C   0  0  0  0  0  0  0  0  0  0  0  0
   -4.4697    1.1349    0.9826 C   0  0  0  0  0  0  0  0  0  0  0  0
   -0.9495    0.0365   -0.3257 C   0  0  0  0  0  0  0  0  0  0  0  0
   -0.2495   -0.0778    0.8847 N   0  0  0  0  0  0  0  0  0  0  0  0
    1.1029   -0.5456    0.8677 C   0  0  0  0  0  0  0  0  0  0  0  0
    2.0124    0.3801    0.1100 C   0  0  0  0  0  0  0  0  0  0  0  0
   -1.3190   -1.2707   -0.7265 O   0  0  0  0  0  0  0  0  0  0  0  0
    1.2887   -1.9381    0.4117 C   0  0  0  0  0  0  0  0  0  0  0  0
    0.5698   -2.8754    1.1700 O   0  0  0  0  0  0  0  0  0  0  0  0
    1.1468   -2.1315   -0.9496 O   0  0  0  0  0  0  0  0  0  0  0  0
    3.4155   -0.1645    0.1305 C   0  0  0  0  0  0  0  0  0  0  0  0
    4.3702    0.7954   -0.5876 C   0  0  0  0  0  0  0  0  0  0  0  0
    4.3767    2.1378    0.0728 C   0  0  0  0  0  0  0  0  0  0  0  0
   -2.9066    0.5840   -2.1603 H   0  0  0  0  0  0  0  0  0  0  0  0
   -3.6124    2.1196   -1.3600 H   0  0  0  0  0  0  0  0  0  0  0  0
   -1.9346    1.8156    0.4655 H   0  0  0  0  0  0  0  0  0  0  0  0
   -3.6308   -1.4349   -1.2114 H   0  0  0  0  0  0  0  0  0  0  0  0
   -5.1399   -0.8802   -0.4893 H   0  0  0  0  0  0  0  0  0  0  0  0
   -4.0042   -1.6915    0.5902 H   0  0  0  0  0  0  0  0  0  0  0  0
   -4.9156    2.0061    0.4846 H   0  0  0  0  0  0  0  0  0  0  0  0
   -3.8309    1.5466    1.8193 H   0  0  0  0  0  0  0  0  0  0  0  0
   -5.1955    0.4691    1.4669 H   0  0  0  0  0  0  0  0  0  0  0  0
   -0.3338    0.5265   -1.0908 H   0  0  0  0  0  0  0  0  0  0  0  0
   -0.7702   -0.2381    1.7432 H   0  0  0  0  0  0  0  0  0  0  0  0
    1.4548   -0.5021    1.9421 H   0  0  0  0  0  0  0  0  0  0  0  0
    1.6536    0.4477   -0.9602 H   0  0  0  0  0  0  0  0  0  0  0  0
    1.9888    1.4166    0.5054 H   0  0  0  0  0  0  0  0  0  0  0  0
   -1.6587   -1.6858    0.1189 H   0  0  0  0  0  0  0  0  0  0  0  0
    2.3630   -2.2254    0.6588 H   0  0  0  0  0  0  0  0  0  0  0  0
    0.2897   -3.5830    0.5037 H   0  0  0  0  0  0  0  0  0  0  0  0
    1.7577   -2.8554   -1.2737 H   0  0  0  0  0  0  0  0  0  0  0  0
    3.4789   -1.1462   -0.4106 H   0  0  0  0  0  0  0  0  0  0  0  0
    3.8170   -0.3209    1.1397 H   0  0  0  0  0  0  0  0  0  0  0  0
    5.3805    0.3478   -0.4635 H   0  0  0  0  0  0  0  0  0  0  0  0
    4.1649    0.8426   -1.6586 H   0  0  0  0  0  0  0  0  0  0  0  0
    3.8266    2.1510    1.0502 H   0  0  0  0  0  0  0  0  0  0  0  0
    5.4035    2.5071    0.2980 H   0  0  0  0  0  0  0  0  0  0  0  0
    3.9231    2.8714   -0.6310 H   0  0  0  0  0  0  0  0  0  0  0  0
   -2.9066    0.5840   -2.1603 H   0  0  0  0  0  0  0  0  0  0  0  0
   -3.6124    2.1196   -1.3600 H   0  0  0  0  0  0  0  0  0  0  0  0
   -1.9346    1.8156    0.4655 H   0  0  0  0  0  0  0  0  0  0  0  0
   -3.6308   -1.4349   -1.2114 H   0  0  0  0  0  0  0  0  0  0  0  0
   -5.1399   -0.8802   -0.4893 H   0  0  0  0  0  0  0  0  0  0  0  0
   -4.0042   -1.6915    0.5902 H   0  0  0  0  0  0  0  0  0  0  0  0
   -4.9156    2.0061    0.4846 H   0  0  0  0  0  0  0  0  0  0  0  0
   -3.8309    1.5466    1.8193 H   0  0  0  0  0  0  0  0  0  0  0  0
   -5.1955    0.4691    1.4669 H   0  0  0  0  0  0  0  0  0  0  0  0
   -0.3338    0.5265   -1.0908 H   0  0  0  0  0  0  0  0  0  0  0  0
   -0.7702   -0.2381    1.7432 H   0  0  0  0  0  0  0  0  0  0  0  0
    1.4548   -0.5021    1.9421 H   0  0  0  0  0  0  0  0  0  0  0  0
    1.6536    0.4477   -0.9602 H   0  0  0  0  0  0  0  0  0  0  0  0
    1.9888    1.4166    0.5054 H   0  0  0  0  0  0  0  0  0  0  0  0
   -1.6587   -1.6858    0.1189 H   0  0  0  0  0  0  0  0  0  0  0  0
    2.3630   -2.2254    0.6588 H   0  0  0  0  0  0  0  0  0  0  0  0
    0.2897   -3.5830    0.5037 H   0  0  0  0  0  0  0  0  0  0  0  0
    1.7577   -2.8554   -1.2737 H   0  0  0  0  0  0  0  0  0  0  0  0
    3.4789   -1.1462   -0.4106 H   0  0  0  0  0  0  0  0  0  0  0  0
    3.8170   -0.3209    1.1397 H   0  0  0  0  0  0  0  0  0  0  0  0
    5.3805    0.3478   -0.4635 H   0  0  0  0  0  0  0  0  0  0  0  0
    4.1649    0.8426   -1.6586 H   0  0  0  0  0  0  0  0  0  0  0  0
    3.8266    2.1510    1.0502 H   0  0  0  0  0  0  0  0  0  0  0  0
    5.4035    2.5071    0.2980 H   0  0  0  0  0  0  0  0  0  0  0  0
    3.9231    2.8714   -0.6310 H   0  0  0  0  0  0  0  0  0  0  0  0
  1  2  1  0
  1  3  1  0
  2  3  1  0
  3  4  1  0
  3  5  1  0
  2  6  1  0
  6  7  1  0
  7  8  1  0
  8  9  1  0
  6 10  1  0
  8 11  1  0
 11 12  1  0
 11 13  1  0
  9 14  1  0
 14 15  1  0
 15 16  1  0
 17 18  1  0
 17 19  1  0
 18 19  1  0
 19 20  1  0
 19 21  1  0
 18 22  1  0
 22 23  1  0
 23 24  1  0
 24 25  1  0
 22 26  1  0
 24 27  1  0
 27 28  1  0
 27 29  1  0
 25 30  1  0
 30 31  1  0
 31 32  1  0
  1 33  1  0
  1 34  1  0
  2 35  1  1
  4 36  1  0
  4 37  1  0
  4 38  1  0
  5 39  1  0
  5 40  1  0
  5 41  1  0
  6 42  1  0
  7 43  1  0
  8 44  1  0
  9 45  1  0
  9 46  1  0
 10 47  1  0
 11 48  1  0
 12 49  1  0
 13 50  1  0
 14 51  1  0
 14 52  1  0
 15 53  1  0
 15 54  1  0
 16 55  1  0
 16 56  1  0
 16 57  1  0
 17 58  1  0
 17 59  1  0
 18 60  1  1
 20 61  1  0
 20 62  1  0
 20 63  1  0
 21 64  1  0
 21 65  1  0
 21 66  1  0
 22 67  1  0
 23 68  1  0
 24 69  1  0
 25 70  1  0
 25 71  1  0
 26 72  1  0
 27 73  1  0
 28 74  1  0
 29 75  1  0
 30 76  1  0
 30 77  1  0
 31 78  1  0
 31 79  1  0
 32 80  1  0
 32 81  1  0
 32 82  1  0
M  END
>  <PDBID>  (1) 
1ITU

>  <PDB ID>  (1) 
1ITU

>  <Generic Name>  (1) 
Cilastatin

>  <Brand Name>  (1) 
Imipenem and Cilastatin#Imipenem and Cilastatin for Injection#Imipenem and Cilastatin for Injection USP#Imipenem and Cilastatin for Injection, USP#Primaxin 250#Primaxin 500#Primaxin IV#Primaxin IV 250/250 Add-vantage Vial#Primaxin IV 500#Ran-imipenem-cilastatin

>  <DrugBank ID>  (1) 
DB01597

>  <ATC Codes>  (1) 
nan

>  <Ligand ID>  (1) 
CIL

>  <Target Name>  (1) 
Dipeptidase 1

>  <UniProt ID>  (1) 
P16444

>  <PDB ID.1>  (1) 
1ITU

>  <Seq. Identity>  (1) 
100%

$$$$
