PDB_DB06290_08
     RDKit          3D

492516  0  0  0  0  0  0  0  0999 V2000
   -0.4918    0.6609   -0.7736 C   0  0  0  0  0  0  0  0  0  0  0  0
   -1.6367   -0.2610   -1.1138 C   0  0  2  0  0  0  0  0  0  0  0  0
   -1.9057   -1.1072    0.0709 C   0  0  1  0  0  0  0  0  0  0  0  0
   -0.5769   -1.1409    0.8555 C   0  0  0  0  0  0  0  0  0  0  0  0
    0.1730    0.1005    0.4375 C   0  0  1  0  0  0  0  0  0  0  0  0
   -2.9514   -0.6517    1.0195 C   0  0  1  0  0  0  0  0  0  0  0  0
   -2.3249    0.2743    1.8975 O   0  0  0  0  0  0  0  0  0  0  0  0
   -4.0955   -0.0094    0.5260 N   0  0  0  0  0  0  0  0  0  0  0  0
   -1.2070   -1.1319   -2.3061 C   0  0  0  0  0  0  0  0  0  0  0  0
   -0.7181   -0.3755   -3.3391 O   0  0  0  0  0  0  0  0  0  0  0  0
   -5.5169   -0.7919   -1.1956 C   0  0  1  0  0  0  0  0  0  0  0  0
   -6.4135   -0.6587    1.2298 C   0  0  0  0  0  0  0  0  0  0  0  0
   -2.3600   -1.9279   -2.7585 N   0  0  0  0  0  0  0  0  0  0  0  0
   -2.6255   -1.7394   -4.1760 C   0  0  0  0  0  0  0  0  0  0  0  0
   -2.0147   -3.3503   -2.5977 C   0  0  0  0  0  0  0  0  0  0  0  0
   -5.2678   -0.7773    0.2498 C   0  0  2  0  0  0  0  0  0  0  0  0
   -5.1843   -2.0730   -0.4433 C   0  0  0  0  0  0  0  0  0  0  0  0
   -6.8898   -0.7302   -1.7165 C   0  0  0  0  0  0  0  0  0  0  0  0
   -3.4459   -0.5544   -4.5048 C   0  0  0  0  0  0  0  0  0  0  0  0
   -4.8876   -0.7811   -4.8070 C   0  0  0  0  0  0  0  0  0  0  0  0
   -5.6904   -1.5067   -3.8067 C   0  0  0  0  0  0  0  0  0  0  0  0
   -6.8361   -0.6885   -3.2327 C   0  0  0  0  0  0  0  0  0  0  0  0
    1.4717   -0.2535    0.0739 O   0  0  0  0  0  0  0  0  0  0  0  0
    4.5772   -2.5624    2.8108 C   0  0  0  0  0  0  0  0  0  0  0  0
    4.2037   -2.8937    1.3830 C   0  0  0  0  0  0  0  0  0  0  0  0
    3.6480   -1.7110    0.6557 C   0  0  0  0  0  0  0  0  0  0  0  0
    3.1546   -0.6897    1.6589 C   0  0  0  0  0  0  0  0  0  0  0  0
    4.3214   -0.1026    2.3884 C   0  0  0  0  0  0  0  0  0  0  0  0
    5.1983   -1.1946    2.9185 C   0  0  0  0  0  0  0  0  0  0  0  0
    2.3433    0.3703    0.9477 C   0  0  0  0  0  0  0  0  0  0  0  0
    3.2385    1.2801    0.1259 C   0  0  0  0  0  0  0  0  0  0  0  0
    4.2960    1.8519    1.0669 C   0  0  1  0  0  0  0  0  0  0  0  0
    5.1285    0.7556    1.5237 N   0  0  0  0  0  0  0  0  0  0  0  0
    5.0984    2.8363    0.2837 C   0  0  1  0  0  0  0  0  0  0  0  0
    6.4123    3.5894    1.3306 S   0  0  0  0  0  0  0  0  0  0  0  0
    7.7960    3.3740    0.1344 C   0  0  0  0  0  0  0  0  0  0  0  0
    6.9696    3.0024   -1.1022 C   0  0  2  0  0  0  0  0  0  0  0  0
    5.9503    2.0856   -0.6467 N   0  0  0  0  0  0  0  0  0  0  0  0
    7.8050    2.2863   -2.1215 C   0  0  0  0  0  0  0  0  0  0  0  0
    8.9370    3.1991   -2.5386 C   0  0  0  0  0  0  0  0  0  0  0  0
    8.4088    1.0193   -1.5950 C   0  0  0  0  0  0  0  0  0  0  0  0
    5.4893   -3.4826    3.3291 O   0  0  0  0  0  0  0  0  0  0  0  0
    4.9670   -4.1965    4.3997 C   0  0  0  0  0  0  0  0  0  0  0  0
    6.5598   -1.2340    2.2646 C   0  0  0  0  0  0  0  0  0  0  0  0
   -7.0649    0.5803    1.3113 N   0  0  0  0  0  0  0  0  0  0  0  0
   -6.0289   -1.0507    2.5144 O   0  0  0  0  0  0  0  0  0  0  0  0
   -6.4108    1.9202    1.8118 S   0  0  0  0  0  0  0  0  0  0  0  0
   -6.5995    2.2181    3.4937 C   0  0  0  0  0  0  0  0  0  0  0  0
   -7.8224    3.0795    1.2312 O   0  0  0  0  0  0  0  0  0  0  0  0
   -5.2632    2.5677    1.2200 O   0  0  0  0  0  0  0  0  0  0  0  0
   -7.6630    3.1443    4.0383 C   0  0  0  0  0  0  0  0  0  0  0  0
   -6.2775    3.6675    3.9392 C   0  0  0  0  0  0  0  0  0  0  0  0
   -0.2626    1.2701   -0.9282 C   0  0  0  0  0  0  0  0  0  0  0  0
   -1.4315    0.3904   -1.3061 C   0  0  2  0  0  0  0  0  0  0  0  0
   -1.9156   -0.3086   -0.1032 C   0  0  1  0  0  0  0  0  0  0  0  0
   -0.8191   -0.1750    0.9198 C   0  0  0  0  0  0  0  0  0  0  0  0
    0.2715    0.6985    0.3673 C   0  0  1  0  0  0  0  0  0  0  0  0
   -3.2077    0.3175    0.4522 C   0  0  0  0  0  0  0  0  0  0  0  0
   -2.7447    1.2274    1.4589 O   0  0  0  0  0  0  0  0  0  0  0  0
   -4.1142   -0.5263    1.0398 N   0  0  0  0  0  0  0  0  0  0  0  0
   -1.0537   -0.4209   -2.4983 C   0  0  0  0  0  0  0  0  0  0  0  0
   -0.9295    0.4929   -3.5678 O   0  0  0  0  0  0  0  0  0  0  0  0
   -5.5522   -0.6539   -0.9095 C   0  0  1  0  0  0  0  0  0  0  0  0
   -6.3566   -1.5513    1.3525 C   0  0  2  0  0  0  0  0  0  0  0  0
   -1.9221   -1.4562   -2.9129 N   0  0  0  0  0  0  0  0  0  0  0  0
   -2.1398   -1.5229   -4.3157 C   0  0  0  0  0  0  0  0  0  0  0  0
   -1.3426   -2.7355   -2.5016 C   0  0  0  0  0  0  0  0  0  0  0  0
   -5.2228   -1.1227    0.4299 C   0  0  2  0  0  0  0  0  0  0  0  0
   -4.9353   -1.9747   -0.7500 C   0  0  0  0  0  0  0  0  0  0  0  0
   -6.9648   -0.7481   -1.4290 C   0  0  0  0  0  0  0  0  0  0  0  0
   -3.4993   -1.1620   -4.8080 C   0  0  0  0  0  0  0  0  0  0  0  0
   -4.3877   -0.5394   -3.7721 C   0  0  0  0  0  0  0  0  0  0  0  0
   -5.6749   -1.2494   -3.5549 C   0  0  0  0  0  0  0  0  0  0  0  0
   -6.7748   -0.4615   -2.9368 C   0  0  0  0  0  0  0  0  0  0  0  0
    1.4667    0.0104    0.1766 O   0  0  0  0  0  0  0  0  0  0  0  0
    4.1374   -2.1315    3.6321 C   0  0  0  0  0  0  0  0  0  0  0  0
    3.8940   -2.7111    2.2640 C   0  0  0  0  0  0  0  0  0  0  0  0
    3.2570   -1.7225    1.3380 C   0  0  0  0  0  0  0  0  0  0  0  0
    2.9631   -0.3933    1.9622 C   0  0  0  0  0  0  0  0  0  0  0  0
    4.1013    0.1905    2.7599 C   0  0  0  0  0  0  0  0  0  0  0  0
    4.9070   -0.8376    3.5090 C   0  0  0  0  0  0  0  0  0  0  0  0
    2.5225    0.5551    0.8596 C   0  0  0  0  0  0  0  0  0  0  0  0
    3.6365    0.8709   -0.0888 C   0  0  0  0  0  0  0  0  0  0  0  0
    4.9934    0.8675    0.6041 C   0  0  0  0  0  0  0  0  0  0  0  0
    4.9279    1.0844    2.0085 N   0  0  0  0  0  0  0  0  0  0  0  0
    5.7907    2.0011   -0.0112 C   0  0  0  0  0  0  0  0  0  0  0  0
    7.4566    2.1075    0.7615 S   0  0  0  0  0  0  0  0  0  0  0  0
    8.4050    2.3500   -0.7995 C   0  0  0  0  0  0  0  0  0  0  0  0
    7.2464    2.4844   -1.7673 C   0  0  0  0  0  0  0  0  0  0  0  0
    6.2075    1.5891   -1.3634 N   0  0  0  0  0  0  0  0  0  0  0  0
    7.6300    2.1837   -3.1782 C   0  0  0  0  0  0  0  0  0  0  0  0
    8.7169    3.1608   -3.5994 C   0  0  0  0  0  0  0  0  0  0  0  0
    8.1278    0.7923   -3.3912 C   0  0  0  0  0  0  0  0  0  0  0  0
    4.8600   -2.9785    4.4323 O   0  0  0  0  0  0  0  0  0  0  0  0
    4.2271   -3.3392    5.5965 C   0  0  0  0  0  0  0  0  0  0  0  0
    6.2881   -1.0393    2.9251 C   0  0  0  0  0  0  0  0  0  0  0  0
   -7.0693   -0.4471    1.8712 N   0  0  0  0  0  0  0  0  0  0  0  0
   -5.8487   -2.4474    2.2992 O   0  0  0  0  0  0  0  0  0  0  0  0
   -6.6864    0.6491    2.7806 S   0  0  0  0  0  0  0  0  0  0  0  0
   -7.9655    1.7373    3.2822 C   0  0  0  0  0  0  0  0  0  0  0  0
   -5.7558    0.4381    3.9991 O   0  0  0  0  0  0  0  0  0  0  0  0
   -5.7461    1.8607    1.6903 O   0  0  0  0  0  0  0  0  0  0  0  0
   -8.2952    2.9207    2.4787 C   0  0  0  0  0  0  0  0  0  0  0  0
   -7.5520    3.0717    3.7791 C   0  0  0  0  0  0  0  0  0  0  0  0
   -0.3771    1.1305   -1.1453 C   0  0  0  0  0  0  0  0  0  0  0  0
   -1.5488    0.2171   -1.4340 C   0  0  2  0  0  0  0  0  0  0  0  0
   -2.0028   -0.3996   -0.1539 C   0  0  1  0  0  0  0  0  0  0  0  0
   -0.8066   -0.2847    0.7602 C   0  0  0  0  0  0  0  0  0  0  0  0
    0.1757    0.6566    0.1511 C   0  0  1  0  0  0  0  0  0  0  0  0
   -3.2100    0.3306    0.4421 C   0  0  0  0  0  0  0  0  0  0  0  0
   -2.6496    1.1147    1.5012 O   0  0  0  0  0  0  0  0  0  0  0  0
   -4.1923   -0.4621    1.0063 N   0  0  0  0  0  0  0  0  0  0  0  0
   -1.1098   -0.7585   -2.4973 C   0  0  0  0  0  0  0  0  0  0  0  0
   -0.8285    0.0034   -3.6300 O   0  0  0  0  0  0  0  0  0  0  0  0
   -5.5458   -0.4697   -1.0146 C   0  0  1  0  0  0  0  0  0  0  0  0
   -6.5440   -1.1461    1.2794 C   0  0  2  0  0  0  0  0  0  0  0  0
   -2.0349   -1.7788   -2.8383 N   0  0  0  0  0  0  0  0  0  0  0  0
   -2.1225   -1.9890   -4.2497 C   0  0  0  0  0  0  0  0  0  0  0  0
   -1.5466   -3.0404   -2.2560 C   0  0  0  0  0  0  0  0  0  0  0  0
   -5.3469   -0.9037    0.3487 C   0  0  2  0  0  0  0  0  0  0  0  0
   -5.1466   -1.8997   -0.7272 C   0  0  0  0  0  0  0  0  0  0  0  0
   -6.9081   -0.4237   -1.6335 C   0  0  0  0  0  0  0  0  0  0  0  0
   -3.5207   -1.8488   -4.8003 C   0  0  0  0  0  0  0  0  0  0  0  0
   -4.3611   -0.8745   -4.0347 C   0  0  0  0  0  0  0  0  0  0  0  0
   -5.7402   -1.3218   -3.6989 C   0  0  0  0  0  0  0  0  0  0  0  0
   -6.6301   -0.2638   -3.1404 C   0  0  0  0  0  0  0  0  0  0  0  0
    1.4071    0.0419   -0.0862 O   0  0  0  0  0  0  0  0  0  0  0  0
    4.1436   -2.1089    3.3276 C   0  0  0  0  0  0  0  0  0  0  0  0
    3.8922   -2.6119    1.9269 C   0  0  0  0  0  0  0  0  0  0  0  0
    3.2686   -1.6009    1.0306 C   0  0  0  0  0  0  0  0  0  0  0  0
    2.8695   -0.3323    1.6991 C   0  0  0  0  0  0  0  0  0  0  0  0
    3.9140    0.2817    2.5926 C   0  0  0  0  0  0  0  0  0  0  0  0
    4.7034   -0.7142    3.3700 C   0  0  0  0  0  0  0  0  0  0  0  0
    2.4337    0.6534    0.6147 C   0  0  0  0  0  0  0  0  0  0  0  0
    3.5934    1.0872   -0.2290 C   0  0  0  0  0  0  0  0  0  0  0  0
    4.8859    1.1289    0.5324 C   0  0  0  0  0  0  0  0  0  0  0  0
    4.7523    1.2319    1.9430 N   0  0  0  0  0  0  0  0  0  0  0  0
    5.6644    2.3578    0.0550 C   0  0  0  0  0  0  0  0  0  0  0  0
    7.2515    2.4963    0.9475 S   0  0  0  0  0  0  0  0  0  0  0  0
    8.3423    2.0541   -0.4688 C   0  0  0  0  0  0  0  0  0  0  0  0
    7.2876    1.4750   -1.4008 C   0  0  1  0  0  0  0  0  0  0  0  0
    6.0967    2.2292   -1.2953 N   0  0  0  0  0  0  0  0  0  0  0  0
    7.8385    1.6431   -2.8107 C   0  0  0  0  0  0  0  0  0  0  0  0
    8.0997    3.0671   -3.1832 C   0  0  0  0  0  0  0  0  0  0  0  0
    9.1659    0.8772   -2.9189 C   0  0  0  0  0  0  0  0  0  0  0  0
    5.0319   -2.9386    4.0058 O   0  0  0  0  0  0  0  0  0  0  0  0
    4.4620   -3.5455    5.1138 C   0  0  0  0  0  0  0  0  0  0  0  0
    6.1727   -0.7583    2.9575 C   0  0  0  0  0  0  0  0  0  0  0  0
   -7.0686    0.0089    1.8891 N   0  0  0  0  0  0  0  0  0  0  0  0
   -6.1711   -2.0989    2.2212 O   0  0  0  0  0  0  0  0  0  0  0  0
   -6.4677    0.9961    2.8164 S   0  0  0  0  0  0  0  0  0  0  0  0
   -7.7526    2.0408    3.5627 C   0  0  0  0  0  0  0  0  0  0  0  0
   -5.7133    0.4544    4.2142 O   0  0  0  0  0  0  0  0  0  0  0  0
   -5.5031    2.1324    2.0984 O   0  0  0  0  0  0  0  0  0  0  0  0
   -7.9723    3.3729    2.9641 C   0  0  0  0  0  0  0  0  0  0  0  0
   -7.1643    3.3038    4.2072 C   0  0  0  0  0  0  0  0  0  0  0  0
   -0.5156    1.0944   -0.9916 C   0  0  0  0  0  0  0  0  0  0  0  0
   -1.6613    0.2053   -1.3672 C   0  0  2  0  0  0  0  0  0  0  0  0
   -2.0934   -0.5173   -0.1354 C   0  0  1  0  0  0  0  0  0  0  0  0
   -0.9124   -0.4632    0.8076 C   0  0  0  0  0  0  0  0  0  0  0  0
    0.0191    0.6033    0.3368 C   0  0  1  0  0  0  0  0  0  0  0  0
   -3.3216    0.1366    0.5159 C   0  0  0  0  0  0  0  0  0  0  0  0
   -2.8065    0.7992    1.6692 O   0  0  0  0  0  0  0  0  0  0  0  0
   -4.3081   -0.7508    0.9611 N   0  0  0  0  0  0  0  0  0  0  0  0
   -1.2246   -0.6769   -2.5060 C   0  0  0  0  0  0  0  0  0  0  0  0
   -1.0439    0.1308   -3.6233 O   0  0  0  0  0  0  0  0  0  0  0  0
   -5.5025   -0.5666   -1.1743 C   0  0  1  0  0  0  0  0  0  0  0  0
   -6.7609   -1.1276    0.9741 C   0  0  0  0  0  0  0  0  0  0  0  0
   -2.0992   -1.7492   -2.8362 N   0  0  0  0  0  0  0  0  0  0  0  0
   -2.1617   -1.9570   -4.2437 C   0  0  0  0  0  0  0  0  0  0  0  0
   -1.5274   -2.9711   -2.2455 C   0  0  0  0  0  0  0  0  0  0  0  0
   -5.4626   -1.0189    0.1921 C   0  0  2  0  0  0  0  0  0  0  0  0
   -5.2450   -1.9951   -0.9164 C   0  0  0  0  0  0  0  0  0  0  0  0
   -6.8427   -0.3024   -1.8053 C   0  0  0  0  0  0  0  0  0  0  0  0
   -3.5121   -1.8132   -4.8705 C   0  0  0  0  0  0  0  0  0  0  0  0
   -4.3542   -0.6936   -4.4021 C   0  0  0  0  0  0  0  0  0  0  0  0
   -5.7223   -1.1219   -3.9240 C   0  0  0  0  0  0  0  0  0  0  0  0
   -6.5202   -0.0440   -3.2874 C   0  0  0  0  0  0  0  0  0  0  0  0
    1.2913    0.1055    0.1076 O   0  0  0  0  0  0  0  0  0  0  0  0
    4.1976   -2.1482    2.9686 C   0  0  0  0  0  0  0  0  0  0  0  0
    3.6008   -2.6459    1.6880 C   0  0  0  0  0  0  0  0  0  0  0  0
    3.1750   -1.4984    0.7976 C   0  0  0  0  0  0  0  0  0  0  0  0
    3.0031   -0.2603    1.6258 C   0  0  0  0  0  0  0  0  0  0  0  0
    4.2772    0.2419    2.2218 C   0  0  0  0  0  0  0  0  0  0  0  0
    5.0613   -0.9222    2.7666 C   0  0  0  0  0  0  0  0  0  0  0  0
    2.2881    0.7667    0.7802 C   0  0  0  0  0  0  0  0  0  0  0  0
    3.3031    1.3986   -0.1486 C   0  0  0  0  0  0  0  0  0  0  0  0
    4.3659    2.0532    0.7226 C   0  0  1  0  0  0  0  0  0  0  0  0
    5.1161    0.9648    1.3175 N   0  0  0  0  0  0  0  0  0  0  0  0
    5.2709    2.8433   -0.1788 C   0  0  1  0  0  0  0  0  0  0  0  0
    6.5805    3.6836    0.8054 S   0  0  0  0  0  0  0  0  0  0  0  0
    7.9969    3.2395   -0.2673 C   0  0  0  0  0  0  0  0  0  0  0  0
    7.2222    2.6705   -1.4588 C   0  0  0  0  0  0  0  0  0  0  0  0
    6.1184    1.9242   -0.9357 N   0  0  0  0  0  0  0  0  0  0  0  0
    8.0826    1.7457   -2.2747 C   0  0  0  0  0  0  0  0  0  0  0  0
    9.2641    2.5556   -2.7699 C   0  0  0  0  0  0  0  0  0  0  0  0
    8.6256    0.5962   -1.4588 C   0  0  0  0  0  0  0  0  0  0  0  0
    4.9605   -3.1048    3.6144 O   0  0  0  0  0  0  0  0  0  0  0  0
    4.5031   -3.3936    4.8875 C   0  0  0  0  0  0  0  0  0  0  0  0
    6.2675   -1.2080    1.9118 C   0  0  0  0  0  0  0  0  0  0  0  0
   -7.0705    0.0382    1.7411 N   0  0  0  0  0  0  0  0  0  0  0  0
   -6.5866   -2.1798    1.8784 O   0  0  0  0  0  0  0  0  0  0  0  0
   -6.2983    0.5981    2.9028 S   0  0  0  0  0  0  0  0  0  0  0  0
   -7.2915    1.4728    4.0897 C   0  0  0  0  0  0  0  0  0  0  0  0
   -5.5398    2.1925    2.0726 O   0  0  0  0  0  0  0  0  0  0  0  0
   -5.0892    0.0669    3.5627 O   0  0  0  0  0  0  0  0  0  0  0  0
   -7.6347    2.8836    3.8873 C   0  0  0  0  0  0  0  0  0  0  0  0
   -6.6672    2.4560    4.9894 C   0  0  0  0  0  0  0  0  0  0  0  0
    0.1939    0.8178   -1.6310 H   0  0  0  0  0  0  0  0  0  0  0  0
   -0.9022    1.6702   -0.4798 H   0  0  0  0  0  0  0  0  0  0  0  0
   -2.4797    0.3224   -1.4752 H   0  0  0  0  0  0  0  0  0  0  0  0
   -2.0777   -2.1801   -0.1589 H   0  0  0  0  0  0  0  0  0  0  0  0
    0.0202   -2.0398    0.5994 H   0  0  0  0  0  0  0  0  0  0  0  0
   -0.7710   -1.1909    1.9363 H   0  0  0  0  0  0  0  0  0  0  0  0
    0.1483    0.7870    1.3098 H   0  0  0  0  0  0  0  0  0  0  0  0
   -3.1661   -1.5195    1.6997 H   0  0  0  0  0  0  0  0  0  0  0  0
   -2.2518    1.1620    1.5045 H   0  0  0  0  0  0  0  0  0  0  0  0
   -3.8748    0.7165   -0.1522 H   0  0  0  0  0  0  0  0  0  0  0  0
   -0.4008   -1.8057   -1.9502 H   0  0  0  0  0  0  0  0  0  0  0  0
   -1.0026    0.5774   -3.2646 H   0  0  0  0  0  0  0  0  0  0  0  0
   -4.7488   -0.3391   -1.8458 H   0  0  0  0  0  0  0  0  0  0  0  0
   -7.2043   -1.4281    0.9509 H   0  0  0  0  0  0  0  0  0  0  0  0
   -1.5969   -1.6406   -4.6383 H   0  0  0  0  0  0  0  0  0  0  0  0
   -3.0146   -2.6929   -4.6359 H   0  0  0  0  0  0  0  0  0  0  0  0
   -1.0493   -3.4402   -2.0368 H   0  0  0  0  0  0  0  0  0  0  0  0
   -2.8286   -3.9274   -2.1279 H   0  0  0  0  0  0  0  0  0  0  0  0
   -1.8325   -3.8412   -3.5862 H   0  0  0  0  0  0  0  0  0  0  0  0
   -4.3050   -2.5638   -0.8346 H   0  0  0  0  0  0  0  0  0  0  0  0
   -6.0201   -2.8150   -0.2798 H   0  0  0  0  0  0  0  0  0  0  0  0
   -7.5049   -1.6434   -1.4621 H   0  0  0  0  0  0  0  0  0  0  0  0
   -7.4855    0.1396   -1.3872 H   0  0  0  0  0  0  0  0  0  0  0  0
   -2.9834   -0.0464   -5.4058 H   0  0  0  0  0  0  0  0  0  0  0  0
   -3.3311    0.1990   -3.6991 H   0  0  0  0  0  0  0  0  0  0  0  0
   -5.3473    0.2282   -4.9611 H   0  0  0  0  0  0  0  0  0  0  0  0
   -4.9302   -1.2542   -5.8327 H   0  0  0  0  0  0  0  0  0  0  0  0
   -5.1520   -1.9719   -2.9872 H   0  0  0  0  0  0  0  0  0  0  0  0
   -6.1999   -2.3661   -4.3423 H   0  0  0  0  0  0  0  0  0  0  0  0
   -7.8252   -0.9956   -3.6058 H   0  0  0  0  0  0  0  0  0  0  0  0
   -6.6194    0.3799   -3.4965 H   0  0  0  0  0  0  0  0  0  0  0  0
    3.6530   -2.6532    3.4177 H   0  0  0  0  0  0  0  0  0  0  0  0
    5.1207   -3.2243    0.8489 H   0  0  0  0  0  0  0  0  0  0  0  0
    3.4692   -3.7175    1.3412 H   0  0  0  0  0  0  0  0  0  0  0  0
    2.8064   -2.0040   -0.0063 H   0  0  0  0  0  0  0  0  0  0  0  0
    4.4062   -1.2437   -0.0102 H   0  0  0  0  0  0  0  0  0  0  0  0
    2.4997   -1.2053    2.3721 H   0  0  0  0  0  0  0  0  0  0  0  0
    3.9112    0.5545    3.1937 H   0  0  0  0  0  0  0  0  0  0  0  0
    5.3410   -1.0021    4.0145 H   0  0  0  0  0  0  0  0  0  0  0  0
    1.8155    0.9677    1.7079 H   0  0  0  0  0  0  0  0  0  0  0  0
    3.7393    0.6817   -0.6607 H   0  0  0  0  0  0  0  0  0  0  0  0
    2.6175    2.0792   -0.2894 H   0  0  0  0  0  0  0  0  0  0  0  0
    3.7791    2.3018    1.9409 H   0  0  0  0  0  0  0  0  0  0  0  0
    5.8572    1.1851    2.1622 H   0  0  0  0  0  0  0  0  0  0  0  0
    4.5031    3.5991   -0.2152 H   0  0  0  0  0  0  0  0  0  0  0  0
    8.3940    2.5390    0.4993 H   0  0  0  0  0  0  0  0  0  0  0  0
    8.3301    4.3134   -0.0290 H   0  0  0  0  0  0  0  0  0  0  0  0
    6.5180    3.8988   -1.5188 H   0  0  0  0  0  0  0  0  0  0  0  0
    5.4338    1.7609   -1.4683 H   0  0  0  0  0  0  0  0  0  0  0  0
    7.1813    2.0231   -2.9916 H   0  0  0  0  0  0  0  0  0  0  0  0
    9.9258    2.8298   -2.1729 H   0  0  0  0  0  0  0  0  0  0  0  0
    8.8136    4.2087   -2.0959 H   0  0  0  0  0  0  0  0  0  0  0  0
    8.9471    3.3259   -3.6414 H   0  0  0  0  0  0  0  0  0  0  0  0
    7.6556    0.4069   -1.0254 H   0  0  0  0  0  0  0  0  0  0  0  0
    8.6908    0.3974   -2.4882 H   0  0  0  0  0  0  0  0  0  0  0  0
    9.3342    1.1894   -1.0235 H   0  0  0  0  0  0  0  0  0  0  0  0
    4.6668   -3.5580    5.2480 H   0  0  0  0  0  0  0  0  0  0  0  0
    5.7854   -4.8701    4.7517 H   0  0  0  0  0  0  0  0  0  0  0  0
    4.1463   -4.8877    4.0719 H   0  0  0  0  0  0  0  0  0  0  0  0
    6.8796   -2.2694    2.0315 H   0  0  0  0  0  0  0  0  0  0  0  0
    7.3171   -0.8022    2.9539 H   0  0  0  0  0  0  0  0  0  0  0  0
    6.6000   -0.6765    1.3081 H   0  0  0  0  0  0  0  0  0  0  0  0
   -8.1097    0.5382    1.3649 H   0  0  0  0  0  0  0  0  0  0  0  0
   -5.3708   -0.4317    2.9134 H   0  0  0  0  0  0  0  0  0  0  0  0
   -6.1737    1.4432    4.1760 H   0  0  0  0  0  0  0  0  0  0  0  0
   -8.5671    2.5540    1.6116 H   0  0  0  0  0  0  0  0  0  0  0  0
   -5.1118    3.5346    1.1612 H   0  0  0  0  0  0  0  0  0  0  0  0
   -8.0808    2.9373    5.0489 H   0  0  0  0  0  0  0  0  0  0  0  0
   -8.4119    3.5603    3.3536 H   0  0  0  0  0  0  0  0  0  0  0  0
   -5.7117    3.7833    4.8882 H   0  0  0  0  0  0  0  0  0  0  0  0
   -6.0347    4.3990    3.1652 H   0  0  0  0  0  0  0  0  0  0  0  0
    0.4977    1.2115   -1.7184 H   0  0  0  0  0  0  0  0  0  0  0  0
   -0.5790    2.3332   -0.8076 H   0  0  0  0  0  0  0  0  0  0  0  0
   -2.2542    1.0960   -1.6265 H   0  0  0  0  0  0  0  0  0  0  0  0
   -2.0511   -1.4051   -0.2264 H   0  0  0  0  0  0  0  0  0  0  0  0
   -0.3535   -1.1636    1.1826 H   0  0  0  0  0  0  0  0  0  0  0  0
   -1.2011    0.2044    1.8962 H   0  0  0  0  0  0  0  0  0  0  0  0
    0.3925    1.5629    1.0537 H   0  0  0  0  0  0  0  0  0  0  0  0
   -3.5204    1.0154   -0.3514 H   0  0  0  0  0  0  0  0  0  0  0  0
   -2.3037    2.0050    1.0311 H   0  0  0  0  0  0  0  0  0  0  0  0
   -4.1583   -0.5220    2.0556 H   0  0  0  0  0  0  0  0  0  0  0  0
   -0.0349   -0.8343   -2.3261 H   0  0  0  0  0  0  0  0  0  0  0  0
    0.0188    0.7541   -3.6378 H   0  0  0  0  0  0  0  0  0  0  0  0
   -5.0995    0.2841   -1.1743 H   0  0  0  0  0  0  0  0  0  0  0  0
   -7.0441   -2.1881    0.6847 H   0  0  0  0  0  0  0  0  0  0  0  0
   -1.4123   -0.8410   -4.8236 H   0  0  0  0  0  0  0  0  0  0  0  0
   -1.8688   -2.5362   -4.7418 H   0  0  0  0  0  0  0  0  0  0  0  0
   -0.2920   -2.5828   -2.1147 H   0  0  0  0  0  0  0  0  0  0  0  0
   -1.9651   -3.2796   -1.7802 H   0  0  0  0  0  0  0  0  0  0  0  0
   -1.2032   -3.4238   -3.3723 H   0  0  0  0  0  0  0  0  0  0  0  0
   -3.9908   -2.1351   -1.2297 H   0  0  0  0  0  0  0  0  0  0  0  0
   -5.5739   -2.8955   -0.7861 H   0  0  0  0  0  0  0  0  0  0  0  0
   -7.4303   -1.7291   -1.2846 H   0  0  0  0  0  0  0  0  0  0  0  0
   -7.6045    0.0612   -1.0468 H   0  0  0  0  0  0  0  0  0  0  0  0
   -4.0031   -2.0990   -5.1220 H   0  0  0  0  0  0  0  0  0  0  0  0
   -3.4866   -0.5053   -5.6944 H   0  0  0  0  0  0  0  0  0  0  0  0
   -3.7370   -0.4226   -2.8793 H   0  0  0  0  0  0  0  0  0  0  0  0
   -4.6220    0.4931   -4.0960 H   0  0  0  0  0  0  0  0  0  0  0  0
   -5.5371   -2.2728   -3.0967 H   0  0  0  0  0  0  0  0  0  0  0  0
   -6.0547   -1.5236   -4.5916 H   0  0  0  0  0  0  0  0  0  0  0  0
   -7.7514   -0.5447   -3.4165 H   0  0  0  0  0  0  0  0  0  0  0  0
   -6.4954    0.6267   -2.9585 H   0  0  0  0  0  0  0  0  0  0  0  0
    3.1397   -1.8624    4.0483 H   0  0  0  0  0  0  0  0  0  0  0  0
    4.8480   -3.0566    1.7865 H   0  0  0  0  0  0  0  0  0  0  0  0
    3.2917   -3.6317    2.4016 H   0  0  0  0  0  0  0  0  0  0  0  0
    2.2503   -2.1565    1.0571 H   0  0  0  0  0  0  0  0  0  0  0  0
    3.7971   -1.6567    0.3690 H   0  0  0  0  0  0  0  0  0  0  0  0
    2.0782   -0.5318    2.6201 H   0  0  0  0  0  0  0  0  0  0  0  0
    3.6048    0.8275    3.5546 H   0  0  0  0  0  0  0  0  0  0  0  0
    5.0891   -0.5097    4.5767 H   0  0  0  0  0  0  0  0  0  0  0  0
    2.1383    1.4549    1.3988 H   0  0  0  0  0  0  0  0  0  0  0  0
    3.6879    0.0859   -0.8857 H   0  0  0  0  0  0  0  0  0  0  0  0
    3.4458    1.8771   -0.5120 H   0  0  0  0  0  0  0  0  0  0  0  0
    5.5808   -0.0622    0.3369 H   0  0  0  0  0  0  0  0  0  0  0  0
    4.6939    2.0877    2.1714 H   0  0  0  0  0  0  0  0  0  0  0  0
    5.2762    2.9593   -0.0070 H   0  0  0  0  0  0  0  0  0  0  0  0
    9.0280    1.4720   -0.9589 H   0  0  0  0  0  0  0  0  0  0  0  0
    8.9752    3.2981   -0.7133 H   0  0  0  0  0  0  0  0  0  0  0  0
    6.8887    3.5320   -1.6917 H   0  0  0  0  0  0  0  0  0  0  0  0
    6.6471    0.6291   -1.2367 H   0  0  0  0  0  0  0  0  0  0  0  0
    6.7681    2.3534   -3.8354 H   0  0  0  0  0  0  0  0  0  0  0  0
    9.7314    2.7739   -3.3294 H   0  0  0  0  0  0  0  0  0  0  0  0
    8.5993    4.1041   -2.9895 H   0  0  0  0  0  0  0  0  0  0  0  0
    8.6378    3.4518   -4.6586 H   0  0  0  0  0  0  0  0  0  0  0  0
    7.2840    0.0481   -3.3496 H   0  0  0  0  0  0  0  0  0  0  0  0
    8.5075    0.7375   -4.4477 H   0  0  0  0  0  0  0  0  0  0  0  0
    8.9294    0.4674   -2.7265 H   0  0  0  0  0  0  0  0  0  0  0  0
    3.9763   -2.4860    6.2542 H   0  0  0  0  0  0  0  0  0  0  0  0
    4.9387   -3.9705    6.1858 H   0  0  0  0  0  0  0  0  0  0  0  0
    3.3372   -4.0028    5.4207 H   0  0  0  0  0  0  0  0  0  0  0  0
    6.2951   -1.6371    2.0107 H   0  0  0  0  0  0  0  0  0  0  0  0
    6.8924   -1.5505    3.7257 H   0  0  0  0  0  0  0  0  0  0  0  0
    6.7466   -0.0351    2.8300 H   0  0  0  0  0  0  0  0  0  0  0  0
   -8.0576   -0.4877    1.4754 H   0  0  0  0  0  0  0  0  0  0  0  0
   -5.4042   -1.9082    2.9953 H   0  0  0  0  0  0  0  0  0  0  0  0
   -8.7838    1.2403    3.8143 H   0  0  0  0  0  0  0  0  0  0  0  0
   -4.9557    1.0071    4.0581 H   0  0  0  0  0  0  0  0  0  0  0  0
   -5.3513    2.3786    2.4154 H   0  0  0  0  0  0  0  0  0  0  0  0
   -9.3585    3.2887    2.4162 H   0  0  0  0  0  0  0  0  0  0  0  0
   -7.7139    3.0845    1.5542 H   0  0  0  0  0  0  0  0  0  0  0  0
   -8.1175    3.5750    4.5966 H   0  0  0  0  0  0  0  0  0  0  0  0
   -6.5068    3.4021    3.7313 H   0  0  0  0  0  0  0  0  0  0  0  0
    0.3533    1.0742   -1.9752 H   0  0  0  0  0  0  0  0  0  0  0  0
   -0.7316    2.1960   -1.0354 H   0  0  0  0  0  0  0  0  0  0  0  0
   -2.3781    0.8277   -1.8605 H   0  0  0  0  0  0  0  0  0  0  0  0
   -2.2041   -1.4878   -0.2368 H   0  0  0  0  0  0  0  0  0  0  0  0
   -0.2886   -1.2792    0.8775 H   0  0  0  0  0  0  0  0  0  0  0  0
   -1.0969    0.0208    1.7897 H   0  0  0  0  0  0  0  0  0  0  0  0
    0.3325    1.5066    0.8563 H   0  0  0  0  0  0  0  0  0  0  0  0
   -3.4813    1.1014   -0.3031 H   0  0  0  0  0  0  0  0  0  0  0  0
   -2.0977    1.8307    1.1205 H   0  0  0  0  0  0  0  0  0  0  0  0
   -4.3258   -0.3418    2.0137 H   0  0  0  0  0  0  0  0  0  0  0  0
   -0.1133   -1.2169   -2.2120 H   0  0  0  0  0  0  0  0  0  0  0  0
   -1.0080    0.9619   -3.5169 H   0  0  0  0  0  0  0  0  0  0  0  0
   -4.8799    0.2864   -1.3887 H   0  0  0  0  0  0  0  0  0  0  0  0
   -7.3038   -1.6642    0.6193 H   0  0  0  0  0  0  0  0  0  0  0  0
   -1.4855   -1.2915   -4.8265 H   0  0  0  0  0  0  0  0  0  0  0  0
   -1.7505   -3.0096   -4.5691 H   0  0  0  0  0  0  0  0  0  0  0  0
   -0.5850   -2.8704   -1.6886 H   0  0  0  0  0  0  0  0  0  0  0  0
   -2.3047   -3.5429   -1.6386 H   0  0  0  0  0  0  0  0  0  0  0  0
   -1.2635   -3.7722   -3.0443 H   0  0  0  0  0  0  0  0  0  0  0  0
   -4.2184   -2.1796   -1.1959 H   0  0  0  0  0  0  0  0  0  0  0  0
   -5.8986   -2.7151   -0.7522 H   0  0  0  0  0  0  0  0  0  0  0  0
   -7.5174   -1.3234   -1.4929 H   0  0  0  0  0  0  0  0  0  0  0  0
   -7.4867    0.4518   -1.3204 H   0  0  0  0  0  0  0  0  0  0  0  0
   -3.9909   -2.8406   -4.7541 H   0  0  0  0  0  0  0  0  0  0  0  0
   -3.4755   -1.5350   -5.8536 H   0  0  0  0  0  0  0  0  0  0  0  0
   -3.7428   -0.6019   -3.1440 H   0  0  0  0  0  0  0  0  0  0  0  0
   -4.4208    0.0598   -4.6292 H   0  0  0  0  0  0  0  0  0  0  0  0
   -5.8031   -2.2133   -3.0812 H   0  0  0  0  0  0  0  0  0  0  0  0
   -6.2219   -1.6318   -4.6791 H   0  0  0  0  0  0  0  0  0  0  0  0
   -7.5902   -0.1346   -3.6888 H   0  0  0  0  0  0  0  0  0  0  0  0
   -6.0987    0.7206   -3.2398 H   0  0  0  0  0  0  0  0  0  0  0  0
    3.1797   -2.1403    3.8661 H   0  0  0  0  0  0  0  0  0  0  0  0
    4.8736   -2.9391    1.5199 H   0  0  0  0  0  0  0  0  0  0  0  0
    3.2919   -3.5462    2.0321 H   0  0  0  0  0  0  0  0  0  0  0  0
    2.3064   -2.0640    0.6549 H   0  0  0  0  0  0  0  0  0  0  0  0
    3.8878   -1.4749    0.1191 H   0  0  0  0  0  0  0  0  0  0  0  0
    1.9401   -0.5423    2.2789 H   0  0  0  0  0  0  0  0  0  0  0  0
    3.3197    0.8765    3.3537 H   0  0  0  0  0  0  0  0  0  0  0  0
    4.7476   -0.4431    4.4666 H   0  0  0  0  0  0  0  0  0  0  0  0
    1.9766    1.5065    1.1779 H   0  0  0  0  0  0  0  0  0  0  0  0
    3.7376    0.4223   -1.1204 H   0  0  0  0  0  0  0  0  0  0  0  0
    3.3567    2.1316   -0.5769 H   0  0  0  0  0  0  0  0  0  0  0  0
    5.5202    0.2672    0.2396 H   0  0  0  0  0  0  0  0  0  0  0  0
    4.6530    2.2128    2.2886 H   0  0  0  0  0  0  0  0  0  0  0  0
    5.0857    3.2880    0.2007 H   0  0  0  0  0  0  0  0  0  0  0  0
    9.0024    1.2322   -0.1150 H   0  0  0  0  0  0  0  0  0  0  0  0
    8.8502    2.9243   -0.8766 H   0  0  0  0  0  0  0  0  0  0  0  0
    7.1474    0.3871   -1.2491 H   0  0  0  0  0  0  0  0  0  0  0  0
    6.0580    3.0841   -1.8519 H   0  0  0  0  0  0  0  0  0  0  0  0
    7.1307    1.1354   -3.4925 H   0  0  0  0  0  0  0  0  0  0  0  0
    9.1362    3.2019   -3.5979 H   0  0  0  0  0  0  0  0  0  0  0  0
    7.8712    3.8128   -2.4241 H   0  0  0  0  0  0  0  0  0  0  0  0
    7.4241    3.2949   -4.0596 H   0  0  0  0  0  0  0  0  0  0  0  0
    9.0245   -0.2019   -2.9755 H   0  0  0  0  0  0  0  0  0  0  0  0
    9.6391    1.2489   -3.8653 H   0  0  0  0  0  0  0  0  0  0  0  0
    9.8572    1.1974   -2.1006 H   0  0  0  0  0  0  0  0  0  0  0  0
    4.0865   -2.8509    5.8768 H   0  0  0  0  0  0  0  0  0  0  0  0
    5.2993   -4.1211    5.5999 H   0  0  0  0  0  0  0  0  0  0  0  0
    3.7034   -4.3309    4.8308 H   0  0  0  0  0  0  0  0  0  0  0  0
    6.3263   -1.2462    1.9936 H   0  0  0  0  0  0  0  0  0  0  0  0
    6.6855   -1.4085    3.7260 H   0  0  0  0  0  0  0  0  0  0  0  0
    6.6334    0.2294    3.0793 H   0  0  0  0  0  0  0  0  0  0  0  0
   -8.1150    0.0346    1.6779 H   0  0  0  0  0  0  0  0  0  0  0  0
   -5.1937   -2.1613    2.3438 H   0  0  0  0  0  0  0  0  0  0  0  0
   -8.5112    1.5196    4.1482 H   0  0  0  0  0  0  0  0  0  0  0  0
   -5.2623    1.1943    4.6998 H   0  0  0  0  0  0  0  0  0  0  0  0
   -4.8950    2.5828    2.7270 H   0  0  0  0  0  0  0  0  0  0  0  0
   -7.4686    3.5656    1.9958 H   0  0  0  0  0  0  0  0  0  0  0  0
   -8.9849    3.8026    3.0442 H   0  0  0  0  0  0  0  0  0  0  0  0
   -7.6385    3.6518    5.1510 H   0  0  0  0  0  0  0  0  0  0  0  0
   -6.0718    3.4677    4.1317 H   0  0  0  0  0  0  0  0  0  0  0  0
    0.2634    1.0304   -1.7960 H   0  0  0  0  0  0  0  0  0  0  0  0
   -0.8597    2.1503   -0.9305 H   0  0  0  0  0  0  0  0  0  0  0  0
   -2.5079    0.8377   -1.7249 H   0  0  0  0  0  0  0  0  0  0  0  0
   -2.2774   -1.6000   -0.3008 H   0  0  0  0  0  0  0  0  0  0  0  0
   -0.3497   -1.4314    0.8418 H   0  0  0  0  0  0  0  0  0  0  0  0
   -1.2106   -0.2599    1.8560 H   0  0  0  0  0  0  0  0  0  0  0  0
   -0.0033    1.4633    1.0308 H   0  0  0  0  0  0  0  0  0  0  0  0
   -3.5975    0.9630   -0.1444 H   0  0  0  0  0  0  0  0  0  0  0  0
   -2.3704    1.6619    1.4041 H   0  0  0  0  0  0  0  0  0  0  0  0
   -3.8848   -1.6181    1.3289 H   0  0  0  0  0  0  0  0  0  0  0  0
   -0.1933   -1.0608   -2.2546 H   0  0  0  0  0  0  0  0  0  0  0  0
   -1.0438    1.0774   -3.3595 H   0  0  0  0  0  0  0  0  0  0  0  0
   -4.7641    0.1501   -1.4961 H   0  0  0  0  0  0  0  0  0  0  0  0
   -7.5886   -1.3959    0.2778 H   0  0  0  0  0  0  0  0  0  0  0  0
   -1.4721   -1.2867   -4.7971 H   0  0  0  0  0  0  0  0  0  0  0  0
   -1.8064   -2.9941   -4.5343 H   0  0  0  0  0  0  0  0  0  0  0  0
   -0.6324   -2.7367   -1.6128 H   0  0  0  0  0  0  0  0  0  0  0  0
   -2.2778   -3.5854   -1.7339 H   0  0  0  0  0  0  0  0  0  0  0  0
   -1.0997   -3.6390   -3.0515 H   0  0  0  0  0  0  0  0  0  0  0  0
   -4.2914   -2.3925   -1.2237 H   0  0  0  0  0  0  0  0  0  0  0  0
   -6.0642   -2.7317   -1.0168 H   0  0  0  0  0  0  0  0  0  0  0  0
   -7.5606   -1.1176   -1.7412 H   0  0  0  0  0  0  0  0  0  0  0  0
   -7.2307    0.6784   -1.4188 H   0  0  0  0  0  0  0  0  0  0  0  0
   -4.0675   -2.7613   -4.6818 H   0  0  0  0  0  0  0  0  0  0  0  0
   -3.3932   -1.7629   -5.9657 H   0  0  0  0  0  0  0  0  0  0  0  0
   -3.7784   -0.1267   -3.6475 H   0  0  0  0  0  0  0  0  0  0  0  0
   -4.5094    0.0180   -5.2420 H   0  0  0  0  0  0  0  0  0  0  0  0
   -5.6459   -2.0623   -3.3395 H   0  0  0  0  0  0  0  0  0  0  0  0
   -6.2803   -1.4303   -4.8603 H   0  0  0  0  0  0  0  0  0  0  0  0
   -7.4113    0.2615   -3.8422 H   0  0  0  0  0  0  0  0  0  0  0  0
   -5.8645    0.8758   -3.2555 H   0  0  0  0  0  0  0  0  0  0  0  0
    3.3795   -1.8420    3.6556 H   0  0  0  0  0  0  0  0  0  0  0  0
    4.3310   -3.2543    1.0879 H   0  0  0  0  0  0  0  0  0  0  0  0
    2.7154   -3.2751    1.9451 H   0  0  0  0  0  0  0  0  0  0  0  0
    2.1915   -1.7618    0.3604 H   0  0  0  0  0  0  0  0  0  0  0  0
    3.8806   -1.3636   -0.0482 H   0  0  0  0  0  0  0  0  0  0  0  0
    2.3202   -0.5257    2.4658 H   0  0  0  0  0  0  0  0  0  0  0  0
    4.0261    0.9271    3.0696 H   0  0  0  0  0  0  0  0  0  0  0  0
    5.4540   -0.6645    3.7926 H   0  0  0  0  0  0  0  0  0  0  0  0
    1.8744    1.6025    1.4009 H   0  0  0  0  0  0  0  0  0  0  0  0
    3.8141    0.5982   -0.7103 H   0  0  0  0  0  0  0  0  0  0  0  0
    2.8852    2.1736   -0.7872 H   0  0  0  0  0  0  0  0  0  0  0  0
    3.9015    2.6995    1.4962 H   0  0  0  0  0  0  0  0  0  0  0  0
    5.9403    1.3193    1.8272 H   0  0  0  0  0  0  0  0  0  0  0  0
    4.7539    3.5457   -0.8314 H   0  0  0  0  0  0  0  0  0  0  0  0
    8.5793    2.4664    0.2579 H   0  0  0  0  0  0  0  0  0  0  0  0
    8.5612    4.1380   -0.5288 H   0  0  0  0  0  0  0  0  0  0  0  0
    6.8834    3.4991   -2.0827 H   0  0  0  0  0  0  0  0  0  0  0  0
    5.6210    1.4978   -1.7293 H   0  0  0  0  0  0  0  0  0  0  0  0
    7.4780    1.3190   -3.0801 H   0  0  0  0  0  0  0  0  0  0  0  0
   10.1660    2.3178   -2.1738 H   0  0  0  0  0  0  0  0  0  0  0  0
    9.0926    3.6566   -2.6288 H   0  0  0  0  0  0  0  0  0  0  0  0
    9.4466    2.4270   -3.8532 H   0  0  0  0  0  0  0  0  0  0  0  0
    7.8371    0.1113   -0.8301 H   0  0  0  0  0  0  0  0  0  0  0  0
    8.9661   -0.1753   -2.1791 H   0  0  0  0  0  0  0  0  0  0  0  0
    9.4933    0.8663   -0.8469 H   0  0  0  0  0  0  0  0  0  0  0  0
    4.5032   -2.5056    5.5529 H   0  0  0  0  0  0  0  0  0  0  0  0
    5.1966   -4.1348    5.3352 H   0  0  0  0  0  0  0  0  0  0  0  0
    3.4962   -3.8902    4.8722 H   0  0  0  0  0  0  0  0  0  0  0  0
    6.0726   -0.9667    0.8450 H   0  0  0  0  0  0  0  0  0  0  0  0
    6.6395   -2.2455    2.0177 H   0  0  0  0  0  0  0  0  0  0  0  0
    7.1267   -0.5431    2.2210 H   0  0  0  0  0  0  0  0  0  0  0  0
   -8.0291    0.4207    1.5220 H   0  0  0  0  0  0  0  0  0  0  0  0
   -6.3095   -1.8202    2.7623 H   0  0  0  0  0  0  0  0  0  0  0  0
   -8.0635    0.7734    4.5152 H   0  0  0  0  0  0  0  0  0  0  0  0
   -6.3179    2.3935    1.5189 H   0  0  0  0  0  0  0  0  0  0  0  0
   -4.3724    0.6567    3.9376 H   0  0  0  0  0  0  0  0  0  0  0  0
   -8.6395    3.2661    4.2320 H   0  0  0  0  0  0  0  0  0  0  0  0
   -7.2233    3.4107    3.0074 H   0  0  0  0  0  0  0  0  0  0  0  0
   -7.0737    2.5418    6.0367 H   0  0  0  0  0  0  0  0  0  0  0  0
   -5.6388    2.8288    4.8321 H   0  0  0  0  0  0  0  0  0  0  0  0
  1  2  1  0
  2  3  1  0
  3  4  1  0
  1  5  1  0
  4  5  1  0
  3  6  1  0
  6  7  1  0
  6  8  1  0
  2  9  1  0
  9 10  1  0
  9 13  1  0
 13 14  1  0
 13 15  1  0
  8 16  1  0
 11 16  1  0
 16 12  1  1
 11 17  1  0
 16 17  1  0
 11 18  1  0
 14 19  1  0
 19 20  1  0
 20 21  1  0
 18 22  1  0
 21 22  1  0
  5 23  1  0
 24 25  1  0
 25 26  1  0
 26 27  1  0
 27 28  1  0
 24 29  1  0
 28 29  1  0
 23 30  1  0
 27 30  1  0
 30 31  1  0
 31 32  1  0
 28 33  1  0
 32 33  1  0
 32 34  1  0
 34 35  1  0
 35 36  1  0
 36 37  1  0
 34 38  1  0
 37 38  1  0
 37 39  1  0
 39 40  1  0
 39 41  1  0
 24 42  1  0
 42 43  1  0
 29 44  1  0
 12 45  1  0
 12 46  1  0
 45 47  1  0
 47 48  1  0
 47 49  1  0
 47 50  1  0
 48 51  1  0
 48 52  1  0
 51 52  1  0
 53 54  1  0
 54 55  1  0
 55 56  1  0
 53 57  1  0
 56 57  1  0
 55 58  1  0
 58 59  1  0
 58 60  1  0
 54 61  1  0
 61 62  1  0
 61 65  1  0
 65 66  1  0
 65 67  1  0
 68 60  1  1
 63 68  1  0
 64 68  1  0
 63 69  1  0
 68 69  1  0
 63 70  1  0
 66 71  1  0
 71 72  1  0
 72 73  1  0
 70 74  1  0
 73 74  1  0
 57 75  1  0
 76 77  1  0
 77 78  1  0
 78 79  1  0
 79 80  1  0
 76 81  1  0
 80 81  1  0
 75 82  1  0
 79 82  1  0
 82 83  1  0
 83 84  1  0
 80 85  1  0
 84 85  1  0
 84 86  1  0
 86 87  1  0
 87 88  1  0
 88 89  1  0
 86 90  1  0
 89 90  1  0
 89 91  1  0
 91 92  1  0
 91 93  1  0
 76 94  1  0
 94 95  1  0
 81 96  1  0
 64 97  1  0
 64 98  1  0
 97 99  1  0
 99100  1  0
 99101  1  0
 99102  1  0
100103  1  0
100104  1  0
103104  1  0
105106  1  0
106107  1  0
107108  1  0
105109  1  0
108109  1  0
107110  1  0
110111  1  0
110112  1  0
106113  1  0
113114  1  0
113117  1  0
117118  1  0
117119  1  0
120112  1  1
115120  1  0
116120  1  0
115121  1  0
120121  1  0
115122  1  0
118123  1  0
123124  1  0
124125  1  0
122126  1  0
125126  1  0
109127  1  0
128129  1  0
129130  1  0
130131  1  0
131132  1  0
128133  1  0
132133  1  0
127134  1  0
131134  1  0
134135  1  0
135136  1  0
132137  1  0
136137  1  0
136138  1  0
138139  1  0
139140  1  0
140141  1  0
138142  1  0
141142  1  0
141143  1  0
143144  1  0
143145  1  0
128146  1  0
146147  1  0
133148  1  0
116149  1  0
116150  1  0
149151  1  0
151152  1  0
151153  1  0
151154  1  0
152155  1  0
152156  1  0
155156  1  0
157158  1  0
158159  1  0
159160  1  0
157161  1  0
160161  1  0
159162  1  0
162163  1  0
162164  1  0
158165  1  0
165166  1  0
165169  1  0
169170  1  0
169171  1  0
164172  1  0
167172  1  0
172168  1  1
167173  1  0
172173  1  0
167174  1  0
170175  1  0
175176  1  0
176177  1  0
174178  1  0
177178  1  0
161179  1  0
180181  1  0
181182  1  0
182183  1  0
183184  1  0
180185  1  0
184185  1  0
179186  1  0
183186  1  0
186187  1  0
187188  1  0
184189  1  0
188189  1  0
188190  1  0
190191  1  0
191192  1  0
192193  1  0
190194  1  0
193194  1  0
193195  1  0
195196  1  0
195197  1  0
180198  1  0
198199  1  0
185200  1  0
168201  1  0
168202  1  0
201203  1  0
203204  1  0
203205  1  0
203206  1  0
204207  1  0
204208  1  0
207208  1  0
  1209  1  0
  1210  1  0
  2211  1  6
  3212  1  6
  4213  1  0
  4214  1  0
  5215  1  1
  6216  1  1
  7217  1  0
  8218  1  0
  9219  1  0
 10220  1  0
 11221  1  6
 12222  1  0
 14223  1  0
 14224  1  0
 15225  1  0
 15226  1  0
 15227  1  0
 17228  1  0
 17229  1  0
 18230  1  0
 18231  1  0
 19232  1  0
 19233  1  0
 20234  1  0
 20235  1  0
 21236  1  0
 21237  1  0
 22238  1  0
 22239  1  0
 24240  1  0
 25241  1  0
 25242  1  0
 26243  1  0
 26244  1  0
 27245  1  0
 28246  1  0
 29247  1  0
 30248  1  0
 31249  1  0
 31250  1  0
 32251  1  1
 33252  1  0
 34253  1  6
 36254  1  0
 36255  1  0
 37256  1  6
 38257  1  0
 39258  1  0
 40259  1  0
 40260  1  0
 40261  1  0
 41262  1  0
 41263  1  0
 41264  1  0
 43265  1  0
 43266  1  0
 43267  1  0
 44268  1  0
 44269  1  0
 44270  1  0
 45271  1  0
 46272  1  0
 48273  1  0
 49274  1  0
 50275  1  0
 51276  1  0
 51277  1  0
 52278  1  0
 52279  1  0
 53280  1  0
 53281  1  0
 54282  1  6
 55283  1  6
 56284  1  0
 56285  1  0
 57286  1  1
 58287  1  0
 59288  1  0
 60289  1  0
 61290  1  0
 62291  1  0
 63292  1  6
 64293  1  6
 66294  1  0
 66295  1  0
 67296  1  0
 67297  1  0
 67298  1  0
 69299  1  0
 69300  1  0
 70301  1  0
 70302  1  0
 71303  1  0
 71304  1  0
 72305  1  0
 72306  1  0
 73307  1  0
 73308  1  0
 74309  1  0
 74310  1  0
 76311  1  0
 77312  1  0
 77313  1  0
 78314  1  0
 78315  1  0
 79316  1  0
 80317  1  0
 81318  1  0
 82319  1  0
 83320  1  0
 83321  1  0
 84322  1  0
 85323  1  0
 86324  1  0
 88325  1  0
 88326  1  0
 89327  1  0
 90328  1  0
 91329  1  0
 92330  1  0
 92331  1  0
 92332  1  0
 93333  1  0
 93334  1  0
 93335  1  0
 95336  1  0
 95337  1  0
 95338  1  0
 96339  1  0
 96340  1  0
 96341  1  0
 97342  1  0
 98343  1  0
100344  1  0
101345  1  0
102346  1  0
103347  1  0
103348  1  0
104349  1  0
104350  1  0
105351  1  0
105352  1  0
106353  1  6
107354  1  6
108355  1  0
108356  1  0
109357  1  1
110358  1  0
111359  1  0
112360  1  0
113361  1  0
114362  1  0
115363  1  6
116364  1  6
118365  1  0
118366  1  0
119367  1  0
119368  1  0
119369  1  0
121370  1  0
121371  1  0
122372  1  0
122373  1  0
123374  1  0
123375  1  0
124376  1  0
124377  1  0
125378  1  0
125379  1  0
126380  1  0
126381  1  0
128382  1  0
129383  1  0
129384  1  0
130385  1  0
130386  1  0
131387  1  0
132388  1  0
133389  1  0
134390  1  0
135391  1  0
135392  1  0
136393  1  0
137394  1  0
138395  1  0
140396  1  0
140397  1  0
141398  1  1
142399  1  0
143400  1  0
144401  1  0
144402  1  0
144403  1  0
145404  1  0
145405  1  0
145406  1  0
147407  1  0
147408  1  0
147409  1  0
148410  1  0
148411  1  0
148412  1  0
149413  1  0
150414  1  0
152415  1  0
153416  1  0
154417  1  0
155418  1  0
155419  1  0
156420  1  0
156421  1  0
157422  1  0
157423  1  0
158424  1  6
159425  1  6
160426  1  0
160427  1  0
161428  1  1
162429  1  0
163430  1  0
164431  1  0
165432  1  0
166433  1  0
167434  1  1
168435  1  0
170436  1  0
170437  1  0
171438  1  0
171439  1  0
171440  1  0
173441  1  0
173442  1  0
174443  1  0
174444  1  0
175445  1  0
175446  1  0
176447  1  0
176448  1  0
177449  1  0
177450  1  0
178451  1  0
178452  1  0
180453  1  0
181454  1  0
181455  1  0
182456  1  0
182457  1  0
183458  1  0
184459  1  0
185460  1  0
186461  1  0
187462  1  0
187463  1  0
188464  1  1
189465  1  0
190466  1  6
192467  1  0
192468  1  0
193469  1  0
194470  1  0
195471  1  0
196472  1  0
196473  1  0
196474  1  0
197475  1  0
197476  1  0
197477  1  0
199478  1  0
199479  1  0
199480  1  0
200481  1  0
200482  1  0
200483  1  0
201484  1  0
202485  1  0
204486  1  0
205487  1  0
206488  1  0
207489  1  0
207490  1  0
208491  1  0
208492  1  0
M  END
>  <PDBID>  (1) 
3KEE

>  <PDB ID>  (1) 
3KEE

>  <Generic Name>  (1) 
Simeprevir

>  <Brand Name>  (1) 
Galexos#Olysio

>  <DrugBank ID>  (1) 
DB06290

>  <ATC Codes>  (1) 
J05AE14

>  <Ligand ID>  (1) 
30B

>  <Target Name>  (1) 
NS3 protease

>  <UniProt ID>  (1) 
Q91RS4

>  <PDB ID.1>  (1) 
3KEE

>  <Seq. Identity>  (1) 
82%

$$$$
