PDB_DB00907_00
     RDKit          3D

 53 55  0  0  0  0  0  0  0  0999 V2000
   -1.3582    3.5380    0.3055 C   0  0  0  0  0  0  0  0  0  0  0  0
   -1.9589    2.3078    0.5761 O   0  0  0  0  0  0  0  0  0  0  0  0
   -2.5272    1.7504   -0.5607 C   0  0  0  0  0  0  0  0  0  0  0  0
   -3.9303    1.8587   -0.3472 O   0  0  0  0  0  0  0  0  0  0  0  0
   -2.2070    0.3203   -0.7601 C   0  0  2  0  0  0  0  0  0  0  0  0
   -2.7195   -0.4643    0.4446 C   0  0  2  0  0  0  0  0  0  0  0  0
   -1.7383   -1.5334    0.7011 N   0  0  0  0  0  0  0  0  0  0  0  0
   -2.2458   -2.4485    1.6996 C   0  0  0  0  0  0  0  0  0  0  0  0
   -3.9039   -1.2984    0.0037 C   0  0  0  0  0  0  0  0  0  0  0  0
   -3.2191   -2.2274   -1.0092 C   0  0  0  0  0  0  0  0  0  0  0  0
   -1.7906   -2.2384   -0.5783 C   0  0  1  0  0  0  0  0  0  0  0  0
   -0.8533   -1.5101   -1.5205 C   0  0  0  0  0  0  0  0  0  0  0  0
   -0.7857   -0.0239   -1.0714 C   0  0  2  0  0  0  0  0  0  0  0  0
    0.1015    0.0987   -0.0225 O   0  0  0  0  0  0  0  0  0  0  0  0
    1.2073    0.8723   -0.2656 C   0  0  0  0  0  0  0  0  0  0  0  0
    1.4030    1.9191    0.6162 O   0  0  0  0  0  0  0  0  0  0  0  0
    2.4951    0.0542   -0.2439 C   0  0  0  0  0  0  0  0  0  0  0  0
    3.6714    0.9666   -0.5185 C   0  0  0  0  0  0  0  0  0  0  0  0
    4.9351    0.2016   -0.1044 C   0  0  0  0  0  0  0  0  0  0  0  0
    4.9603    0.1934    1.3949 C   0  0  0  0  0  0  0  0  0  0  0  0
    3.6336   -0.1424    1.9843 C   0  0  0  0  0  0  0  0  0  0  0  0
    2.6528   -0.7297    1.0223 C   0  0  0  0  0  0  0  0  0  0  0  0
   -0.9155    3.9530    1.2332 H   0  0  0  0  0  0  0  0  0  0  0  0
   -0.5798    3.4854   -0.4667 H   0  0  0  0  0  0  0  0  0  0  0  0
   -2.1033    4.3004   -0.0350 H   0  0  0  0  0  0  0  0  0  0  0  0
   -2.3412    2.4211   -1.4231 H   0  0  0  0  0  0  0  0  0  0  0  0
   -4.4002    1.9006   -1.2189 H   0  0  0  0  0  0  0  0  0  0  0  0
   -2.7897   -0.0109   -1.6789 H   0  0  0  0  0  0  0  0  0  0  0  0
   -2.9065    0.1546    1.3177 H   0  0  0  0  0  0  0  0  0  0  0  0
   -2.7248   -3.3464    1.2539 H   0  0  0  0  0  0  0  0  0  0  0  0
   -2.9678   -1.9870    2.3893 H   0  0  0  0  0  0  0  0  0  0  0  0
   -1.3707   -2.8038    2.3021 H   0  0  0  0  0  0  0  0  0  0  0  0
   -4.3228   -1.8673    0.8379 H   0  0  0  0  0  0  0  0  0  0  0  0
   -4.6331   -0.6458   -0.5048 H   0  0  0  0  0  0  0  0  0  0  0  0
   -3.4013   -1.9207   -2.0405 H   0  0  0  0  0  0  0  0  0  0  0  0
   -3.6739   -3.2398   -0.8628 H   0  0  0  0  0  0  0  0  0  0  0  0
   -1.4399   -3.2917   -0.4192 H   0  0  0  0  0  0  0  0  0  0  0  0
    0.1183   -1.9937   -1.4572 H   0  0  0  0  0  0  0  0  0  0  0  0
   -1.1887   -1.5084   -2.5664 H   0  0  0  0  0  0  0  0  0  0  0  0
   -0.4457    0.5580   -1.9326 H   0  0  0  0  0  0  0  0  0  0  0  0
    1.1782    1.2967   -1.3109 H   0  0  0  0  0  0  0  0  0  0  0  0
    1.7232    2.7528    0.1762 H   0  0  0  0  0  0  0  0  0  0  0  0
    2.4726   -0.6771   -1.0844 H   0  0  0  0  0  0  0  0  0  0  0  0
    3.6216    1.8852    0.0966 H   0  0  0  0  0  0  0  0  0  0  0  0
    3.7876    1.1735   -1.6034 H   0  0  0  0  0  0  0  0  0  0  0  0
    5.8132    0.7803   -0.4803 H   0  0  0  0  0  0  0  0  0  0  0  0
    4.9340   -0.8192   -0.5253 H   0  0  0  0  0  0  0  0  0  0  0  0
    5.7629   -0.5135    1.7167 H   0  0  0  0  0  0  0  0  0  0  0  0
    5.3276    1.2045    1.7159 H   0  0  0  0  0  0  0  0  0  0  0  0
    3.8116   -0.9158    2.7816 H   0  0  0  0  0  0  0  0  0  0  0  0
    3.2592    0.7494    2.5267 H   0  0  0  0  0  0  0  0  0  0  0  0
    2.9201   -1.8004    0.8500 H   0  0  0  0  0  0  0  0  0  0  0  0
    1.6529   -0.7386    1.5454 H   0  0  0  0  0  0  0  0  0  0  0  0
  1  2  1  0
  2  3  1  0
  3  4  1  0
  3  5  1  0
  5  6  1  0
  6  7  1  0
  7  8  1  0
  6  9  1  0
  9 10  1  0
  7 11  1  0
 10 11  1  0
 11 12  1  0
  5 13  1  0
 12 13  1  0
 13 14  1  0
 14 15  1  0
 15 16  1  0
 15 17  1  0
 17 18  1  0
 18 19  1  0
 19 20  1  0
 20 21  1  0
 17 22  1  0
 21 22  1  0
  1 23  1  0
  1 24  1  0
  1 25  1  0
  3 26  1  0
  4 27  1  0
  5 28  1  6
  6 29  1  1
  8 30  1  0
  8 31  1  0
  8 32  1  0
  9 33  1  0
  9 34  1  0
 10 35  1  0
 10 36  1  0
 11 37  1  1
 12 38  1  0
 12 39  1  0
 13 40  1  6
 15 41  1  0
 16 42  1  0
 17 43  1  0
 18 44  1  0
 18 45  1  0
 19 46  1  0
 19 47  1  0
 20 48  1  0
 20 49  1  0
 21 50  1  0
 21 51  1  0
 22 52  1  0
 22 53  1  0
M  END
>  <PDBID>  (1) 
4XP4

>  <PDB ID>  (1) 
4XP4

>  <Generic Name>  (1) 
Cocaine

>  <Brand Name>  (1) 
Cocaine Hydrochloride#Cocaine Hydrochloride Top Sol 40mg/ml#Cocaine Hydrochloride Topical Sol 10%#PMS-cocaine Hydrochloride  Topical Sol 4%#PMS-cocaine Hydrochloride Topical Sol 10%

>  <DrugBank ID>  (1) 
DB00907

>  <ATC Codes>  (1) 
S01HA01#N01BC01#R02AD03#S02DA02

>  <Ligand ID>  (1) 
COC

>  <Target Name>  (1) 
Sodium-dependent noradrenaline transporter

>  <UniProt ID>  (1) 
P23975

>  <PDB ID.1>  (1) 
4XP4

>  <Seq. Identity>  (1) 
58%

$$$$
