PDB_DB01041_05
     RDKit          3D

172180  0  0  0  0  0  0  0  0999 V2000
    1.8416   -2.4247    0.0952 O   0  0  0  0  0  0  0  0  0  0  0  0
    2.2527   -1.1309    0.4621 C   0  0  0  0  0  0  0  0  0  0  0  0
    3.6498   -1.0798    0.1869 N   0  0  0  0  0  0  0  0  0  0  0  0
    4.2320    0.2037    0.0215 C   0  0  0  0  0  0  0  0  0  0  0  0
    5.3900    0.0297   -0.7569 O   0  0  0  0  0  0  0  0  0  0  0  0
    3.3889    1.2082   -0.7004 C   0  0  0  0  0  0  0  0  0  0  0  0
    2.0022    1.2176   -0.1111 C   0  0  0  0  0  0  0  0  0  0  0  0
    1.4404   -0.1781   -0.3589 C   0  0  2  0  0  0  0  0  0  0  0  0
    0.0532   -0.2202   -0.1856 N   0  0  0  0  0  0  0  0  0  0  0  0
   -4.0937   -0.3358   -0.4667 C   0  0  0  0  0  0  0  0  0  0  0  0
   -2.7566   -0.9935   -0.7025 C   0  0  0  0  0  0  0  0  0  0  0  0
   -1.9876   -0.8951    0.5844 C   0  0  0  0  0  0  0  0  0  0  0  0
   -1.7845    0.5060    1.0644 C   0  0  0  0  0  0  0  0  0  0  0  0
   -0.0956   -1.6602    1.6885 O   0  0  0  0  0  0  0  0  0  0  0  0
   -1.1595    1.5667   -0.9154 O   0  0  0  0  0  0  0  0  0  0  0  0
   -2.9714    1.3947    0.9802 C   0  0  0  0  0  0  0  0  0  0  0  0
   -3.9194    1.1132   -0.1368 C   0  0  0  0  0  0  0  0  0  0  0  0
   -0.6091    0.9695    0.2296 C   0  0  2  0  0  0  0  0  0  0  0  0
   -0.5401   -1.3542    0.4162 C   0  0  0  0  0  0  0  0  0  0  0  0
    1.8416   -2.4247    0.0952 O   0  0  0  0  0  0  0  0  0  0  0  0
    2.2527   -1.1309    0.4621 C   0  0  0  0  0  0  0  0  0  0  0  0
    3.6498   -1.0798    0.1869 N   0  0  0  0  0  0  0  0  0  0  0  0
    4.2320    0.2037    0.0215 C   0  0  0  0  0  0  0  0  0  0  0  0
    5.3900    0.0297   -0.7569 O   0  0  0  0  0  0  0  0  0  0  0  0
    3.3889    1.2082   -0.7004 C   0  0  0  0  0  0  0  0  0  0  0  0
    2.0022    1.2176   -0.1111 C   0  0  0  0  0  0  0  0  0  0  0  0
    1.4404   -0.1781   -0.3589 C   0  0  2  0  0  0  0  0  0  0  0  0
    0.0532   -0.2202   -0.1856 N   0  0  0  0  0  0  0  0  0  0  0  0
   -4.0937   -0.3358   -0.4667 C   0  0  0  0  0  0  0  0  0  0  0  0
   -2.7566   -0.9935   -0.7025 C   0  0  0  0  0  0  0  0  0  0  0  0
   -1.9876   -0.8951    0.5844 C   0  0  0  0  0  0  0  0  0  0  0  0
   -1.7845    0.5060    1.0644 C   0  0  0  0  0  0  0  0  0  0  0  0
   -0.0956   -1.6602    1.6885 O   0  0  0  0  0  0  0  0  0  0  0  0
   -1.1595    1.5667   -0.9154 O   0  0  0  0  0  0  0  0  0  0  0  0
   -2.9714    1.3947    0.9802 C   0  0  0  0  0  0  0  0  0  0  0  0
   -3.9194    1.1132   -0.1368 C   0  0  0  0  0  0  0  0  0  0  0  0
   -0.6091    0.9695    0.2296 C   0  0  2  0  0  0  0  0  0  0  0  0
   -0.5401   -1.3542    0.4162 C   0  0  0  0  0  0  0  0  0  0  0  0
    2.5009   -2.1061    0.5866 O   0  0  0  0  0  0  0  0  0  0  0  0
    2.3522   -0.7164    0.8175 C   0  0  0  0  0  0  0  0  0  0  0  0
    3.6181   -0.1603    1.0685 N   0  0  0  0  0  0  0  0  0  0  0  0
    4.3581    0.3519   -0.0311 C   0  0  0  0  0  0  0  0  0  0  0  0
    5.1502   -0.6241   -0.6377 O   0  0  0  0  0  0  0  0  0  0  0  0
    3.5387    1.0397   -1.0796 C   0  0  0  0  0  0  0  0  0  0  0  0
    2.1102    1.2481   -0.6539 C   0  0  0  0  0  0  0  0  0  0  0  0
    1.5788   -0.1583   -0.3274 C   0  0  2  0  0  0  0  0  0  0  0  0
    0.2185   -0.0868   -0.2195 N   0  0  0  0  0  0  0  0  0  0  0  0
   -4.3390   -0.2972   -0.3924 C   0  0  0  0  0  0  0  0  0  0  0  0
   -3.0891   -0.8156   -1.0636 C   0  0  0  0  0  0  0  0  0  0  0  0
   -1.9715   -0.7284   -0.0963 C   0  0  0  0  0  0  0  0  0  0  0  0
   -1.7876    0.7799    0.1623 C   0  0  0  0  0  0  0  0  0  0  0  0
   -0.2495   -2.2859    0.1351 O   0  0  0  0  0  0  0  0  0  0  0  0
   -0.4323    0.1563    2.0260 O   0  0  0  0  0  0  0  0  0  0  0  0
   -2.8865    1.1502    1.0731 C   0  0  0  0  0  0  0  0  0  0  0  0
   -4.1785    1.0167    0.2867 C   0  0  0  0  0  0  0  0  0  0  0  0
   -0.4030    0.7250    0.7684 C   0  0  0  0  0  0  0  0  0  0  0  0
   -0.6282   -1.1436   -0.5971 C   0  0  0  0  0  0  0  0  0  0  0  0
    1.8416   -2.4247    0.0952 O   0  0  0  0  0  0  0  0  0  0  0  0
    2.2527   -1.1309    0.4621 C   0  0  0  0  0  0  0  0  0  0  0  0
    3.6498   -1.0798    0.1869 N   0  0  0  0  0  0  0  0  0  0  0  0
    4.2320    0.2037    0.0215 C   0  0  0  0  0  0  0  0  0  0  0  0
    5.3900    0.0297   -0.7569 O   0  0  0  0  0  0  0  0  0  0  0  0
    3.3889    1.2082   -0.7004 C   0  0  0  0  0  0  0  0  0  0  0  0
    2.0022    1.2176   -0.1111 C   0  0  0  0  0  0  0  0  0  0  0  0
    1.4404   -0.1781   -0.3589 C   0  0  2  0  0  0  0  0  0  0  0  0
    0.0532   -0.2202   -0.1856 N   0  0  0  0  0  0  0  0  0  0  0  0
   -4.0937   -0.3358   -0.4667 C   0  0  0  0  0  0  0  0  0  0  0  0
   -2.7566   -0.9935   -0.7025 C   0  0  0  0  0  0  0  0  0  0  0  0
   -1.9876   -0.8951    0.5844 C   0  0  0  0  0  0  0  0  0  0  0  0
   -1.7845    0.5060    1.0644 C   0  0  0  0  0  0  0  0  0  0  0  0
   -0.0956   -1.6602    1.6885 O   0  0  0  0  0  0  0  0  0  0  0  0
   -1.1595    1.5667   -0.9154 O   0  0  0  0  0  0  0  0  0  0  0  0
   -2.9714    1.3947    0.9802 C   0  0  0  0  0  0  0  0  0  0  0  0
   -3.9194    1.1132   -0.1368 C   0  0  0  0  0  0  0  0  0  0  0  0
   -0.6091    0.9695    0.2296 C   0  0  2  0  0  0  0  0  0  0  0  0
   -0.5401   -1.3542    0.4162 C   0  0  0  0  0  0  0  0  0  0  0  0
    2.3400   -2.6500   -0.7425 H   0  0  0  0  0  0  0  0  0  0  0  0
    2.1121   -0.9357    1.5401 H   0  0  0  0  0  0  0  0  0  0  0  0
    4.0173   -1.8316   -0.4166 H   0  0  0  0  0  0  0  0  0  0  0  0
    4.5611    0.6609    0.9720 H   0  0  0  0  0  0  0  0  0  0  0  0
    5.2059   -0.7116   -1.4016 H   0  0  0  0  0  0  0  0  0  0  0  0
    3.8930    2.1885   -0.6226 H   0  0  0  0  0  0  0  0  0  0  0  0
    3.3492    0.9524   -1.7704 H   0  0  0  0  0  0  0  0  0  0  0  0
    2.0501    1.4609    0.9659 H   0  0  0  0  0  0  0  0  0  0  0  0
    1.4278    1.9870   -0.6561 H   0  0  0  0  0  0  0  0  0  0  0  0
    1.6798   -0.3985   -1.4310 H   0  0  0  0  0  0  0  0  0  0  0  0
   -4.6504   -0.8966    0.2968 H   0  0  0  0  0  0  0  0  0  0  0  0
   -4.6636   -0.3963   -1.4191 H   0  0  0  0  0  0  0  0  0  0  0  0
   -2.9325   -2.0699   -0.9040 H   0  0  0  0  0  0  0  0  0  0  0  0
   -2.2282   -0.5654   -1.5664 H   0  0  0  0  0  0  0  0  0  0  0  0
   -2.4610   -1.5642    1.3309 H   0  0  0  0  0  0  0  0  0  0  0  0
   -1.4566    0.4622    2.1240 H   0  0  0  0  0  0  0  0  0  0  0  0
   -0.7282   -1.4474    2.4062 H   0  0  0  0  0  0  0  0  0  0  0  0
   -0.6273    1.3154   -1.7171 H   0  0  0  0  0  0  0  0  0  0  0  0
   -2.5894    2.4362    0.8224 H   0  0  0  0  0  0  0  0  0  0  0  0
   -3.4935    1.4401    1.9702 H   0  0  0  0  0  0  0  0  0  0  0  0
   -4.9233    1.4953    0.1801 H   0  0  0  0  0  0  0  0  0  0  0  0
   -3.6868    1.6598   -1.0769 H   0  0  0  0  0  0  0  0  0  0  0  0
    0.0085    1.6944    0.7754 H   0  0  0  0  0  0  0  0  0  0  0  0
   -0.5372   -2.2229   -0.2769 H   0  0  0  0  0  0  0  0  0  0  0  0
    2.3400   -2.6500   -0.7425 H   0  0  0  0  0  0  0  0  0  0  0  0
    2.1121   -0.9357    1.5401 H   0  0  0  0  0  0  0  0  0  0  0  0
    4.0173   -1.8316   -0.4166 H   0  0  0  0  0  0  0  0  0  0  0  0
    4.5611    0.6609    0.9720 H   0  0  0  0  0  0  0  0  0  0  0  0
    5.2059   -0.7116   -1.4016 H   0  0  0  0  0  0  0  0  0  0  0  0
    3.8930    2.1885   -0.6226 H   0  0  0  0  0  0  0  0  0  0  0  0
    3.3492    0.9524   -1.7704 H   0  0  0  0  0  0  0  0  0  0  0  0
    2.0501    1.4609    0.9659 H   0  0  0  0  0  0  0  0  0  0  0  0
    1.4278    1.9870   -0.6561 H   0  0  0  0  0  0  0  0  0  0  0  0
    1.6798   -0.3985   -1.4310 H   0  0  0  0  0  0  0  0  0  0  0  0
   -4.6504   -0.8966    0.2968 H   0  0  0  0  0  0  0  0  0  0  0  0
   -4.6636   -0.3963   -1.4191 H   0  0  0  0  0  0  0  0  0  0  0  0
   -2.9325   -2.0699   -0.9040 H   0  0  0  0  0  0  0  0  0  0  0  0
   -2.2282   -0.5654   -1.5664 H   0  0  0  0  0  0  0  0  0  0  0  0
   -2.4610   -1.5642    1.3309 H   0  0  0  0  0  0  0  0  0  0  0  0
   -1.4566    0.4622    2.1240 H   0  0  0  0  0  0  0  0  0  0  0  0
   -0.7282   -1.4474    2.4062 H   0  0  0  0  0  0  0  0  0  0  0  0
   -0.6273    1.3154   -1.7171 H   0  0  0  0  0  0  0  0  0  0  0  0
   -2.5894    2.4362    0.8224 H   0  0  0  0  0  0  0  0  0  0  0  0
   -3.4935    1.4401    1.9702 H   0  0  0  0  0  0  0  0  0  0  0  0
   -4.9233    1.4953    0.1801 H   0  0  0  0  0  0  0  0  0  0  0  0
   -3.6868    1.6598   -1.0769 H   0  0  0  0  0  0  0  0  0  0  0  0
    0.0085    1.6944    0.7754 H   0  0  0  0  0  0  0  0  0  0  0  0
   -0.5372   -2.2229   -0.2769 H   0  0  0  0  0  0  0  0  0  0  0  0
    2.4497   -2.3075   -0.3758 H   0  0  0  0  0  0  0  0  0  0  0  0
    1.7377   -0.6443    1.7388 H   0  0  0  0  0  0  0  0  0  0  0  0
    4.2135   -0.8662    1.5722 H   0  0  0  0  0  0  0  0  0  0  0  0
    5.0707    1.1146    0.3729 H   0  0  0  0  0  0  0  0  0  0  0  0
    4.6068   -1.3342   -1.0546 H   0  0  0  0  0  0  0  0  0  0  0  0
    3.9403    2.0310   -1.3740 H   0  0  0  0  0  0  0  0  0  0  0  0
    3.5167    0.4060   -1.9903 H   0  0  0  0  0  0  0  0  0  0  0  0
    1.9741    1.9360    0.1742 H   0  0  0  0  0  0  0  0  0  0  0  0
    1.5495    1.5526   -1.5850 H   0  0  0  0  0  0  0  0  0  0  0  0
    1.8514   -0.7602   -1.2308 H   0  0  0  0  0  0  0  0  0  0  0  0
   -4.7333   -1.0964    0.2583 H   0  0  0  0  0  0  0  0  0  0  0  0
   -5.0965   -0.1648   -1.2101 H   0  0  0  0  0  0  0  0  0  0  0  0
   -3.3032   -1.8480   -1.4094 H   0  0  0  0  0  0  0  0  0  0  0  0
   -2.8726   -0.1087   -1.9075 H   0  0  0  0  0  0  0  0  0  0  0  0
   -2.2575   -1.2013    0.8742 H   0  0  0  0  0  0  0  0  0  0  0  0
   -1.7521    1.3360   -0.7858 H   0  0  0  0  0  0  0  0  0  0  0  0
   -0.5703   -2.0984    1.0729 H   0  0  0  0  0  0  0  0  0  0  0  0
   -0.1438    0.7675    2.7485 H   0  0  0  0  0  0  0  0  0  0  0  0
   -2.8460    2.1971    1.4303 H   0  0  0  0  0  0  0  0  0  0  0  0
   -2.9345    0.4130    1.9060 H   0  0  0  0  0  0  0  0  0  0  0  0
   -5.0289    1.1625    0.9837 H   0  0  0  0  0  0  0  0  0  0  0  0
   -4.2062    1.8608   -0.4239 H   0  0  0  0  0  0  0  0  0  0  0  0
    0.0025    1.7285    0.8338 H   0  0  0  0  0  0  0  0  0  0  0  0
   -0.6286   -1.4205   -1.6665 H   0  0  0  0  0  0  0  0  0  0  0  0
    2.3400   -2.6500   -0.7425 H   0  0  0  0  0  0  0  0  0  0  0  0
    2.1121   -0.9357    1.5401 H   0  0  0  0  0  0  0  0  0  0  0  0
    4.0173   -1.8316   -0.4166 H   0  0  0  0  0  0  0  0  0  0  0  0
    4.5611    0.6609    0.9720 H   0  0  0  0  0  0  0  0  0  0  0  0
    5.2059   -0.7116   -1.4016 H   0  0  0  0  0  0  0  0  0  0  0  0
    3.8930    2.1885   -0.6226 H   0  0  0  0  0  0  0  0  0  0  0  0
    3.3492    0.9524   -1.7704 H   0  0  0  0  0  0  0  0  0  0  0  0
    2.0501    1.4609    0.9659 H   0  0  0  0  0  0  0  0  0  0  0  0
    1.4278    1.9870   -0.6561 H   0  0  0  0  0  0  0  0  0  0  0  0
    1.6798   -0.3985   -1.4310 H   0  0  0  0  0  0  0  0  0  0  0  0
   -4.6504   -0.8966    0.2968 H   0  0  0  0  0  0  0  0  0  0  0  0
   -4.6636   -0.3963   -1.4191 H   0  0  0  0  0  0  0  0  0  0  0  0
   -2.9325   -2.0699   -0.9040 H   0  0  0  0  0  0  0  0  0  0  0  0
   -2.2282   -0.5654   -1.5664 H   0  0  0  0  0  0  0  0  0  0  0  0
   -2.4610   -1.5642    1.3309 H   0  0  0  0  0  0  0  0  0  0  0  0
   -1.4566    0.4622    2.1240 H   0  0  0  0  0  0  0  0  0  0  0  0
   -0.7282   -1.4474    2.4062 H   0  0  0  0  0  0  0  0  0  0  0  0
   -0.6273    1.3154   -1.7171 H   0  0  0  0  0  0  0  0  0  0  0  0
   -2.5894    2.4362    0.8224 H   0  0  0  0  0  0  0  0  0  0  0  0
   -3.4935    1.4401    1.9702 H   0  0  0  0  0  0  0  0  0  0  0  0
   -4.9233    1.4953    0.1801 H   0  0  0  0  0  0  0  0  0  0  0  0
   -3.6868    1.6598   -1.0769 H   0  0  0  0  0  0  0  0  0  0  0  0
    0.0085    1.6944    0.7754 H   0  0  0  0  0  0  0  0  0  0  0  0
   -0.5372   -2.2229   -0.2769 H   0  0  0  0  0  0  0  0  0  0  0  0
  1  2  1  0
  2  3  1  0
  3  4  1  0
  4  5  1  0
  4  6  1  0
  6  7  1  0
  2  8  1  0
  7  8  1  0
  8  9  1  0
 10 11  1  0
 11 12  1  0
 12 13  1  0
 13 16  1  0
 10 17  1  0
 16 17  1  0
  9 18  1  0
 13 18  1  0
 15 18  1  0
  9 19  1  0
 12 19  1  0
 14 19  1  0
 20 21  1  0
 21 22  1  0
 22 23  1  0
 23 24  1  0
 23 25  1  0
 25 26  1  0
 21 27  1  0
 26 27  1  0
 27 28  1  0
 29 30  1  0
 30 31  1  0
 31 32  1  0
 32 35  1  0
 29 36  1  0
 35 36  1  0
 28 37  1  0
 32 37  1  0
 34 37  1  0
 28 38  1  0
 31 38  1  0
 33 38  1  0
 39 40  1  0
 40 41  1  0
 41 42  1  0
 42 43  1  0
 42 44  1  0
 44 45  1  0
 40 46  1  0
 45 46  1  0
 46 47  1  0
 48 49  1  0
 49 50  1  0
 50 51  1  0
 51 54  1  0
 48 55  1  0
 54 55  1  0
 47 56  1  0
 51 56  1  0
 53 56  1  0
 47 57  1  0
 50 57  1  0
 52 57  1  0
 58 59  1  0
 59 60  1  0
 60 61  1  0
 61 62  1  0
 61 63  1  0
 63 64  1  0
 59 65  1  0
 64 65  1  0
 65 66  1  0
 67 68  1  0
 68 69  1  0
 69 70  1  0
 70 73  1  0
 67 74  1  0
 73 74  1  0
 66 75  1  0
 70 75  1  0
 72 75  1  0
 66 76  1  0
 69 76  1  0
 71 76  1  0
  1 77  1  0
  2 78  1  0
  3 79  1  0
  4 80  1  0
  5 81  1  0
  6 82  1  0
  6 83  1  0
  7 84  1  0
  7 85  1  0
  8 86  1  6
 10 87  1  0
 10 88  1  0
 11 89  1  0
 11 90  1  0
 12 91  1  0
 13 92  1  0
 14 93  1  0
 15 94  1  0
 16 95  1  0
 16 96  1  0
 17 97  1  0
 17 98  1  0
 18 99  1  1
 19100  1  0
 20101  1  0
 21102  1  0
 22103  1  0
 23104  1  0
 24105  1  0
 25106  1  0
 25107  1  0
 26108  1  0
 26109  1  0
 27110  1  6
 29111  1  0
 29112  1  0
 30113  1  0
 30114  1  0
 31115  1  0
 32116  1  0
 33117  1  0
 34118  1  0
 35119  1  0
 35120  1  0
 36121  1  0
 36122  1  0
 37123  1  1
 38124  1  0
 39125  1  0
 40126  1  0
 41127  1  0
 42128  1  0
 43129  1  0
 44130  1  0
 44131  1  0
 45132  1  0
 45133  1  0
 46134  1  6
 48135  1  0
 48136  1  0
 49137  1  0
 49138  1  0
 50139  1  0
 51140  1  0
 52141  1  0
 53142  1  0
 54143  1  0
 54144  1  0
 55145  1  0
 55146  1  0
 56147  1  0
 57148  1  0
 58149  1  0
 59150  1  0
 60151  1  0
 61152  1  0
 62153  1  0
 63154  1  0
 63155  1  0
 64156  1  0
 64157  1  0
 65158  1  6
 67159  1  0
 67160  1  0
 68161  1  0
 68162  1  0
 69163  1  0
 70164  1  0
 71165  1  0
 72166  1  0
 73167  1  0
 73168  1  0
 74169  1  0
 74170  1  0
 75171  1  1
 76172  1  0
M  END
>  <PDBID>  (1) 
4TZC

>  <PDB ID>  (1) 
4TZC

>  <Generic Name>  (1) 
Thalidomide

>  <Brand Name>  (1) 
Thalomid#Contergan#Distaval#K-17#Pro-ban M#Sedalis#Softenon#Talimol#Thaled

>  <DrugBank ID>  (1) 
DB01041

>  <ATC Codes>  (1) 
L04AX02

>  <Ligand ID>  (1) 
EF2

>  <Target Name>  (1) 
Protein cereblon

>  <UniProt ID>  (1) 
Q96SW2

>  <PDB ID.1>  (1) 
4TZC

>  <Seq. Identity>  (1) 
97%

$$$$
