PDB_DB00787_02
     RDKit          3D

 70 72  0  0  0  0  0  0  0  0999 V2000
    4.0705    0.0296    0.2163 C   0  0  0  0  0  0  0  0  0  0  0  0
    3.2488    0.8037    0.9813 O   0  0  0  0  0  0  0  0  0  0  0  0
    3.5484   -1.3545    0.0789 C   0  0  0  0  0  0  0  0  0  0  0  0
    2.3321   -1.5246   -0.4969 O   0  0  0  0  0  0  0  0  0  0  0  0
    1.2452   -0.9251    0.1084 C   0  0  0  0  0  0  0  0  0  0  0  0
    0.0832   -1.2981   -0.6874 N   0  0  0  0  0  0  0  0  0  0  0  0
    0.1899   -0.8522   -2.0515 C   0  0  0  0  0  0  0  0  0  0  0  0
   -0.9805   -0.0185   -2.3301 N   0  0  0  0  0  0  0  0  0  0  0  0
   -1.3095    0.4801   -1.0380 C   0  0  0  0  0  0  0  0  0  0  0  0
   -2.7333    0.8786   -0.8393 C   0  0  0  0  0  0  0  0  0  0  0  0
   -2.9379    2.1037   -1.4920 O   0  0  0  0  0  0  0  0  0  0  0  0
   -3.0195    1.0686    0.5557 N   0  0  0  0  0  0  0  0  0  0  0  0
   -2.5472    0.0707    1.4304 C   0  0  0  0  0  0  0  0  0  0  0  0
   -2.6726    0.5276    2.7973 N   0  0  0  0  0  0  0  0  0  0  0  0
   -1.1688   -0.3616    1.1603 N   0  0  0  0  0  0  0  0  0  0  0  0
   -1.1374   -0.7950   -0.1928 C   0  0  0  0  0  0  0  0  0  0  0  0
    3.8411   -0.7848    0.6701 C   0  0  0  0  0  0  0  0  0  0  0  0
    3.0057    0.1210    1.2681 O   0  0  0  0  0  0  0  0  0  0  0  0
    3.1413   -1.6502   -0.3373 C   0  0  0  0  0  0  0  0  0  0  0  0
    2.5892   -0.9614   -1.3601 O   0  0  0  0  0  0  0  0  0  0  0  0
    1.6346   -0.0468   -1.0365 C   0  0  0  0  0  0  0  0  0  0  0  0
    0.4972   -0.6397   -0.3103 N   0  0  0  0  0  0  0  0  0  0  0  0
   -0.0588   -1.6413   -1.2119 C   0  0  0  0  0  0  0  0  0  0  0  0
   -1.3143   -1.0614   -1.7118 N   0  0  0  0  0  0  0  0  0  0  0  0
   -1.7679   -0.3578   -0.5445 C   0  0  2  0  0  0  0  0  0  0  0  0
   -2.7968    0.6841   -0.8053 C   0  0  0  0  0  0  0  0  0  0  0  0
   -2.3716    1.4200   -1.9340 O   0  0  0  0  0  0  0  0  0  0  0  0
   -2.7924    1.6130    0.3123 N   0  0  0  0  0  0  0  0  0  0  0  0
   -2.0572    1.1055    1.4489 C   0  0  0  0  0  0  0  0  0  0  0  0
   -2.1255    2.1188    2.4864 N   0  0  0  0  0  0  0  0  0  0  0  0
   -0.6601    0.8790    1.1623 N   0  0  0  0  0  0  0  0  0  0  0  0
   -0.4799    0.3864   -0.1596 C   0  0  0  0  0  0  0  0  0  0  0  0
    5.0837   -0.0184    0.7111 H   0  0  0  0  0  0  0  0  0  0  0  0
    4.2606    0.5133   -0.7683 H   0  0  0  0  0  0  0  0  0  0  0  0
    3.6587    1.6443    1.3035 H   0  0  0  0  0  0  0  0  0  0  0  0
    4.2886   -1.9120   -0.5754 H   0  0  0  0  0  0  0  0  0  0  0  0
    3.6515   -1.8886    1.0664 H   0  0  0  0  0  0  0  0  0  0  0  0
    1.1122   -1.3043    1.1209 H   0  0  0  0  0  0  0  0  0  0  0  0
    1.2861    0.1854    0.0345 H   0  0  0  0  0  0  0  0  0  0  0  0
    0.0980   -1.7377   -2.7175 H   0  0  0  0  0  0  0  0  0  0  0  0
    1.1303   -0.2989   -2.2018 H   0  0  0  0  0  0  0  0  0  0  0  0
   -0.6714    0.6896   -3.0145 H   0  0  0  0  0  0  0  0  0  0  0  0
   -0.5943    1.2312   -0.6497 H   0  0  0  0  0  0  0  0  0  0  0  0
   -3.3779    0.1404   -1.3307 H   0  0  0  0  0  0  0  0  0  0  0  0
   -2.6813    2.8076   -0.8473 H   0  0  0  0  0  0  0  0  0  0  0  0
   -2.9888    2.0359    0.8824 H   0  0  0  0  0  0  0  0  0  0  0  0
   -3.1713   -0.8370    1.3358 H   0  0  0  0  0  0  0  0  0  0  0  0
   -1.8709    1.1202    3.0958 H   0  0  0  0  0  0  0  0  0  0  0  0
   -2.8401   -0.2611    3.4568 H   0  0  0  0  0  0  0  0  0  0  0  0
   -0.5688    0.4825    1.2970 H   0  0  0  0  0  0  0  0  0  0  0  0
   -2.0163   -1.4253   -0.3997 H   0  0  0  0  0  0  0  0  0  0  0  0
    4.3380   -1.4716    1.3933 H   0  0  0  0  0  0  0  0  0  0  0  0
    4.6080   -0.1820    0.1100 H   0  0  0  0  0  0  0  0  0  0  0  0
    3.5461    0.8855    1.5933 H   0  0  0  0  0  0  0  0  0  0  0  0
    3.8805   -2.3972   -0.7687 H   0  0  0  0  0  0  0  0  0  0  0  0
    2.3005   -2.2376    0.1541 H   0  0  0  0  0  0  0  0  0  0  0  0
    1.9665    0.8784   -0.5631 H   0  0  0  0  0  0  0  0  0  0  0  0
    1.1585    0.2650   -2.0347 H   0  0  0  0  0  0  0  0  0  0  0  0
   -0.2617   -2.5840   -0.6435 H   0  0  0  0  0  0  0  0  0  0  0  0
    0.6240   -1.9012   -2.0316 H   0  0  0  0  0  0  0  0  0  0  0  0
   -1.9425   -1.7887   -2.0598 H   0  0  0  0  0  0  0  0  0  0  0  0
   -2.0723   -1.0406    0.2744 H   0  0  0  0  0  0  0  0  0  0  0  0
   -3.8031    0.2887   -1.0291 H   0  0  0  0  0  0  0  0  0  0  0  0
   -1.9369    2.2734   -1.6629 H   0  0  0  0  0  0  0  0  0  0  0  0
   -3.7870    1.7042    0.6169 H   0  0  0  0  0  0  0  0  0  0  0  0
   -2.5409    0.1831    1.8378 H   0  0  0  0  0  0  0  0  0  0  0  0
   -1.3272    2.7637    2.4876 H   0  0  0  0  0  0  0  0  0  0  0  0
   -2.3853    1.7277    3.4048 H   0  0  0  0  0  0  0  0  0  0  0  0
   -0.2870    0.2392    1.8954 H   0  0  0  0  0  0  0  0  0  0  0  0
   -0.3624    1.2098   -0.9112 H   0  0  0  0  0  0  0  0  0  0  0  0
  1  2  1  0
  1  3  1  0
  3  4  1  0
  4  5  1  0
  5  6  1  0
  6  7  1  0
  7  8  1  0
  8  9  1  0
  9 10  1  0
 10 11  1  0
 10 12  1  0
 12 13  1  0
 13 14  1  0
 13 15  1  0
  6 16  1  0
  9 16  1  0
 15 16  1  0
 17 18  1  0
 17 19  1  0
 19 20  1  0
 20 21  1  0
 21 22  1  0
 22 23  1  0
 23 24  1  0
 24 25  1  0
 25 26  1  0
 26 27  1  0
 26 28  1  0
 28 29  1  0
 29 30  1  0
 29 31  1  0
 22 32  1  0
 25 32  1  0
 31 32  1  0
  1 33  1  0
  1 34  1  0
  2 35  1  0
  3 36  1  0
  3 37  1  0
  5 38  1  0
  5 39  1  0
  7 40  1  0
  7 41  1  0
  8 42  1  0
  9 43  1  0
 10 44  1  0
 11 45  1  0
 12 46  1  0
 13 47  1  0
 14 48  1  0
 14 49  1  0
 15 50  1  0
 16 51  1  0
 17 52  1  0
 17 53  1  0
 18 54  1  0
 19 55  1  0
 19 56  1  0
 21 57  1  0
 21 58  1  0
 23 59  1  0
 23 60  1  0
 24 61  1  0
 25 62  1  1
 26 63  1  0
 27 64  1  0
 28 65  1  0
 29 66  1  0
 30 67  1  0
 30 68  1  0
 31 69  1  0
 32 70  1  0
M  END
>  <PDBID>  (1) 
2KI5

>  <PDB ID>  (1) 
2KI5

>  <Generic Name>  (1) 
Aciclovir

>  <Brand Name>  (1) 
Acyclovir#Acyclovir Sodium#Acyclovir Sodium Injection#Acyclovir Sodium for Injection#Acyclovir-200#Acyclovir-400#Acyclovir-800#Alti-acyclovir - 400mg#Alti-acyclovir - 800mg#Alti-acyclovir - Tab 200mg#Apo-acyclovir - Tab 200mg#Apo-acyclovir - Tab 400mg#Apo-acyclovir - Tab 800mg#Mylan-acyclovir#Ntp-acyclovir#Nu-acyclovir - Tab 200mg#Nu-acyclovir - Tab 400mg#Nu-acyclovir - Tab 800mg#Ratio-acyclovir#Sitavig#Teva-acyclovir#Xerese#Zovirax#Zovirax 400#Zovirax 800#Zovirax Cap 200mg#Zovirax Tab 200mg#Zovir

>  <DrugBank ID>  (1) 
DB00787

>  <ATC Codes>  (1) 
S01AD03#D06BB03#J05AB01#D06BB53

>  <Ligand ID>  (1) 
AC2

>  <Target Name>  (1) 
Thymidine kinase

>  <UniProt ID>  (1) 
P03176

>  <PDB ID.1>  (1) 
2KI5

>  <Seq. Identity>  (1) 
100%

$$$$
