PDB_DB00674_06
     RDKit          3D

100106  0  0  0  0  0  0  0  0999 V2000
    1.3696    0.3104   -1.5460 C   0  0  0  0  0  0  0  0  0  0  0  0
    1.7587   -0.9563   -2.3239 C   0  0  0  0  0  0  0  0  0  0  0  0
    2.9722   -1.4860   -1.5844 C   0  0  1  0  0  0  0  0  0  0  0  0
    2.5042   -2.0126   -0.2716 C   0  0  0  0  0  0  0  0  0  0  0  0
    1.3066   -1.3956    0.3024 C   0  0  1  0  0  0  0  0  0  0  0  0
    0.9599   -0.0201   -0.1443 C   0  0  1  0  0  0  0  0  0  0  0  0
    0.1237   -2.1567    0.1242 O   0  0  0  0  0  0  0  0  0  0  0  0
   -2.2106   -1.6468    0.5611 C   0  0  0  0  0  0  0  0  0  0  0  0
   -2.9773   -0.5590    1.3307 C   0  0  0  0  0  0  0  0  0  0  0  0
   -2.6528    0.7922    0.7767 C   0  0  0  0  0  0  0  0  0  0  0  0
   -0.9483    2.4369    0.1984 C   0  0  0  0  0  0  0  0  0  0  0  0
    0.1977    3.0580    0.8821 N   0  0  0  0  0  0  0  0  0  0  0  0
    1.3796    2.4121    0.2893 C   0  0  0  0  0  0  0  0  0  0  0  0
    1.5659    1.0144    0.7764 C   0  0  0  0  0  0  0  0  0  0  0  0
   -0.7787   -1.3197    0.7093 C   0  0  0  0  0  0  0  0  0  0  0  0
   -0.5468   -0.0265   -0.0924 C   0  0  0  0  0  0  0  0  0  0  0  0
   -1.1467    1.0578    0.7287 C   0  0  0  0  0  0  0  0  0  0  0  0
   -3.2093   -3.6192   -0.0450 C   0  0  0  0  0  0  0  0  0  0  0  0
   -2.5770   -2.9023    0.9584 O   0  0  0  0  0  0  0  0  0  0  0  0
    3.6888   -2.4087   -2.3360 O   0  0  0  0  0  0  0  0  0  0  0  0
    0.2284    4.4374    0.4228 C   0  0  0  0  0  0  0  0  0  0  0  0
    1.3696    0.3104   -1.5460 C   0  0  0  0  0  0  0  0  0  0  0  0
    1.7587   -0.9563   -2.3239 C   0  0  0  0  0  0  0  0  0  0  0  0
    2.9722   -1.4860   -1.5844 C   0  0  1  0  0  0  0  0  0  0  0  0
    2.5042   -2.0126   -0.2716 C   0  0  0  0  0  0  0  0  0  0  0  0
    1.3066   -1.3956    0.3024 C   0  0  1  0  0  0  0  0  0  0  0  0
    0.9599   -0.0201   -0.1443 C   0  0  1  0  0  0  0  0  0  0  0  0
    0.1237   -2.1567    0.1242 O   0  0  0  0  0  0  0  0  0  0  0  0
   -2.2106   -1.6468    0.5611 C   0  0  0  0  0  0  0  0  0  0  0  0
   -2.9773   -0.5590    1.3307 C   0  0  0  0  0  0  0  0  0  0  0  0
   -2.6528    0.7922    0.7767 C   0  0  0  0  0  0  0  0  0  0  0  0
   -0.9483    2.4369    0.1984 C   0  0  0  0  0  0  0  0  0  0  0  0
    0.1977    3.0580    0.8821 N   0  0  0  0  0  0  0  0  0  0  0  0
    1.3796    2.4121    0.2893 C   0  0  0  0  0  0  0  0  0  0  0  0
    1.5659    1.0144    0.7764 C   0  0  0  0  0  0  0  0  0  0  0  0
   -0.7787   -1.3197    0.7093 C   0  0  0  0  0  0  0  0  0  0  0  0
   -0.5468   -0.0265   -0.0924 C   0  0  0  0  0  0  0  0  0  0  0  0
   -1.1467    1.0578    0.7287 C   0  0  0  0  0  0  0  0  0  0  0  0
   -3.2093   -3.6192   -0.0450 C   0  0  0  0  0  0  0  0  0  0  0  0
   -2.5770   -2.9023    0.9584 O   0  0  0  0  0  0  0  0  0  0  0  0
    3.6888   -2.4087   -2.3360 O   0  0  0  0  0  0  0  0  0  0  0  0
    0.2284    4.4374    0.4228 C   0  0  0  0  0  0  0  0  0  0  0  0
    0.5523    0.7822   -2.1203 H   0  0  0  0  0  0  0  0  0  0  0  0
    2.3071    0.9245   -1.5504 H   0  0  0  0  0  0  0  0  0  0  0  0
    2.0011   -0.6446   -3.3428 H   0  0  0  0  0  0  0  0  0  0  0  0
    0.9471   -1.7077   -2.2681 H   0  0  0  0  0  0  0  0  0  0  0  0
    3.6592   -0.6119   -1.4110 H   0  0  0  0  0  0  0  0  0  0  0  0
    2.3020   -3.1156   -0.4170 H   0  0  0  0  0  0  0  0  0  0  0  0
    3.3836   -2.0050    0.4381 H   0  0  0  0  0  0  0  0  0  0  0  0
    1.4290   -1.3558    1.4253 H   0  0  0  0  0  0  0  0  0  0  0  0
   -2.5191   -1.4997   -0.5074 H   0  0  0  0  0  0  0  0  0  0  0  0
   -2.6063   -0.6026    2.3968 H   0  0  0  0  0  0  0  0  0  0  0  0
   -4.0498   -0.7185    1.2523 H   0  0  0  0  0  0  0  0  0  0  0  0
   -3.1458    1.5697    1.3560 H   0  0  0  0  0  0  0  0  0  0  0  0
   -2.9700    0.7815   -0.3069 H   0  0  0  0  0  0  0  0  0  0  0  0
   -1.8368    3.0619    0.4571 H   0  0  0  0  0  0  0  0  0  0  0  0
   -0.7903    2.4139   -0.8802 H   0  0  0  0  0  0  0  0  0  0  0  0
    1.2140    2.4806   -0.8100 H   0  0  0  0  0  0  0  0  0  0  0  0
    2.2607    3.0181    0.5586 H   0  0  0  0  0  0  0  0  0  0  0  0
    1.2459    0.8733    1.8110 H   0  0  0  0  0  0  0  0  0  0  0  0
    2.6767    0.8107    0.7681 H   0  0  0  0  0  0  0  0  0  0  0  0
   -0.5295   -1.0554    1.7580 H   0  0  0  0  0  0  0  0  0  0  0  0
   -1.0228   -0.0654   -1.0725 H   0  0  0  0  0  0  0  0  0  0  0  0
   -0.7903    0.9918    1.7979 H   0  0  0  0  0  0  0  0  0  0  0  0
   -2.5087   -3.7070   -0.8896 H   0  0  0  0  0  0  0  0  0  0  0  0
   -3.4893   -4.6087    0.3966 H   0  0  0  0  0  0  0  0  0  0  0  0
   -4.1048   -3.0581   -0.3656 H   0  0  0  0  0  0  0  0  0  0  0  0
    4.6685   -2.2953   -2.1867 H   0  0  0  0  0  0  0  0  0  0  0  0
    0.9374    5.0457    1.0239 H   0  0  0  0  0  0  0  0  0  0  0  0
    0.5631    4.4197   -0.6343 H   0  0  0  0  0  0  0  0  0  0  0  0
   -0.7918    4.8682    0.4161 H   0  0  0  0  0  0  0  0  0  0  0  0
    0.5523    0.7822   -2.1203 H   0  0  0  0  0  0  0  0  0  0  0  0
    2.3071    0.9245   -1.5504 H   0  0  0  0  0  0  0  0  0  0  0  0
    2.0011   -0.6446   -3.3428 H   0  0  0  0  0  0  0  0  0  0  0  0
    0.9471   -1.7077   -2.2681 H   0  0  0  0  0  0  0  0  0  0  0  0
    3.6592   -0.6119   -1.4110 H   0  0  0  0  0  0  0  0  0  0  0  0
    2.3020   -3.1156   -0.4170 H   0  0  0  0  0  0  0  0  0  0  0  0
    3.3836   -2.0050    0.4381 H   0  0  0  0  0  0  0  0  0  0  0  0
    1.4290   -1.3558    1.4253 H   0  0  0  0  0  0  0  0  0  0  0  0
   -2.5191   -1.4997   -0.5074 H   0  0  0  0  0  0  0  0  0  0  0  0
   -2.6063   -0.6026    2.3968 H   0  0  0  0  0  0  0  0  0  0  0  0
   -4.0498   -0.7185    1.2523 H   0  0  0  0  0  0  0  0  0  0  0  0
   -3.1458    1.5697    1.3560 H   0  0  0  0  0  0  0  0  0  0  0  0
   -2.9700    0.7815   -0.3069 H   0  0  0  0  0  0  0  0  0  0  0  0
   -1.8368    3.0619    0.4571 H   0  0  0  0  0  0  0  0  0  0  0  0
   -0.7903    2.4139   -0.8802 H   0  0  0  0  0  0  0  0  0  0  0  0
    1.2140    2.4806   -0.8100 H   0  0  0  0  0  0  0  0  0  0  0  0
    2.2607    3.0181    0.5586 H   0  0  0  0  0  0  0  0  0  0  0  0
    1.2459    0.8733    1.8110 H   0  0  0  0  0  0  0  0  0  0  0  0
    2.6767    0.8107    0.7681 H   0  0  0  0  0  0  0  0  0  0  0  0
   -0.5295   -1.0554    1.7580 H   0  0  0  0  0  0  0  0  0  0  0  0
   -1.0228   -0.0654   -1.0725 H   0  0  0  0  0  0  0  0  0  0  0  0
   -0.7903    0.9918    1.7979 H   0  0  0  0  0  0  0  0  0  0  0  0
   -2.5087   -3.7070   -0.8896 H   0  0  0  0  0  0  0  0  0  0  0  0
   -3.4893   -4.6087    0.3966 H   0  0  0  0  0  0  0  0  0  0  0  0
   -4.1048   -3.0581   -0.3656 H   0  0  0  0  0  0  0  0  0  0  0  0
    4.6685   -2.2953   -2.1867 H   0  0  0  0  0  0  0  0  0  0  0  0
    0.9374    5.0457    1.0239 H   0  0  0  0  0  0  0  0  0  0  0  0
    0.5631    4.4197   -0.6343 H   0  0  0  0  0  0  0  0  0  0  0  0
   -0.7918    4.8682    0.4161 H   0  0  0  0  0  0  0  0  0  0  0  0
  1  2  1  0
  2  3  1  0
  3  4  1  0
  4  5  1  0
  6  1  1  6
  5  6  1  0
  5  7  1  0
  8  9  1  0
  9 10  1  0
 11 12  1  0
 12 13  1  0
  6 14  1  0
 13 14  1  0
  7 15  1  0
  8 15  1  0
  6 16  1  0
 15 16  1  0
 10 17  1  0
 11 17  1  0
 16 17  1  0
  8 19  1  0
 18 19  1  0
  3 20  1  0
 12 21  1  0
 22 23  1  0
 23 24  1  0
 24 25  1  0
 25 26  1  0
 27 22  1  6
 26 27  1  0
 26 28  1  0
 29 30  1  0
 30 31  1  0
 32 33  1  0
 33 34  1  0
 27 35  1  0
 34 35  1  0
 28 36  1  0
 29 36  1  0
 27 37  1  0
 36 37  1  0
 31 38  1  0
 32 38  1  0
 37 38  1  0
 29 40  1  0
 39 40  1  0
 24 41  1  0
 33 42  1  0
  1 43  1  0
  1 44  1  0
  2 45  1  0
  2 46  1  0
  3 47  1  1
  4 48  1  0
  4 49  1  0
  5 50  1  1
  8 51  1  0
  9 52  1  0
  9 53  1  0
 10 54  1  0
 10 55  1  0
 11 56  1  0
 11 57  1  0
 13 58  1  0
 13 59  1  0
 14 60  1  0
 14 61  1  0
 15 62  1  0
 16 63  1  0
 17 64  1  0
 18 65  1  0
 18 66  1  0
 18 67  1  0
 20 68  1  0
 21 69  1  0
 21 70  1  0
 21 71  1  0
 22 72  1  0
 22 73  1  0
 23 74  1  0
 23 75  1  0
 24 76  1  1
 25 77  1  0
 25 78  1  0
 26 79  1  1
 29 80  1  0
 30 81  1  0
 30 82  1  0
 31 83  1  0
 31 84  1  0
 32 85  1  0
 32 86  1  0
 34 87  1  0
 34 88  1  0
 35 89  1  0
 35 90  1  0
 36 91  1  0
 37 92  1  0
 38 93  1  0
 39 94  1  0
 39 95  1  0
 39 96  1  0
 41 97  1  0
 42 98  1  0
 42 99  1  0
 42100  1  0
M  END
>  <PDBID>  (1) 
4EY6

>  <PDB ID>  (1) 
4EY6

>  <Generic Name>  (1) 
Galantamine

>  <Brand Name>  (1) 
Apo-galantamine#Auro-galantamine ER#Galantamine#Galantamine ER#Galantamine Hydrobromide#Ipg-galantamine ER#Mar-galantamine ER#Mylan-galantamine ER#PMS-galantamine#PMS-galantamine ER#Pat-galantamine ER#Pendo-galantamine ER#Ratio-galantamine#Razadyne#Reminyl   -(12mg)#Reminyl   -(4mg)#Reminyl   -(8mg)#Reminyl ER#Sandoz Galantamine ER#Teva-galantamine ER#Lycoremine#Nivalin#Reminyl

>  <DrugBank ID>  (1) 
DB00674

>  <ATC Codes>  (1) 
N06DA04

>  <Ligand ID>  (1) 
GNT

>  <Target Name>  (1) 
Acetylcholinesterase

>  <UniProt ID>  (1) 
P22303

>  <PDB ID.1>  (1) 
4EY6

>  <Seq. Identity>  (1) 
97%

$$$$
