PDB_DB01024_08
     RDKit          3D

110112  0  0  0  0  0  0  0  0999 V2000
   -3.4754   -2.4563   -0.6862 C   0  0  0  0  0  0  0  0  0  0  0  0
    1.3753   -0.5768    0.0176 C   0  0  0  0  0  0  0  0  0  0  0  0
    2.8122   -0.1550   -0.3267 C   0  0  0  0  0  0  0  0  0  0  0  0
    3.6623   -1.3554   -0.0939 C   0  0  0  0  0  0  0  0  0  0  0  0
    5.1138   -1.1987   -0.3654 C   0  0  0  0  0  0  0  0  0  0  0  0
    5.8242   -0.1618    0.4352 C   0  0  0  0  0  0  0  0  0  0  0  0
   -3.6570    1.6257    1.6801 C   0  0  0  0  0  0  0  0  0  0  0  0
   -1.0663    3.4652    0.0890 C   0  0  0  0  0  0  0  0  0  0  0  0
    2.9267    0.3476   -1.7294 C   0  0  0  0  0  0  0  0  0  0  0  0
   -4.8308   -1.0044    0.3502 C   0  0  0  0  0  0  0  0  0  0  0  0
   -3.4459   -0.4691    0.4514 C   0  0  0  0  0  0  0  0  0  0  0  0
   -3.3054    0.9966    0.3536 C   0  0  0  0  0  0  0  0  0  0  0  0
   -1.8712    1.3077   -0.0590 C   0  0  0  0  0  0  0  0  0  0  0  0
   -0.9558    0.1251    0.1587 C   0  0  1  0  0  0  0  0  0  0  0  0
   -1.3677   -1.0830   -0.6490 C   0  0  0  0  0  0  0  0  0  0  0  0
   -2.8428   -1.1093   -0.8104 C   0  0  0  0  0  0  0  0  0  0  0  0
    0.4444    0.5835   -0.1911 C   0  0  0  0  0  0  0  0  0  0  0  0
   -3.3329   -3.2568   -1.7953 O   0  0  0  0  0  0  0  0  0  0  0  0
   -4.8089   -2.1501   -0.4196 O   0  0  0  0  0  0  0  0  0  0  0  0
   -1.4314    2.3214    0.7916 O   0  0  0  0  0  0  0  0  0  0  0  0
   -0.7871   -0.9734   -1.9110 O   0  0  0  0  0  0  0  0  0  0  0  0
    5.3099    1.1134    0.2425 O   0  0  0  0  0  0  0  0  0  0  0  0
    5.8874   -0.4929    1.7962 O   0  0  0  0  0  0  0  0  0  0  0  0
   -2.9979   -2.2396   -0.2437 C   0  0  2  0  0  0  0  0  0  0  0  0
    1.2770   -0.5061    0.0490 C   0  0  0  0  0  0  0  0  0  0  0  0
    2.7389    0.0568    0.1648 C   0  0  0  0  0  0  0  0  0  0  0  0
    3.5994   -1.1628    0.1100 C   0  0  0  0  0  0  0  0  0  0  0  0
    5.0326   -1.0156    0.3040 C   0  0  0  0  0  0  0  0  0  0  0  0
    5.8549   -0.1421   -0.5423 C   0  0  0  0  0  0  0  0  0  0  0  0
   -3.9585    0.8355    1.5686 C   0  0  0  0  0  0  0  0  0  0  0  0
   -1.2219    3.1950    1.1799 C   0  0  0  0  0  0  0  0  0  0  0  0
    2.8938    0.8019   -1.1700 C   0  0  0  0  0  0  0  0  0  0  0  0
   -4.8540   -1.1544   -0.0313 C   0  0  0  0  0  0  0  0  0  0  0  0
   -3.9020   -0.1772   -0.7384 C   0  0  0  0  0  0  0  0  0  0  0  0
   -3.4952    0.9451    0.1160 C   0  0  2  0  0  0  0  0  0  0  0  0
   -2.0369    1.2739    0.1469 C   0  0  2  0  0  0  0  0  0  0  0  0
   -1.1180    0.0662    0.0351 C   0  0  1  0  0  0  0  0  0  0  0  0
   -1.4512   -0.5382   -1.2788 C   0  0  2  0  0  0  0  0  0  0  0  0
   -2.8418   -1.0959   -1.2042 C   0  0  0  0  0  0  0  0  0  0  0  0
    0.2884    0.5924    0.1193 C   0  0  0  0  0  0  0  0  0  0  0  0
   -2.2782   -3.3518   -0.5631 O   0  0  0  0  0  0  0  0  0  0  0  0
   -4.3950   -2.4346   -0.3608 O   0  0  0  0  0  0  0  0  0  0  0  0
   -1.7168    1.9273    1.3311 O   0  0  0  0  0  0  0  0  0  0  0  0
   -0.6284   -1.5037   -1.7702 O   0  0  0  0  0  0  0  0  0  0  0  0
    5.5955    1.1984   -0.5296 O   0  0  0  0  0  0  0  0  0  0  0  0
    7.2091   -0.3707   -0.1712 O   0  0  0  0  0  0  0  0  0  0  0  0
   -3.0777   -2.9291    0.2468 H   0  0  0  0  0  0  0  0  0  0  0  0
    1.3822   -0.8742    1.0666 H   0  0  0  0  0  0  0  0  0  0  0  0
    1.1512   -1.4387   -0.6152 H   0  0  0  0  0  0  0  0  0  0  0  0
    3.0436    0.6864    0.3793 H   0  0  0  0  0  0  0  0  0  0  0  0
    3.5367   -1.7242    0.9451 H   0  0  0  0  0  0  0  0  0  0  0  0
    3.2834   -2.1680   -0.7527 H   0  0  0  0  0  0  0  0  0  0  0  0
    5.5906   -2.1931   -0.1418 H   0  0  0  0  0  0  0  0  0  0  0  0
    5.3428   -1.0134   -1.4357 H   0  0  0  0  0  0  0  0  0  0  0  0
    6.8980   -0.1018    0.1087 H   0  0  0  0  0  0  0  0  0  0  0  0
   -4.2409    0.9170    2.3256 H   0  0  0  0  0  0  0  0  0  0  0  0
   -4.3137    2.5227    1.5536 H   0  0  0  0  0  0  0  0  0  0  0  0
   -2.7675    1.9217    2.2660 H   0  0  0  0  0  0  0  0  0  0  0  0
   -1.9533    3.8486   -0.4889 H   0  0  0  0  0  0  0  0  0  0  0  0
   -0.8416    4.2594    0.8282 H   0  0  0  0  0  0  0  0  0  0  0  0
   -0.2576    3.2945   -0.6205 H   0  0  0  0  0  0  0  0  0  0  0  0
    3.1713    1.4481   -1.7423 H   0  0  0  0  0  0  0  0  0  0  0  0
    1.9818    0.1849   -2.3235 H   0  0  0  0  0  0  0  0  0  0  0  0
    3.7230   -0.1452   -2.3238 H   0  0  0  0  0  0  0  0  0  0  0  0
   -5.3210   -1.2026    1.3250 H   0  0  0  0  0  0  0  0  0  0  0  0
   -5.5167   -0.2771   -0.1733 H   0  0  0  0  0  0  0  0  0  0  0  0
   -2.9574   -0.8862    1.3453 H   0  0  0  0  0  0  0  0  0  0  0  0
   -3.9875    1.4156   -0.4128 H   0  0  0  0  0  0  0  0  0  0  0  0
   -1.8200    1.6701   -1.0993 H   0  0  0  0  0  0  0  0  0  0  0  0
   -1.0352   -0.1533    1.2308 H   0  0  0  0  0  0  0  0  0  0  0  0
   -1.0194   -2.0133   -0.1698 H   0  0  0  0  0  0  0  0  0  0  0  0
   -3.2247   -0.5801   -1.6995 H   0  0  0  0  0  0  0  0  0  0  0  0
    0.4263    0.9238   -1.2287 H   0  0  0  0  0  0  0  0  0  0  0  0
    0.7238    1.3753    0.5255 H   0  0  0  0  0  0  0  0  0  0  0  0
   -4.0425   -3.9621   -1.7950 H   0  0  0  0  0  0  0  0  0  0  0  0
   -0.9967   -0.1272   -2.3480 H   0  0  0  0  0  0  0  0  0  0  0  0
    5.4410    1.6042    1.0869 H   0  0  0  0  0  0  0  0  0  0  0  0
    5.4999    0.2738    2.2876 H   0  0  0  0  0  0  0  0  0  0  0  0
   -2.8360   -1.9471    0.8100 H   0  0  0  0  0  0  0  0  0  0  0  0
    1.3316   -1.0949   -0.8608 H   0  0  0  0  0  0  0  0  0  0  0  0
    1.1046   -1.1940    0.9020 H   0  0  0  0  0  0  0  0  0  0  0  0
    2.8003    0.6655    1.0373 H   0  0  0  0  0  0  0  0  0  0  0  0
    3.2360   -1.9371    0.8769 H   0  0  0  0  0  0  0  0  0  0  0  0
    3.4362   -1.7235   -0.8613 H   0  0  0  0  0  0  0  0  0  0  0  0
    5.4847   -2.0771    0.2871 H   0  0  0  0  0  0  0  0  0  0  0  0
    5.2300   -0.6694    1.3879 H   0  0  0  0  0  0  0  0  0  0  0  0
    5.7982   -0.5600   -1.6002 H   0  0  0  0  0  0  0  0  0  0  0  0
   -5.0573    0.8573    1.6570 H   0  0  0  0  0  0  0  0  0  0  0  0
   -3.6113    1.8005    2.0445 H   0  0  0  0  0  0  0  0  0  0  0  0
   -3.4581    0.0394    2.1163 H   0  0  0  0  0  0  0  0  0  0  0  0
   -1.9395    3.8791    0.6617 H   0  0  0  0  0  0  0  0  0  0  0  0
   -1.0833    3.6144    2.2053 H   0  0  0  0  0  0  0  0  0  0  0  0
   -0.2628    3.2953    0.6692 H   0  0  0  0  0  0  0  0  0  0  0  0
    3.0976    1.8536   -0.9609 H   0  0  0  0  0  0  0  0  0  0  0  0
    1.9237    0.8086   -1.7473 H   0  0  0  0  0  0  0  0  0  0  0  0
    3.5920    0.3117   -1.8579 H   0  0  0  0  0  0  0  0  0  0  0  0
   -4.7974   -1.0728    1.0576 H   0  0  0  0  0  0  0  0  0  0  0  0
   -5.8797   -1.0795   -0.4067 H   0  0  0  0  0  0  0  0  0  0  0  0
   -4.4765    0.1675   -1.6491 H   0  0  0  0  0  0  0  0  0  0  0  0
   -4.0178    1.8780   -0.2572 H   0  0  0  0  0  0  0  0  0  0  0  0
   -1.7882    1.9508   -0.6905 H   0  0  0  0  0  0  0  0  0  0  0  0
   -1.2857   -0.5912    0.9028 H   0  0  0  0  0  0  0  0  0  0  0  0
   -1.5047    0.3052   -2.0182 H   0  0  0  0  0  0  0  0  0  0  0  0
   -3.0772   -1.5029   -2.2225 H   0  0  0  0  0  0  0  0  0  0  0  0
    0.4052    1.0507    1.1565 H   0  0  0  0  0  0  0  0  0  0  0  0
    0.4582    1.4203   -0.6065 H   0  0  0  0  0  0  0  0  0  0  0  0
   -2.6001   -3.8662   -1.3265 H   0  0  0  0  0  0  0  0  0  0  0  0
   -0.5618   -1.4180   -2.7734 H   0  0  0  0  0  0  0  0  0  0  0  0
    5.3443    1.4642    0.3912 H   0  0  0  0  0  0  0  0  0  0  0  0
    7.4012    0.1721    0.6344 H   0  0  0  0  0  0  0  0  0  0  0  0
  2  3  1  0
  3  4  1  0
  4  5  1  0
  5  6  1  0
  3  9  1  0
 10 11  1  0
  7 12  1  0
 11 12  1  0
 12 13  1  0
 13 14  1  0
 14 15  1  0
  1 16  1  0
 11 16  1  0
 15 16  1  0
  2 17  1  0
 14 17  1  0
  1 18  1  0
  1 19  1  0
 10 19  1  0
  8 20  1  0
 13 20  1  0
 15 21  1  0
  6 22  1  0
  6 23  1  0
 25 26  1  0
 26 27  1  0
 27 28  1  0
 28 29  1  0
 26 32  1  0
 33 34  1  0
 30 35  1  0
 34 35  1  0
 35 36  1  0
 36 37  1  0
 37 38  1  0
 24 39  1  0
 34 39  1  0
 38 39  1  0
 25 40  1  0
 37 40  1  0
 24 41  1  0
 24 42  1  0
 33 42  1  0
 31 43  1  0
 36 43  1  0
 38 44  1  0
 29 45  1  0
 29 46  1  0
  1 47  1  0
  2 48  1  0
  2 49  1  0
  3 50  1  0
  4 51  1  0
  4 52  1  0
  5 53  1  0
  5 54  1  0
  6 55  1  0
  7 56  1  0
  7 57  1  0
  7 58  1  0
  8 59  1  0
  8 60  1  0
  8 61  1  0
  9 62  1  0
  9 63  1  0
  9 64  1  0
 10 65  1  0
 10 66  1  0
 11 67  1  0
 12 68  1  0
 13 69  1  0
 14 70  1  1
 15 71  1  0
 16 72  1  0
 17 73  1  0
 17 74  1  0
 18 75  1  0
 21 76  1  0
 22 77  1  0
 23 78  1  0
 24 79  1  1
 25 80  1  0
 25 81  1  0
 26 82  1  0
 27 83  1  0
 27 84  1  0
 28 85  1  0
 28 86  1  0
 29 87  1  0
 30 88  1  0
 30 89  1  0
 30 90  1  0
 31 91  1  0
 31 92  1  0
 31 93  1  0
 32 94  1  0
 32 95  1  0
 32 96  1  0
 33 97  1  0
 33 98  1  0
 34 99  1  0
 35100  1  6
 36101  1  6
 37102  1  1
 38103  1  6
 39104  1  0
 40105  1  0
 40106  1  0
 41107  1  0
 44108  1  0
 45109  1  0
 46110  1  0
M  END
>  <PDBID>  (1) 
1JR1

>  <PDB ID>  (1) 
1JR1

>  <Generic Name>  (1) 
Mycophenolic acid

>  <Brand Name>  (1) 
Apo-mycophenolic Acid#Mycophenolic Acid#Myfortic#Melbex

>  <DrugBank ID>  (1) 
DB01024

>  <ATC Codes>  (1) 
L04AA06

>  <Ligand ID>  (1) 
MOA

>  <Target Name>  (1) 
Inosine-5'-monophosphate dehydrogenase 2

>  <UniProt ID>  (1) 
P12268

>  <PDB ID.1>  (1) 
1JR1

>  <Seq. Identity>  (1) 
99%

$$$$
