PDB_DB00559_06
     RDKit          3D

 94 97  0  0  0  0  0  0  0  0999 V2000
    4.2105   -0.8575   -2.5507 C   0  0  0  0  0  0  0  0  0  0  0  0
   -1.0885   -0.1263    0.4841 C   0  0  0  0  0  0  0  0  0  0  0  0
   -2.7743    1.6515   -0.0758 C   0  0  0  0  0  0  0  0  0  0  0  0
   -0.6996    2.8814    2.6439 C   0  0  0  0  0  0  0  0  0  0  0  0
   -0.1796    4.3840    4.6649 C   0  0  0  0  0  0  0  0  0  0  0  0
   -4.3271    2.6616   -1.4674 C   0  0  0  0  0  0  0  0  0  0  0  0
    6.9710   -1.7940   -1.9910 C   0  0  0  0  0  0  0  0  0  0  0  0
    6.5094   -0.3961   -1.7054 C   0  0  0  0  0  0  0  0  0  0  0  0
    6.7446    0.4473   -2.9430 C   0  0  0  0  0  0  0  0  0  0  0  0
    7.3467    0.1912   -0.6043 C   0  0  0  0  0  0  0  0  0  0  0  0
    5.0299   -0.3378   -1.3877 C   0  0  0  0  0  0  0  0  0  0  0  0
    4.6705   -1.1212   -0.1508 C   0  0  0  0  0  0  0  0  0  0  0  0
    3.4939   -2.0328   -0.3747 C   0  0  0  0  0  0  0  0  0  0  0  0
    2.3311   -1.3444   -1.0525 C   0  0  0  0  0  0  0  0  0  0  0  0
    2.7663   -0.5564   -2.2429 C   0  0  0  0  0  0  0  0  0  0  0  0
    1.4882   -0.2952    0.1198 S   0  0  0  0  0  0  0  0  0  0  0  0
    2.4638    0.8313    0.5457 O   0  0  0  0  0  0  0  0  0  0  0  0
    1.4355   -1.4159    1.4730 O   0  0  0  0  0  0  0  0  0  0  0  0
    0.0662   -0.0090   -0.3869 N   0  0  0  0  0  0  0  0  0  0  0  0
   -2.3926    0.1959   -0.1976 C   0  0  0  0  0  0  0  0  0  0  0  0
   -2.4889    2.2007    1.2294 N   0  0  0  0  0  0  0  0  0  0  0  0
   -1.0460    2.0398    1.4321 C   0  0  0  0  0  0  0  0  0  0  0  0
   -0.8404    0.6375    1.6648 N   0  0  0  0  0  0  0  0  0  0  0  0
   -1.4241    2.4403    3.8142 N   0  0  0  0  0  0  0  0  0  0  0  0
   -0.8828    3.0865    4.9852 C   0  0  0  0  0  0  0  0  0  0  0  0
    0.9338    4.1848    3.6697 C   0  0  0  0  0  0  0  0  0  0  0  0
    0.7127    2.9943    2.8583 N   0  0  0  0  0  0  0  0  0  0  0  0
   -4.1077    1.8232   -0.4170 O   0  0  0  0  0  0  0  0  0  0  0  0
   -3.6974    2.1999   -2.7557 C   0  0  0  0  0  0  0  0  0  0  0  0
   -4.2329    0.9383   -3.0909 O   0  0  0  0  0  0  0  0  0  0  0  0
   -3.3752   -0.6825    0.1283 O   0  0  0  0  0  0  0  0  0  0  0  0
   -3.8898   -1.4953   -0.8024 C   0  0  0  0  0  0  0  0  0  0  0  0
   -5.4196   -1.4450   -0.8884 C   0  0  0  0  0  0  0  0  0  0  0  0
   -6.0238   -1.6615    0.4810 C   0  0  0  0  0  0  0  0  0  0  0  0
   -5.6669   -3.0621    0.9338 C   0  0  0  0  0  0  0  0  0  0  0  0
   -4.1644   -3.1359    1.0614 C   0  0  0  0  0  0  0  0  0  0  0  0
   -3.5989   -2.9395   -0.3482 C   0  0  0  0  0  0  0  0  0  0  0  0
   -4.1460   -3.8547   -1.2043 O   0  0  0  0  0  0  0  0  0  0  0  0
   -3.1318   -4.6536   -1.7213 C   0  0  0  0  0  0  0  0  0  0  0  0
    4.3935   -1.9185   -2.7184 H   0  0  0  0  0  0  0  0  0  0  0  0
    4.4794   -0.2470   -3.4628 H   0  0  0  0  0  0  0  0  0  0  0  0
   -1.1447   -1.2159    0.7639 H   0  0  0  0  0  0  0  0  0  0  0  0
   -2.1920    2.2847   -0.7772 H   0  0  0  0  0  0  0  0  0  0  0  0
   -1.0731    3.9182    2.4092 H   0  0  0  0  0  0  0  0  0  0  0  0
    0.2341    4.7521    5.6486 H   0  0  0  0  0  0  0  0  0  0  0  0
   -0.9188    5.1378    4.3372 H   0  0  0  0  0  0  0  0  0  0  0  0
   -4.0694    3.7132   -1.2262 H   0  0  0  0  0  0  0  0  0  0  0  0
   -5.4384    2.6782   -1.6429 H   0  0  0  0  0  0  0  0  0  0  0  0
    6.3446   -2.5615   -1.4795 H   0  0  0  0  0  0  0  0  0  0  0  0
    8.0081   -1.8988   -1.6134 H   0  0  0  0  0  0  0  0  0  0  0  0
    7.0156   -1.9402   -3.0760 H   0  0  0  0  0  0  0  0  0  0  0  0
    7.7260    0.9828   -2.8997 H   0  0  0  0  0  0  0  0  0  0  0  0
    6.7242   -0.1519   -3.8685 H   0  0  0  0  0  0  0  0  0  0  0  0
    5.9235    1.2085   -3.0656 H   0  0  0  0  0  0  0  0  0  0  0  0
    8.3340   -0.3110   -0.6215 H   0  0  0  0  0  0  0  0  0  0  0  0
    7.5572    1.2716   -0.7899 H   0  0  0  0  0  0  0  0  0  0  0  0
    6.9135    0.0135    0.4019 H   0  0  0  0  0  0  0  0  0  0  0  0
    4.7522    0.7259   -1.2420 H   0  0  0  0  0  0  0  0  0  0  0  0
    4.4209   -0.4534    0.7011 H   0  0  0  0  0  0  0  0  0  0  0  0
    5.5098   -1.7563    0.1970 H   0  0  0  0  0  0  0  0  0  0  0  0
    3.8337   -2.8762   -1.0080 H   0  0  0  0  0  0  0  0  0  0  0  0
    3.2189   -2.4618    0.5974 H   0  0  0  0  0  0  0  0  0  0  0  0
    1.6368   -2.1587   -1.3685 H   0  0  0  0  0  0  0  0  0  0  0  0
    2.6784    0.5294   -1.9671 H   0  0  0  0  0  0  0  0  0  0  0  0
    2.1137   -0.8073   -3.0995 H   0  0  0  0  0  0  0  0  0  0  0  0
    2.6538    1.0480    1.4832 H   0  0  0  0  0  0  0  0  0  0  0  0
    0.7441   -2.0794    1.2170 H   0  0  0  0  0  0  0  0  0  0  0  0
   -0.2182   -0.4598   -1.3089 H   0  0  0  0  0  0  0  0  0  0  0  0
   -2.2050    0.0300   -1.2825 H   0  0  0  0  0  0  0  0  0  0  0  0
   -2.9505    1.7277    2.0064 H   0  0  0  0  0  0  0  0  0  0  0  0
   -0.4652    2.4075    0.5867 H   0  0  0  0  0  0  0  0  0  0  0  0
   -1.3042    0.3144    2.5170 H   0  0  0  0  0  0  0  0  0  0  0  0
   -2.4106    2.7839    3.7036 H   0  0  0  0  0  0  0  0  0  0  0  0
   -1.7048    3.3151    5.6940 H   0  0  0  0  0  0  0  0  0  0  0  0
   -0.1731    2.3908    5.4873 H   0  0  0  0  0  0  0  0  0  0  0  0
    1.8808    4.1208    4.2439 H   0  0  0  0  0  0  0  0  0  0  0  0
    1.0181    5.0744    3.0032 H   0  0  0  0  0  0  0  0  0  0  0  0
    1.1095    2.1898    3.3831 H   0  0  0  0  0  0  0  0  0  0  0  0
   -2.5951    2.1947   -2.7291 H   0  0  0  0  0  0  0  0  0  0  0  0
   -3.9799    2.8700   -3.6097 H   0  0  0  0  0  0  0  0  0  0  0  0
   -5.1546    1.0903   -3.4691 H   0  0  0  0  0  0  0  0  0  0  0  0
   -3.5159   -1.4349   -1.8149 H   0  0  0  0  0  0  0  0  0  0  0  0
   -5.7080   -2.3213   -1.5069 H   0  0  0  0  0  0  0  0  0  0  0  0
   -5.7879   -0.5510   -1.3876 H   0  0  0  0  0  0  0  0  0  0  0  0
   -5.7523   -0.8955    1.2083 H   0  0  0  0  0  0  0  0  0  0  0  0
   -7.1246   -1.6522    0.3393 H   0  0  0  0  0  0  0  0  0  0  0  0
   -6.0675   -3.7738    0.1732 H   0  0  0  0  0  0  0  0  0  0  0  0
   -6.1819   -3.3190    1.8823 H   0  0  0  0  0  0  0  0  0  0  0  0
   -3.8340   -2.3009    1.6916 H   0  0  0  0  0  0  0  0  0  0  0  0
   -3.8060   -4.1272    1.3896 H   0  0  0  0  0  0  0  0  0  0  0  0
   -2.5148   -3.0760   -0.2950 H   0  0  0  0  0  0  0  0  0  0  0  0
   -2.3943   -4.0168   -2.2712 H   0  0  0  0  0  0  0  0  0  0  0  0
   -2.5967   -5.1457   -0.8889 H   0  0  0  0  0  0  0  0  0  0  0  0
   -3.5189   -5.4342   -2.4066 H   0  0  0  0  0  0  0  0  0  0  0  0
  8  7  1  0
  8  9  1  0
  8 10  1  0
  1 11  1  0
  8 11  1  0
 11 12  1  0
 12 13  1  0
 13 14  1  0
  1 15  1  0
 14 15  1  0
 14 16  1  0
 16 17  1  0
 16 18  1  0
  2 19  1  0
 16 19  1  0
  2 20  1  0
  3 20  1  0
  3 21  1  0
  4 22  1  0
 21 22  1  0
  2 23  1  0
 22 23  1  0
  4 24  1  0
  5 25  1  0
 24 25  1  0
  5 26  1  0
  4 27  1  0
 26 27  1  0
  3 28  1  0
  6 28  1  0
  6 29  1  0
 29 30  1  0
 20 31  1  0
 31 32  1  0
 32 33  1  0
 33 34  1  0
 34 35  1  0
 35 36  1  0
 32 37  1  0
 36 37  1  0
 37 38  1  0
 38 39  1  0
  1 40  1  0
  1 41  1  0
  2 42  1  0
  3 43  1  0
  4 44  1  0
  5 45  1  0
  5 46  1  0
  6 47  1  0
  6 48  1  0
  7 49  1  0
  7 50  1  0
  7 51  1  0
  9 52  1  0
  9 53  1  0
  9 54  1  0
 10 55  1  0
 10 56  1  0
 10 57  1  0
 11 58  1  0
 12 59  1  0
 12 60  1  0
 13 61  1  0
 13 62  1  0
 14 63  1  0
 15 64  1  0
 15 65  1  0
 17 66  1  0
 18 67  1  0
 19 68  1  0
 20 69  1  0
 21 70  1  0
 22 71  1  0
 23 72  1  0
 24 73  1  0
 25 74  1  0
 25 75  1  0
 26 76  1  0
 26 77  1  0
 27 78  1  0
 29 79  1  0
 29 80  1  0
 30 81  1  0
 32 82  1  0
 33 83  1  0
 33 84  1  0
 34 85  1  0
 34 86  1  0
 35 87  1  0
 35 88  1  0
 36 89  1  0
 36 90  1  0
 37 91  1  0
 39 92  1  0
 39 93  1  0
 39 94  1  0
M  END
>  <PDBID>  (1) 
5XPR

>  <PDB ID>  (1) 
5XPR

>  <Generic Name>  (1) 
Bosentan

>  <Brand Name>  (1) 
Accel-bosentan#Act Bosentan#Apo-bosentan#Bosentan Tablets#Ipg-bosentan#Mar-bosentan#Mylan-bosentan#PMS-bosentan#Sandoz Bosentan#Teva-bosentan#Tracleer

>  <DrugBank ID>  (1) 
DB00559

>  <ATC Codes>  (1) 
C02KX01

>  <Ligand ID>  (1) 
K86

>  <Target Name>  (1) 
Endothelin B receptor

>  <UniProt ID>  (1) 
P24530

>  <PDB ID.1>  (1) 
5XPR

>  <Seq. Identity>  (1) 
85%

$$$$
