PDB_DB00674_08
     RDKit          3D

100106  0  0  0  0  0  0  0  0999 V2000
   -2.2848   -0.8758    0.0027 C   0  0  0  0  0  0  0  0  0  0  0  0
   -2.4204   -2.3275    0.2297 C   0  0  0  0  0  0  0  0  0  0  0  0
   -1.8723   -3.1956   -0.8526 C   0  0  1  0  0  0  0  0  0  0  0  0
   -0.4438   -2.7840   -1.0905 C   0  0  0  0  0  0  0  0  0  0  0  0
   -0.2907   -1.3509   -1.4788 C   0  0  1  0  0  0  0  0  0  0  0  0
   -1.0223   -0.3774   -0.5763 C   0  0  1  0  0  0  0  0  0  0  0  0
    1.0692   -1.0508   -1.3791 O   0  0  0  0  0  0  0  0  0  0  0  0
    2.4764   -0.0729    0.3342 C   0  0  0  0  0  0  0  0  0  0  0  0
    2.1531   -0.1175    1.8027 C   0  0  0  0  0  0  0  0  0  0  0  0
    1.1559    0.8883    2.2533 C   0  0  0  0  0  0  0  0  0  0  0  0
    0.1893    2.4121    0.6464 C   0  0  0  0  0  0  0  0  0  0  0  0
   -0.7400    2.8080   -0.3392 N   0  0  0  0  0  0  0  0  0  0  0  0
   -1.8299    1.9233   -0.5872 C   0  0  0  0  0  0  0  0  0  0  0  0
   -1.3694    0.8135   -1.4670 C   0  0  0  0  0  0  0  0  0  0  0  0
    1.2487    0.0026   -0.5460 C   0  0  0  0  0  0  0  0  0  0  0  0
    0.0598   -0.0895    0.3827 C   0  0  0  0  0  0  0  0  0  0  0  0
   -0.0121    1.0618    1.2623 C   0  0  0  0  0  0  0  0  0  0  0  0
    4.5095   -0.7053   -0.6316 C   0  0  0  0  0  0  0  0  0  0  0  0
    3.3032   -1.0128   -0.1239 O   0  0  0  0  0  0  0  0  0  0  0  0
   -1.8279   -4.5130   -0.3429 O   0  0  0  0  0  0  0  0  0  0  0  0
   -1.2814    4.1185   -0.0263 C   0  0  0  0  0  0  0  0  0  0  0  0
   -2.2848   -0.8758    0.0027 C   0  0  0  0  0  0  0  0  0  0  0  0
   -2.4204   -2.3275    0.2297 C   0  0  0  0  0  0  0  0  0  0  0  0
   -1.8723   -3.1956   -0.8526 C   0  0  1  0  0  0  0  0  0  0  0  0
   -0.4438   -2.7840   -1.0905 C   0  0  0  0  0  0  0  0  0  0  0  0
   -0.2907   -1.3509   -1.4788 C   0  0  1  0  0  0  0  0  0  0  0  0
   -1.0223   -0.3774   -0.5763 C   0  0  1  0  0  0  0  0  0  0  0  0
    1.0692   -1.0508   -1.3791 O   0  0  0  0  0  0  0  0  0  0  0  0
    2.4764   -0.0729    0.3342 C   0  0  0  0  0  0  0  0  0  0  0  0
    2.1531   -0.1175    1.8027 C   0  0  0  0  0  0  0  0  0  0  0  0
    1.1559    0.8883    2.2533 C   0  0  0  0  0  0  0  0  0  0  0  0
    0.1893    2.4121    0.6464 C   0  0  0  0  0  0  0  0  0  0  0  0
   -0.7400    2.8080   -0.3392 N   0  0  0  0  0  0  0  0  0  0  0  0
   -1.8299    1.9233   -0.5872 C   0  0  0  0  0  0  0  0  0  0  0  0
   -1.3694    0.8135   -1.4670 C   0  0  0  0  0  0  0  0  0  0  0  0
    1.2487    0.0026   -0.5460 C   0  0  0  0  0  0  0  0  0  0  0  0
    0.0598   -0.0895    0.3827 C   0  0  0  0  0  0  0  0  0  0  0  0
   -0.0121    1.0618    1.2623 C   0  0  0  0  0  0  0  0  0  0  0  0
    4.5095   -0.7053   -0.6316 C   0  0  0  0  0  0  0  0  0  0  0  0
    3.3032   -1.0128   -0.1239 O   0  0  0  0  0  0  0  0  0  0  0  0
   -1.8279   -4.5130   -0.3429 O   0  0  0  0  0  0  0  0  0  0  0  0
   -1.2814    4.1185   -0.0263 C   0  0  0  0  0  0  0  0  0  0  0  0
   -2.4257   -0.3675    1.0036 H   0  0  0  0  0  0  0  0  0  0  0  0
   -3.1805   -0.5286   -0.5902 H   0  0  0  0  0  0  0  0  0  0  0  0
   -3.5202   -2.5665    0.3151 H   0  0  0  0  0  0  0  0  0  0  0  0
   -1.9884   -2.6389    1.2036 H   0  0  0  0  0  0  0  0  0  0  0  0
   -2.4765   -3.2337   -1.7651 H   0  0  0  0  0  0  0  0  0  0  0  0
   -0.0410   -3.4068   -1.8880 H   0  0  0  0  0  0  0  0  0  0  0  0
    0.1199   -3.0281   -0.1561 H   0  0  0  0  0  0  0  0  0  0  0  0
   -0.6117   -1.2366   -2.5406 H   0  0  0  0  0  0  0  0  0  0  0  0
    3.0084    0.9188    0.1923 H   0  0  0  0  0  0  0  0  0  0  0  0
    3.1216    0.1269    2.3342 H   0  0  0  0  0  0  0  0  0  0  0  0
    1.8664   -1.1081    2.1734 H   0  0  0  0  0  0  0  0  0  0  0  0
    0.6728    0.5052    3.2005 H   0  0  0  0  0  0  0  0  0  0  0  0
    1.5942    1.8619    2.5339 H   0  0  0  0  0  0  0  0  0  0  0  0
    0.1843    3.1502    1.4920 H   0  0  0  0  0  0  0  0  0  0  0  0
    1.2240    2.5204    0.2054 H   0  0  0  0  0  0  0  0  0  0  0  0
   -2.3203    1.5485    0.3236 H   0  0  0  0  0  0  0  0  0  0  0  0
   -2.6178    2.4903   -1.1633 H   0  0  0  0  0  0  0  0  0  0  0  0
   -2.2384    0.4685   -2.0881 H   0  0  0  0  0  0  0  0  0  0  0  0
   -0.5716    1.0663   -2.1579 H   0  0  0  0  0  0  0  0  0  0  0  0
    1.1831    0.9439   -1.1248 H   0  0  0  0  0  0  0  0  0  0  0  0
    0.2124   -1.0163    0.9886 H   0  0  0  0  0  0  0  0  0  0  0  0
   -0.9859    1.0857    1.7950 H   0  0  0  0  0  0  0  0  0  0  0  0
    4.3606   -0.0229   -1.5198 H   0  0  0  0  0  0  0  0  0  0  0  0
    4.9734   -1.6198   -1.0577 H   0  0  0  0  0  0  0  0  0  0  0  0
    5.2406   -0.2321    0.0125 H   0  0  0  0  0  0  0  0  0  0  0  0
   -1.2279   -4.5496    0.4671 H   0  0  0  0  0  0  0  0  0  0  0  0
   -2.0357    3.9512    0.7883 H   0  0  0  0  0  0  0  0  0  0  0  0
   -1.7840    4.5854   -0.8821 H   0  0  0  0  0  0  0  0  0  0  0  0
   -0.5063    4.7772    0.4320 H   0  0  0  0  0  0  0  0  0  0  0  0
   -2.4257   -0.3675    1.0036 H   0  0  0  0  0  0  0  0  0  0  0  0
   -3.1805   -0.5286   -0.5902 H   0  0  0  0  0  0  0  0  0  0  0  0
   -3.5202   -2.5665    0.3151 H   0  0  0  0  0  0  0  0  0  0  0  0
   -1.9884   -2.6389    1.2036 H   0  0  0  0  0  0  0  0  0  0  0  0
   -2.4765   -3.2337   -1.7651 H   0  0  0  0  0  0  0  0  0  0  0  0
   -0.0410   -3.4068   -1.8880 H   0  0  0  0  0  0  0  0  0  0  0  0
    0.1199   -3.0281   -0.1561 H   0  0  0  0  0  0  0  0  0  0  0  0
   -0.6117   -1.2366   -2.5406 H   0  0  0  0  0  0  0  0  0  0  0  0
    3.0084    0.9188    0.1923 H   0  0  0  0  0  0  0  0  0  0  0  0
    3.1216    0.1269    2.3342 H   0  0  0  0  0  0  0  0  0  0  0  0
    1.8664   -1.1081    2.1734 H   0  0  0  0  0  0  0  0  0  0  0  0
    0.6728    0.5052    3.2005 H   0  0  0  0  0  0  0  0  0  0  0  0
    1.5942    1.8619    2.5339 H   0  0  0  0  0  0  0  0  0  0  0  0
    0.1843    3.1502    1.4920 H   0  0  0  0  0  0  0  0  0  0  0  0
    1.2240    2.5204    0.2054 H   0  0  0  0  0  0  0  0  0  0  0  0
   -2.3203    1.5485    0.3236 H   0  0  0  0  0  0  0  0  0  0  0  0
   -2.6178    2.4903   -1.1633 H   0  0  0  0  0  0  0  0  0  0  0  0
   -2.2384    0.4685   -2.0881 H   0  0  0  0  0  0  0  0  0  0  0  0
   -0.5716    1.0663   -2.1579 H   0  0  0  0  0  0  0  0  0  0  0  0
    1.1831    0.9439   -1.1248 H   0  0  0  0  0  0  0  0  0  0  0  0
    0.2124   -1.0163    0.9886 H   0  0  0  0  0  0  0  0  0  0  0  0
   -0.9859    1.0857    1.7950 H   0  0  0  0  0  0  0  0  0  0  0  0
    4.3606   -0.0229   -1.5198 H   0  0  0  0  0  0  0  0  0  0  0  0
    4.9734   -1.6198   -1.0577 H   0  0  0  0  0  0  0  0  0  0  0  0
    5.2406   -0.2321    0.0125 H   0  0  0  0  0  0  0  0  0  0  0  0
   -1.2279   -4.5496    0.4671 H   0  0  0  0  0  0  0  0  0  0  0  0
   -2.0357    3.9512    0.7883 H   0  0  0  0  0  0  0  0  0  0  0  0
   -1.7840    4.5854   -0.8821 H   0  0  0  0  0  0  0  0  0  0  0  0
   -0.5063    4.7772    0.4320 H   0  0  0  0  0  0  0  0  0  0  0  0
  1  2  1  0
  2  3  1  0
  3  4  1  0
  4  5  1  0
  6  1  1  1
  5  6  1  0
  5  7  1  0
  8  9  1  0
  9 10  1  0
 11 12  1  0
 12 13  1  0
  6 14  1  0
 13 14  1  0
  7 15  1  0
  8 15  1  0
  6 16  1  0
 15 16  1  0
 10 17  1  0
 11 17  1  0
 16 17  1  0
  8 19  1  0
 18 19  1  0
  3 20  1  0
 12 21  1  0
 22 23  1  0
 23 24  1  0
 24 25  1  0
 25 26  1  0
 27 22  1  1
 26 27  1  0
 26 28  1  0
 29 30  1  0
 30 31  1  0
 32 33  1  0
 33 34  1  0
 27 35  1  0
 34 35  1  0
 28 36  1  0
 29 36  1  0
 27 37  1  0
 36 37  1  0
 31 38  1  0
 32 38  1  0
 37 38  1  0
 29 40  1  0
 39 40  1  0
 24 41  1  0
 33 42  1  0
  1 43  1  0
  1 44  1  0
  2 45  1  0
  2 46  1  0
  3 47  1  6
  4 48  1  0
  4 49  1  0
  5 50  1  6
  8 51  1  0
  9 52  1  0
  9 53  1  0
 10 54  1  0
 10 55  1  0
 11 56  1  0
 11 57  1  0
 13 58  1  0
 13 59  1  0
 14 60  1  0
 14 61  1  0
 15 62  1  0
 16 63  1  0
 17 64  1  0
 18 65  1  0
 18 66  1  0
 18 67  1  0
 20 68  1  0
 21 69  1  0
 21 70  1  0
 21 71  1  0
 22 72  1  0
 22 73  1  0
 23 74  1  0
 23 75  1  0
 24 76  1  6
 25 77  1  0
 25 78  1  0
 26 79  1  6
 29 80  1  0
 30 81  1  0
 30 82  1  0
 31 83  1  0
 31 84  1  0
 32 85  1  0
 32 86  1  0
 34 87  1  0
 34 88  1  0
 35 89  1  0
 35 90  1  0
 36 91  1  0
 37 92  1  0
 38 93  1  0
 39 94  1  0
 39 95  1  0
 39 96  1  0
 41 97  1  0
 42 98  1  0
 42 99  1  0
 42100  1  0
M  END
>  <PDBID>  (1) 
4EY6

>  <PDB ID>  (1) 
4EY6

>  <Generic Name>  (1) 
Galantamine

>  <Brand Name>  (1) 
Apo-galantamine#Auro-galantamine ER#Galantamine#Galantamine ER#Galantamine Hydrobromide#Ipg-galantamine ER#Mar-galantamine ER#Mylan-galantamine ER#PMS-galantamine#PMS-galantamine ER#Pat-galantamine ER#Pendo-galantamine ER#Ratio-galantamine#Razadyne#Reminyl   -(12mg)#Reminyl   -(4mg)#Reminyl   -(8mg)#Reminyl ER#Sandoz Galantamine ER#Teva-galantamine ER#Lycoremine#Nivalin#Reminyl

>  <DrugBank ID>  (1) 
DB00674

>  <ATC Codes>  (1) 
N06DA04

>  <Ligand ID>  (1) 
GNT

>  <Target Name>  (1) 
Acetylcholinesterase

>  <UniProt ID>  (1) 
P22303

>  <PDB ID.1>  (1) 
4EY6

>  <Seq. Identity>  (1) 
97%

$$$$
