PDB_DB00907_07
     RDKit          3D

 53 55  0  0  0  0  0  0  0  0999 V2000
    0.0428    2.2454   -2.2340 C   0  0  0  0  0  0  0  0  0  0  0  0
   -0.2291    1.7471   -0.9481 O   0  0  0  0  0  0  0  0  0  0  0  0
   -1.5226    1.2738   -0.8893 C   0  0  0  0  0  0  0  0  0  0  0  0
   -2.2920    2.0145    0.0293 O   0  0  0  0  0  0  0  0  0  0  0  0
   -1.6008   -0.2067   -0.5418 C   0  0  2  0  0  0  0  0  0  0  0  0
   -3.0587   -0.5622   -0.5183 C   0  0  2  0  0  0  0  0  0  0  0  0
   -3.7273    0.0038    0.6374 N   0  0  0  0  0  0  0  0  0  0  0  0
   -5.1486   -0.1343    0.5279 C   0  0  0  0  0  0  0  0  0  0  0  0
   -3.1989   -2.0380   -0.3245 C   0  0  0  0  0  0  0  0  0  0  0  0
   -3.0696   -2.2022    1.1689 C   0  0  0  0  0  0  0  0  0  0  0  0
   -3.1605   -0.7964    1.7074 C   0  0  1  0  0  0  0  0  0  0  0  0
   -1.7759   -0.1983    1.9619 C   0  0  0  0  0  0  0  0  0  0  0  0
   -0.9017   -0.4607    0.7656 C   0  0  2  0  0  0  0  0  0  0  0  0
    0.2744    0.2208    0.7486 O   0  0  0  0  0  0  0  0  0  0  0  0
    1.4177   -0.5480    0.7693 C   0  0  0  0  0  0  0  0  0  0  0  0
    2.0747   -0.2334    1.9858 O   0  0  0  0  0  0  0  0  0  0  0  0
    2.3992   -0.2277   -0.3219 C   0  0  0  0  0  0  0  0  0  0  0  0
    2.9027    1.1752   -0.3010 C   0  0  0  0  0  0  0  0  0  0  0  0
    4.2970    1.2858    0.2918 C   0  0  0  0  0  0  0  0  0  0  0  0
    5.3123    0.5146   -0.4873 C   0  0  0  0  0  0  0  0  0  0  0  0
    4.6528   -0.6372   -1.1839 C   0  0  0  0  0  0  0  0  0  0  0  0
    3.5720   -1.1665   -0.2366 C   0  0  0  0  0  0  0  0  0  0  0  0
    1.0765    2.6295   -2.2994 H   0  0  0  0  0  0  0  0  0  0  0  0
   -0.1456    1.4105   -2.9415 H   0  0  0  0  0  0  0  0  0  0  0  0
   -0.6519    3.0982   -2.3966 H   0  0  0  0  0  0  0  0  0  0  0  0
   -2.0221    1.4088   -1.8815 H   0  0  0  0  0  0  0  0  0  0  0  0
   -1.8042    2.8619    0.2596 H   0  0  0  0  0  0  0  0  0  0  0  0
   -1.1101   -0.7555   -1.3655 H   0  0  0  0  0  0  0  0  0  0  0  0
   -3.5396   -0.1650   -1.4178 H   0  0  0  0  0  0  0  0  0  0  0  0
   -5.5706    0.8750    0.3372 H   0  0  0  0  0  0  0  0  0  0  0  0
   -5.5250   -0.4540    1.5324 H   0  0  0  0  0  0  0  0  0  0  0  0
   -5.4692   -0.8197   -0.2753 H   0  0  0  0  0  0  0  0  0  0  0  0
   -4.1647   -2.3977   -0.7194 H   0  0  0  0  0  0  0  0  0  0  0  0
   -2.3973   -2.6084   -0.8612 H   0  0  0  0  0  0  0  0  0  0  0  0
   -3.9725   -2.7983    1.4917 H   0  0  0  0  0  0  0  0  0  0  0  0
   -2.1754   -2.7437    1.4683 H   0  0  0  0  0  0  0  0  0  0  0  0
   -3.7696   -0.7973    2.6188 H   0  0  0  0  0  0  0  0  0  0  0  0
   -1.9626    0.8822    2.1335 H   0  0  0  0  0  0  0  0  0  0  0  0
   -1.3832   -0.7241    2.8512 H   0  0  0  0  0  0  0  0  0  0  0  0
   -0.6584   -1.5593    0.7932 H   0  0  0  0  0  0  0  0  0  0  0  0
    1.2585   -1.6242    0.7944 H   0  0  0  0  0  0  0  0  0  0  0  0
    1.8407    0.6928    2.2797 H   0  0  0  0  0  0  0  0  0  0  0  0
    1.8770   -0.4146   -1.2850 H   0  0  0  0  0  0  0  0  0  0  0  0
    2.9878    1.5359   -1.3465 H   0  0  0  0  0  0  0  0  0  0  0  0
    2.2456    1.8911    0.2340 H   0  0  0  0  0  0  0  0  0  0  0  0
    4.3138    1.0640    1.3771 H   0  0  0  0  0  0  0  0  0  0  0  0
    4.5612    2.3805    0.2174 H   0  0  0  0  0  0  0  0  0  0  0  0
    6.0319    0.0637    0.2571 H   0  0  0  0  0  0  0  0  0  0  0  0
    5.9379    1.1423   -1.1484 H   0  0  0  0  0  0  0  0  0  0  0  0
    5.3994   -1.4231   -1.3900 H   0  0  0  0  0  0  0  0  0  0  0  0
    4.2170   -0.3462   -2.1614 H   0  0  0  0  0  0  0  0  0  0  0  0
    4.0294   -1.1833    0.7721 H   0  0  0  0  0  0  0  0  0  0  0  0
    3.2851   -2.1913   -0.5354 H   0  0  0  0  0  0  0  0  0  0  0  0
  1  2  1  0
  2  3  1  0
  3  4  1  0
  3  5  1  0
  5  6  1  0
  6  7  1  0
  7  8  1  0
  6  9  1  0
  9 10  1  0
  7 11  1  0
 10 11  1  0
 11 12  1  0
  5 13  1  0
 12 13  1  0
 13 14  1  0
 14 15  1  0
 15 16  1  0
 15 17  1  0
 17 18  1  0
 18 19  1  0
 19 20  1  0
 20 21  1  0
 17 22  1  0
 21 22  1  0
  1 23  1  0
  1 24  1  0
  1 25  1  0
  3 26  1  0
  4 27  1  0
  5 28  1  6
  6 29  1  6
  8 30  1  0
  8 31  1  0
  8 32  1  0
  9 33  1  0
  9 34  1  0
 10 35  1  0
 10 36  1  0
 11 37  1  1
 12 38  1  0
 12 39  1  0
 13 40  1  6
 15 41  1  0
 16 42  1  0
 17 43  1  0
 18 44  1  0
 18 45  1  0
 19 46  1  0
 19 47  1  0
 20 48  1  0
 20 49  1  0
 21 50  1  0
 21 51  1  0
 22 52  1  0
 22 53  1  0
M  END
>  <PDBID>  (1) 
4XP4

>  <PDB ID>  (1) 
4XP4

>  <Generic Name>  (1) 
Cocaine

>  <Brand Name>  (1) 
Cocaine Hydrochloride#Cocaine Hydrochloride Top Sol 40mg/ml#Cocaine Hydrochloride Topical Sol 10%#PMS-cocaine Hydrochloride  Topical Sol 4%#PMS-cocaine Hydrochloride Topical Sol 10%

>  <DrugBank ID>  (1) 
DB00907

>  <ATC Codes>  (1) 
S01HA01#N01BC01#R02AD03#S02DA02

>  <Ligand ID>  (1) 
COC

>  <Target Name>  (1) 
Sodium-dependent noradrenaline transporter

>  <UniProt ID>  (1) 
P23975

>  <PDB ID.1>  (1) 
4XP4

>  <Seq. Identity>  (1) 
58%

$$$$
