PDB_DB00932_06
     RDKit          3D

 99102  0  0  0  0  0  0  0  0999 V2000
   -3.1721   -0.5494   -0.9016 O   0  0  0  0  0  0  0  0  0  0  0  0
   -2.5754    0.1434   -1.9024 C   0  0  0  0  0  0  0  0  0  0  0  0
   -1.1274    0.5915   -1.6101 C   0  0  0  0  0  0  0  0  0  0  0  0
   -1.1236    1.1935   -0.2693 C   0  0  0  0  0  0  0  0  0  0  0  0
   -2.5415    1.4134    0.2724 C   0  0  0  0  0  0  0  0  0  0  0  0
   -3.4193    0.2339    0.2674 C   0  0  2  0  0  0  0  0  0  0  0  0
   -2.4825   -0.7032   -3.0084 O   0  0  0  0  0  0  0  0  0  0  0  0
   -0.7009    2.5634   -0.4392 O   0  0  0  0  0  0  0  0  0  0  0  0
   -3.3389   -0.7043    1.3952 C   0  0  0  0  0  0  0  0  0  0  0  0
   -3.5595   -0.2450    2.7796 C   0  0  0  0  0  0  0  0  0  0  0  0
   -2.5939    0.7587    3.3375 C   0  0  0  0  0  0  0  0  0  0  0  0
   -4.8492    0.7656    0.0502 C   0  0  0  0  0  0  0  0  0  0  0  0
   -5.8626   -0.3166   -0.0854 C   0  0  0  0  0  0  0  0  0  0  0  0
   -7.2560    0.2389   -0.3102 C   0  0  0  0  0  0  0  0  0  0  0  0
   -7.7155    1.1131    0.8096 C   0  0  0  0  0  0  0  0  0  0  0  0
   -7.8887    0.2974    2.0666 C   0  0  0  0  0  0  0  0  0  0  0  0
   -9.0470   -0.6436    1.8601 C   0  0  0  0  0  0  0  0  0  0  0  0
   -9.4213   -0.8084    0.4163 C   0  0  0  0  0  0  0  0  0  0  0  0
   -8.2097   -0.9009   -0.4840 C   0  0  0  0  0  0  0  0  0  0  0  0
   -0.1902   -0.5960   -1.8770 C   0  0  2  0  0  0  0  0  0  0  0  0
   -0.4913   -1.7129   -0.9672 C   0  0  0  0  0  0  0  0  0  0  0  0
    0.3127   -2.9586   -1.1460 C   0  0  0  0  0  0  0  0  0  0  0  0
    1.1962   -0.1756   -2.1309 C   0  0  0  0  0  0  0  0  0  0  0  0
    2.1734   -1.2840   -2.5140 C   0  0  0  0  0  0  0  0  0  0  0  0
    3.1473   -0.5883   -3.5060 C   0  0  0  0  0  0  0  0  0  0  0  0
    3.4757    0.7884   -2.9804 C   0  0  0  0  0  0  0  0  0  0  0  0
    3.3281    0.8759   -1.4951 C   0  0  0  0  0  0  0  0  0  0  0  0
    4.3346    0.0601   -0.8695 N   0  0  0  0  0  0  0  0  0  0  0  0
    1.9106    0.5435   -1.0070 C   0  0  0  0  0  0  0  0  0  0  0  0
    5.8444    0.3742   -1.1374 S   0  0  0  0  0  0  0  0  0  0  0  0
    5.9747    2.0681   -1.6264 O   0  0  0  0  0  0  0  0  0  0  0  0
    6.5961   -0.4433   -2.2896 O   0  0  0  0  0  0  0  0  0  0  0  0
    6.8433    0.3465    0.2638 C   0  0  1  0  0  0  0  0  0  0  0  0
    6.8011   -0.9754    0.8413 N   0  0  0  0  0  0  0  0  0  0  0  0
    7.6037   -1.0755    2.0409 C   0  0  0  0  0  0  0  0  0  0  0  0
    8.3199    0.1987    2.3784 C   0  0  2  0  0  0  0  0  0  0  0  0
    9.0935    0.7474    1.2199 C   0  0  0  0  0  0  0  0  0  0  0  0
    8.2934    0.6477   -0.0591 C   0  0  0  0  0  0  0  0  0  0  0  0
    9.2392   -0.1050    3.5569 C   0  0  0  0  0  0  0  0  0  0  0  0
    9.9252    1.0472    3.9063 F   0  0  0  0  0  0  0  0  0  0  0  0
   10.0920   -1.1218    3.1747 F   0  0  0  0  0  0  0  0  0  0  0  0
    8.4470   -0.4769    4.6230 F   0  0  0  0  0  0  0  0  0  0  0  0
   -3.1249    1.0613   -2.2338 H   0  0  0  0  0  0  0  0  0  0  0  0
   -0.8946    1.3167   -2.4411 H   0  0  0  0  0  0  0  0  0  0  0  0
   -0.4422    0.7790    0.4812 H   0  0  0  0  0  0  0  0  0  0  0  0
   -2.9801    2.1391   -0.5132 H   0  0  0  0  0  0  0  0  0  0  0  0
   -2.5364    1.9741    1.1866 H   0  0  0  0  0  0  0  0  0  0  0  0
   -2.2557   -0.2002   -3.8260 H   0  0  0  0  0  0  0  0  0  0  0  0
   -0.7944    3.0122    0.4565 H   0  0  0  0  0  0  0  0  0  0  0  0
   -4.0041   -1.6026    1.1645 H   0  0  0  0  0  0  0  0  0  0  0  0
   -2.3103   -1.1883    1.3402 H   0  0  0  0  0  0  0  0  0  0  0  0
   -4.6172    0.0634    2.9835 H   0  0  0  0  0  0  0  0  0  0  0  0
   -3.4480   -1.1674    3.4363 H   0  0  0  0  0  0  0  0  0  0  0  0
   -3.0294    1.7752    3.4276 H   0  0  0  0  0  0  0  0  0  0  0  0
   -2.3601    0.5072    4.4356 H   0  0  0  0  0  0  0  0  0  0  0  0
   -1.5963    0.7127    2.8708 H   0  0  0  0  0  0  0  0  0  0  0  0
   -5.0384    1.4720    0.8623 H   0  0  0  0  0  0  0  0  0  0  0  0
   -4.7890    1.3544   -0.8875 H   0  0  0  0  0  0  0  0  0  0  0  0
   -5.6130   -0.9315   -0.9735 H   0  0  0  0  0  0  0  0  0  0  0  0
   -5.8740   -1.0186    0.7860 H   0  0  0  0  0  0  0  0  0  0  0  0
   -7.2142    0.8542   -1.2377 H   0  0  0  0  0  0  0  0  0  0  0  0
   -8.7150    1.5093    0.5367 H   0  0  0  0  0  0  0  0  0  0  0  0
   -7.0690    1.9994    0.9711 H   0  0  0  0  0  0  0  0  0  0  0  0
   -7.0018   -0.2973    2.3232 H   0  0  0  0  0  0  0  0  0  0  0  0
   -8.0672    0.9667    2.9573 H   0  0  0  0  0  0  0  0  0  0  0  0
   -9.9239   -0.2282    2.3899 H   0  0  0  0  0  0  0  0  0  0  0  0
   -8.8286   -1.6437    2.2937 H   0  0  0  0  0  0  0  0  0  0  0  0
  -10.1232   -0.0137    0.0664 H   0  0  0  0  0  0  0  0  0  0  0  0
   -9.9719   -1.7703    0.3195 H   0  0  0  0  0  0  0  0  0  0  0  0
   -7.7291   -1.8920   -0.2750 H   0  0  0  0  0  0  0  0  0  0  0  0
   -8.6081   -0.9541   -1.5308 H   0  0  0  0  0  0  0  0  0  0  0  0
   -0.5779   -0.9482   -2.9112 H   0  0  0  0  0  0  0  0  0  0  0  0
   -1.5567   -2.0409   -1.0055 H   0  0  0  0  0  0  0  0  0  0  0  0
   -0.3512   -1.4264    0.1207 H   0  0  0  0  0  0  0  0  0  0  0  0
    0.1143   -3.4292   -2.1534 H   0  0  0  0  0  0  0  0  0  0  0  0
    1.3380   -2.9455   -0.8200 H   0  0  0  0  0  0  0  0  0  0  0  0
   -0.1501   -3.7888   -0.4641 H   0  0  0  0  0  0  0  0  0  0  0  0
    1.1588    0.5404   -2.9980 H   0  0  0  0  0  0  0  0  0  0  0  0
    2.8266   -1.5437   -1.6652 H   0  0  0  0  0  0  0  0  0  0  0  0
    1.7341   -2.1339   -3.0092 H   0  0  0  0  0  0  0  0  0  0  0  0
    4.0872   -1.1610   -3.5760 H   0  0  0  0  0  0  0  0  0  0  0  0
    2.6322   -0.4736   -4.4734 H   0  0  0  0  0  0  0  0  0  0  0  0
    2.8953    1.5911   -3.5173 H   0  0  0  0  0  0  0  0  0  0  0  0
    4.5371    0.9944   -3.2165 H   0  0  0  0  0  0  0  0  0  0  0  0
    3.5886    1.9497   -1.2316 H   0  0  0  0  0  0  0  0  0  0  0  0
    4.0029   -0.3384    0.0409 H   0  0  0  0  0  0  0  0  0  0  0  0
    2.0564   -0.1275   -0.1344 H   0  0  0  0  0  0  0  0  0  0  0  0
    1.4968    1.4668   -0.6698 H   0  0  0  0  0  0  0  0  0  0  0  0
    5.7066    2.5115   -0.7600 H   0  0  0  0  0  0  0  0  0  0  0  0
    6.2500   -1.3205   -2.5216 H   0  0  0  0  0  0  0  0  0  0  0  0
    6.5149    1.0872    1.0120 H   0  0  0  0  0  0  0  0  0  0  0  0
    5.7992   -1.2201    1.0134 H   0  0  0  0  0  0  0  0  0  0  0  0
    8.3383   -1.8952    2.0123 H   0  0  0  0  0  0  0  0  0  0  0  0
    6.9011   -1.2860    2.8840 H   0  0  0  0  0  0  0  0  0  0  0  0
    7.6058    0.9934    2.7355 H   0  0  0  0  0  0  0  0  0  0  0  0
   10.0453    0.1455    1.1443 H   0  0  0  0  0  0  0  0  0  0  0  0
    9.4150    1.7818    1.4360 H   0  0  0  0  0  0  0  0  0  0  0  0
    8.4047    1.6164   -0.5891 H   0  0  0  0  0  0  0  0  0  0  0  0
    8.7614   -0.1194   -0.6970 H   0  0  0  0  0  0  0  0  0  0  0  0
  1  2  1  0
  2  3  1  0
  3  4  1  0
  4  5  1  0
  1  6  1  0
  5  6  1  0
  2  7  1  0
  4  8  1  0
  6  9  1  1
  9 10  1  0
 10 11  1  0
  6 12  1  0
 12 13  1  0
 13 14  1  0
 14 15  1  0
 15 16  1  0
 16 17  1  0
 17 18  1  0
 14 19  1  0
 18 19  1  0
  3 20  1  0
 20 21  1  0
 21 22  1  0
 20 23  1  0
 23 24  1  0
 24 25  1  0
 25 26  1  0
 26 27  1  0
 27 28  1  0
 23 29  1  0
 27 29  1  0
 28 30  1  0
 30 31  1  0
 30 32  1  0
 30 33  1  0
 33 34  1  0
 34 35  1  0
 35 36  1  0
 36 37  1  0
 33 38  1  0
 37 38  1  0
 36 39  1  0
 39 40  1  0
 39 41  1  0
 39 42  1  0
  2 43  1  0
  3 44  1  0
  4 45  1  0
  5 46  1  0
  5 47  1  0
  7 48  1  0
  8 49  1  0
  9 50  1  0
  9 51  1  0
 10 52  1  0
 10 53  1  0
 11 54  1  0
 11 55  1  0
 11 56  1  0
 12 57  1  0
 12 58  1  0
 13 59  1  0
 13 60  1  0
 14 61  1  0
 15 62  1  0
 15 63  1  0
 16 64  1  0
 16 65  1  0
 17 66  1  0
 17 67  1  0
 18 68  1  0
 18 69  1  0
 19 70  1  0
 19 71  1  0
 20 72  1  6
 21 73  1  0
 21 74  1  0
 22 75  1  0
 22 76  1  0
 22 77  1  0
 23 78  1  0
 24 79  1  0
 24 80  1  0
 25 81  1  0
 25 82  1  0
 26 83  1  0
 26 84  1  0
 27 85  1  0
 28 86  1  0
 29 87  1  0
 29 88  1  0
 31 89  1  0
 32 90  1  0
 33 91  1  1
 34 92  1  0
 35 93  1  0
 35 94  1  0
 36 95  1  1
 37 96  1  0
 37 97  1  0
 38 98  1  0
 38 99  1  0
M  END
>  <PDBID>  (1) 
2O4P

>  <PDB ID>  (1) 
2O4P

>  <Generic Name>  (1) 
Tipranavir

>  <Brand Name>  (1) 
Aptivus

>  <DrugBank ID>  (1) 
DB00932

>  <ATC Codes>  (1) 
J05AE09

>  <Ligand ID>  (1) 
TPV

>  <Target Name>  (1) 
Pol polyprotein

>  <UniProt ID>  (1) 
Q72874

>  <PDB ID.1>  (1) 
2O4P

>  <Seq. Identity>  (1) 
98%

$$$$
