PDB_DB01026_04
     RDKit          3D

164172  0  0  0  0  0  0  0  0999 V2000
   -6.4826   -1.5039    1.4103 C   0  0  0  0  0  0  0  0  0  0  0  0
   -5.1733   -1.7671    1.0881 N   0  0  0  0  0  0  0  0  0  0  0  0
   -3.0122    0.7353   -0.4136 O   0  0  0  0  0  0  0  0  0  0  0  0
   -4.4837    4.3866   -0.2615 Cl  0  0  0  0  0  0  0  0  0  0  0  0
   -6.3154   -3.7388    1.1309 C   0  0  0  0  0  0  0  0  0  0  0  0
   -6.9401   -2.7670    2.0470 N   0  0  0  0  0  0  0  0  0  0  0  0
   -4.1449   -0.8347   -1.5374 O   0  0  0  0  0  0  0  0  0  0  0  0
   -5.6472    0.7352   -3.1031 Cl  0  0  0  0  0  0  0  0  0  0  0  0
   -4.9064   -3.1603    0.9177 C   0  0  0  0  0  0  0  0  0  0  0  0
    5.1284    0.1916    0.1918 N   0  0  0  0  0  0  0  0  0  0  0  0
   -0.2757   -0.4582   -0.1861 O   0  0  0  0  0  0  0  0  0  0  0  0
   -4.1777   -0.8654    0.8126 C   0  0  0  0  0  0  0  0  0  0  0  0
    7.6185    0.6738    0.5012 N   0  0  0  0  0  0  0  0  0  0  0  0
    9.4149    1.9653   -0.1251 O   0  0  0  0  0  0  0  0  0  0  0  0
   -4.2094   -0.0338   -0.4274 C   0  0  1  0  0  0  0  0  0  0  0  0
   -2.2233    0.2967   -1.4366 C   0  0  2  0  0  0  0  0  0  0  0  0
   -2.7810   -1.0800   -1.7332 C   0  0  0  0  0  0  0  0  0  0  0  0
   -5.3486    0.9680   -0.4702 C   0  0  0  0  0  0  0  0  0  0  0  0
   -5.2315    1.7904   -1.7361 C   0  0  0  0  0  0  0  0  0  0  0  0
   -6.2192    2.9379   -1.7489 C   0  0  0  0  0  0  0  0  0  0  0  0
   -6.1348    3.7698   -0.4902 C   0  0  0  0  0  0  0  0  0  0  0  0
   -6.4461    2.8583    0.6688 C   0  0  0  0  0  0  0  0  0  0  0  0
   -5.2983    1.8535    0.7570 C   0  0  0  0  0  0  0  0  0  0  0  0
   -0.7570    0.3001   -1.2180 C   0  0  0  0  0  0  0  0  0  0  0  0
    1.1176   -0.3068   -0.1758 C   0  0  0  0  0  0  0  0  0  0  0  0
    1.8454   -1.6012   -0.3239 C   0  0  0  0  0  0  0  0  0  0  0  0
    3.2961   -1.4319   -0.0280 C   0  0  0  0  0  0  0  0  0  0  0  0
    3.7313    0.0175   -0.0297 C   0  0  0  0  0  0  0  0  0  0  0  0
    2.9647    0.8248    0.9958 C   0  0  0  0  0  0  0  0  0  0  0  0
    1.5410    0.3172    1.1367 C   0  0  0  0  0  0  0  0  0  0  0  0
    5.6286   -0.2531    1.4525 C   0  0  0  0  0  0  0  0  0  0  0  0
    7.1351   -0.4056    1.3515 C   0  0  0  0  0  0  0  0  0  0  0  0
    7.3117    0.3471   -0.8652 C   0  0  0  0  0  0  0  0  0  0  0  0
    5.9342   -0.2738   -0.9268 C   0  0  0  0  0  0  0  0  0  0  0  0
    9.0368    0.9143    0.7029 C   0  0  0  0  0  0  0  0  0  0  0  0
    9.8684   -0.2954    0.3276 C   0  0  0  0  0  0  0  0  0  0  0  0
   -6.5578   -1.7515    0.8266 C   0  0  0  0  0  0  0  0  0  0  0  0
   -5.2152   -1.8747    0.6060 N   0  0  0  0  0  0  0  0  0  0  0  0
   -3.0261    0.8863   -0.3897 O   0  0  0  0  0  0  0  0  0  0  0  0
   -6.1095    4.9373    1.3833 Cl  0  0  0  0  0  0  0  0  0  0  0  0
   -5.9446   -4.0200    0.8667 C   0  0  0  0  0  0  0  0  0  0  0  0
   -7.0580   -3.1087    1.0465 N   0  0  0  0  0  0  0  0  0  0  0  0
   -4.1443   -0.4961   -1.7754 O   0  0  0  0  0  0  0  0  0  0  0  0
   -6.5464    2.2463   -2.7165 Cl  0  0  0  0  0  0  0  0  0  0  0  0
   -4.7035   -3.1699    1.0182 C   0  0  0  0  0  0  0  0  0  0  0  0
    5.1963   -0.5425    0.1399 N   0  0  0  0  0  0  0  0  0  0  0  0
   -0.2462   -0.1645    0.1284 O   0  0  0  0  0  0  0  0  0  0  0  0
   -4.2611   -0.8811    0.5339 C   0  0  0  0  0  0  0  0  0  0  0  0
    8.0155   -0.3993    0.1071 N   0  0  0  0  0  0  0  0  0  0  0  0
    8.7496    1.8053    0.0178 O   0  0  0  0  0  0  0  0  0  0  0  0
   -4.2352    0.1223   -0.5583 C   0  0  1  0  0  0  0  0  0  0  0  0
   -2.1519    0.3855   -1.3108 C   0  0  2  0  0  0  0  0  0  0  0  0
   -2.7780   -0.8809   -1.8163 C   0  0  0  0  0  0  0  0  0  0  0  0
   -5.3815    1.0971   -0.5207 C   0  0  0  0  0  0  0  0  0  0  0  0
   -5.2506    2.2386   -1.5018 C   0  0  0  0  0  0  0  0  0  0  0  0
   -5.2551    3.5835   -0.7630 C   0  0  0  0  0  0  0  0  0  0  0  0
   -6.5071    3.8153    0.0289 C   0  0  0  0  0  0  0  0  0  0  0  0
   -6.9501    2.5073    0.6462 C   0  0  0  0  0  0  0  0  0  0  0  0
   -5.6863    1.6554    0.8193 C   0  0  0  0  0  0  0  0  0  0  0  0
   -0.7128    0.3606   -1.0380 C   0  0  0  0  0  0  0  0  0  0  0  0
    1.1357   -0.2950    0.0183 C   0  0  0  0  0  0  0  0  0  0  0  0
    1.6512   -1.5126    0.6681 C   0  0  0  0  0  0  0  0  0  0  0  0
    3.1203   -1.3623    1.0303 C   0  0  0  0  0  0  0  0  0  0  0  0
    3.8079   -0.4150    0.0644 C   0  0  0  0  0  0  0  0  0  0  0  0
    3.2394    0.9788    0.1819 C   0  0  0  0  0  0  0  0  0  0  0  0
    1.8108    0.9106    0.7045 C   0  0  0  0  0  0  0  0  0  0  0  0
    5.8962   -0.2414    1.3054 C   0  0  0  0  0  0  0  0  0  0  0  0
    7.3083   -0.8515    1.2460 C   0  0  0  0  0  0  0  0  0  0  0  0
    7.2888   -0.1097   -1.0659 C   0  0  0  0  0  0  0  0  0  0  0  0
    5.9298   -0.8270   -1.0328 C   0  0  0  0  0  0  0  0  0  0  0  0
    9.0555    0.5204    0.4122 C   0  0  2  0  0  0  0  0  0  0  0  0
   10.3566    0.0898   -0.2637 C   0  0  0  0  0  0  0  0  0  0  0  0
   -6.6057   -0.7593    2.2452 H   0  0  0  0  0  0  0  0  0  0  0  0
   -7.2263   -1.3659    0.6004 H   0  0  0  0  0  0  0  0  0  0  0  0
   -6.8049   -3.7335    0.1552 H   0  0  0  0  0  0  0  0  0  0  0  0
   -6.2897   -4.7260    1.6039 H   0  0  0  0  0  0  0  0  0  0  0  0
   -6.4342   -2.8131    2.9589 H   0  0  0  0  0  0  0  0  0  0  0  0
   -4.4537   -3.4635   -0.0220 H   0  0  0  0  0  0  0  0  0  0  0  0
   -4.3384   -3.4865    1.8329 H   0  0  0  0  0  0  0  0  0  0  0  0
   -4.0396   -0.1836    1.7138 H   0  0  0  0  0  0  0  0  0  0  0  0
   -3.1855   -1.4112    0.8007 H   0  0  0  0  0  0  0  0  0  0  0  0
   10.1906    2.4546    0.2515 H   0  0  0  0  0  0  0  0  0  0  0  0
   -2.3924    0.8746   -2.3963 H   0  0  0  0  0  0  0  0  0  0  0  0
   -2.4483   -1.8485   -1.0283 H   0  0  0  0  0  0  0  0  0  0  0  0
   -2.5792   -1.3645   -2.7911 H   0  0  0  0  0  0  0  0  0  0  0  0
   -6.3491    0.5082   -0.5063 H   0  0  0  0  0  0  0  0  0  0  0  0
   -4.2317    2.2586   -1.8276 H   0  0  0  0  0  0  0  0  0  0  0  0
   -7.2599    2.5614   -1.8289 H   0  0  0  0  0  0  0  0  0  0  0  0
   -5.9844    3.5966   -2.5907 H   0  0  0  0  0  0  0  0  0  0  0  0
   -6.8834    4.5833   -0.5896 H   0  0  0  0  0  0  0  0  0  0  0  0
   -6.5086    3.3979    1.6356 H   0  0  0  0  0  0  0  0  0  0  0  0
   -7.3586    2.2634    0.4730 H   0  0  0  0  0  0  0  0  0  0  0  0
   -5.5011    1.2474    1.6539 H   0  0  0  0  0  0  0  0  0  0  0  0
   -4.3762    2.4491    0.8315 H   0  0  0  0  0  0  0  0  0  0  0  0
   -0.3981    1.3626   -1.1921 H   0  0  0  0  0  0  0  0  0  0  0  0
   -0.2905   -0.1148   -2.1603 H   0  0  0  0  0  0  0  0  0  0  0  0
    1.4657    0.3839   -0.9999 H   0  0  0  0  0  0  0  0  0  0  0  0
    1.3856   -2.3304    0.3875 H   0  0  0  0  0  0  0  0  0  0  0  0
    1.6836   -2.0700   -1.3386 H   0  0  0  0  0  0  0  0  0  0  0  0
    3.8888   -1.9270   -0.8494 H   0  0  0  0  0  0  0  0  0  0  0  0
    3.5535   -1.9731    0.8866 H   0  0  0  0  0  0  0  0  0  0  0  0
    3.4980    0.4403   -1.0250 H   0  0  0  0  0  0  0  0  0  0  0  0
    2.8983    1.8656    0.6191 H   0  0  0  0  0  0  0  0  0  0  0  0
    3.4852    0.8627    1.9708 H   0  0  0  0  0  0  0  0  0  0  0  0
    1.5575   -0.5048    1.8847 H   0  0  0  0  0  0  0  0  0  0  0  0
    0.8417    1.0859    1.4776 H   0  0  0  0  0  0  0  0  0  0  0  0
    5.1478   -1.1592    1.8548 H   0  0  0  0  0  0  0  0  0  0  0  0
    5.4790    0.5640    2.2148 H   0  0  0  0  0  0  0  0  0  0  0  0
    7.4051   -1.3725    0.8862 H   0  0  0  0  0  0  0  0  0  0  0  0
    7.6073   -0.3711    2.3562 H   0  0  0  0  0  0  0  0  0  0  0  0
    8.0774   -0.3212   -1.3213 H   0  0  0  0  0  0  0  0  0  0  0  0
    7.3023    1.2854   -1.4522 H   0  0  0  0  0  0  0  0  0  0  0  0
    5.4310    0.0608   -1.8507 H   0  0  0  0  0  0  0  0  0  0  0  0
    6.0606   -1.3713   -0.8763 H   0  0  0  0  0  0  0  0  0  0  0  0
    9.2471    1.1894    1.7478 H   0  0  0  0  0  0  0  0  0  0  0  0
    9.4552   -1.2334    0.7420 H   0  0  0  0  0  0  0  0  0  0  0  0
   10.8714   -0.1550    0.7934 H   0  0  0  0  0  0  0  0  0  0  0  0
   10.0422   -0.3429   -0.7577 H   0  0  0  0  0  0  0  0  0  0  0  0
   -6.8888   -1.1927    1.7443 H   0  0  0  0  0  0  0  0  0  0  0  0
   -7.2051   -1.3874   -0.0095 H   0  0  0  0  0  0  0  0  0  0  0  0
   -5.9311   -4.4822   -0.1543 H   0  0  0  0  0  0  0  0  0  0  0  0
   -5.9817   -4.8194    1.6388 H   0  0  0  0  0  0  0  0  0  0  0  0
   -7.5782   -3.2195    1.9190 H   0  0  0  0  0  0  0  0  0  0  0  0
   -3.8418   -3.4975    0.4451 H   0  0  0  0  0  0  0  0  0  0  0  0
   -4.4951   -3.0855    2.0923 H   0  0  0  0  0  0  0  0  0  0  0  0
   -3.2479   -1.3446    0.6215 H   0  0  0  0  0  0  0  0  0  0  0  0
   -4.3140   -0.2881    1.5197 H   0  0  0  0  0  0  0  0  0  0  0  0
    8.1037    2.2160    0.6582 H   0  0  0  0  0  0  0  0  0  0  0  0
   -2.2230    1.0697   -2.2760 H   0  0  0  0  0  0  0  0  0  0  0  0
   -2.5334   -1.7070   -1.1634 H   0  0  0  0  0  0  0  0  0  0  0  0
   -2.5104   -1.0754   -2.8891 H   0  0  0  0  0  0  0  0  0  0  0  0
   -6.3149    0.5426   -0.8482 H   0  0  0  0  0  0  0  0  0  0  0  0
   -4.2663    2.2064   -2.0004 H   0  0  0  0  0  0  0  0  0  0  0  0
   -4.3239    3.7117   -0.1697 H   0  0  0  0  0  0  0  0  0  0  0  0
   -5.2202    4.3612   -1.5513 H   0  0  0  0  0  0  0  0  0  0  0  0
   -7.3148    4.2898   -0.5409 H   0  0  0  0  0  0  0  0  0  0  0  0
   -7.6014    1.9879   -0.0803 H   0  0  0  0  0  0  0  0  0  0  0  0
   -7.5079    2.6115    1.5762 H   0  0  0  0  0  0  0  0  0  0  0  0
   -5.9299    0.9595    1.6174 H   0  0  0  0  0  0  0  0  0  0  0  0
   -4.9244    2.3470    1.2162 H   0  0  0  0  0  0  0  0  0  0  0  0
   -0.3142    1.4255   -1.0873 H   0  0  0  0  0  0  0  0  0  0  0  0
   -0.2063   -0.1706   -1.8927 H   0  0  0  0  0  0  0  0  0  0  0  0
    1.4751   -0.1778   -1.0399 H   0  0  0  0  0  0  0  0  0  0  0  0
    1.1300   -1.5868    1.6767 H   0  0  0  0  0  0  0  0  0  0  0  0
    1.4147   -2.4548    0.1548 H   0  0  0  0  0  0  0  0  0  0  0  0
    3.5900   -2.3415    0.9630 H   0  0  0  0  0  0  0  0  0  0  0  0
    3.2669   -0.9171    2.0372 H   0  0  0  0  0  0  0  0  0  0  0  0
    3.4922   -0.7728   -0.9653 H   0  0  0  0  0  0  0  0  0  0  0  0
    3.1888    1.4424   -0.8411 H   0  0  0  0  0  0  0  0  0  0  0  0
    3.8009    1.6563    0.8342 H   0  0  0  0  0  0  0  0  0  0  0  0
    1.7383    0.7388    1.7850 H   0  0  0  0  0  0  0  0  0  0  0  0
    1.2274    1.8076    0.4310 H   0  0  0  0  0  0  0  0  0  0  0  0
    5.4121   -0.6919    2.2052 H   0  0  0  0  0  0  0  0  0  0  0  0
    6.1015    0.8565    1.4881 H   0  0  0  0  0  0  0  0  0  0  0  0
    7.1579   -1.9491    1.1906 H   0  0  0  0  0  0  0  0  0  0  0  0
    7.8455   -0.6145    2.2137 H   0  0  0  0  0  0  0  0  0  0  0  0
    7.2029    0.9544   -1.3048 H   0  0  0  0  0  0  0  0  0  0  0  0
    7.8232   -0.6034   -1.9323 H   0  0  0  0  0  0  0  0  0  0  0  0
    5.4024   -0.6459   -1.9897 H   0  0  0  0  0  0  0  0  0  0  0  0
    6.1891   -1.9281   -1.0351 H   0  0  0  0  0  0  0  0  0  0  0  0
    9.2527    0.5209    1.5360 H   0  0  0  0  0  0  0  0  0  0  0  0
   10.3429   -0.9973   -0.4938 H   0  0  0  0  0  0  0  0  0  0  0  0
   11.2545    0.3651    0.3184 H   0  0  0  0  0  0  0  0  0  0  0  0
   10.4217    0.6432   -1.2352 H   0  0  0  0  0  0  0  0  0  0  0  0
  1  2  1  0
  1  6  1  0
  5  6  1  0
  2  9  1  0
  5  9  1  0
  2 12  1  0
  3 15  1  0
  7 15  1  0
 15 12  1  1
  3 16  1  0
  7 17  1  0
 16 17  1  0
 15 18  1  0
  8 19  1  0
 18 19  1  0
 19 20  1  0
  4 21  1  0
 20 21  1  0
 21 22  1  0
 18 23  1  0
 22 23  1  0
 11 24  1  0
 16 24  1  0
 11 25  1  0
 25 26  1  0
 26 27  1  0
 10 28  1  0
 27 28  1  0
 28 29  1  0
 25 30  1  0
 29 30  1  0
 10 31  1  0
 13 32  1  0
 31 32  1  0
 13 33  1  0
 10 34  1  0
 33 34  1  0
 13 35  1  0
 14 35  1  0
 35 36  1  0
 37 38  1  0
 37 42  1  0
 41 42  1  0
 38 45  1  0
 41 45  1  0
 38 48  1  0
 39 51  1  0
 43 51  1  0
 51 48  1  1
 39 52  1  0
 43 53  1  0
 52 53  1  0
 51 54  1  0
 44 55  1  0
 54 55  1  0
 55 56  1  0
 40 57  1  0
 56 57  1  0
 57 58  1  0
 54 59  1  0
 58 59  1  0
 47 60  1  0
 52 60  1  0
 47 61  1  0
 61 62  1  0
 62 63  1  0
 46 64  1  0
 63 64  1  0
 64 65  1  0
 61 66  1  0
 65 66  1  0
 46 67  1  0
 49 68  1  0
 67 68  1  0
 49 69  1  0
 46 70  1  0
 69 70  1  0
 49 71  1  0
 50 71  1  0
 71 72  1  0
  1 73  1  0
  1 74  1  0
  5 75  1  0
  5 76  1  0
  6 77  1  0
  9 78  1  0
  9 79  1  0
 12 80  1  0
 12 81  1  0
 14 82  1  0
 16 83  1  6
 17 84  1  0
 17 85  1  0
 18 86  1  0
 19 87  1  0
 20 88  1  0
 20 89  1  0
 21 90  1  0
 22 91  1  0
 22 92  1  0
 23 93  1  0
 23 94  1  0
 24 95  1  0
 24 96  1  0
 25 97  1  0
 26 98  1  0
 26 99  1  0
 27100  1  0
 27101  1  0
 28102  1  0
 29103  1  0
 29104  1  0
 30105  1  0
 30106  1  0
 31107  1  0
 31108  1  0
 32109  1  0
 32110  1  0
 33111  1  0
 33112  1  0
 34113  1  0
 34114  1  0
 35115  1  0
 36116  1  0
 36117  1  0
 36118  1  0
 37119  1  0
 37120  1  0
 41121  1  0
 41122  1  0
 42123  1  0
 45124  1  0
 45125  1  0
 48126  1  0
 48127  1  0
 50128  1  0
 52129  1  6
 53130  1  0
 53131  1  0
 54132  1  0
 55133  1  0
 56134  1  0
 56135  1  0
 57136  1  0
 58137  1  0
 58138  1  0
 59139  1  0
 59140  1  0
 60141  1  0
 60142  1  0
 61143  1  0
 62144  1  0
 62145  1  0
 63146  1  0
 63147  1  0
 64148  1  0
 65149  1  0
 65150  1  0
 66151  1  0
 66152  1  0
 67153  1  0
 67154  1  0
 68155  1  0
 68156  1  0
 69157  1  0
 69158  1  0
 70159  1  0
 70160  1  0
 71161  1  1
 72162  1  0
 72163  1  0
 72164  1  0
M  END
>  <PDBID>  (1) 
3LD6

>  <PDB ID>  (1) 
3LD6

>  <Generic Name>  (1) 
Ketoconazole

>  <Brand Name>  (1) 
Apo-ketoconazole#Extina#Ketoconazole#Ketodan#Ketoderm Cream 2%#Nizoral#Nizoral  - 2%#Nizoral A-D#Nizoral Cream 2%#Nizoral Oral Suspension 20mg/ml#Nizoral Shp 2%#Nizoral Tablets 200mg#Nu-ketocon Tablets - 200mg#Teva-ketoconazole#Xolegel#Fungarest#Fungoral#Ketoderm#Ketoisdin#Ketozole#Nizoral Cream#Nizoral Shampoo#Orifungal#Orifungal M#Panfungol

>  <DrugBank ID>  (1) 
DB01026

>  <ATC Codes>  (1) 
G01AF11#D01AC08#J02AB02

>  <Ligand ID>  (1) 
KKK,KLN,KTN

>  <Target Name>  (1) 
Lanosterol 14-alpha demethylase

>  <UniProt ID>  (1) 
P10613

>  <PDB ID.1>  (1) 
3LD6

>  <Seq. Identity>  (1) 
40%

$$$$
