PDB_DB00181_02
     RDKit          3D

 34 34  0  0  0  0  0  0  0  0999 V2000
    4.3247   -1.4829   -0.1584 Cl  0  0  0  0  0  0  0  0  0  0  0  0
    3.1110   -0.2525   -0.5989 C   0  0  0  0  0  0  0  0  0  0  0  0
    1.9083   -0.9811   -1.1391 C   0  0  0  0  0  0  0  0  0  0  0  0
    0.6584   -0.0780   -1.1598 C   0  0  0  0  0  0  0  0  0  0  0  0
    2.8017    0.5338    0.6591 C   0  0  0  0  0  0  0  0  0  0  0  0
    1.4538    0.0107    1.1319 C   0  0  0  0  0  0  0  0  0  0  0  0
    0.3557    0.4773    0.1647 C   0  0  0  0  0  0  0  0  0  0  0  0
   -0.9802    0.3060    0.7654 C   0  0  2  0  0  0  0  0  0  0  0  0
   -1.4368   -1.1202    0.9755 C   0  0  0  0  0  0  0  0  0  0  0  0
   -0.5845   -1.8895    1.8551 N   0  0  0  0  0  0  0  0  0  0  0  0
   -2.0620    1.2218    0.3392 C   0  0  0  0  0  0  0  0  0  0  0  0
   -2.4855    1.2835   -1.0618 C   0  0  0  0  0  0  0  0  0  0  0  0
   -1.5622    1.6467   -2.0022 O   0  0  0  0  0  0  0  0  0  0  0  0
   -3.1902    0.1218   -1.4634 O   0  0  0  0  0  0  0  0  0  0  0  0
    3.5543    0.3942   -1.3738 H   0  0  0  0  0  0  0  0  0  0  0  0
    2.1363   -1.1578   -2.2331 H   0  0  0  0  0  0  0  0  0  0  0  0
    1.7164   -1.9585   -0.7011 H   0  0  0  0  0  0  0  0  0  0  0  0
   -0.1048   -0.6501   -1.6701 H   0  0  0  0  0  0  0  0  0  0  0  0
    0.9884    0.7389   -1.8715 H   0  0  0  0  0  0  0  0  0  0  0  0
    3.5167    0.3364    1.4766 H   0  0  0  0  0  0  0  0  0  0  0  0
    2.7397    1.6104    0.5018 H   0  0  0  0  0  0  0  0  0  0  0  0
    1.4542   -1.0828    1.1045 H   0  0  0  0  0  0  0  0  0  0  0  0
    1.1701    0.3545    2.1280 H   0  0  0  0  0  0  0  0  0  0  0  0
    0.5280    1.6064    0.1346 H   0  0  0  0  0  0  0  0  0  0  0  0
   -0.8091    0.6447    1.8556 H   0  0  0  0  0  0  0  0  0  0  0  0
   -1.4844   -1.6904    0.0225 H   0  0  0  0  0  0  0  0  0  0  0  0
   -2.4555   -1.1670    1.4023 H   0  0  0  0  0  0  0  0  0  0  0  0
   -0.6753   -1.6454    2.8472 H   0  0  0  0  0  0  0  0  0  0  0  0
   -0.5510   -2.8881    1.6274 H   0  0  0  0  0  0  0  0  0  0  0  0
   -1.8206    2.2528    0.6980 H   0  0  0  0  0  0  0  0  0  0  0  0
   -2.9751    0.9455    0.9459 H   0  0  0  0  0  0  0  0  0  0  0  0
   -3.2890    2.0850   -1.1044 H   0  0  0  0  0  0  0  0  0  0  0  0
   -1.8258    1.3148   -2.8871 H   0  0  0  0  0  0  0  0  0  0  0  0
   -4.1257    0.1589   -1.2108 H   0  0  0  0  0  0  0  0  0  0  0  0
  1  2  1  0
  2  3  1  0
  3  4  1  0
  2  5  1  0
  5  6  1  0
  4  7  1  0
  6  7  1  0
  7  8  1  0
  8  9  1  0
  9 10  1  0
  8 11  1  0
 11 12  1  0
 12 13  1  0
 12 14  1  0
  2 15  1  0
  3 16  1  0
  3 17  1  0
  4 18  1  0
  4 19  1  0
  5 20  1  0
  5 21  1  0
  6 22  1  0
  6 23  1  0
  7 24  1  0
  8 25  1  1
  9 26  1  0
  9 27  1  0
 10 28  1  0
 10 29  1  0
 11 30  1  0
 11 31  1  0
 12 32  1  0
 13 33  1  0
 14 34  1  0
M  END
>  <PDBID>  (1) 
4MS4

>  <PDB ID>  (1) 
4MS4

>  <Generic Name>  (1) 
Baclofen

>  <Brand Name>  (1) 
Apo-baclofen Tablets - 10mg#Apo-baclofen Tablets - 20mg#Ava-baclofen#Baclofen#Baclofen Injection#Baclofen Tablets - 10mg#Baclofen Tablets - 20mg#Baclofen Tablets 10mg#Baclofen Tablets 20mg#Baclofen-10 - Tab#Baclofen-20 - Tab#Co Baclofen Tablets 10mg#Co Baclofen Tablets 20mg#Dom-baclofen-tab 10mg#Dom-baclofen-tab 20mg#Equipto - Baclofen External Cream Compounding Kit#Ftp-baclofen#Gablofen#Gapeam Budibac#Lioresal#Lioresal D.S. Tab 20mg#Lioresal Intrathecal 0.05mg/ml#Lioresal Intrathecal 0.5mg/ml#Lioresal Intrathecal 2mg/ml#Lioresal Tab 10mg#Med Baclofen Tab 10mg#Med Baclofen Tab 20mg#Mylan-baclofen#Novo-baclofen#PHL-baclofen#PMS-baclofen#PMS-baclofen Tab 20mg#Penta-baclofen Tablets#Ratio-baclofen#Riva-baclofen#Sandoz Baclofen#Val-baclofen Intrathecal#Baclon#Kemstro#Lioresal Intrathecal#Nu-Baclofen

>  <DrugBank ID>  (1) 
DB00181

>  <ATC Codes>  (1) 
M03BX01

>  <Ligand ID>  (1) 
2C0

>  <Target Name>  (1) 
Gamma-aminobutyric acid type B receptor subunit 1

>  <UniProt ID>  (1) 
Q9UBS5

>  <PDB ID.1>  (1) 
4MS4

>  <Seq. Identity>  (1) 
34%

$$$$
