PDB_DB00282_06
     RDKit          3D

 28 27  0  0  0  0  0  0  0  0999 V2000
   -0.6661   -1.2960    0.9730 P   0  0  0  0  0  0  0  0  0  0  0  0
   -0.8622   -2.0047    2.3235 O   0  0  0  0  0  0  0  0  0  0  0  0
   -2.2515   -1.4704    0.5787 O   0  0  0  0  0  0  0  0  0  0  0  0
    0.4075   -2.4769    0.5281 O   0  0  0  0  0  0  0  0  0  0  0  0
   -0.2827   -0.3848   -0.3841 C   0  0  0  0  0  0  0  0  0  0  0  0
   -1.1100    1.1450   -0.6139 P   0  0  0  0  0  0  0  0  0  0  0  0
   -0.3884    2.5350   -0.1122 O   0  0  0  0  0  0  0  0  0  0  0  0
   -2.5285    1.1736   -1.5305 O   0  0  0  0  0  0  0  0  0  0  0  0
   -2.0063    1.1475    0.6283 O   0  0  0  0  0  0  0  0  0  0  0  0
   -0.6017   -1.1663   -1.5541 O   0  0  0  0  0  0  0  0  0  0  0  0
    1.2016   -0.1389   -0.6108 C   0  0  0  0  0  0  0  0  0  0  0  0
    1.9245    0.5653    0.4560 C   0  0  0  0  0  0  0  0  0  0  0  0
    3.3251    0.6784    0.0129 N   0  0  0  0  0  0  0  0  0  0  0  0
   -0.2619   -0.1957    1.6789 H   0  0  0  0  0  0  0  0  0  0  0  0
   -0.1457   -2.1727    2.9465 H   0  0  0  0  0  0  0  0  0  0  0  0
   -2.4276   -1.8522   -0.2859 H   0  0  0  0  0  0  0  0  0  0  0  0
   -0.0033   -2.9752   -0.1858 H   0  0  0  0  0  0  0  0  0  0  0  0
   -0.5816    1.4334   -1.7657 H   0  0  0  0  0  0  0  0  0  0  0  0
   -0.9682    3.2822   -0.2741 H   0  0  0  0  0  0  0  0  0  0  0  0
   -2.7391    0.2405   -1.6449 H   0  0  0  0  0  0  0  0  0  0  0  0
   -2.6011    1.8605    0.8971 H   0  0  0  0  0  0  0  0  0  0  0  0
   -0.5311   -0.5437   -2.2906 H   0  0  0  0  0  0  0  0  0  0  0  0
    1.2175    0.5217   -1.5218 H   0  0  0  0  0  0  0  0  0  0  0  0
    1.6935   -1.0792   -0.9535 H   0  0  0  0  0  0  0  0  0  0  0  0
    1.5977    1.6117    0.6056 H   0  0  0  0  0  0  0  0  0  0  0  0
    1.9582    0.0905    1.4374 H   0  0  0  0  0  0  0  0  0  0  0  0
    3.7398    1.5852    0.2555 H   0  0  0  0  0  0  0  0  0  0  0  0
    3.8913   -0.1136    0.4063 H   0  0  0  0  0  0  0  0  0  0  0  0
  1  2  1  0
  1  3  1  0
  1  4  1  0
  1  5  1  0
  5  6  1  0
  6  7  1  0
  6  8  1  0
  6  9  1  0
  5 10  1  0
  5 11  1  0
 11 12  1  0
 12 13  1  0
  1 14  1  0
  2 15  1  0
  3 16  1  0
  4 17  1  0
  6 18  1  0
  7 19  1  0
  8 20  1  0
  9 21  1  0
 10 22  1  0
 11 23  1  0
 11 24  1  0
 12 25  1  0
 12 26  1  0
 13 27  1  0
 13 28  1  0
M  END
>  <PDBID>  (1) 
2F89

>  <PDB ID>  (1) 
2F89

>  <Generic Name>  (1) 
Pamidronate

>  <Brand Name>  (1) 
Aredia#Aredia 30mg#Aredia 90mg#Aredia Liq Inj 3mg/ml#PMS-pamidronate#Pamidronate Disodium#Pamidronate Disodium Omega 3 mg/ml#Pamidronate Disodium Omega 6 mg/ml#Pamidronate Disodium Omega 9 mg/ml#Pamidronate Disodium for Injection#Val-pamidronate Disodium#Aminomux#Pamimed

>  <DrugBank ID>  (1) 
DB00282

>  <ATC Codes>  (1) 
M05BA03

>  <Ligand ID>  (1) 
210

>  <Target Name>  (1) 
Farnesyl pyrophosphate synthase

>  <UniProt ID>  (1) 
P14324

>  <PDB ID.1>  (1) 
2F89

>  <Seq. Identity>  (1) 
100%

$$$$
