PDB_DB00328_06
     RDKit          3D

236244  0  0  0  0  0  0  0  0999 V2000
   -0.3997    0.3219   -0.3804 C   0  0  0  0  0  0  0  0  0  0  0  0
   -1.7546   -0.1278    0.2094 C   0  0  0  0  0  0  0  0  0  0  0  0
   -2.8044    0.6598   -0.5238 C   0  0  0  0  0  0  0  0  0  0  0  0
   -2.7473    2.0471    0.1329 C   0  0  0  0  0  0  0  0  0  0  0  0
   -1.4097    2.6280   -0.2377 C   0  0  0  0  0  0  0  0  0  0  0  0
   -0.2517    1.7333    0.1157 C   0  0  0  0  0  0  0  0  0  0  0  0
   -4.6347    3.2961    0.5422 C   0  0  0  0  0  0  0  0  0  0  0  0
   -1.7251   -1.5772   -0.0439 C   0  0  1  0  0  0  0  0  0  0  0  0
   -0.2368   -1.9082    0.1191 C   0  0  0  0  0  0  0  0  0  0  0  0
    1.7461   -0.8461   -0.3099 C   0  0  0  0  0  0  0  0  0  0  0  0
    2.7594    0.2347   -0.3107 C   0  0  0  0  0  0  0  0  0  0  0  0
    4.0181   -0.4061   -0.9358 C   0  0  0  0  0  0  0  0  0  0  0  0
    5.0225    0.6257   -1.3141 C   0  0  0  0  0  0  0  0  0  0  0  0
    5.2262    1.5568   -0.1594 C   0  0  0  0  0  0  0  0  0  0  0  0
    4.6824    0.9659    1.1312 C   0  0  0  0  0  0  0  0  0  0  0  0
    3.1680    0.7444    1.0275 C   0  0  0  0  0  0  0  0  0  0  0  0
    0.1366   -2.7141   -1.0809 C   0  0  0  0  0  0  0  0  0  0  0  0
   -2.4850   -2.4475    0.9003 C   0  0  0  0  0  0  0  0  0  0  0  0
   -3.9491   -2.1836    0.9879 C   0  0  0  0  0  0  0  0  0  0  0  0
    0.4629   -0.6225    0.1970 N   0  0  0  0  0  0  0  0  0  0  0  0
   -3.7426    2.8153   -0.4208 O   0  0  0  0  0  0  0  0  0  0  0  0
    2.3114   -1.9020    0.4548 O   0  0  0  0  0  0  0  0  0  0  0  0
   -4.5121   -3.0912    1.9152 O   0  0  0  0  0  0  0  0  0  0  0  0
   -4.6223   -2.3290   -0.1953 O   0  0  0  0  0  0  0  0  0  0  0  0
    6.9397    1.9205    0.0951 Cl  0  0  0  0  0  0  0  0  0  0  0  0
   -0.3997    0.3219   -0.3804 C   0  0  0  0  0  0  0  0  0  0  0  0
   -1.7546   -0.1278    0.2094 C   0  0  0  0  0  0  0  0  0  0  0  0
   -2.8044    0.6598   -0.5238 C   0  0  0  0  0  0  0  0  0  0  0  0
   -2.7473    2.0471    0.1329 C   0  0  0  0  0  0  0  0  0  0  0  0
   -1.4097    2.6280   -0.2377 C   0  0  0  0  0  0  0  0  0  0  0  0
   -0.2517    1.7333    0.1157 C   0  0  0  0  0  0  0  0  0  0  0  0
   -4.6347    3.2961    0.5422 C   0  0  0  0  0  0  0  0  0  0  0  0
   -1.7251   -1.5772   -0.0439 C   0  0  1  0  0  0  0  0  0  0  0  0
   -0.2368   -1.9082    0.1191 C   0  0  0  0  0  0  0  0  0  0  0  0
    1.7461   -0.8461   -0.3099 C   0  0  0  0  0  0  0  0  0  0  0  0
    2.7594    0.2347   -0.3107 C   0  0  0  0  0  0  0  0  0  0  0  0
    4.0181   -0.4061   -0.9358 C   0  0  0  0  0  0  0  0  0  0  0  0
    5.0225    0.6257   -1.3141 C   0  0  0  0  0  0  0  0  0  0  0  0
    5.2262    1.5568   -0.1594 C   0  0  0  0  0  0  0  0  0  0  0  0
    4.6824    0.9659    1.1312 C   0  0  0  0  0  0  0  0  0  0  0  0
    3.1680    0.7444    1.0275 C   0  0  0  0  0  0  0  0  0  0  0  0
    0.1366   -2.7141   -1.0809 C   0  0  0  0  0  0  0  0  0  0  0  0
   -2.4850   -2.4475    0.9003 C   0  0  0  0  0  0  0  0  0  0  0  0
   -3.9491   -2.1836    0.9879 C   0  0  0  0  0  0  0  0  0  0  0  0
    0.4629   -0.6225    0.1970 N   0  0  0  0  0  0  0  0  0  0  0  0
   -3.7426    2.8153   -0.4208 O   0  0  0  0  0  0  0  0  0  0  0  0
    2.3114   -1.9020    0.4548 O   0  0  0  0  0  0  0  0  0  0  0  0
   -4.5121   -3.0912    1.9152 O   0  0  0  0  0  0  0  0  0  0  0  0
   -4.6223   -2.3290   -0.1953 O   0  0  0  0  0  0  0  0  0  0  0  0
    6.9397    1.9205    0.0951 Cl  0  0  0  0  0  0  0  0  0  0  0  0
   -0.3314    0.5413   -0.0794 C   0  0  0  0  0  0  0  0  0  0  0  0
   -1.7071   -0.0680    0.3180 C   0  0  0  0  0  0  0  0  0  0  0  0
   -2.6396    0.4853   -0.6902 C   0  0  0  0  0  0  0  0  0  0  0  0
   -2.7230    1.9878   -0.3788 C   0  0  0  0  0  0  0  0  0  0  0  0
   -1.7177    2.4522    0.6067 C   0  0  0  0  0  0  0  0  0  0  0  0
   -0.3174    1.9050    0.4332 C   0  0  0  0  0  0  0  0  0  0  0  0
   -4.8149    2.9731   -0.5144 C   0  0  0  0  0  0  0  0  0  0  0  0
   -1.4394   -1.5009    0.3860 C   0  0  0  0  0  0  0  0  0  0  0  0
   -0.0143   -1.7216   -0.0535 C   0  0  0  0  0  0  0  0  0  0  0  0
    1.6773   -0.3808    1.0176 C   0  0  0  0  0  0  0  0  0  0  0  0
    2.7220    0.5703    0.4653 C   0  0  0  0  0  0  0  0  0  0  0  0
    3.1630    0.1378   -0.9262 C   0  0  0  0  0  0  0  0  0  0  0  0
    4.3784    0.8985   -1.3279 C   0  0  0  0  0  0  0  0  0  0  0  0
    5.5683    0.3873   -0.5310 C   0  0  0  0  0  0  0  0  0  0  0  0
    5.1257   -0.1102    0.8084 C   0  0  0  0  0  0  0  0  0  0  0  0
    3.9412    0.6307    1.3598 C   0  0  0  0  0  0  0  0  0  0  0  0
    0.0530   -1.9509   -1.5332 C   0  0  0  0  0  0  0  0  0  0  0  0
   -2.4278   -2.4895   -0.0595 C   0  0  0  0  0  0  0  0  0  0  0  0
   -3.7223   -2.5179    0.6796 C   0  0  0  0  0  0  0  0  0  0  0  0
    0.5611   -0.4320    0.2290 N   0  0  0  0  0  0  0  0  0  0  0  0
   -3.9936    2.1486    0.2204 O   0  0  0  0  0  0  0  0  0  0  0  0
    1.4882   -0.1485    2.3801 O   0  0  0  0  0  0  0  0  0  0  0  0
   -3.5094   -2.8082    2.0548 O   0  0  0  0  0  0  0  0  0  0  0  0
   -4.5462   -3.5810    0.2369 O   0  0  0  0  0  0  0  0  0  0  0  0
    6.7084    1.7557   -0.3152 Cl  0  0  0  0  0  0  0  0  0  0  0  0
   -0.3997    0.3219   -0.3804 C   0  0  0  0  0  0  0  0  0  0  0  0
   -1.7546   -0.1278    0.2094 C   0  0  0  0  0  0  0  0  0  0  0  0
   -2.8044    0.6598   -0.5238 C   0  0  0  0  0  0  0  0  0  0  0  0
   -2.7473    2.0471    0.1329 C   0  0  0  0  0  0  0  0  0  0  0  0
   -1.4097    2.6280   -0.2377 C   0  0  0  0  0  0  0  0  0  0  0  0
   -0.2517    1.7333    0.1157 C   0  0  0  0  0  0  0  0  0  0  0  0
   -4.6347    3.2961    0.5422 C   0  0  0  0  0  0  0  0  0  0  0  0
   -1.7251   -1.5772   -0.0439 C   0  0  1  0  0  0  0  0  0  0  0  0
   -0.2368   -1.9082    0.1191 C   0  0  0  0  0  0  0  0  0  0  0  0
    1.7461   -0.8461   -0.3099 C   0  0  0  0  0  0  0  0  0  0  0  0
    2.7594    0.2347   -0.3107 C   0  0  0  0  0  0  0  0  0  0  0  0
    4.0181   -0.4061   -0.9358 C   0  0  0  0  0  0  0  0  0  0  0  0
    5.0225    0.6257   -1.3141 C   0  0  0  0  0  0  0  0  0  0  0  0
    5.2262    1.5568   -0.1594 C   0  0  0  0  0  0  0  0  0  0  0  0
    4.6824    0.9659    1.1312 C   0  0  0  0  0  0  0  0  0  0  0  0
    3.1680    0.7444    1.0275 C   0  0  0  0  0  0  0  0  0  0  0  0
    0.1366   -2.7141   -1.0809 C   0  0  0  0  0  0  0  0  0  0  0  0
   -2.4850   -2.4475    0.9003 C   0  0  0  0  0  0  0  0  0  0  0  0
   -3.9491   -2.1836    0.9879 C   0  0  0  0  0  0  0  0  0  0  0  0
    0.4629   -0.6225    0.1970 N   0  0  0  0  0  0  0  0  0  0  0  0
   -3.7426    2.8153   -0.4208 O   0  0  0  0  0  0  0  0  0  0  0  0
    2.3114   -1.9020    0.4548 O   0  0  0  0  0  0  0  0  0  0  0  0
   -4.5121   -3.0912    1.9152 O   0  0  0  0  0  0  0  0  0  0  0  0
   -4.6223   -2.3290   -0.1953 O   0  0  0  0  0  0  0  0  0  0  0  0
    6.9397    1.9205    0.0951 Cl  0  0  0  0  0  0  0  0  0  0  0  0
   -0.4495    0.2977   -1.4961 H   0  0  0  0  0  0  0  0  0  0  0  0
   -1.7384    0.1312    1.2899 H   0  0  0  0  0  0  0  0  0  0  0  0
   -3.8195    0.2975   -0.4203 H   0  0  0  0  0  0  0  0  0  0  0  0
   -2.4790    0.7889   -1.5899 H   0  0  0  0  0  0  0  0  0  0  0  0
   -2.8494    1.9583    1.2283 H   0  0  0  0  0  0  0  0  0  0  0  0
   -1.3822    2.9278   -1.2911 H   0  0  0  0  0  0  0  0  0  0  0  0
   -1.2836    3.5644    0.3697 H   0  0  0  0  0  0  0  0  0  0  0  0
   -0.2445    1.6683    1.2401 H   0  0  0  0  0  0  0  0  0  0  0  0
    0.6591    2.2526   -0.2174 H   0  0  0  0  0  0  0  0  0  0  0  0
   -5.4082    3.9029    0.0419 H   0  0  0  0  0  0  0  0  0  0  0  0
   -4.0655    4.0185    1.1870 H   0  0  0  0  0  0  0  0  0  0  0  0
   -5.1114    2.5170    1.1434 H   0  0  0  0  0  0  0  0  0  0  0  0
   -2.0727   -1.7535   -1.0880 H   0  0  0  0  0  0  0  0  0  0  0  0
   -0.0540   -2.5216    1.0154 H   0  0  0  0  0  0  0  0  0  0  0  0
    1.7498   -1.2740   -1.3577 H   0  0  0  0  0  0  0  0  0  0  0  0
    2.5402    1.0587   -1.0516 H   0  0  0  0  0  0  0  0  0  0  0  0
    4.4549   -1.0171   -0.1005 H   0  0  0  0  0  0  0  0  0  0  0  0
    3.7427   -1.0992   -1.7492 H   0  0  0  0  0  0  0  0  0  0  0  0
    4.7895    1.1394   -2.2681 H   0  0  0  0  0  0  0  0  0  0  0  0
    5.9924    0.0946   -1.4936 H   0  0  0  0  0  0  0  0  0  0  0  0
    4.6959    2.5031   -0.3575 H   0  0  0  0  0  0  0  0  0  0  0  0
    5.2158    0.0724    1.4479 H   0  0  0  0  0  0  0  0  0  0  0  0
    4.8537    1.7421    1.9179 H   0  0  0  0  0  0  0  0  0  0  0  0
    2.7210    1.7487    1.1901 H   0  0  0  0  0  0  0  0  0  0  0  0
    2.8863    0.0196    1.8142 H   0  0  0  0  0  0  0  0  0  0  0  0
   -0.6623   -3.5094   -1.1795 H   0  0  0  0  0  0  0  0  0  0  0  0
    0.0346   -2.1326   -2.0356 H   0  0  0  0  0  0  0  0  0  0  0  0
    1.0836   -3.2566   -0.9983 H   0  0  0  0  0  0  0  0  0  0  0  0
   -2.0058   -2.3893    1.8988 H   0  0  0  0  0  0  0  0  0  0  0  0
   -2.3695   -3.5037    0.5175 H   0  0  0  0  0  0  0  0  0  0  0  0
   -4.1027   -1.1748    1.4182 H   0  0  0  0  0  0  0  0  0  0  0  0
    2.0521   -1.8224    1.3996 H   0  0  0  0  0  0  0  0  0  0  0  0
   -4.4841   -3.9814    1.4435 H   0  0  0  0  0  0  0  0  0  0  0  0
   -4.0876   -2.6623   -0.9405 H   0  0  0  0  0  0  0  0  0  0  0  0
   -0.4495    0.2977   -1.4961 H   0  0  0  0  0  0  0  0  0  0  0  0
   -1.7384    0.1312    1.2899 H   0  0  0  0  0  0  0  0  0  0  0  0
   -3.8195    0.2975   -0.4203 H   0  0  0  0  0  0  0  0  0  0  0  0
   -2.4790    0.7889   -1.5899 H   0  0  0  0  0  0  0  0  0  0  0  0
   -2.8494    1.9583    1.2283 H   0  0  0  0  0  0  0  0  0  0  0  0
   -1.3822    2.9278   -1.2911 H   0  0  0  0  0  0  0  0  0  0  0  0
   -1.2836    3.5644    0.3697 H   0  0  0  0  0  0  0  0  0  0  0  0
   -0.2445    1.6683    1.2401 H   0  0  0  0  0  0  0  0  0  0  0  0
    0.6591    2.2526   -0.2174 H   0  0  0  0  0  0  0  0  0  0  0  0
   -5.4082    3.9029    0.0419 H   0  0  0  0  0  0  0  0  0  0  0  0
   -4.0655    4.0185    1.1870 H   0  0  0  0  0  0  0  0  0  0  0  0
   -5.1114    2.5170    1.1434 H   0  0  0  0  0  0  0  0  0  0  0  0
   -2.0727   -1.7535   -1.0880 H   0  0  0  0  0  0  0  0  0  0  0  0
   -0.0540   -2.5216    1.0154 H   0  0  0  0  0  0  0  0  0  0  0  0
    1.7498   -1.2740   -1.3577 H   0  0  0  0  0  0  0  0  0  0  0  0
    2.5402    1.0587   -1.0516 H   0  0  0  0  0  0  0  0  0  0  0  0
    4.4549   -1.0171   -0.1005 H   0  0  0  0  0  0  0  0  0  0  0  0
    3.7427   -1.0992   -1.7492 H   0  0  0  0  0  0  0  0  0  0  0  0
    4.7895    1.1394   -2.2681 H   0  0  0  0  0  0  0  0  0  0  0  0
    5.9924    0.0946   -1.4936 H   0  0  0  0  0  0  0  0  0  0  0  0
    4.6959    2.5031   -0.3575 H   0  0  0  0  0  0  0  0  0  0  0  0
    5.2158    0.0724    1.4479 H   0  0  0  0  0  0  0  0  0  0  0  0
    4.8537    1.7421    1.9179 H   0  0  0  0  0  0  0  0  0  0  0  0
    2.7210    1.7487    1.1901 H   0  0  0  0  0  0  0  0  0  0  0  0
    2.8863    0.0196    1.8142 H   0  0  0  0  0  0  0  0  0  0  0  0
   -0.6623   -3.5094   -1.1795 H   0  0  0  0  0  0  0  0  0  0  0  0
    0.0346   -2.1326   -2.0356 H   0  0  0  0  0  0  0  0  0  0  0  0
    1.0836   -3.2566   -0.9983 H   0  0  0  0  0  0  0  0  0  0  0  0
   -2.0058   -2.3893    1.8988 H   0  0  0  0  0  0  0  0  0  0  0  0
   -2.3695   -3.5037    0.5175 H   0  0  0  0  0  0  0  0  0  0  0  0
   -4.1027   -1.1748    1.4182 H   0  0  0  0  0  0  0  0  0  0  0  0
    2.0521   -1.8224    1.3996 H   0  0  0  0  0  0  0  0  0  0  0  0
   -4.4841   -3.9814    1.4435 H   0  0  0  0  0  0  0  0  0  0  0  0
   -4.0876   -2.6623   -0.9405 H   0  0  0  0  0  0  0  0  0  0  0  0
   -0.3642    0.6310   -1.2168 H   0  0  0  0  0  0  0  0  0  0  0  0
   -1.9671    0.3916    1.3213 H   0  0  0  0  0  0  0  0  0  0  0  0
   -3.6086    0.0250   -0.7516 H   0  0  0  0  0  0  0  0  0  0  0  0
   -2.1276    0.4792   -1.7043 H   0  0  0  0  0  0  0  0  0  0  0  0
   -2.7536    2.5950   -1.2998 H   0  0  0  0  0  0  0  0  0  0  0  0
   -1.6168    3.5697    0.4303 H   0  0  0  0  0  0  0  0  0  0  0  0
   -2.0900    2.3699    1.6563 H   0  0  0  0  0  0  0  0  0  0  0  0
    0.1920    2.0683    1.4034 H   0  0  0  0  0  0  0  0  0  0  0  0
    0.2522    2.5696   -0.2874 H   0  0  0  0  0  0  0  0  0  0  0  0
   -5.7848    3.0273    0.0494 H   0  0  0  0  0  0  0  0  0  0  0  0
   -5.0793    2.5422   -1.5050 H   0  0  0  0  0  0  0  0  0  0  0  0
   -4.4397    3.9960   -0.5896 H   0  0  0  0  0  0  0  0  0  0  0  0
   -1.3522   -1.7184    1.5426 H   0  0  0  0  0  0  0  0  0  0  0  0
    0.4779   -2.5342    0.5212 H   0  0  0  0  0  0  0  0  0  0  0  0
    2.1860   -1.3952    0.9850 H   0  0  0  0  0  0  0  0  0  0  0  0
    2.3090    1.5927    0.3584 H   0  0  0  0  0  0  0  0  0  0  0  0
    3.4199   -0.9487   -0.9577 H   0  0  0  0  0  0  0  0  0  0  0  0
    2.3574    0.3405   -1.6764 H   0  0  0  0  0  0  0  0  0  0  0  0
    4.5986    0.7094   -2.4177 H   0  0  0  0  0  0  0  0  0  0  0  0
    4.2701    1.9868   -1.2203 H   0  0  0  0  0  0  0  0  0  0  0  0
    6.0607   -0.4440   -1.1120 H   0  0  0  0  0  0  0  0  0  0  0  0
    4.9186   -1.2013    0.7876 H   0  0  0  0  0  0  0  0  0  0  0  0
    5.9626    0.0609    1.5401 H   0  0  0  0  0  0  0  0  0  0  0  0
    4.2171    1.6793    1.5491 H   0  0  0  0  0  0  0  0  0  0  0  0
    3.6908    0.1375    2.3426 H   0  0  0  0  0  0  0  0  0  0  0  0
   -0.1948   -2.9944   -1.8229 H   0  0  0  0  0  0  0  0  0  0  0  0
    1.1264   -1.7397   -1.8238 H   0  0  0  0  0  0  0  0  0  0  0  0
   -0.5352   -1.2034   -2.0760 H   0  0  0  0  0  0  0  0  0  0  0  0
   -2.6594   -2.4694   -1.1447 H   0  0  0  0  0  0  0  0  0  0  0  0
   -1.9664   -3.5132    0.0903 H   0  0  0  0  0  0  0  0  0  0  0  0
   -4.2861   -1.5796    0.6869 H   0  0  0  0  0  0  0  0  0  0  0  0
    1.3550   -0.9526    2.9086 H   0  0  0  0  0  0  0  0  0  0  0  0
   -3.4329   -3.7624    2.2234 H   0  0  0  0  0  0  0  0  0  0  0  0
   -4.6182   -3.4795   -0.7326 H   0  0  0  0  0  0  0  0  0  0  0  0
   -0.4495    0.2977   -1.4961 H   0  0  0  0  0  0  0  0  0  0  0  0
   -1.7384    0.1312    1.2899 H   0  0  0  0  0  0  0  0  0  0  0  0
   -3.8195    0.2975   -0.4203 H   0  0  0  0  0  0  0  0  0  0  0  0
   -2.4790    0.7889   -1.5899 H   0  0  0  0  0  0  0  0  0  0  0  0
   -2.8494    1.9583    1.2283 H   0  0  0  0  0  0  0  0  0  0  0  0
   -1.3822    2.9278   -1.2911 H   0  0  0  0  0  0  0  0  0  0  0  0
   -1.2836    3.5644    0.3697 H   0  0  0  0  0  0  0  0  0  0  0  0
   -0.2445    1.6683    1.2401 H   0  0  0  0  0  0  0  0  0  0  0  0
    0.6591    2.2526   -0.2174 H   0  0  0  0  0  0  0  0  0  0  0  0
   -5.4082    3.9029    0.0419 H   0  0  0  0  0  0  0  0  0  0  0  0
   -4.0655    4.0185    1.1870 H   0  0  0  0  0  0  0  0  0  0  0  0
   -5.1114    2.5170    1.1434 H   0  0  0  0  0  0  0  0  0  0  0  0
   -2.0727   -1.7535   -1.0880 H   0  0  0  0  0  0  0  0  0  0  0  0
   -0.0540   -2.5216    1.0154 H   0  0  0  0  0  0  0  0  0  0  0  0
    1.7498   -1.2740   -1.3577 H   0  0  0  0  0  0  0  0  0  0  0  0
    2.5402    1.0587   -1.0516 H   0  0  0  0  0  0  0  0  0  0  0  0
    4.4549   -1.0171   -0.1005 H   0  0  0  0  0  0  0  0  0  0  0  0
    3.7427   -1.0992   -1.7492 H   0  0  0  0  0  0  0  0  0  0  0  0
    4.7895    1.1394   -2.2681 H   0  0  0  0  0  0  0  0  0  0  0  0
    5.9924    0.0946   -1.4936 H   0  0  0  0  0  0  0  0  0  0  0  0
    4.6959    2.5031   -0.3575 H   0  0  0  0  0  0  0  0  0  0  0  0
    5.2158    0.0724    1.4479 H   0  0  0  0  0  0  0  0  0  0  0  0
    4.8537    1.7421    1.9179 H   0  0  0  0  0  0  0  0  0  0  0  0
    2.7210    1.7487    1.1901 H   0  0  0  0  0  0  0  0  0  0  0  0
    2.8863    0.0196    1.8142 H   0  0  0  0  0  0  0  0  0  0  0  0
   -0.6623   -3.5094   -1.1795 H   0  0  0  0  0  0  0  0  0  0  0  0
    0.0346   -2.1326   -2.0356 H   0  0  0  0  0  0  0  0  0  0  0  0
    1.0836   -3.2566   -0.9983 H   0  0  0  0  0  0  0  0  0  0  0  0
   -2.0058   -2.3893    1.8988 H   0  0  0  0  0  0  0  0  0  0  0  0
   -2.3695   -3.5037    0.5175 H   0  0  0  0  0  0  0  0  0  0  0  0
   -4.1027   -1.1748    1.4182 H   0  0  0  0  0  0  0  0  0  0  0  0
    2.0521   -1.8224    1.3996 H   0  0  0  0  0  0  0  0  0  0  0  0
   -4.4841   -3.9814    1.4435 H   0  0  0  0  0  0  0  0  0  0  0  0
   -4.0876   -2.6623   -0.9405 H   0  0  0  0  0  0  0  0  0  0  0  0
  1  2  1  0
  2  3  1  0
  3  4  1  0
  4  5  1  0
  1  6  1  0
  5  6  1  0
  2  8  1  0
  8  9  1  0
 10 11  1  0
 11 12  1  0
 12 13  1  0
 13 14  1  0
 14 15  1  0
 11 16  1  0
 15 16  1  0
  9 17  1  0
  8 18  1  0
 18 19  1  0
  1 20  1  0
  9 20  1  0
 10 20  1  0
  4 21  1  0
  7 21  1  0
 10 22  1  0
 19 23  1  0
 19 24  1  0
 14 25  1  0
 26 27  1  0
 27 28  1  0
 28 29  1  0
 29 30  1  0
 26 31  1  0
 30 31  1  0
 27 33  1  0
 33 34  1  0
 35 36  1  0
 36 37  1  0
 37 38  1  0
 38 39  1  0
 39 40  1  0
 36 41  1  0
 40 41  1  0
 34 42  1  0
 33 43  1  0
 43 44  1  0
 26 45  1  0
 34 45  1  0
 35 45  1  0
 29 46  1  0
 32 46  1  0
 35 47  1  0
 44 48  1  0
 44 49  1  0
 39 50  1  0
 51 52  1  0
 52 53  1  0
 53 54  1  0
 54 55  1  0
 51 56  1  0
 55 56  1  0
 52 58  1  0
 58 59  1  0
 60 61  1  0
 61 62  1  0
 62 63  1  0
 63 64  1  0
 64 65  1  0
 61 66  1  0
 65 66  1  0
 59 67  1  0
 58 68  1  0
 68 69  1  0
 51 70  1  0
 59 70  1  0
 60 70  1  0
 54 71  1  0
 57 71  1  0
 60 72  1  0
 69 73  1  0
 69 74  1  0
 64 75  1  0
 76 77  1  0
 77 78  1  0
 78 79  1  0
 79 80  1  0
 76 81  1  0
 80 81  1  0
 77 83  1  0
 83 84  1  0
 85 86  1  0
 86 87  1  0
 87 88  1  0
 88 89  1  0
 89 90  1  0
 86 91  1  0
 90 91  1  0
 84 92  1  0
 83 93  1  0
 93 94  1  0
 76 95  1  0
 84 95  1  0
 85 95  1  0
 79 96  1  0
 82 96  1  0
 85 97  1  0
 94 98  1  0
 94 99  1  0
 89100  1  0
  1101  1  0
  2102  1  0
  3103  1  0
  3104  1  0
  4105  1  0
  5106  1  0
  5107  1  0
  6108  1  0
  6109  1  0
  7110  1  0
  7111  1  0
  7112  1  0
  8113  1  6
  9114  1  0
 10115  1  0
 11116  1  0
 12117  1  0
 12118  1  0
 13119  1  0
 13120  1  0
 14121  1  0
 15122  1  0
 15123  1  0
 16124  1  0
 16125  1  0
 17126  1  0
 17127  1  0
 17128  1  0
 18129  1  0
 18130  1  0
 19131  1  0
 22132  1  0
 23133  1  0
 24134  1  0
 26135  1  0
 27136  1  0
 28137  1  0
 28138  1  0
 29139  1  0
 30140  1  0
 30141  1  0
 31142  1  0
 31143  1  0
 32144  1  0
 32145  1  0
 32146  1  0
 33147  1  6
 34148  1  0
 35149  1  0
 36150  1  0
 37151  1  0
 37152  1  0
 38153  1  0
 38154  1  0
 39155  1  0
 40156  1  0
 40157  1  0
 41158  1  0
 41159  1  0
 42160  1  0
 42161  1  0
 42162  1  0
 43163  1  0
 43164  1  0
 44165  1  0
 47166  1  0
 48167  1  0
 49168  1  0
 51169  1  0
 52170  1  0
 53171  1  0
 53172  1  0
 54173  1  0
 55174  1  0
 55175  1  0
 56176  1  0
 56177  1  0
 57178  1  0
 57179  1  0
 57180  1  0
 58181  1  0
 59182  1  0
 60183  1  0
 61184  1  0
 62185  1  0
 62186  1  0
 63187  1  0
 63188  1  0
 64189  1  0
 65190  1  0
 65191  1  0
 66192  1  0
 66193  1  0
 67194  1  0
 67195  1  0
 67196  1  0
 68197  1  0
 68198  1  0
 69199  1  0
 72200  1  0
 73201  1  0
 74202  1  0
 76203  1  0
 77204  1  0
 78205  1  0
 78206  1  0
 79207  1  0
 80208  1  0
 80209  1  0
 81210  1  0
 81211  1  0
 82212  1  0
 82213  1  0
 82214  1  0
 83215  1  6
 84216  1  0
 85217  1  0
 86218  1  0
 87219  1  0
 87220  1  0
 88221  1  0
 88222  1  0
 89223  1  0
 90224  1  0
 90225  1  0
 91226  1  0
 91227  1  0
 92228  1  0
 92229  1  0
 92230  1  0
 93231  1  0
 93232  1  0
 94233  1  0
 97234  1  0
 98235  1  0
 99236  1  0
M  END
>  <PDBID>  (1) 
4COX

>  <PDB ID>  (1) 
4COX

>  <Generic Name>  (1) 
Indomethacin

>  <Brand Name>  (1) 
Apo Indomethacin Cap 25mg#Apo Indomethacin Cap 50mg#Ftp-indomethacin#Indocid Cap 25mg#Indocid Cap 50mg#Indocid SR 75mg#Indocid Sterile Oph Susp 1%#Indocid Sup 100mg#Indocid Sup 50mg#Indocin#Indocollyre#Indomethacin#Indomethacin ER#Indomethacin Extended-release#Mint-indomethacin#Novo-methacin - 100mg Sup#Novo-methacin - Sup 50mg#Ntp-indomethacin#Nu-indo Cap 25mg#Nu-indo Cap 50mg#Pro-indo 25 Cap 25mg#Pro-indo 50 Cap 50mg#Ratio-indomethacin#Rhodacine - Cap 25mg#Rhodacine - Cap 50mg#Rhodacine - Sup 100mg#Rhodacine - Sup 50mg#Sandoz Indomethacin#Teva-indomethacin#Tivorbex#Arthrexin#Elmetacin#Indaflex#Indocid#Indolar SR#Indomed#Indoxen#Metindol#Mikametan#Nu-Indo#Reumacide

>  <DrugBank ID>  (1) 
DB00328

>  <ATC Codes>  (1) 
S01CC02#M02AA23#M01AB01#M01AB51#S01BC01#C01EB03

>  <Ligand ID>  (1) 
IMN

>  <Target Name>  (1) 
Prostaglandin G/H synthase 2

>  <UniProt ID>  (1) 
P35354

>  <PDB ID.1>  (1) 
4COX

>  <Seq. Identity>  (1) 
84%

$$$$
