PDB_DB01127_08
     RDKit          3D

110114  0  0  0  0  0  0  0  0999 V2000
    2.2227    0.3517    0.3292 C   0  0  0  0  0  0  0  0  0  0  0  0
    2.0126   -0.0540   -1.0787 C   0  0  0  0  0  0  0  0  0  0  0  0
   -2.9271   -2.8728    2.0571 Cl  0  0  0  0  0  0  0  0  0  0  0  0
   -1.9524    4.5578    0.3543 C   0  0  0  0  0  0  0  0  0  0  0  0
   -2.4537    3.3732   -0.4027 C   0  0  0  0  0  0  0  0  0  0  0  0
    3.9614   -1.4304   -0.0338 C   0  0  0  0  0  0  0  0  0  0  0  0
    3.6279   -0.1589    0.7162 C   0  0  0  0  0  0  0  0  0  0  0  0
    4.2765   -1.0452   -1.4768 C   0  0  0  0  0  0  0  0  0  0  0  0
    5.9970   -0.6049   -1.5351 Cl  0  0  0  0  0  0  0  0  0  0  0  0
   -1.5006   -1.9877    1.3974 C   0  0  0  0  0  0  0  0  0  0  0  0
   -0.8735   -2.9723    0.4046 C   0  0  0  0  0  0  0  0  0  0  0  0
   -1.9376   -3.4403   -0.5665 C   0  0  0  0  0  0  0  0  0  0  0  0
   -2.4125   -2.2238   -1.3311 C   0  0  0  0  0  0  0  0  0  0  0  0
   -1.2516   -4.6482   -1.6436 Cl  0  0  0  0  0  0  0  0  0  0  0  0
   -1.5807    4.0313    1.6310 N   0  0  0  0  0  0  0  0  0  0  0  0
   -1.3059    1.2739   -0.5636 C   0  0  0  0  0  0  0  0  0  0  0  0
   -0.8535    0.0232    0.1706 C   0  0  1  0  0  0  0  0  0  0  0  0
   -0.0237    0.2906    1.1981 O   0  0  0  0  0  0  0  0  0  0  0  0
   -2.0265   -0.7658    0.6915 C   0  0  0  0  0  0  0  0  0  0  0  0
   -2.0242    2.1827    0.3003 N   0  0  0  0  0  0  0  0  0  0  0  0
   -1.2154    2.6470    1.4085 C   0  0  0  0  0  0  0  0  0  0  0  0
    1.2206   -0.1108    1.3472 C   0  0  0  0  0  0  0  0  0  0  0  0
    3.3827    0.1415   -1.7913 C   0  0  0  0  0  0  0  0  0  0  0  0
   -2.9773   -1.2323   -0.3542 C   0  0  0  0  0  0  0  0  0  0  0  0
    2.2227    0.3517    0.3292 C   0  0  0  0  0  0  0  0  0  0  0  0
    2.0126   -0.0540   -1.0787 C   0  0  0  0  0  0  0  0  0  0  0  0
   -2.9271   -2.8728    2.0571 Cl  0  0  0  0  0  0  0  0  0  0  0  0
   -1.9524    4.5578    0.3543 C   0  0  0  0  0  0  0  0  0  0  0  0
   -2.4537    3.3732   -0.4027 C   0  0  0  0  0  0  0  0  0  0  0  0
    3.9614   -1.4304   -0.0338 C   0  0  0  0  0  0  0  0  0  0  0  0
    3.6279   -0.1589    0.7162 C   0  0  0  0  0  0  0  0  0  0  0  0
    4.2765   -1.0452   -1.4768 C   0  0  0  0  0  0  0  0  0  0  0  0
    5.9970   -0.6049   -1.5351 Cl  0  0  0  0  0  0  0  0  0  0  0  0
   -1.5006   -1.9877    1.3974 C   0  0  0  0  0  0  0  0  0  0  0  0
   -0.8735   -2.9723    0.4046 C   0  0  0  0  0  0  0  0  0  0  0  0
   -1.9376   -3.4403   -0.5665 C   0  0  0  0  0  0  0  0  0  0  0  0
   -2.4125   -2.2238   -1.3311 C   0  0  0  0  0  0  0  0  0  0  0  0
   -1.2516   -4.6482   -1.6436 Cl  0  0  0  0  0  0  0  0  0  0  0  0
   -1.5807    4.0313    1.6310 N   0  0  0  0  0  0  0  0  0  0  0  0
   -1.3059    1.2739   -0.5636 C   0  0  0  0  0  0  0  0  0  0  0  0
   -0.8535    0.0232    0.1706 C   0  0  1  0  0  0  0  0  0  0  0  0
   -0.0237    0.2906    1.1981 O   0  0  0  0  0  0  0  0  0  0  0  0
   -2.0265   -0.7658    0.6915 C   0  0  0  0  0  0  0  0  0  0  0  0
   -2.0242    2.1827    0.3003 N   0  0  0  0  0  0  0  0  0  0  0  0
   -1.2154    2.6470    1.4085 C   0  0  0  0  0  0  0  0  0  0  0  0
    1.2206   -0.1108    1.3472 C   0  0  0  0  0  0  0  0  0  0  0  0
    3.3827    0.1415   -1.7913 C   0  0  0  0  0  0  0  0  0  0  0  0
   -2.9773   -1.2323   -0.3542 C   0  0  0  0  0  0  0  0  0  0  0  0
    2.3254    1.4710    0.3586 H   0  0  0  0  0  0  0  0  0  0  0  0
    1.3240    0.5382   -1.6796 H   0  0  0  0  0  0  0  0  0  0  0  0
    1.8062   -1.1421   -1.2063 H   0  0  0  0  0  0  0  0  0  0  0  0
   -1.0910    5.0678   -0.1367 H   0  0  0  0  0  0  0  0  0  0  0  0
   -2.7495    5.3527    0.4312 H   0  0  0  0  0  0  0  0  0  0  0  0
   -2.0031    3.4192   -1.4309 H   0  0  0  0  0  0  0  0  0  0  0  0
   -3.5538    3.4402   -0.4798 H   0  0  0  0  0  0  0  0  0  0  0  0
    3.1161   -2.1428    0.0042 H   0  0  0  0  0  0  0  0  0  0  0  0
    4.8202   -1.8980    0.4550 H   0  0  0  0  0  0  0  0  0  0  0  0
    4.3971    0.5981    0.5233 H   0  0  0  0  0  0  0  0  0  0  0  0
    3.5768   -0.4223    1.7846 H   0  0  0  0  0  0  0  0  0  0  0  0
    4.1056   -1.8923   -2.1632 H   0  0  0  0  0  0  0  0  0  0  0  0
   -0.7611   -1.8098    2.1698 H   0  0  0  0  0  0  0  0  0  0  0  0
    0.0155   -2.5891   -0.0905 H   0  0  0  0  0  0  0  0  0  0  0  0
   -0.5789   -3.8543    1.0098 H   0  0  0  0  0  0  0  0  0  0  0  0
   -2.7461   -3.8971    0.0288 H   0  0  0  0  0  0  0  0  0  0  0  0
   -3.2464   -2.5539   -1.9823 H   0  0  0  0  0  0  0  0  0  0  0  0
   -1.5536   -1.8316   -1.9025 H   0  0  0  0  0  0  0  0  0  0  0  0
   -2.3218    4.1624    2.3304 H   0  0  0  0  0  0  0  0  0  0  0  0
   -1.9860    1.0117   -1.3943 H   0  0  0  0  0  0  0  0  0  0  0  0
   -0.4842    1.8596   -1.0005 H   0  0  0  0  0  0  0  0  0  0  0  0
   -0.3640   -0.6278   -0.5643 H   0  0  0  0  0  0  0  0  0  0  0  0
   -2.6152   -0.1940    1.4453 H   0  0  0  0  0  0  0  0  0  0  0  0
   -1.5025    2.0857    2.3156 H   0  0  0  0  0  0  0  0  0  0  0  0
   -0.1404    2.6255    1.1906 H   0  0  0  0  0  0  0  0  0  0  0  0
    1.6737    0.1260    2.3580 H   0  0  0  0  0  0  0  0  0  0  0  0
    1.3618   -1.2518    1.3346 H   0  0  0  0  0  0  0  0  0  0  0  0
    3.2455    0.1677   -2.8750 H   0  0  0  0  0  0  0  0  0  0  0  0
    3.8545    1.0550   -1.3875 H   0  0  0  0  0  0  0  0  0  0  0  0
   -3.7950   -1.7854    0.2010 H   0  0  0  0  0  0  0  0  0  0  0  0
   -3.5151   -0.4140   -0.8759 H   0  0  0  0  0  0  0  0  0  0  0  0
    2.3254    1.4710    0.3586 H   0  0  0  0  0  0  0  0  0  0  0  0
    1.3240    0.5382   -1.6796 H   0  0  0  0  0  0  0  0  0  0  0  0
    1.8062   -1.1421   -1.2063 H   0  0  0  0  0  0  0  0  0  0  0  0
   -1.0910    5.0678   -0.1367 H   0  0  0  0  0  0  0  0  0  0  0  0
   -2.7495    5.3527    0.4312 H   0  0  0  0  0  0  0  0  0  0  0  0
   -2.0031    3.4192   -1.4309 H   0  0  0  0  0  0  0  0  0  0  0  0
   -3.5538    3.4402   -0.4798 H   0  0  0  0  0  0  0  0  0  0  0  0
    3.1161   -2.1428    0.0042 H   0  0  0  0  0  0  0  0  0  0  0  0
    4.8202   -1.8980    0.4550 H   0  0  0  0  0  0  0  0  0  0  0  0
    4.3971    0.5981    0.5233 H   0  0  0  0  0  0  0  0  0  0  0  0
    3.5768   -0.4223    1.7846 H   0  0  0  0  0  0  0  0  0  0  0  0
    4.1056   -1.8923   -2.1632 H   0  0  0  0  0  0  0  0  0  0  0  0
   -0.7611   -1.8098    2.1698 H   0  0  0  0  0  0  0  0  0  0  0  0
    0.0155   -2.5891   -0.0905 H   0  0  0  0  0  0  0  0  0  0  0  0
   -0.5789   -3.8543    1.0098 H   0  0  0  0  0  0  0  0  0  0  0  0
   -2.7461   -3.8971    0.0288 H   0  0  0  0  0  0  0  0  0  0  0  0
   -3.2464   -2.5539   -1.9823 H   0  0  0  0  0  0  0  0  0  0  0  0
   -1.5536   -1.8316   -1.9025 H   0  0  0  0  0  0  0  0  0  0  0  0
   -2.3218    4.1624    2.3304 H   0  0  0  0  0  0  0  0  0  0  0  0
   -1.9860    1.0117   -1.3943 H   0  0  0  0  0  0  0  0  0  0  0  0
   -0.4842    1.8596   -1.0005 H   0  0  0  0  0  0  0  0  0  0  0  0
   -0.3640   -0.6278   -0.5643 H   0  0  0  0  0  0  0  0  0  0  0  0
   -2.6152   -0.1940    1.4453 H   0  0  0  0  0  0  0  0  0  0  0  0
   -1.5025    2.0857    2.3156 H   0  0  0  0  0  0  0  0  0  0  0  0
   -0.1404    2.6255    1.1906 H   0  0  0  0  0  0  0  0  0  0  0  0
    1.6737    0.1260    2.3580 H   0  0  0  0  0  0  0  0  0  0  0  0
    1.3618   -1.2518    1.3346 H   0  0  0  0  0  0  0  0  0  0  0  0
    3.2455    0.1677   -2.8750 H   0  0  0  0  0  0  0  0  0  0  0  0
    3.8545    1.0550   -1.3875 H   0  0  0  0  0  0  0  0  0  0  0  0
   -3.7950   -1.7854    0.2010 H   0  0  0  0  0  0  0  0  0  0  0  0
   -3.5151   -0.4140   -0.8759 H   0  0  0  0  0  0  0  0  0  0  0  0
  1  2  1  0
  4  5  1  0
  1  7  1  0
  6  7  1  0
  6  8  1  0
  8  9  1  0
  3 10  1  0
 10 11  1  0
 11 12  1  0
 12 13  1  0
 12 14  1  0
  4 15  1  0
 16 17  1  0
 17 18  1  0
 10 19  1  0
 17 19  1  0
  5 20  1  0
 16 20  1  0
 20 21  1  0
 21 15  1  0
  1 22  1  0
 18 22  1  0
  2 23  1  0
  8 23  1  0
 13 24  1  0
 19 24  1  0
 25 26  1  0
 28 29  1  0
 25 31  1  0
 30 31  1  0
 30 32  1  0
 32 33  1  0
 27 34  1  0
 34 35  1  0
 35 36  1  0
 36 37  1  0
 36 38  1  0
 28 39  1  0
 40 41  1  0
 41 42  1  0
 34 43  1  0
 41 43  1  0
 29 44  1  0
 40 44  1  0
 44 45  1  0
 45 39  1  0
 25 46  1  0
 42 46  1  0
 26 47  1  0
 32 47  1  0
 37 48  1  0
 43 48  1  0
  1 49  1  0
  2 50  1  0
  2 51  1  0
  4 52  1  0
  4 53  1  0
  5 54  1  0
  5 55  1  0
  6 56  1  0
  6 57  1  0
  7 58  1  0
  7 59  1  0
  8 60  1  0
 10 61  1  0
 11 62  1  0
 11 63  1  0
 12 64  1  0
 13 65  1  0
 13 66  1  0
 15 67  1  0
 16 68  1  0
 16 69  1  0
 17 70  1  6
 19 71  1  0
 21 72  1  0
 21 73  1  0
 22 74  1  0
 22 75  1  0
 23 76  1  0
 23 77  1  0
 24 78  1  0
 24 79  1  0
 25 80  1  0
 26 81  1  0
 26 82  1  0
 28 83  1  0
 28 84  1  0
 29 85  1  0
 29 86  1  0
 30 87  1  0
 30 88  1  0
 31 89  1  0
 31 90  1  0
 32 91  1  0
 34 92  1  0
 35 93  1  0
 35 94  1  0
 36 95  1  0
 37 96  1  0
 37 97  1  0
 39 98  1  0
 40 99  1  0
 40100  1  0
 41101  1  6
 43102  1  0
 45103  1  0
 45104  1  0
 46105  1  0
 46106  1  0
 47107  1  0
 47108  1  0
 48109  1  0
 48110  1  0
M  END
>  <PDBID>  (1) 
3JUS

>  <PDB ID>  (1) 
3JUS

>  <Generic Name>  (1) 
Econazole

>  <Brand Name>  (1) 
Econazole Nitrate#Econazole Nitrate Cream#Econazole Nitrate Topical Foam, 1%#Ecostatin Cream 1%#Ecostatin Vaginal Ovule 150mg#Ecoza#Ecostatin#Gyno-Pevaryl#Ifenec#Palavale#Pevaryl#Spectazole

>  <DrugBank ID>  (1) 
DB01127

>  <ATC Codes>  (1) 
G01AF05#D01AC03

>  <Ligand ID>  (1) 
ECL,ECN

>  <Target Name>  (1) 
Lanosterol 14-alpha demethylase

>  <UniProt ID>  (1) 
P10613

>  <PDB ID.1>  (1) 
3JUS

>  <Seq. Identity>  (1) 
40%

$$$$
