PDB_DB06243_05
     RDKit          3D

 76 72  0  0  0  0  0  0  0  0999 V2000
    1.4435   -0.2119    0.4028 C   0  0  2  0  0  0  0  0  0  0  0  0
    2.8913    0.2286    0.0953 C   0  0  0  0  0  0  0  0  0  0  0  0
    1.2197   -1.4687   -0.3352 N   0  0  0  0  0  0  0  0  0  0  0  0
    0.5121    0.8602   -0.0921 C   0  0  0  0  0  0  0  0  0  0  0  0
   -0.9304    0.6102    0.1374 C   0  0  0  0  0  0  0  0  0  0  0  0
   -1.5060   -0.6241   -0.4973 C   0  0  0  0  0  0  0  0  0  0  0  0
   -2.9423   -0.6035   -0.1280 N   0  0  0  0  0  0  0  0  0  0  0  0
    1.4215   -0.1979    0.3966 C   0  0  0  0  0  0  0  0  0  0  0  0
    2.8749    0.1341    0.0755 C   0  0  0  0  0  0  0  0  0  0  0  0
    1.2027   -1.5580   -0.0856 N   0  0  0  0  0  0  0  0  0  0  0  0
    0.5050    0.8142   -0.1956 C   0  0  0  0  0  0  0  0  0  0  0  0
   -0.9451    0.6248    0.0467 C   0  0  0  0  0  0  0  0  0  0  0  0
   -1.5587   -0.6373   -0.4535 C   0  0  0  0  0  0  0  0  0  0  0  0
   -2.9919   -0.5563   -0.0986 N   0  0  0  0  0  0  0  0  0  0  0  0
    1.4435   -0.2119    0.4028 C   0  0  2  0  0  0  0  0  0  0  0  0
    2.8913    0.2286    0.0953 C   0  0  0  0  0  0  0  0  0  0  0  0
    1.2197   -1.4687   -0.3352 N   0  0  0  0  0  0  0  0  0  0  0  0
    0.5121    0.8602   -0.0921 C   0  0  0  0  0  0  0  0  0  0  0  0
   -0.9304    0.6102    0.1374 C   0  0  0  0  0  0  0  0  0  0  0  0
   -1.5060   -0.6241   -0.4973 C   0  0  0  0  0  0  0  0  0  0  0  0
   -2.9423   -0.6035   -0.1280 N   0  0  0  0  0  0  0  0  0  0  0  0
    1.4435   -0.2119    0.4028 C   0  0  2  0  0  0  0  0  0  0  0  0
    2.8913    0.2286    0.0953 C   0  0  0  0  0  0  0  0  0  0  0  0
    1.2197   -1.4687   -0.3352 N   0  0  0  0  0  0  0  0  0  0  0  0
    0.5121    0.8602   -0.0921 C   0  0  0  0  0  0  0  0  0  0  0  0
   -0.9304    0.6102    0.1374 C   0  0  0  0  0  0  0  0  0  0  0  0
   -1.5060   -0.6241   -0.4973 C   0  0  0  0  0  0  0  0  0  0  0  0
   -2.9423   -0.6035   -0.1280 N   0  0  0  0  0  0  0  0  0  0  0  0
    1.3110   -0.4060    1.4744 H   0  0  0  0  0  0  0  0  0  0  0  0
    2.9118    0.3842   -0.9980 H   0  0  0  0  0  0  0  0  0  0  0  0
    3.0512    1.1712    0.6455 H   0  0  0  0  0  0  0  0  0  0  0  0
    1.8984   -2.1654    0.0445 H   0  0  0  0  0  0  0  0  0  0  0  0
    0.6940    1.0226   -1.1828 H   0  0  0  0  0  0  0  0  0  0  0  0
    0.7701    1.8172    0.4260 H   0  0  0  0  0  0  0  0  0  0  0  0
   -1.5673    1.4807   -0.1770 H   0  0  0  0  0  0  0  0  0  0  0  0
   -1.0926    0.5349    1.2475 H   0  0  0  0  0  0  0  0  0  0  0  0
   -1.4005   -0.6248   -1.5876 H   0  0  0  0  0  0  0  0  0  0  0  0
   -1.0642   -1.5575   -0.0438 H   0  0  0  0  0  0  0  0  0  0  0  0
   -3.2534    0.3629   -0.3254 H   0  0  0  0  0  0  0  0  0  0  0  0
   -2.9464   -0.8109    0.8938 H   0  0  0  0  0  0  0  0  0  0  0  0
    1.3413   -0.2283    1.4982 H   0  0  0  0  0  0  0  0  0  0  0  0
    3.0030    0.4140   -0.9824 H   0  0  0  0  0  0  0  0  0  0  0  0
    3.1577    0.9583    0.7706 H   0  0  0  0  0  0  0  0  0  0  0  0
    2.0782   -2.0860    0.1622 H   0  0  0  0  0  0  0  0  0  0  0  0
    0.7389    0.9648   -1.2840 H   0  0  0  0  0  0  0  0  0  0  0  0
    0.7829    1.8001    0.2749 H   0  0  0  0  0  0  0  0  0  0  0  0
   -1.5226    1.4643   -0.4460 H   0  0  0  0  0  0  0  0  0  0  0  0
   -1.1574    0.6678    1.1446 H   0  0  0  0  0  0  0  0  0  0  0  0
   -1.4806   -0.7786   -1.5453 H   0  0  0  0  0  0  0  0  0  0  0  0
   -1.1115   -1.5298    0.0290 H   0  0  0  0  0  0  0  0  0  0  0  0
   -3.2876    0.4250   -0.2589 H   0  0  0  0  0  0  0  0  0  0  0  0
   -3.0508   -0.6951    0.9517 H   0  0  0  0  0  0  0  0  0  0  0  0
    1.3110   -0.4060    1.4744 H   0  0  0  0  0  0  0  0  0  0  0  0
    2.9118    0.3842   -0.9980 H   0  0  0  0  0  0  0  0  0  0  0  0
    3.0512    1.1712    0.6455 H   0  0  0  0  0  0  0  0  0  0  0  0
    1.8984   -2.1654    0.0445 H   0  0  0  0  0  0  0  0  0  0  0  0
    0.6940    1.0226   -1.1828 H   0  0  0  0  0  0  0  0  0  0  0  0
    0.7701    1.8172    0.4260 H   0  0  0  0  0  0  0  0  0  0  0  0
   -1.5673    1.4807   -0.1770 H   0  0  0  0  0  0  0  0  0  0  0  0
   -1.0926    0.5349    1.2475 H   0  0  0  0  0  0  0  0  0  0  0  0
   -1.4005   -0.6248   -1.5876 H   0  0  0  0  0  0  0  0  0  0  0  0
   -1.0642   -1.5575   -0.0438 H   0  0  0  0  0  0  0  0  0  0  0  0
   -3.2534    0.3629   -0.3254 H   0  0  0  0  0  0  0  0  0  0  0  0
   -2.9464   -0.8109    0.8938 H   0  0  0  0  0  0  0  0  0  0  0  0
    1.3110   -0.4060    1.4744 H   0  0  0  0  0  0  0  0  0  0  0  0
    2.9118    0.3842   -0.9980 H   0  0  0  0  0  0  0  0  0  0  0  0
    3.0512    1.1712    0.6455 H   0  0  0  0  0  0  0  0  0  0  0  0
    1.8984   -2.1654    0.0445 H   0  0  0  0  0  0  0  0  0  0  0  0
    0.6940    1.0226   -1.1828 H   0  0  0  0  0  0  0  0  0  0  0  0
    0.7701    1.8172    0.4260 H   0  0  0  0  0  0  0  0  0  0  0  0
   -1.5673    1.4807   -0.1770 H   0  0  0  0  0  0  0  0  0  0  0  0
   -1.0926    0.5349    1.2475 H   0  0  0  0  0  0  0  0  0  0  0  0
   -1.4005   -0.6248   -1.5876 H   0  0  0  0  0  0  0  0  0  0  0  0
   -1.0642   -1.5575   -0.0438 H   0  0  0  0  0  0  0  0  0  0  0  0
   -3.2534    0.3629   -0.3254 H   0  0  0  0  0  0  0  0  0  0  0  0
   -2.9464   -0.8109    0.8938 H   0  0  0  0  0  0  0  0  0  0  0  0
  1  2  1  0
  1  3  1  0
  1  4  1  0
  4  5  1  0
  5  6  1  0
  6  7  1  0
  8  9  1  0
  8 10  1  0
  8 11  1  0
 11 12  1  0
 12 13  1  0
 13 14  1  0
 15 16  1  0
 15 17  1  0
 15 18  1  0
 18 19  1  0
 19 20  1  0
 20 21  1  0
 22 23  1  0
 22 24  1  0
 22 25  1  0
 25 26  1  0
 26 27  1  0
 27 28  1  0
  1 29  1  1
  2 30  1  0
  2 31  1  0
  3 32  1  0
  4 33  1  0
  4 34  1  0
  5 35  1  0
  5 36  1  0
  6 37  1  0
  6 38  1  0
  7 39  1  0
  7 40  1  0
  8 41  1  0
  9 42  1  0
  9 43  1  0
 10 44  1  0
 11 45  1  0
 11 46  1  0
 12 47  1  0
 12 48  1  0
 13 49  1  0
 13 50  1  0
 14 51  1  0
 14 52  1  0
 15 53  1  1
 16 54  1  0
 16 55  1  0
 17 56  1  0
 18 57  1  0
 18 58  1  0
 19 59  1  0
 19 60  1  0
 20 61  1  0
 20 62  1  0
 21 63  1  0
 21 64  1  0
 22 65  1  1
 23 66  1  0
 23 67  1  0
 24 68  1  0
 25 69  1  0
 25 70  1  0
 26 71  1  0
 26 72  1  0
 27 73  1  0
 27 74  1  0
 28 75  1  0
 28 76  1  0
M  END
>  <PDBID>  (1) 
2TOD

>  <PDB ID>  (1) 
2TOD

>  <Generic Name>  (1) 
Eflornithine

>  <Brand Name>  (1) 
Vaniqa

>  <DrugBank ID>  (1) 
DB06243

>  <ATC Codes>  (1) 
D11AX16#P01CX03

>  <Ligand ID>  (1) 
DMO

>  <Target Name>  (1) 
Ornithine decarboxylase

>  <UniProt ID>  (1) 
P11926

>  <PDB ID.1>  (1) 
2TOD

>  <Seq. Identity>  (1) 
65%

$$$$
