PDB_DB00668_04
     RDKit          3D

 32 32  0  0  0  0  0  0  0  0999 V2000
   -0.0405    0.3102    0.3634 C   0  0  0  0  0  0  0  0  0  0  0  0
   -0.8394   -0.7640    1.0573 C   0  0  0  0  0  0  0  0  0  0  0  0
   -2.2973   -0.5025    1.1486 C   0  0  0  0  0  0  0  0  0  0  0  0
   -2.8756    0.0750   -0.1250 C   0  0  0  0  0  0  0  0  0  0  0  0
   -2.1087    1.3513   -0.3902 C   0  0  0  0  0  0  0  0  0  0  0  0
   -0.7107    0.8862   -0.8311 C   0  0  0  0  0  0  0  0  0  0  0  0
   -2.6430    0.3475    2.2159 O   0  0  0  0  0  0  0  0  0  0  0  0
   -4.2038    0.3750    0.0139 O   0  0  0  0  0  0  0  0  0  0  0  0
    1.1473   -1.3520   -0.9265 O   0  0  0  0  0  0  0  0  0  0  0  0
    4.2155    0.0872    0.1982 C   0  0  0  0  0  0  0  0  0  0  0  0
    3.4761    0.3523   -0.9954 N   0  0  0  0  0  0  0  0  0  0  0  0
    2.1405    0.7998   -0.6736 C   0  0  0  0  0  0  0  0  0  0  0  0
    1.2948   -0.2814   -0.0596 C   0  0  1  0  0  0  0  0  0  0  0  0
    0.1001    1.1290    1.1008 H   0  0  0  0  0  0  0  0  0  0  0  0
   -0.4355   -0.8651    2.0830 H   0  0  0  0  0  0  0  0  0  0  0  0
   -0.6559   -1.7252    0.5279 H   0  0  0  0  0  0  0  0  0  0  0  0
   -2.8242   -1.4565    1.3509 H   0  0  0  0  0  0  0  0  0  0  0  0
   -2.6962   -0.6504   -0.9502 H   0  0  0  0  0  0  0  0  0  0  0  0
   -2.5802    1.9812   -1.1584 H   0  0  0  0  0  0  0  0  0  0  0  0
   -1.9384    1.9088    0.5637 H   0  0  0  0  0  0  0  0  0  0  0  0
   -0.8554    0.1441   -1.6300 H   0  0  0  0  0  0  0  0  0  0  0  0
   -0.1629    1.7953   -1.1563 H   0  0  0  0  0  0  0  0  0  0  0  0
   -3.2305    1.0858    1.9082 H   0  0  0  0  0  0  0  0  0  0  0  0
   -4.7098   -0.0944   -0.7007 H   0  0  0  0  0  0  0  0  0  0  0  0
    1.0004   -1.0876   -1.8709 H   0  0  0  0  0  0  0  0  0  0  0  0
    3.8431   -0.8423    0.6617 H   0  0  0  0  0  0  0  0  0  0  0  0
    5.2969   -0.0105   -0.0938 H   0  0  0  0  0  0  0  0  0  0  0  0
    4.1359    0.9760    0.8615 H   0  0  0  0  0  0  0  0  0  0  0  0
    3.5099   -0.3660   -1.7278 H   0  0  0  0  0  0  0  0  0  0  0  0
    2.1991    1.6432    0.0264 H   0  0  0  0  0  0  0  0  0  0  0  0
    1.6310    1.0861   -1.6317 H   0  0  0  0  0  0  0  0  0  0  0  0
    1.8171   -0.7093    0.8398 H   0  0  0  0  0  0  0  0  0  0  0  0
  1  2  1  0
  2  3  1  0
  3  4  1  0
  4  5  1  0
  1  6  1  0
  5  6  1  0
  3  7  1  0
  4  8  1  0
 10 11  1  0
 11 12  1  0
  1 13  1  0
  9 13  1  0
 12 13  1  0
  1 14  1  0
  2 15  1  0
  2 16  1  0
  3 17  1  0
  4 18  1  0
  5 19  1  0
  5 20  1  0
  6 21  1  0
  6 22  1  0
  7 23  1  0
  8 24  1  0
  9 25  1  0
 10 26  1  0
 10 27  1  0
 10 28  1  0
 11 29  1  0
 12 30  1  0
 12 31  1  0
 13 32  1  1
M  END
>  <PDBID>  (1) 
4LDO

>  <PDB ID>  (1) 
4LDO

>  <Generic Name>  (1) 
Epinephrine

>  <Brand Name>  (1) 
2% Lidocaine and Epinephrine 1:100,000 Injection USP#4% Astracaine Dental With Epinephrine 1:200,000 (0.005mg/ml)#4% Astracaine Dental With Epinephrine Forte 1:100,000 (0.01mg/ml)#4% Citanest Forte Dental With Epinephrine 1:200,000#Adrenaclick#Adrenaclick 0.15mg Auto-injector#Adrenaclick 0.30mg Auto-injector#Adrenalin#Adrenalin Chloride Sol 1:1000#Adrenalin Chloride Sol 1:1000 Amp#Adyphren Amp II Kit#Adyphren Amp Kit#Adyphren II Kit#Allerject#Ana-kit#Ana-kit (2mg/tab Orl, 1mg/ml Liq Sc Im)#Anakit Insect Sting Treatment Kit#Anapen#Anapen Junior#Articadent#Articaine#Articaine HCl and Epinephrine#Articaine Hydrochloride and Epinephrine#Auvi-Q#Bronkaid Mistometer Aem 0.5%#Bupivacaine HCl 0.5% and Epinephrine 1:200,000 Injection#Bupivacaine Hydrochloride and Epinephrine#Citanest Forte#Dentsply 2% Lidocaine With Epinephrine 1:100,000#Dentsply 2% Lidocaine With Epinephrine 1:50,000#Dentsply 4% Prilocaine and Epinephrine Injection 1:200,000#Dysne Inhal#E-pilo 1 Ophthalmic Solution#E-pilo 2 Ophthalmic Solution#E-pilo 4 Ophthalmic Solution#E-pilo 6 Ophthalmic Solution#E-pilo-1 Oph Soln#E-pilo-2 Oph Soln#E-pilo-4 Oph Soln#E-pilo-6 Oph Soln#Ephinephrine#Epi E-Z Pen  -  Liquid - 0.3mg/0.3ml#Epinephrine#Epinephrine 1:1000 Inj 1mg/ml USP#Epinephrine Inj 0.1mg/ml USP#Epinephrine Inj 1mg/ml USP#Epinephrine Injection#Epinephrine Injection USP#Epinephrine Injection USP 1 mg/ml#Epipen#Epipen Jr#Episnap Epinephrine Convenience Kit#Gingi Pak Cord No 1#Karticaine#Karticaine Forte#Lidocaine#Lidocaine 2% and Epinephrine 1:100 000#Lidocaine 2% and Epinephrine 1:100,000#Lidocaine 2% and Epinephrine 1:100,000 Injection#Lidocaine 2% and Epinephrine 1:50 000#Lidocaine 2% and Epinephrine 1:50,000#Lidocaine HCl#Lidocaine Hydrochloride 0.5% and Epinephrine 1:200000 Injection USP#Lidocaine Hydrochloride 1% and Epinephrine 1:100 000 Injection USP#Lidocaine Hydrochloride 1.5% and Epinephrine 1:200000 Injection USP#Lidocaine Hydrochloride 1.5% and Epinephrine 1:200000 Injection USP Test Dose#Lidocaine Hydrochloride 2% and Epinephrine 1:100 000 Injection USP#Lidocaine Hydrochloride 2% and Epinephrine 1:200000 Injection USP#Lidocaine Hydrochloride and Epinephrine#Lidocaine Hydrochloride and Epinephrine Bitartrate#Lidocaine and Epinephrine Inj.usp 2% 1:100000#Lignospan Forte#Lignospan Speciale Inj#Lignospan Standard#Marcaine#Marcaine 0.5% and Epinephrine 1:200,000 Liq#Marcaine E 0.25% Liq Prt#Marcaine E 2.5 mg/ml#Marcaine E 5.0 mg/ml#Marcaine E Liq Prt 0.50%#Marcaine With Epinephrine#Numbing Hemorrhoidal Label#Numquick Analgesic#Numquick Topical Analgesic#Octocaine 100#Octocaine 100 Needleject Inj#Octocaine 50#Octocaine HCl 2% Epinephrine 1:100000#Octocaine HCl 2% Epinephrine 1:50000#Orabloc#Orabloc 1:100,000#Orabloc 1:200,000#Posicaine N#Posicaine Sp#Prilocaine HCl 4% Epineph 1:200000inj#Prilocaine Hydrochloride With Epinephrine#Prime Asthma Relief#Scandonest 2% Special Inj#Sensorcaine#Sensorcaine 0.25% With Epinephrine#Sensorcaine 0.5% With Epinephrine#Sensorcaine Forte#Sensorcaine Mpf#Septanest N#Septanest Sp#Septocaine and Epinephrine#Taro-epinephrine Auto-injector#Twinject 0.15mg Auto-injector#Twinject 0.3mg Auto-injector#Ultracaine D-S Forte Injection#Ultracaine D-S Injection#Ultracaine DS Forte Inj#Ultracaine DS Inj#Vivacaine#Xylocaine#Xylocaine 0.5% W Epinephrine 1:100000#Xylocaine 0.5% W Epinephrine 1:200000#Xylocaine 1% W Epinephrine 1:100000#Xylocaine 1% W Epinephrine 1:200000#Xylocaine 1.5% W Epinephrine 1:200000#Xylocaine 1.5% W Epinephrine 1:200000 Test Dose#Xylocaine 2% W Epinephrine 1:100000#Xylocaine 2% W Epinephrine 1:200000#Xylocaine Dental Lidocaine HCl 2% and Epinephrine 1:100,000#Xylocaine Dental Lidocaine Hydrochloride 2% and Epinephrine 1:50,000#Xylocaine Mpf#Xylocaine Mpf 1.5% With Epinephrine#Zorcaine#Epi EZ Pen JR#Medihaler-Epi#Twinject

>  <DrugBank ID>  (1) 
DB00668

>  <ATC Codes>  (1) 
R03AK01#R01AA14#S01EA51#C01CA24#R03AA01#S01EA01#A01AD01#B02BC09

>  <Ligand ID>  (1) 
ALE

>  <Target Name>  (1) 
Beta-1 adrenergic receptor

>  <UniProt ID>  (1) 
P08588

>  <PDB ID.1>  (1) 
4LDO

>  <Seq. Identity>  (1) 
54%

$$$$
