PDB_DB00841_05
     RDKit          3D

114116  0  0  0  0  0  0  0  0999 V2000
    6.8330   -1.2283   -1.7266 O   0  0  0  0  0  0  0  0  0  0  0  0
    5.5854   -0.6637   -1.5526 C   0  0  0  0  0  0  0  0  0  0  0  0
    5.6344    0.2335   -0.3585 C   0  0  0  0  0  0  0  0  0  0  0  0
    4.3289    0.6298    0.2093 C   0  0  0  0  0  0  0  0  0  0  0  0
    4.5946   -1.8203   -1.3530 C   0  0  0  0  0  0  0  0  0  0  0  0
    3.2418   -1.0952   -1.2789 C   0  0  0  0  0  0  0  0  0  0  0  0
    3.2451   -0.3981    0.0577 C   0  0  0  0  0  0  0  0  0  0  0  0
    1.8589    0.2253    0.2302 C   0  0  0  0  0  0  0  0  0  0  0  0
    1.6978    0.8369    1.5674 C   0  0  0  0  0  0  0  0  0  0  0  0
    0.4209    1.5228    1.9025 C   0  0  1  0  0  0  0  0  0  0  0  0
    0.1142    2.6691    0.9495 C   0  0  0  0  0  0  0  0  0  0  0  0
   -0.6524    0.7202    2.2139 N   0  0  0  0  0  0  0  0  0  0  0  0
   -1.3014   -0.1664    1.3766 C   0  0  0  0  0  0  0  0  0  0  0  0
   -2.0759    0.4465    0.2381 C   0  0  0  0  0  0  0  0  0  0  0  0
   -2.7158   -0.5943   -0.6424 C   0  0  0  0  0  0  0  0  0  0  0  0
   -3.6826   -1.5019    0.0467 C   0  0  0  0  0  0  0  0  0  0  0  0
   -5.0089   -1.5442   -0.6940 C   0  0  0  0  0  0  0  0  0  0  0  0
   -5.8296   -2.4508   -0.0369 O   0  0  0  0  0  0  0  0  0  0  0  0
   -5.6439   -0.1781   -0.7504 C   0  0  0  0  0  0  0  0  0  0  0  0
   -6.0447    0.2186    0.5341 O   0  0  0  0  0  0  0  0  0  0  0  0
   -4.6568    0.7888   -1.3400 C   0  0  0  0  0  0  0  0  0  0  0  0
   -3.4394    0.0587   -1.8148 C   0  0  0  0  0  0  0  0  0  0  0  0
    6.8330   -1.2283   -1.7266 O   0  0  0  0  0  0  0  0  0  0  0  0
    5.5854   -0.6637   -1.5526 C   0  0  0  0  0  0  0  0  0  0  0  0
    5.6344    0.2335   -0.3585 C   0  0  0  0  0  0  0  0  0  0  0  0
    4.3289    0.6298    0.2093 C   0  0  0  0  0  0  0  0  0  0  0  0
    4.5946   -1.8203   -1.3530 C   0  0  0  0  0  0  0  0  0  0  0  0
    3.2418   -1.0952   -1.2789 C   0  0  0  0  0  0  0  0  0  0  0  0
    3.2451   -0.3981    0.0577 C   0  0  0  0  0  0  0  0  0  0  0  0
    1.8589    0.2253    0.2302 C   0  0  0  0  0  0  0  0  0  0  0  0
    1.6978    0.8369    1.5674 C   0  0  0  0  0  0  0  0  0  0  0  0
    0.4209    1.5228    1.9025 C   0  0  1  0  0  0  0  0  0  0  0  0
    0.1142    2.6691    0.9495 C   0  0  0  0  0  0  0  0  0  0  0  0
   -0.6524    0.7202    2.2139 N   0  0  0  0  0  0  0  0  0  0  0  0
   -1.3014   -0.1664    1.3766 C   0  0  0  0  0  0  0  0  0  0  0  0
   -2.0759    0.4465    0.2381 C   0  0  0  0  0  0  0  0  0  0  0  0
   -2.7158   -0.5943   -0.6424 C   0  0  0  0  0  0  0  0  0  0  0  0
   -3.6826   -1.5019    0.0467 C   0  0  0  0  0  0  0  0  0  0  0  0
   -5.0089   -1.5442   -0.6940 C   0  0  0  0  0  0  0  0  0  0  0  0
   -5.8296   -2.4508   -0.0369 O   0  0  0  0  0  0  0  0  0  0  0  0
   -5.6439   -0.1781   -0.7504 C   0  0  0  0  0  0  0  0  0  0  0  0
   -6.0447    0.2186    0.5341 O   0  0  0  0  0  0  0  0  0  0  0  0
   -4.6568    0.7888   -1.3400 C   0  0  0  0  0  0  0  0  0  0  0  0
   -3.4394    0.0587   -1.8148 C   0  0  0  0  0  0  0  0  0  0  0  0
    7.5279   -0.7619   -1.2068 H   0  0  0  0  0  0  0  0  0  0  0  0
    5.2595   -0.1291   -2.4671 H   0  0  0  0  0  0  0  0  0  0  0  0
    6.1857    1.1595   -0.6993 H   0  0  0  0  0  0  0  0  0  0  0  0
    6.3366   -0.2112    0.3995 H   0  0  0  0  0  0  0  0  0  0  0  0
    4.4682    0.7990    1.3066 H   0  0  0  0  0  0  0  0  0  0  0  0
    4.0048    1.5737   -0.3124 H   0  0  0  0  0  0  0  0  0  0  0  0
    4.7811   -2.2442   -0.3559 H   0  0  0  0  0  0  0  0  0  0  0  0
    4.6735   -2.4977   -2.1993 H   0  0  0  0  0  0  0  0  0  0  0  0
    3.2212   -0.3516   -2.1088 H   0  0  0  0  0  0  0  0  0  0  0  0
    2.3939   -1.7730   -1.3257 H   0  0  0  0  0  0  0  0  0  0  0  0
    3.4068   -1.1722    0.8339 H   0  0  0  0  0  0  0  0  0  0  0  0
    1.6796    0.9664   -0.5760 H   0  0  0  0  0  0  0  0  0  0  0  0
    1.1686   -0.6065    0.0211 H   0  0  0  0  0  0  0  0  0  0  0  0
    1.7920   -0.0064    2.3357 H   0  0  0  0  0  0  0  0  0  0  0  0
    2.5731    1.4835    1.8534 H   0  0  0  0  0  0  0  0  0  0  0  0
    0.6915    2.0984    2.8896 H   0  0  0  0  0  0  0  0  0  0  0  0
    0.4645    2.4809   -0.0852 H   0  0  0  0  0  0  0  0  0  0  0  0
    0.6762    3.6082    1.2424 H   0  0  0  0  0  0  0  0  0  0  0  0
   -0.9557    2.9554    1.0128 H   0  0  0  0  0  0  0  0  0  0  0  0
   -1.0283    0.8291    3.1805 H   0  0  0  0  0  0  0  0  0  0  0  0
   -0.7261   -1.0520    1.1119 H   0  0  0  0  0  0  0  0  0  0  0  0
   -2.1510   -0.6273    2.0243 H   0  0  0  0  0  0  0  0  0  0  0  0
   -1.3496    0.9807   -0.4088 H   0  0  0  0  0  0  0  0  0  0  0  0
   -2.8526    1.1258    0.6552 H   0  0  0  0  0  0  0  0  0  0  0  0
   -1.9228   -1.2265   -1.1422 H   0  0  0  0  0  0  0  0  0  0  0  0
   -3.2900   -2.5279    0.0306 H   0  0  0  0  0  0  0  0  0  0  0  0
   -3.8597   -1.1685    1.0821 H   0  0  0  0  0  0  0  0  0  0  0  0
   -4.8210   -1.9357   -1.7099 H   0  0  0  0  0  0  0  0  0  0  0  0
   -5.7360   -2.3186    0.9334 H   0  0  0  0  0  0  0  0  0  0  0  0
   -6.5390   -0.2059   -1.3814 H   0  0  0  0  0  0  0  0  0  0  0  0
   -6.7095    0.9386    0.4730 H   0  0  0  0  0  0  0  0  0  0  0  0
   -5.1648    1.3419   -2.1697 H   0  0  0  0  0  0  0  0  0  0  0  0
   -4.3572    1.5603   -0.5881 H   0  0  0  0  0  0  0  0  0  0  0  0
   -3.6515   -0.6270   -2.6420 H   0  0  0  0  0  0  0  0  0  0  0  0
   -2.6934    0.8329   -2.1960 H   0  0  0  0  0  0  0  0  0  0  0  0
    7.5279   -0.7619   -1.2068 H   0  0  0  0  0  0  0  0  0  0  0  0
    5.2595   -0.1291   -2.4671 H   0  0  0  0  0  0  0  0  0  0  0  0
    6.1857    1.1595   -0.6993 H   0  0  0  0  0  0  0  0  0  0  0  0
    6.3366   -0.2112    0.3995 H   0  0  0  0  0  0  0  0  0  0  0  0
    4.4682    0.7990    1.3066 H   0  0  0  0  0  0  0  0  0  0  0  0
    4.0048    1.5737   -0.3124 H   0  0  0  0  0  0  0  0  0  0  0  0
    4.7811   -2.2442   -0.3559 H   0  0  0  0  0  0  0  0  0  0  0  0
    4.6735   -2.4977   -2.1993 H   0  0  0  0  0  0  0  0  0  0  0  0
    3.2212   -0.3516   -2.1088 H   0  0  0  0  0  0  0  0  0  0  0  0
    2.3939   -1.7730   -1.3257 H   0  0  0  0  0  0  0  0  0  0  0  0
    3.4068   -1.1722    0.8339 H   0  0  0  0  0  0  0  0  0  0  0  0
    1.6796    0.9664   -0.5760 H   0  0  0  0  0  0  0  0  0  0  0  0
    1.1686   -0.6065    0.0211 H   0  0  0  0  0  0  0  0  0  0  0  0
    1.7920   -0.0064    2.3357 H   0  0  0  0  0  0  0  0  0  0  0  0
    2.5731    1.4835    1.8534 H   0  0  0  0  0  0  0  0  0  0  0  0
    0.6915    2.0984    2.8896 H   0  0  0  0  0  0  0  0  0  0  0  0
    0.4645    2.4809   -0.0852 H   0  0  0  0  0  0  0  0  0  0  0  0
    0.6762    3.6082    1.2424 H   0  0  0  0  0  0  0  0  0  0  0  0
   -0.9557    2.9554    1.0128 H   0  0  0  0  0  0  0  0  0  0  0  0
   -1.0283    0.8291    3.1805 H   0  0  0  0  0  0  0  0  0  0  0  0
   -0.7261   -1.0520    1.1119 H   0  0  0  0  0  0  0  0  0  0  0  0
   -2.1510   -0.6273    2.0243 H   0  0  0  0  0  0  0  0  0  0  0  0
   -1.3496    0.9807   -0.4088 H   0  0  0  0  0  0  0  0  0  0  0  0
   -2.8526    1.1258    0.6552 H   0  0  0  0  0  0  0  0  0  0  0  0
   -1.9228   -1.2265   -1.1422 H   0  0  0  0  0  0  0  0  0  0  0  0
   -3.2900   -2.5279    0.0306 H   0  0  0  0  0  0  0  0  0  0  0  0
   -3.8597   -1.1685    1.0821 H   0  0  0  0  0  0  0  0  0  0  0  0
   -4.8210   -1.9357   -1.7099 H   0  0  0  0  0  0  0  0  0  0  0  0
   -5.7360   -2.3186    0.9334 H   0  0  0  0  0  0  0  0  0  0  0  0
   -6.5390   -0.2059   -1.3814 H   0  0  0  0  0  0  0  0  0  0  0  0
   -6.7095    0.9386    0.4730 H   0  0  0  0  0  0  0  0  0  0  0  0
   -5.1648    1.3419   -2.1697 H   0  0  0  0  0  0  0  0  0  0  0  0
   -4.3572    1.5603   -0.5881 H   0  0  0  0  0  0  0  0  0  0  0  0
   -3.6515   -0.6270   -2.6420 H   0  0  0  0  0  0  0  0  0  0  0  0
   -2.6934    0.8329   -2.1960 H   0  0  0  0  0  0  0  0  0  0  0  0
  1  2  1  0
  2  3  1  0
  3  4  1  0
  2  5  1  0
  5  6  1  0
  4  7  1  0
  6  7  1  0
  7  8  1  0
  8  9  1  0
  9 10  1  0
 10 11  1  0
 10 12  1  0
 12 13  1  0
 13 14  1  0
 14 15  1  0
 15 16  1  0
 16 17  1  0
 17 18  1  0
 17 19  1  0
 19 20  1  0
 19 21  1  0
 15 22  1  0
 21 22  1  0
 23 24  1  0
 24 25  1  0
 25 26  1  0
 24 27  1  0
 27 28  1  0
 26 29  1  0
 28 29  1  0
 29 30  1  0
 30 31  1  0
 31 32  1  0
 32 33  1  0
 32 34  1  0
 34 35  1  0
 35 36  1  0
 36 37  1  0
 37 38  1  0
 38 39  1  0
 39 40  1  0
 39 41  1  0
 41 42  1  0
 41 43  1  0
 37 44  1  0
 43 44  1  0
  1 45  1  0
  2 46  1  0
  3 47  1  0
  3 48  1  0
  4 49  1  0
  4 50  1  0
  5 51  1  0
  5 52  1  0
  6 53  1  0
  6 54  1  0
  7 55  1  0
  8 56  1  0
  8 57  1  0
  9 58  1  0
  9 59  1  0
 10 60  1  1
 11 61  1  0
 11 62  1  0
 11 63  1  0
 12 64  1  0
 13 65  1  0
 13 66  1  0
 14 67  1  0
 14 68  1  0
 15 69  1  0
 16 70  1  0
 16 71  1  0
 17 72  1  0
 18 73  1  0
 19 74  1  0
 20 75  1  0
 21 76  1  0
 21 77  1  0
 22 78  1  0
 22 79  1  0
 23 80  1  0
 24 81  1  0
 25 82  1  0
 25 83  1  0
 26 84  1  0
 26 85  1  0
 27 86  1  0
 27 87  1  0
 28 88  1  0
 28 89  1  0
 29 90  1  0
 30 91  1  0
 30 92  1  0
 31 93  1  0
 31 94  1  0
 32 95  1  1
 33 96  1  0
 33 97  1  0
 33 98  1  0
 34 99  1  0
 35100  1  0
 35101  1  0
 36102  1  0
 36103  1  0
 37104  1  0
 38105  1  0
 38106  1  0
 39107  1  0
 40108  1  0
 41109  1  0
 42110  1  0
 43111  1  0
 43112  1  0
 44113  1  0
 44114  1  0
M  END
>  <PDBID>  (1) 
2Y00

>  <PDB ID>  (1) 
2Y00

>  <Generic Name>  (1) 
Dobutamine

>  <Brand Name>  (1) 
Dobutamine#Dobutamine 12.5mg/ml#Dobutamine Hydrochloride#Dobutamine Hydrochloride In Dextrose#Dobutamine Hydrochloride Injection USP#Dobutamine Hydrochloride Injection-12.5mg/ml#Dobutamine Injection Sdz#Dobutamine Injection USP#Dobutrex#Dobuject#Dobusafe#Dobutamin#Dobutan#Dobutel#Dobutil#Dopmin#Inotrex

>  <DrugBank ID>  (1) 
DB00841

>  <ATC Codes>  (1) 
C01CA07

>  <Ligand ID>  (1) 
Y00

>  <Target Name>  (1) 
Beta-1 adrenergic receptor

>  <UniProt ID>  (1) 
P08588

>  <PDB ID.1>  (1) 
2Y00

>  <Seq. Identity>  (1) 
63%

$$$$
