PDB_DB00284_09
     RDKit          3D

 89 92  0  0  0  0  0  0  0  0999 V2000
    5.7454   -0.0443   -0.0283 C   0  0  2  0  0  0  0  0  0  0  0  0
    6.1944   -1.4409   -0.0008 C   0  0  1  0  0  0  0  0  0  0  0  0
    7.5572   -1.6053   -0.7176 C   0  0  2  0  0  0  0  0  0  0  0  0
    8.5758   -0.7430   -0.0422 C   0  0  1  0  0  0  0  0  0  0  0  0
    8.1094    0.6945   -0.1369 C   0  0  0  0  0  0  0  0  0  0  0  0
    9.1560    1.6141    0.4589 C   0  0  0  0  0  0  0  0  0  0  0  0
    6.8547    0.8238    0.6691 C   0  0  0  0  0  0  0  0  0  0  0  0
    6.3040   -1.9609    1.2721 O   0  0  0  0  0  0  0  0  0  0  0  0
    7.3581   -1.2233   -2.0400 O   0  0  0  0  0  0  0  0  0  0  0  0
    8.7038   -1.0806    1.2984 O   0  0  0  0  0  0  0  0  0  0  0  0
    8.7526    2.9331    0.3863 O   0  0  0  0  0  0  0  0  0  0  0  0
    0.5371   -0.1542    0.1517 C   0  0  2  0  0  0  0  0  0  0  0  0
    1.3050   -1.4102   -0.1455 C   0  0  1  0  0  0  0  0  0  0  0  0
    2.6545   -1.2817    0.6193 C   0  0  2  0  0  0  0  0  0  0  0  0
    3.2512    0.0086    0.2262 C   0  0  1  0  0  0  0  0  0  0  0  0
    2.3367    1.1511    0.7451 C   0  0  1  0  0  0  0  0  0  0  0  0
    2.1141    2.1636   -0.3861 C   0  0  0  0  0  0  0  0  0  0  0  0
    4.5420    0.3286    0.4865 N   0  0  0  0  0  0  0  0  0  0  0  0
    0.6527   -2.5398    0.3714 O   0  0  0  0  0  0  0  0  0  0  0  0
    3.3936   -2.3992    0.4804 O   0  0  0  0  0  0  0  0  0  0  0  0
    1.1502    0.6035    1.1518 O   0  0  0  0  0  0  0  0  0  0  0  0
   -4.3942    0.6450   -0.9523 C   0  0  2  0  0  0  0  0  0  0  0  0
   -3.4695   -0.0627   -1.8745 C   0  0  1  0  0  0  0  0  0  0  0  0
   -2.5024   -0.8436   -0.9938 C   0  0  2  0  0  0  0  0  0  0  0  0
   -1.6899    0.2335   -0.2833 C   0  0  1  0  0  0  0  0  0  0  0  0
   -2.5501    1.2682    0.3865 C   0  0  1  0  0  0  0  0  0  0  0  0
   -1.7743    2.5923    0.5370 C   0  0  0  0  0  0  0  0  0  0  0  0
   -4.0456   -0.8106   -2.8560 O   0  0  0  0  0  0  0  0  0  0  0  0
   -1.6243   -1.5752   -1.7808 O   0  0  0  0  0  0  0  0  0  0  0  0
   -0.7779   -0.3787    0.5495 O   0  0  0  0  0  0  0  0  0  0  0  0
   -3.7681    1.5014   -0.1185 O   0  0  0  0  0  0  0  0  0  0  0  0
   -1.6120    3.2023   -0.7032 O   0  0  0  0  0  0  0  0  0  0  0  0
   -9.1371   -0.1863   -0.3041 C   0  0  1  0  0  0  0  0  0  0  0  0
   -8.5148   -1.5482   -0.4657 C   0  0  1  0  0  0  0  0  0  0  0  0
   -7.0682   -1.3371   -0.8734 C   0  0  2  0  0  0  0  0  0  0  0  0
   -6.5387   -0.0132   -0.3567 C   0  0  1  0  0  0  0  0  0  0  0  0
   -7.2484    0.2098    0.9652 C   0  0  1  0  0  0  0  0  0  0  0  0
   -6.6958    1.3265    1.7683 C   0  0  0  0  0  0  0  0  0  0  0  0
  -10.5145   -0.2603   -0.1021 O   0  0  0  0  0  0  0  0  0  0  0  0
   -8.6194   -2.2899    0.6963 O   0  0  0  0  0  0  0  0  0  0  0  0
   -7.0468   -1.4053   -2.2586 O   0  0  0  0  0  0  0  0  0  0  0  0
   -5.1816   -0.1871   -0.1598 O   0  0  0  0  0  0  0  0  0  0  0  0
   -8.5921    0.3969    0.8107 O   0  0  0  0  0  0  0  0  0  0  0  0
   -7.3287    1.3344    3.0185 O   0  0  0  0  0  0  0  0  0  0  0  0
    5.8053    0.2901   -1.1213 H   0  0  0  0  0  0  0  0  0  0  0  0
    5.5033   -2.0477   -0.6657 H   0  0  0  0  0  0  0  0  0  0  0  0
    7.8134   -2.6957   -0.6358 H   0  0  0  0  0  0  0  0  0  0  0  0
    9.5578   -0.7750   -0.5639 H   0  0  0  0  0  0  0  0  0  0  0  0
    7.9128    0.9816   -1.1879 H   0  0  0  0  0  0  0  0  0  0  0  0
   10.1194    1.4296   -0.0716 H   0  0  0  0  0  0  0  0  0  0  0  0
    9.3155    1.3420    1.5293 H   0  0  0  0  0  0  0  0  0  0  0  0
    6.4477    1.8346    0.7284 H   0  0  0  0  0  0  0  0  0  0  0  0
    6.9770    0.3723    1.6616 H   0  0  0  0  0  0  0  0  0  0  0  0
    6.2045   -2.9311    1.2497 H   0  0  0  0  0  0  0  0  0  0  0  0
    8.2166   -0.9047   -2.4171 H   0  0  0  0  0  0  0  0  0  0  0  0
    9.3309   -1.8570    1.3381 H   0  0  0  0  0  0  0  0  0  0  0  0
    7.8912    3.0200   -0.0529 H   0  0  0  0  0  0  0  0  0  0  0  0
    0.5245    0.4955   -0.7701 H   0  0  0  0  0  0  0  0  0  0  0  0
    1.5343   -1.5419   -1.2123 H   0  0  0  0  0  0  0  0  0  0  0  0
    2.2921   -1.1558    1.7051 H   0  0  0  0  0  0  0  0  0  0  0  0
    3.0754    0.0424   -0.9391 H   0  0  0  0  0  0  0  0  0  0  0  0
    2.8160    1.6634    1.5901 H   0  0  0  0  0  0  0  0  0  0  0  0
    2.2393    1.6639   -1.3751 H   0  0  0  0  0  0  0  0  0  0  0  0
    1.0900    2.5682   -0.2703 H   0  0  0  0  0  0  0  0  0  0  0  0
    2.8857    2.9462   -0.3191 H   0  0  0  0  0  0  0  0  0  0  0  0
    4.6390    0.9645    1.3490 H   0  0  0  0  0  0  0  0  0  0  0  0
    0.1566   -2.2022    1.1640 H   0  0  0  0  0  0  0  0  0  0  0  0
    2.8996   -3.1306    0.0774 H   0  0  0  0  0  0  0  0  0  0  0  0
   -5.1273    1.2274   -1.5914 H   0  0  0  0  0  0  0  0  0  0  0  0
   -2.8368    0.7156   -2.3646 H   0  0  0  0  0  0  0  0  0  0  0  0
   -3.0202   -1.5121   -0.2886 H   0  0  0  0  0  0  0  0  0  0  0  0
   -1.1162    0.7633   -1.0799 H   0  0  0  0  0  0  0  0  0  0  0  0
   -2.6822    0.8990    1.4430 H   0  0  0  0  0  0  0  0  0  0  0  0
   -2.3994    3.3179    1.1380 H   0  0  0  0  0  0  0  0  0  0  0  0
   -0.8608    2.4605    1.1200 H   0  0  0  0  0  0  0  0  0  0  0  0
   -4.1031   -1.7725   -2.6394 H   0  0  0  0  0  0  0  0  0  0  0  0
   -2.0565   -2.0624   -2.5001 H   0  0  0  0  0  0  0  0  0  0  0  0
   -0.8863    3.8702   -0.6458 H   0  0  0  0  0  0  0  0  0  0  0  0
   -8.9300    0.4320   -1.1962 H   0  0  0  0  0  0  0  0  0  0  0  0
   -9.0834   -2.0747   -1.2545 H   0  0  0  0  0  0  0  0  0  0  0  0
   -6.4992   -2.1721   -0.3878 H   0  0  0  0  0  0  0  0  0  0  0  0
   -6.7836    0.7545   -1.0898 H   0  0  0  0  0  0  0  0  0  0  0  0
   -7.0891   -0.7333    1.5412 H   0  0  0  0  0  0  0  0  0  0  0  0
   -6.9740    2.3143    1.2962 H   0  0  0  0  0  0  0  0  0  0  0  0
   -5.6240    1.3086    1.9510 H   0  0  0  0  0  0  0  0  0  0  0  0
  -10.9705   -0.7591   -0.8449 H   0  0  0  0  0  0  0  0  0  0  0  0
   -9.2356   -1.9008    1.3682 H   0  0  0  0  0  0  0  0  0  0  0  0
   -6.4725   -2.1707   -2.5114 H   0  0  0  0  0  0  0  0  0  0  0  0
   -7.0516    0.4723    3.4629 H   0  0  0  0  0  0  0  0  0  0  0  0
  1  2  1  0
  2  3  1  0
  3  4  1  0
  4  5  1  0
  5  6  1  0
  1  7  1  0
  5  7  1  0
  2  8  1  0
  3  9  1  0
  4 10  1  0
  6 11  1  0
 12 13  1  0
 13 14  1  0
 14 15  1  0
 15 16  1  0
 16 17  1  0
  1 18  1  0
 15 18  1  0
 13 19  1  0
 14 20  1  0
 12 21  1  0
 16 21  1  0
 22 23  1  0
 23 24  1  0
 24 25  1  0
 25 26  1  0
 26 27  1  0
 23 28  1  0
 24 29  1  0
 12 30  1  0
 25 30  1  0
 22 31  1  0
 26 31  1  0
 27 32  1  0
 33 34  1  0
 34 35  1  0
 35 36  1  0
 36 37  1  0
 37 38  1  0
 33 39  1  0
 34 40  1  0
 35 41  1  0
 22 42  1  0
 36 42  1  0
 33 43  1  0
 37 43  1  0
 38 44  1  0
  1 45  1  6
  2 46  1  6
  3 47  1  6
  4 48  1  6
  5 49  1  0
  6 50  1  0
  6 51  1  0
  7 52  1  0
  7 53  1  0
  8 54  1  0
  9 55  1  0
 10 56  1  0
 11 57  1  0
 12 58  1  6
 13 59  1  6
 14 60  1  1
 15 61  1  6
 16 62  1  1
 17 63  1  0
 17 64  1  0
 17 65  1  0
 18 66  1  0
 19 67  1  0
 20 68  1  0
 22 69  1  6
 23 70  1  6
 24 71  1  1
 25 72  1  6
 26 73  1  1
 27 74  1  0
 27 75  1  0
 28 76  1  0
 29 77  1  0
 32 78  1  0
 33 79  1  6
 34 80  1  6
 35 81  1  1
 36 82  1  6
 37 83  1  1
 38 84  1  0
 38 85  1  0
 39 86  1  0
 40 87  1  0
 41 88  1  0
 44 89  1  0
M  END
>  <PDBID>  (1) 
2QMJ

>  <PDB ID>  (1) 
2QMJ

>  <Generic Name>  (1) 
Acarbose

>  <Brand Name>  (1) 
Acarbose#Glucobay#Precose#Prandase

>  <DrugBank ID>  (1) 
DB00284

>  <ATC Codes>  (1) 
A10BF01#A10BD17

>  <Ligand ID>  (1) 
ACR,QPS

>  <Target Name>  (1) 
Maltase-glucoamylase, intestinal

>  <UniProt ID>  (1) 
O43451

>  <PDB ID.1>  (1) 
2QMJ

>  <Seq. Identity>  (1) 
99%

$$$$
