PDB_DB01051_07
     RDKit          3D

408420  0  0  0  0  0  0  0  0999 V2000
   -8.5365    3.0078   -0.9713 C   0  0  0  0  0  0  0  0  0  0  0  0
   -8.4320    2.1411    0.1087 O   0  0  0  0  0  0  0  0  0  0  0  0
  -10.6717   -2.1777    0.5518 N   0  0  0  0  0  0  0  0  0  0  0  0
  -10.2312   -0.7787    0.5567 C   0  0  0  0  0  0  0  0  0  0  0  0
  -11.3400    0.0325    0.4561 O   0  0  0  0  0  0  0  0  0  0  0  0
   -9.2646   -0.5206   -0.4078 O   0  0  0  0  0  0  0  0  0  0  0  0
   -7.5147    1.1402   -0.0716 C   0  0  2  0  0  0  0  0  0  0  0  0
   -8.0326   -0.2587    0.1261 C   0  0  2  0  0  0  0  0  0  0  0  0
   -6.9265   -1.1835   -0.4059 C   0  0  1  0  0  0  0  0  0  0  0  0
   -7.1303   -1.5558   -1.7059 O   0  0  0  0  0  0  0  0  0  0  0  0
   -5.5982   -0.5487   -0.1256 C   0  0  1  0  0  0  0  0  0  0  0  0
   -5.7608    0.0759    1.1618 O   0  0  0  0  0  0  0  0  0  0  0  0
   -6.4019    1.3009    0.9865 C   0  0  0  0  0  0  0  0  0  0  0  0
   -7.1008    1.6394    2.2860 C   0  0  0  0  0  0  0  0  0  0  0  0
   -5.4661    2.4127    0.6398 C   0  0  0  0  0  0  0  0  0  0  0  0
   -4.5667   -1.4568    0.0675 O   0  0  0  0  0  0  0  0  0  0  0  0
   -3.4037   -1.0462   -0.6092 C   0  0  0  0  0  0  0  0  0  0  0  0
   -2.3910   -0.7550    0.5070 C   0  0  1  0  0  0  0  0  0  0  0  0
   -2.3759   -1.9190    1.4359 C   0  0  0  0  0  0  0  0  0  0  0  0
   -1.0294   -0.4720   -0.1246 C   0  0  0  0  0  0  0  0  0  0  0  0
   -0.5010   -1.6953   -0.8050 C   0  0  0  0  0  0  0  0  0  0  0  0
   -1.4844   -2.0190   -1.9319 C   0  0  0  0  0  0  0  0  0  0  0  0
   -2.8943   -2.1494   -1.4488 C   0  0  0  0  0  0  0  0  0  0  0  0
   -0.2248    0.1259    0.7865 O   0  0  0  0  0  0  0  0  0  0  0  0
    1.0979   -0.2222    0.8193 C   0  0  0  0  0  0  0  0  0  0  0  0
    1.3899   -1.1147    1.8552 O   0  0  0  0  0  0  0  0  0  0  0  0
    1.7108   -0.6708   -0.4565 C   0  0  1  0  0  0  0  0  0  0  0  0
    0.8325   -1.3982   -1.4133 C   0  0  0  0  0  0  0  0  0  0  0  0
    0.6972   -0.7386   -2.6386 O   0  0  0  0  0  0  0  0  0  0  0  0
    2.4693    0.3920   -1.0650 N   0  0  0  0  0  0  0  0  0  0  0  0
    3.7988    0.1189   -1.4109 C   0  0  0  0  0  0  0  0  0  0  0  0
    4.3118    1.1879   -2.1777 O   0  0  0  0  0  0  0  0  0  0  0  0
    4.7416   -0.1789   -0.2759 C   0  0  1  0  0  0  0  0  0  0  0  0
    6.1152   -0.4828   -0.8317 C   0  0  0  0  0  0  0  0  0  0  0  0
    7.1853    0.0207    0.1685 C   0  0  0  0  0  0  0  0  0  0  0  0
    7.1594    1.4963    0.0253 C   0  0  1  0  0  0  0  0  0  0  0  0
    7.2618    1.8969   -1.3321 O   0  0  0  0  0  0  0  0  0  0  0  0
    5.7845    1.9794    0.4649 C   0  0  0  0  0  0  0  0  0  0  0  0
    4.8083    0.9037    0.7665 C   0  0  0  0  0  0  0  0  0  0  0  0
    8.4034   -0.7413   -0.1207 C   0  0  0  0  0  0  0  0  0  0  0  0
    9.6335   -0.5533    0.6269 C   0  0  0  0  0  0  0  0  0  0  0  0
   10.3894    0.7338    0.5649 C   0  0  0  0  0  0  0  0  0  0  0  0
   10.7851    1.0354   -0.8732 C   0  0  0  0  0  0  0  0  0  0  0  0
   11.7401    0.4864    1.2893 C   0  0  0  0  0  0  0  0  0  0  0  0
   -8.4522    3.3809    0.3015 C   0  0  0  0  0  0  0  0  0  0  0  0
   -8.3711    2.1823    1.0357 O   0  0  0  0  0  0  0  0  0  0  0  0
  -10.0175   -1.8837   -0.9657 N   0  0  0  0  0  0  0  0  0  0  0  0
   -9.7430   -0.6956   -0.1817 C   0  0  0  0  0  0  0  0  0  0  0  0
  -10.8866    0.0600   -0.1103 O   0  0  0  0  0  0  0  0  0  0  0  0
   -8.6736    0.0338   -0.6921 O   0  0  0  0  0  0  0  0  0  0  0  0
   -7.2341    1.5019    0.5981 C   0  0  2  0  0  0  0  0  0  0  0  0
   -7.6092    0.1034    0.1653 C   0  0  2  0  0  0  0  0  0  0  0  0
   -6.3636   -0.5647   -0.3717 C   0  0  1  0  0  0  0  0  0  0  0  0
   -6.1933   -0.1437   -1.6884 O   0  0  0  0  0  0  0  0  0  0  0  0
   -5.1345   -0.1727    0.4019 C   0  0  1  0  0  0  0  0  0  0  0  0
   -5.4162    0.2990    1.6687 O   0  0  0  0  0  0  0  0  0  0  0  0
   -6.2781    1.3476    1.7614 C   0  0  0  0  0  0  0  0  0  0  0  0
   -7.0525    1.1893    3.0694 C   0  0  0  0  0  0  0  0  0  0  0  0
   -5.4249    2.6085    1.9240 C   0  0  0  0  0  0  0  0  0  0  0  0
   -4.3434   -1.3102    0.5433 O   0  0  0  0  0  0  0  0  0  0  0  0
   -3.0882   -1.1946    0.0070 C   0  0  0  0  0  0  0  0  0  0  0  0
   -1.9766   -1.3980    0.9783 C   0  0  0  0  0  0  0  0  0  0  0  0
   -1.8096   -2.8323    1.4091 C   0  0  0  0  0  0  0  0  0  0  0  0
   -0.6959   -0.9136    0.3344 C   0  0  0  0  0  0  0  0  0  0  0  0
   -0.4288   -1.7630   -0.8782 C   0  0  0  0  0  0  0  0  0  0  0  0
   -1.5774   -1.8721   -1.8237 C   0  0  0  0  0  0  0  0  0  0  0  0
   -2.8931   -2.1501   -1.1506 C   0  0  0  0  0  0  0  0  0  0  0  0
    0.4037   -1.0400    1.1798 O   0  0  0  0  0  0  0  0  0  0  0  0
    1.4149   -0.2190    0.6311 C   0  0  0  0  0  0  0  0  0  0  0  0
    0.9142    1.0581    0.4977 O   0  0  0  0  0  0  0  0  0  0  0  0
    1.8782   -0.7484   -0.6839 C   0  0  1  0  0  0  0  0  0  0  0  0
    0.7374   -1.1680   -1.5952 C   0  0  0  0  0  0  0  0  0  0  0  0
    0.3397   -0.0606   -2.3484 O   0  0  0  0  0  0  0  0  0  0  0  0
    2.5848    0.2912   -1.3954 N   0  0  0  0  0  0  0  0  0  0  0  0
    3.7609    0.7505   -0.7458 C   0  0  0  0  0  0  0  0  0  0  0  0
    3.5070    1.4399    0.4148 O   0  0  0  0  0  0  0  0  0  0  0  0
    4.8369   -0.3286   -0.5744 C   0  0  0  0  0  0  0  0  0  0  0  0
    6.0016    0.3215    0.1203 C   0  0  0  0  0  0  0  0  0  0  0  0
    7.3257   -0.3436   -0.1336 C   0  0  0  0  0  0  0  0  0  0  0  0
    7.0561   -1.7697   -0.6420 C   0  0  0  0  0  0  0  0  0  0  0  0
    8.3277   -2.3330   -0.8480 O   0  0  0  0  0  0  0  0  0  0  0  0
    6.3281   -1.7712   -1.9478 C   0  0  0  0  0  0  0  0  0  0  0  0
    5.1732   -0.8095   -1.9780 C   0  0  0  0  0  0  0  0  0  0  0  0
    8.1814    0.3120   -1.1466 C   0  0  0  0  0  0  0  0  0  0  0  0
    8.6249    1.7033   -0.9291 C   0  0  0  0  0  0  0  0  0  0  0  0
    9.4687    2.0112    0.2426 C   0  0  0  0  0  0  0  0  0  0  0  0
   10.7711    1.2327    0.2881 C   0  0  0  0  0  0  0  0  0  0  0  0
    8.7276    2.0597    1.5242 C   0  0  0  0  0  0  0  0  0  0  0  0
   -8.2773    2.8793   -1.1462 C   0  0  0  0  0  0  0  0  0  0  0  0
   -8.3569    2.0857    0.0273 O   0  0  0  0  0  0  0  0  0  0  0  0
  -10.5769   -2.0866    0.2224 N   0  0  0  0  0  0  0  0  0  0  0  0
  -10.0544   -0.7376    0.3596 C   0  0  0  0  0  0  0  0  0  0  0  0
  -11.0141    0.2485    0.3193 O   0  0  0  0  0  0  0  0  0  0  0  0
   -9.0383   -0.4432   -0.5572 O   0  0  0  0  0  0  0  0  0  0  0  0
   -7.3542    1.1613   -0.0036 C   0  0  2  0  0  0  0  0  0  0  0  0
   -7.8347   -0.2859    0.0215 C   0  0  2  0  0  0  0  0  0  0  0  0
   -6.6742   -1.1050   -0.5184 C   0  0  1  0  0  0  0  0  0  0  0  0
   -6.7024   -1.0035   -1.9015 O   0  0  0  0  0  0  0  0  0  0  0  0
   -5.3909   -0.5188   -0.0250 C   0  0  1  0  0  0  0  0  0  0  0  0
   -5.5637    0.1644    1.1889 O   0  0  0  0  0  0  0  0  0  0  0  0
   -6.3666    1.2653    1.1528 C   0  0  0  0  0  0  0  0  0  0  0  0
   -7.1191    1.4793    2.4614 C   0  0  0  0  0  0  0  0  0  0  0  0
   -5.5119    2.4973    0.9447 C   0  0  0  0  0  0  0  0  0  0  0  0
   -4.4669   -1.5105    0.2159 O   0  0  0  0  0  0  0  0  0  0  0  0
   -3.2475   -1.1733   -0.2862 C   0  0  0  0  0  0  0  0  0  0  0  0
   -2.1857   -1.0923    0.8072 C   0  0  0  0  0  0  0  0  0  0  0  0
   -1.8152   -2.5053    1.1656 C   0  0  0  0  0  0  0  0  0  0  0  0
   -1.0634   -0.2968    0.2022 C   0  0  0  0  0  0  0  0  0  0  0  0
   -0.4450   -1.1411   -0.8859 C   0  0  0  0  0  0  0  0  0  0  0  0
   -1.3986   -1.5635   -1.9167 C   0  0  0  0  0  0  0  0  0  0  0  0
   -2.7377   -2.0340   -1.3888 C   0  0  0  0  0  0  0  0  0  0  0  0
   -0.1621    0.1858    1.0973 O   0  0  0  0  0  0  0  0  0  0  0  0
    1.1354   -0.2773    0.9916 C   0  0  0  0  0  0  0  0  0  0  0  0
    1.3288   -1.5546    1.5018 O   0  0  0  0  0  0  0  0  0  0  0  0
    1.7062   -0.1229   -0.4142 C   0  0  1  0  0  0  0  0  0  0  0  0
    0.6384   -0.2057   -1.4731 C   0  0  0  0  0  0  0  0  0  0  0  0
    0.0962    0.9941   -1.8496 O   0  0  0  0  0  0  0  0  0  0  0  0
    2.4345    1.0614   -0.4535 N   0  0  0  0  0  0  0  0  0  0  0  0
    3.7149    1.1079   -1.0081 C   0  0  0  0  0  0  0  0  0  0  0  0
    4.1954    2.4351   -0.8120 O   0  0  0  0  0  0  0  0  0  0  0  0
    4.7613    0.2140   -0.4844 C   0  0  1  0  0  0  0  0  0  0  0  0
    6.0575    0.4921   -1.2274 C   0  0  0  0  0  0  0  0  0  0  0  0
    7.0085   -0.6545   -0.9634 C   0  0  2  0  0  0  0  0  0  0  0  0
    6.5769   -1.5273    0.1641 C   0  0  0  0  0  0  0  0  0  0  0  0
    7.7492   -2.1552    0.6472 O   0  0  0  0  0  0  0  0  0  0  0  0
    5.9046   -0.8872    1.3145 C   0  0  0  0  0  0  0  0  0  0  0  0
    5.0853    0.3499    0.9665 C   0  0  0  0  0  0  0  0  0  0  0  0
    8.4348   -0.1488   -0.7828 C   0  0  0  0  0  0  0  0  0  0  0  0
    8.6280    0.7577    0.3778 C   0  0  0  0  0  0  0  0  0  0  0  0
   10.0871    1.2209    0.3549 C   0  0  0  0  0  0  0  0  0  0  0  0
   10.3726    1.9900   -0.9209 C   0  0  0  0  0  0  0  0  0  0  0  0
   11.0450    0.0366    0.4498 C   0  0  0  0  0  0  0  0  0  0  0  0
   -8.6159    3.0609   -0.6278 C   0  0  0  0  0  0  0  0  0  0  0  0
   -8.3826    2.1100    0.3870 O   0  0  0  0  0  0  0  0  0  0  0  0
  -10.4145   -2.0921    0.6699 N   0  0  0  0  0  0  0  0  0  0  0  0
  -10.1101   -0.6811    0.3716 C   0  0  0  0  0  0  0  0  0  0  0  0
  -11.2303   -0.0572   -0.1132 O   0  0  0  0  0  0  0  0  0  0  0  0
   -8.9669   -0.5540   -0.4142 O   0  0  0  0  0  0  0  0  0  0  0  0
   -7.3697    1.2260    0.0690 C   0  0  2  0  0  0  0  0  0  0  0  0
   -7.8620   -0.1864    0.2949 C   0  0  2  0  0  0  0  0  0  0  0  0
   -6.6727   -1.1100    0.0511 C   0  0  1  0  0  0  0  0  0  0  0  0
   -6.9206   -1.9325   -1.0174 O   0  0  0  0  0  0  0  0  0  0  0  0
   -5.3945   -0.3460   -0.0219 C   0  0  1  0  0  0  0  0  0  0  0  0
   -5.3709    0.4235    1.1873 O   0  0  0  0  0  0  0  0  0  0  0  0
   -6.2942    1.4385    1.1428 C   0  0  0  0  0  0  0  0  0  0  0  0
   -7.0335    1.4365    2.4838 C   0  0  0  0  0  0  0  0  0  0  0  0
   -5.6474    2.7844    1.0088 C   0  0  0  0  0  0  0  0  0  0  0  0
   -4.2894   -1.1832    0.1170 O   0  0  0  0  0  0  0  0  0  0  0  0
   -3.2622   -0.7344   -0.7146 C   0  0  0  0  0  0  0  0  0  0  0  0
   -2.1410   -0.1611    0.1963 C   0  0  1  0  0  0  0  0  0  0  0  0
   -1.7346   -1.2940    1.1092 C   0  0  0  0  0  0  0  0  0  0  0  0
   -1.0505    0.2627   -0.7542 C   0  0  0  0  0  0  0  0  0  0  0  0
   -0.4878   -1.0219   -1.3090 C   0  0  0  0  0  0  0  0  0  0  0  0
   -1.4646   -1.5725   -2.2853 C   0  0  0  0  0  0  0  0  0  0  0  0
   -2.7930   -1.7931   -1.6202 C   0  0  0  0  0  0  0  0  0  0  0  0
   -0.1667    1.1752   -0.2863 O   0  0  0  0  0  0  0  0  0  0  0  0
    1.0681    0.7578    0.1454 C   0  0  0  0  0  0  0  0  0  0  0  0
    1.9016    1.8755    0.1831 O   0  0  0  0  0  0  0  0  0  0  0  0
    1.7150   -0.2944   -0.6609 C   0  0  1  0  0  0  0  0  0  0  0  0
    0.8458   -0.7014   -1.8799 C   0  0  0  0  0  0  0  0  0  0  0  0
    0.7538    0.3747   -2.7613 O   0  0  0  0  0  0  0  0  0  0  0  0
    3.0532   -0.0128   -1.1424 N   0  0  0  0  0  0  0  0  0  0  0  0
    3.8343   -1.1891   -1.0852 C   0  0  2  0  0  0  0  0  0  0  0  0
    3.0752   -2.3374   -0.7927 O   0  0  0  0  0  0  0  0  0  0  0  0
    5.0302   -1.2317   -0.2259 C   0  0  1  0  0  0  0  0  0  0  0  0
    6.0981   -0.1928   -0.6364 C   0  0  0  0  0  0  0  0  0  0  0  0
    7.4158   -0.8778   -0.2331 C   0  0  0  0  0  0  0  0  0  0  0  0
    7.3136   -1.5780    1.0789 C   0  0  0  0  0  0  0  0  0  0  0  0
    7.3235   -2.9730    0.9558 O   0  0  0  0  0  0  0  0  0  0  0  0
    6.1625   -1.2211    1.9471 C   0  0  0  0  0  0  0  0  0  0  0  0
    4.8457   -1.0115    1.2346 C   0  0  0  0  0  0  0  0  0  0  0  0
    8.5956   -0.0077   -0.4448 C   0  0  0  0  0  0  0  0  0  0  0  0
    8.5935    1.2784    0.3315 C   0  0  0  0  0  0  0  0  0  0  0  0
    9.8120    2.1137    0.0028 C   0  0  0  0  0  0  0  0  0  0  0  0
    9.8428    2.4840   -1.4693 C   0  0  0  0  0  0  0  0  0  0  0  0
   11.0467    1.2792    0.2675 C   0  0  0  0  0  0  0  0  0  0  0  0
   -8.8446    2.4861   -1.8829 H   0  0  0  0  0  0  0  0  0  0  0  0
   -7.5498    3.5105   -1.1686 H   0  0  0  0  0  0  0  0  0  0  0  0
   -9.2810    3.8070   -0.7205 H   0  0  0  0  0  0  0  0  0  0  0  0
  -10.3319   -2.6843    1.4294 H   0  0  0  0  0  0  0  0  0  0  0  0
  -11.7092   -2.2687    0.6091 H   0  0  0  0  0  0  0  0  0  0  0  0
   -9.7223   -0.6418    1.5566 H   0  0  0  0  0  0  0  0  0  0  0  0
  -12.0516   -0.3318   -0.1397 H   0  0  0  0  0  0  0  0  0  0  0  0
   -7.0814    1.2355   -1.0870 H   0  0  0  0  0  0  0  0  0  0  0  0
   -8.1073   -0.3673    1.2589 H   0  0  0  0  0  0  0  0  0  0  0  0
   -6.9856   -2.0802    0.2837 H   0  0  0  0  0  0  0  0  0  0  0  0
   -6.9889   -2.5396   -1.7975 H   0  0  0  0  0  0  0  0  0  0  0  0
   -5.2623    0.2153   -0.8272 H   0  0  0  0  0  0  0  0  0  0  0  0
   -8.0699    2.1199    2.1308 H   0  0  0  0  0  0  0  0  0  0  0  0
   -7.1779    0.7215    2.9144 H   0  0  0  0  0  0  0  0  0  0  0  0
   -6.3999    2.3004    2.8494 H   0  0  0  0  0  0  0  0  0  0  0  0
   -5.2669    2.5131   -0.4522 H   0  0  0  0  0  0  0  0  0  0  0  0
   -5.8596    3.3384    1.1032 H   0  0  0  0  0  0  0  0  0  0  0  0
   -4.4896    2.2101    1.1437 H   0  0  0  0  0  0  0  0  0  0  0  0
   -3.5930   -0.1284   -1.1867 H   0  0  0  0  0  0  0  0  0  0  0  0
   -2.6968    0.1812    1.0104 H   0  0  0  0  0  0  0  0  0  0  0  0
   -2.7436   -2.8676    0.9440 H   0  0  0  0  0  0  0  0  0  0  0  0
   -1.3564   -2.1782    1.7994 H   0  0  0  0  0  0  0  0  0  0  0  0
   -2.9704   -1.6889    2.3435 H   0  0  0  0  0  0  0  0  0  0  0  0
   -1.2628    0.2796   -0.9396 H   0  0  0  0  0  0  0  0  0  0  0  0
   -0.4101   -2.5713   -0.1330 H   0  0  0  0  0  0  0  0  0  0  0  0
   -1.1811   -3.0094   -2.3460 H   0  0  0  0  0  0  0  0  0  0  0  0
   -1.3800   -1.2890   -2.7645 H   0  0  0  0  0  0  0  0  0  0  0  0
   -3.5295   -2.1592   -2.3963 H   0  0  0  0  0  0  0  0  0  0  0  0
   -3.0444   -3.1682   -1.0358 H   0  0  0  0  0  0  0  0  0  0  0  0
    1.6254    0.7331    1.1372 H   0  0  0  0  0  0  0  0  0  0  0  0
    2.2673   -0.8652    2.2983 H   0  0  0  0  0  0  0  0  0  0  0  0
    2.5028   -1.4392   -0.1558 H   0  0  0  0  0  0  0  0  0  0  0  0
    1.2522   -2.4169   -1.6985 H   0  0  0  0  0  0  0  0  0  0  0  0
    0.2515    0.1162   -2.5732 H   0  0  0  0  0  0  0  0  0  0  0  0
    1.9270    1.0650   -1.6023 H   0  0  0  0  0  0  0  0  0  0  0  0
    3.8289   -0.7958   -2.0820 H   0  0  0  0  0  0  0  0  0  0  0  0
    3.6917    1.9395   -2.1314 H   0  0  0  0  0  0  0  0  0  0  0  0
    4.4158   -1.1064    0.2294 H   0  0  0  0  0  0  0  0  0  0  0  0
    6.3065   -1.5476   -0.9616 H   0  0  0  0  0  0  0  0  0  0  0  0
    6.2496    0.1353   -1.7418 H   0  0  0  0  0  0  0  0  0  0  0  0
    6.8199   -0.2259    1.2087 H   0  0  0  0  0  0  0  0  0  0  0  0
    7.9449    2.0569    0.5470 H   0  0  0  0  0  0  0  0  0  0  0  0
    7.9010    1.3231   -1.7979 H   0  0  0  0  0  0  0  0  0  0  0  0
    5.9517    2.5372    1.4310 H   0  0  0  0  0  0  0  0  0  0  0  0
    5.3885    2.7508   -0.2243 H   0  0  0  0  0  0  0  0  0  0  0  0
    4.9561    0.4501    1.7855 H   0  0  0  0  0  0  0  0  0  0  0  0
    3.8089    1.3799    0.8158 H   0  0  0  0  0  0  0  0  0  0  0  0
    8.5903   -0.7557   -1.2647 H   0  0  0  0  0  0  0  0  0  0  0  0
    8.1129   -1.8536    0.0264 H   0  0  0  0  0  0  0  0  0  0  0  0
   10.3904   -1.3810    0.3888 H   0  0  0  0  0  0  0  0  0  0  0  0
    9.4204   -0.7817    1.7253 H   0  0  0  0  0  0  0  0  0  0  0  0
    9.9620    1.5806    1.0628 H   0  0  0  0  0  0  0  0  0  0  0  0
   11.8261    1.3574   -0.9116 H   0  0  0  0  0  0  0  0  0  0  0  0
   10.5930    0.1166   -1.4717 H   0  0  0  0  0  0  0  0  0  0  0  0
   10.1547    1.8420   -1.2474 H   0  0  0  0  0  0  0  0  0  0  0  0
   12.5295    1.0559    0.7576 H   0  0  0  0  0  0  0  0  0  0  0  0
   11.9666   -0.5901    1.2458 H   0  0  0  0  0  0  0  0  0  0  0  0
   11.6755    0.8837    2.3067 H   0  0  0  0  0  0  0  0  0  0  0  0
   -8.5304    3.1063   -0.7846 H   0  0  0  0  0  0  0  0  0  0  0  0
   -7.5541    3.9954    0.4185 H   0  0  0  0  0  0  0  0  0  0  0  0
   -9.3332    3.9728    0.5839 H   0  0  0  0  0  0  0  0  0  0  0  0
   -9.9566   -2.7531   -0.4170 H   0  0  0  0  0  0  0  0  0  0  0  0
  -10.9250   -1.8099   -1.4534 H   0  0  0  0  0  0  0  0  0  0  0  0
   -9.4489   -1.0452    0.8328 H   0  0  0  0  0  0  0  0  0  0  0  0
  -11.6988   -0.4151   -0.4209 H   0  0  0  0  0  0  0  0  0  0  0  0
   -6.7005    2.0614   -0.1911 H   0  0  0  0  0  0  0  0  0  0  0  0
   -7.8609   -0.4618    1.1093 H   0  0  0  0  0  0  0  0  0  0  0  0
   -6.4505   -1.6647   -0.3814 H   0  0  0  0  0  0  0  0  0  0  0  0
   -6.5830   -0.8225   -2.3010 H   0  0  0  0  0  0  0  0  0  0  0  0
   -4.6055    0.6428   -0.1318 H   0  0  0  0  0  0  0  0  0  0  0  0
   -8.1414    1.3458    2.9268 H   0  0  0  0  0  0  0  0  0  0  0  0
   -6.8831    0.1890    3.5198 H   0  0  0  0  0  0  0  0  0  0  0  0
   -6.7101    1.9238    3.8154 H   0  0  0  0  0  0  0  0  0  0  0  0
   -4.7868    2.7536    1.0426 H   0  0  0  0  0  0  0  0  0  0  0  0
   -6.0300    3.4807    2.1959 H   0  0  0  0  0  0  0  0  0  0  0  0
   -4.7488    2.4025    2.7883 H   0  0  0  0  0  0  0  0  0  0  0  0
   -2.9923   -0.1723   -0.4300 H   0  0  0  0  0  0  0  0  0  0  0  0
   -2.0921   -0.8039    1.9119 H   0  0  0  0  0  0  0  0  0  0  0  0
   -1.6368   -3.5342    0.5955 H   0  0  0  0  0  0  0  0  0  0  0  0
   -2.6775   -3.1022    2.0520 H   0  0  0  0  0  0  0  0  0  0  0  0
   -0.9149   -2.8654    2.0805 H   0  0  0  0  0  0  0  0  0  0  0  0
   -0.8374    0.1467    0.0499 H   0  0  0  0  0  0  0  0  0  0  0  0
   -0.1232   -2.7768   -0.5386 H   0  0  0  0  0  0  0  0  0  0  0  0
   -1.3548   -2.7293   -2.5150 H   0  0  0  0  0  0  0  0  0  0  0  0
   -1.6728   -0.9203   -2.3814 H   0  0  0  0  0  0  0  0  0  0  0  0
   -3.6964   -1.9236   -1.8884 H   0  0  0  0  0  0  0  0  0  0  0  0
   -3.0294   -3.2091   -0.8593 H   0  0  0  0  0  0  0  0  0  0  0  0
    2.2606   -0.2580    1.3511 H   0  0  0  0  0  0  0  0  0  0  0  0
    0.9195    1.5718    1.3351 H   0  0  0  0  0  0  0  0  0  0  0  0
    2.5158   -1.6360   -0.4948 H   0  0  0  0  0  0  0  0  0  0  0  0
    1.1885   -1.8852   -2.3399 H   0  0  0  0  0  0  0  0  0  0  0  0
   -0.0720    0.6440   -1.7970 H   0  0  0  0  0  0  0  0  0  0  0  0
    1.9940    1.1035   -1.6224 H   0  0  0  0  0  0  0  0  0  0  0  0
    4.2199    1.5211   -1.4523 H   0  0  0  0  0  0  0  0  0  0  0  0
    4.0958    1.2730    1.1664 H   0  0  0  0  0  0  0  0  0  0  0  0
    4.3891   -1.1403    0.0107 H   0  0  0  0  0  0  0  0  0  0  0  0
    5.8136    0.2028    1.2281 H   0  0  0  0  0  0  0  0  0  0  0  0
    5.9943    1.3871   -0.1080 H   0  0  0  0  0  0  0  0  0  0  0  0
    7.9052   -0.5159    0.8098 H   0  0  0  0  0  0  0  0  0  0  0  0
    6.5264   -2.3650    0.1162 H   0  0  0  0  0  0  0  0  0  0  0  0
    8.4771   -2.5240   -1.8098 H   0  0  0  0  0  0  0  0  0  0  0  0
    7.0220   -1.6311   -2.8127 H   0  0  0  0  0  0  0  0  0  0  0  0
    5.9181   -2.8160   -2.0751 H   0  0  0  0  0  0  0  0  0  0  0  0
    5.3556    0.0714   -2.6375 H   0  0  0  0  0  0  0  0  0  0  0  0
    4.2689   -1.3076   -2.3596 H   0  0  0  0  0  0  0  0  0  0  0  0
    7.7258    0.1717   -2.1774 H   0  0  0  0  0  0  0  0  0  0  0  0
    9.1211   -0.3205   -1.2209 H   0  0  0  0  0  0  0  0  0  0  0  0
    7.7558    2.4326   -0.8937 H   0  0  0  0  0  0  0  0  0  0  0  0
    9.2189    1.9979   -1.8568 H   0  0  0  0  0  0  0  0  0  0  0  0
    9.7953    3.1160    0.0666 H   0  0  0  0  0  0  0  0  0  0  0  0
   11.4994    1.8412    0.8623 H   0  0  0  0  0  0  0  0  0  0  0  0
   10.6337    0.2864    0.8897 H   0  0  0  0  0  0  0  0  0  0  0  0
   11.1821    1.0425   -0.7010 H   0  0  0  0  0  0  0  0  0  0  0  0
    8.8463    1.1382    2.1347 H   0  0  0  0  0  0  0  0  0  0  0  0
    9.0538    2.9433    2.1656 H   0  0  0  0  0  0  0  0  0  0  0  0
    7.6500    2.2432    1.3766 H   0  0  0  0  0  0  0  0  0  0  0  0
   -8.4032    2.2163   -2.0355 H   0  0  0  0  0  0  0  0  0  0  0  0
   -7.2280    3.2821   -1.2269 H   0  0  0  0  0  0  0  0  0  0  0  0
   -9.0011    3.6894   -1.0849 H   0  0  0  0  0  0  0  0  0  0  0  0
  -10.7493   -2.4902    1.1984 H   0  0  0  0  0  0  0  0  0  0  0  0
  -11.5387   -2.0129   -0.2038 H   0  0  0  0  0  0  0  0  0  0  0  0
   -9.5584   -0.6880    1.3811 H   0  0  0  0  0  0  0  0  0  0  0  0
  -11.7475   -0.0560   -0.2908 H   0  0  0  0  0  0  0  0  0  0  0  0
   -6.7163    1.2491   -0.9348 H   0  0  0  0  0  0  0  0  0  0  0  0
   -7.9268   -0.5107    1.1297 H   0  0  0  0  0  0  0  0  0  0  0  0
   -6.7852   -2.1682   -0.2546 H   0  0  0  0  0  0  0  0  0  0  0  0
   -6.4813   -1.8586   -2.3572 H   0  0  0  0  0  0  0  0  0  0  0  0
   -4.9505    0.2267   -0.7020 H   0  0  0  0  0  0  0  0  0  0  0  0
   -8.0757    2.0057    2.2533 H   0  0  0  0  0  0  0  0  0  0  0  0
   -7.2406    0.5316    3.0158 H   0  0  0  0  0  0  0  0  0  0  0  0
   -6.5269    2.1406    3.1240 H   0  0  0  0  0  0  0  0  0  0  0  0
   -5.1586    2.6256   -0.0992 H   0  0  0  0  0  0  0  0  0  0  0  0
   -6.1350    3.3744    1.2714 H   0  0  0  0  0  0  0  0  0  0  0  0
   -4.6434    2.4953    1.6336 H   0  0  0  0  0  0  0  0  0  0  0  0
   -3.3191   -0.1289   -0.7151 H   0  0  0  0  0  0  0  0  0  0  0  0
   -2.5757   -0.6040    1.7154 H   0  0  0  0  0  0  0  0  0  0  0  0
   -1.3148   -3.0751    0.3774 H   0  0  0  0  0  0  0  0  0  0  0  0
   -2.7735   -3.0507    1.3673 H   0  0  0  0  0  0  0  0  0  0  0  0
   -1.2127   -2.5841    2.0914 H   0  0  0  0  0  0  0  0  0  0  0  0
   -1.5245    0.5882   -0.3313 H   0  0  0  0  0  0  0  0  0  0  0  0
    0.1706   -1.9766   -0.4560 H   0  0  0  0  0  0  0  0  0  0  0  0
   -1.5414   -0.7481   -2.6479 H   0  0  0  0  0  0  0  0  0  0  0  0
   -0.9632   -2.4138   -2.4932 H   0  0  0  0  0  0  0  0  0  0  0  0
   -3.4454   -1.9560   -2.2434 H   0  0  0  0  0  0  0  0  0  0  0  0
   -2.7344   -3.1043   -1.0904 H   0  0  0  0  0  0  0  0  0  0  0  0
    1.7472    0.3870    1.6555 H   0  0  0  0  0  0  0  0  0  0  0  0
    2.2627   -1.8221    1.2930 H   0  0  0  0  0  0  0  0  0  0  0  0
    2.3144   -1.0531   -0.5509 H   0  0  0  0  0  0  0  0  0  0  0  0
    1.0211   -0.7343   -2.3784 H   0  0  0  0  0  0  0  0  0  0  0  0
   -0.0196    1.6695   -1.1591 H   0  0  0  0  0  0  0  0  0  0  0  0
    1.9528    1.9390   -0.2592 H   0  0  0  0  0  0  0  0  0  0  0  0
    3.6789    1.0197   -2.1223 H   0  0  0  0  0  0  0  0  0  0  0  0
    4.0332    2.5857    0.1750 H   0  0  0  0  0  0  0  0  0  0  0  0
    4.5671   -0.8766   -0.7547 H   0  0  0  0  0  0  0  0  0  0  0  0
    6.4134    1.4673   -0.8804 H   0  0  0  0  0  0  0  0  0  0  0  0
    5.8453    0.5920   -2.3254 H   0  0  0  0  0  0  0  0  0  0  0  0
    7.0163   -1.2707   -1.8877 H   0  0  0  0  0  0  0  0  0  0  0  0
    5.9706   -2.3906   -0.2367 H   0  0  0  0  0  0  0  0  0  0  0  0
    8.1306   -2.7786   -0.0215 H   0  0  0  0  0  0  0  0  0  0  0  0
    6.5197   -0.6960    2.2094 H   0  0  0  0  0  0  0  0  0  0  0  0
    5.1225   -1.6273    1.6765 H   0  0  0  0  0  0  0  0  0  0  0  0
    5.7719    1.2217    1.1101 H   0  0  0  0  0  0  0  0  0  0  0  0
    4.2311    0.4874    1.6199 H   0  0  0  0  0  0  0  0  0  0  0  0
    8.7230    0.4291   -1.7056 H   0  0  0  0  0  0  0  0  0  0  0  0
    9.1039   -1.0354   -0.7590 H   0  0  0  0  0  0  0  0  0  0  0  0
    8.5221    0.2469    1.3624 H   0  0  0  0  0  0  0  0  0  0  0  0
    8.0167    1.6607    0.3042 H   0  0  0  0  0  0  0  0  0  0  0  0
   10.2483    1.8633    1.2204 H   0  0  0  0  0  0  0  0  0  0  0  0
   10.9748    2.9090   -0.6542 H   0  0  0  0  0  0  0  0  0  0  0  0
   10.9932    1.4259   -1.6416 H   0  0  0  0  0  0  0  0  0  0  0  0
    9.4447    2.4039   -1.3635 H   0  0  0  0  0  0  0  0  0  0  0  0
   11.0898   -0.5061   -0.5224 H   0  0  0  0  0  0  0  0  0  0  0  0
   12.0359    0.4681    0.6094 H   0  0  0  0  0  0  0  0  0  0  0  0
   10.7659   -0.5795    1.3087 H   0  0  0  0  0  0  0  0  0  0  0  0
   -8.9075    2.5826   -1.5610 H   0  0  0  0  0  0  0  0  0  0  0  0
   -7.7036    3.7066   -0.7628 H   0  0  0  0  0  0  0  0  0  0  0  0
   -9.4159    3.7309   -0.2597 H   0  0  0  0  0  0  0  0  0  0  0  0
  -11.0318   -2.1309    1.5326 H   0  0  0  0  0  0  0  0  0  0  0  0
  -10.9064   -2.5741   -0.0915 H   0  0  0  0  0  0  0  0  0  0  0  0
   -9.8254   -0.2579    1.3725 H   0  0  0  0  0  0  0  0  0  0  0  0
  -11.8530   -0.7441   -0.5095 H   0  0  0  0  0  0  0  0  0  0  0  0
   -6.9740    1.4221   -0.9365 H   0  0  0  0  0  0  0  0  0  0  0  0
   -8.1598   -0.1950    1.3919 H   0  0  0  0  0  0  0  0  0  0  0  0
   -6.5908   -1.7592    0.9765 H   0  0  0  0  0  0  0  0  0  0  0  0
   -6.1125   -2.4326   -1.2898 H   0  0  0  0  0  0  0  0  0  0  0  0
   -5.2753    0.3816   -0.8228 H   0  0  0  0  0  0  0  0  0  0  0  0
   -8.1075    1.6573    2.3165 H   0  0  0  0  0  0  0  0  0  0  0  0
   -6.9192    0.4121    2.9403 H   0  0  0  0  0  0  0  0  0  0  0  0
   -6.5233    2.1328    3.1570 H   0  0  0  0  0  0  0  0  0  0  0  0
   -5.5038    3.1004   -0.0439 H   0  0  0  0  0  0  0  0  0  0  0  0
   -6.2378    3.5339    1.6026 H   0  0  0  0  0  0  0  0  0  0  0  0
   -4.6484    2.7376    1.5289 H   0  0  0  0  0  0  0  0  0  0  0  0
   -3.6080    0.1455   -1.2813 H   0  0  0  0  0  0  0  0  0  0  0  0
   -2.5720    0.6682    0.7432 H   0  0  0  0  0  0  0  0  0  0  0  0
   -1.9206   -2.2919    0.6145 H   0  0  0  0  0  0  0  0  0  0  0  0
   -2.3665   -1.3285    2.0151 H   0  0  0  0  0  0  0  0  0  0  0  0
   -0.6954   -1.2838    1.4236 H   0  0  0  0  0  0  0  0  0  0  0  0
   -1.5769    0.7421   -1.6346 H   0  0  0  0  0  0  0  0  0  0  0  0
   -0.3391   -1.7829   -0.5208 H   0  0  0  0  0  0  0  0  0  0  0  0
   -1.5431   -0.9769   -3.2274 H   0  0  0  0  0  0  0  0  0  0  0  0
   -1.0808   -2.5749   -2.6002 H   0  0  0  0  0  0  0  0  0  0  0  0
   -3.5411   -1.8286   -2.4817 H   0  0  0  0  0  0  0  0  0  0  0  0
   -2.8495   -2.8246   -1.2010 H   0  0  0  0  0  0  0  0  0  0  0  0
    0.9433    0.4679    1.2336 H   0  0  0  0  0  0  0  0  0  0  0  0
    1.8885    2.3307    1.0640 H   0  0  0  0  0  0  0  0  0  0  0  0
    1.7681   -1.2086   -0.0421 H   0  0  0  0  0  0  0  0  0  0  0  0
    1.3261   -1.5754   -2.3494 H   0  0  0  0  0  0  0  0  0  0  0  0
    1.1113    1.1706   -2.3061 H   0  0  0  0  0  0  0  0  0  0  0  0
    3.0723    0.4206   -2.0827 H   0  0  0  0  0  0  0  0  0  0  0  0
    4.1996   -1.3949   -2.1445 H   0  0  0  0  0  0  0  0  0  0  0  0
    3.2292   -2.6557    0.1322 H   0  0  0  0  0  0  0  0  0  0  0  0
    5.4824   -2.2516   -0.3355 H   0  0  0  0  0  0  0  0  0  0  0  0
    6.0720   -0.1277   -1.7432 H   0  0  0  0  0  0  0  0  0  0  0  0
    6.0149    0.7395   -0.0956 H   0  0  0  0  0  0  0  0  0  0  0  0
    7.5188   -1.7023   -1.0128 H   0  0  0  0  0  0  0  0  0  0  0  0
    8.2537   -1.3401    1.6432 H   0  0  0  0  0  0  0  0  0  0  0  0
    8.2071   -3.3600    1.0501 H   0  0  0  0  0  0  0  0  0  0  0  0
    5.9934   -2.0771    2.6544 H   0  0  0  0  0  0  0  0  0  0  0  0
    6.3420   -0.3416    2.5965 H   0  0  0  0  0  0  0  0  0  0  0  0
    4.5486    0.0820    1.3380 H   0  0  0  0  0  0  0  0  0  0  0  0
    4.0151   -1.5750    1.7009 H   0  0  0  0  0  0  0  0  0  0  0  0
    8.7391    0.1842   -1.5155 H   0  0  0  0  0  0  0  0  0  0  0  0
    9.4901   -0.5774   -0.1037 H   0  0  0  0  0  0  0  0  0  0  0  0
    8.5813    1.1254    1.4259 H   0  0  0  0  0  0  0  0  0  0  0  0
    7.7025    1.8811    0.0697 H   0  0  0  0  0  0  0  0  0  0  0  0
    9.8758    3.0090    0.6573 H   0  0  0  0  0  0  0  0  0  0  0  0
   10.5128    3.3828   -1.5579 H   0  0  0  0  0  0  0  0  0  0  0  0
   10.3202    1.7011   -2.0771 H   0  0  0  0  0  0  0  0  0  0  0  0
    8.8096    2.7496   -1.7769 H   0  0  0  0  0  0  0  0  0  0  0  0
   11.2425    0.5262   -0.5187 H   0  0  0  0  0  0  0  0  0  0  0  0
   11.9327    1.9442    0.3476 H   0  0  0  0  0  0  0  0  0  0  0  0
   10.9442    0.7720    1.2680 H   0  0  0  0  0  0  0  0  0  0  0  0
  1  2  1  0
  3  4  1  0
  4  5  1  0
  4  6  1  0
  2  7  1  0
  6  8  1  0
  7  8  1  0
  8  9  1  0
  9 10  1  0
  9 11  1  0
 11 12  1  0
  7 13  1  0
 12 13  1  0
 13 14  1  0
 13 15  1  0
 11 16  1  0
 16 17  1  0
 17 18  1  0
 18 19  1  0
 18 20  1  0
 20 21  1  0
 21 22  1  0
 17 23  1  0
 22 23  1  0
 20 24  1  0
 24 25  1  0
 25 26  1  0
 25 27  1  0
 21 28  1  0
 27 28  1  0
 28 29  1  0
 27 30  1  0
 30 31  1  0
 31 32  1  0
 31 33  1  0
 33 34  1  0
 34 35  1  0
 35 36  1  0
 36 37  1  0
 36 38  1  0
 33 39  1  0
 38 39  1  0
 35 40  1  0
 40 41  1  0
 41 42  1  0
 42 43  1  0
 42 44  1  0
 45 46  1  0
 47 48  1  0
 48 49  1  0
 48 50  1  0
 46 51  1  0
 50 52  1  0
 51 52  1  0
 52 53  1  0
 53 54  1  0
 53 55  1  0
 55 56  1  0
 51 57  1  0
 56 57  1  0
 57 58  1  0
 57 59  1  0
 55 60  1  0
 60 61  1  0
 61 62  1  0
 62 63  1  0
 62 64  1  0
 64 65  1  0
 65 66  1  0
 61 67  1  0
 66 67  1  0
 64 68  1  0
 68 69  1  0
 69 70  1  0
 69 71  1  0
 65 72  1  0
 71 72  1  0
 72 73  1  0
 71 74  1  0
 74 75  1  0
 75 76  1  0
 75 77  1  0
 77 78  1  0
 78 79  1  0
 79 80  1  0
 80 81  1  0
 80 82  1  0
 77 83  1  0
 82 83  1  0
 79 84  1  0
 84 85  1  0
 85 86  1  0
 86 87  1  0
 86 88  1  0
 89 90  1  0
 91 92  1  0
 92 93  1  0
 92 94  1  0
 90 95  1  0
 94 96  1  0
 95 96  1  0
 96 97  1  0
 97 98  1  0
 97 99  1  0
 99100  1  0
 95101  1  0
100101  1  0
101102  1  0
101103  1  0
 99104  1  0
104105  1  0
105106  1  0
106107  1  0
106108  1  0
108109  1  0
109110  1  0
105111  1  0
110111  1  0
108112  1  0
112113  1  0
113114  1  0
113115  1  0
109116  1  0
115116  1  0
116117  1  0
115118  1  0
118119  1  0
119120  1  0
119121  1  0
121122  1  0
122123  1  0
123124  1  0
124125  1  0
124126  1  0
121127  1  0
126127  1  0
123128  1  0
128129  1  0
129130  1  0
130131  1  0
130132  1  0
133134  1  0
135136  1  0
136137  1  0
136138  1  0
134139  1  0
138140  1  0
139140  1  0
140141  1  0
141142  1  0
141143  1  0
143144  1  0
139145  1  0
144145  1  0
145146  1  0
145147  1  0
143148  1  0
148149  1  0
149150  1  0
150151  1  0
150152  1  0
152153  1  0
153154  1  0
149155  1  0
154155  1  0
152156  1  0
156157  1  0
157158  1  0
157159  1  0
153160  1  0
159160  1  0
160161  1  0
159162  1  0
162163  1  0
163164  1  0
163165  1  0
165166  1  0
166167  1  0
167168  1  0
168169  1  0
168170  1  0
165171  1  0
170171  1  0
167172  1  0
172173  1  0
173174  1  0
174175  1  0
174176  1  0
  1177  1  0
  1178  1  0
  1179  1  0
  3180  1  0
  3181  1  0
  4182  1  0
  5183  1  0
  7184  1  6
  8185  1  1
  9186  1  1
 10187  1  0
 11188  1  6
 14189  1  0
 14190  1  0
 14191  1  0
 15192  1  0
 15193  1  0
 15194  1  0
 17195  1  0
 18196  1  1
 19197  1  0
 19198  1  0
 19199  1  0
 20200  1  0
 21201  1  0
 22202  1  0
 22203  1  0
 23204  1  0
 23205  1  0
 25206  1  0
 26207  1  0
 27208  1  1
 28209  1  0
 29210  1  0
 30211  1  0
 31212  1  0
 32213  1  0
 33214  1  1
 34215  1  0
 34216  1  0
 35217  1  0
 36218  1  1
 37219  1  0
 38220  1  0
 38221  1  0
 39222  1  0
 39223  1  0
 40224  1  0
 40225  1  0
 41226  1  0
 41227  1  0
 42228  1  0
 43229  1  0
 43230  1  0
 43231  1  0
 44232  1  0
 44233  1  0
 44234  1  0
 45235  1  0
 45236  1  0
 45237  1  0
 47238  1  0
 47239  1  0
 48240  1  0
 49241  1  0
 51242  1  6
 52243  1  1
 53244  1  6
 54245  1  0
 55246  1  6
 58247  1  0
 58248  1  0
 58249  1  0
 59250  1  0
 59251  1  0
 59252  1  0
 61253  1  0
 62254  1  0
 63255  1  0
 63256  1  0
 63257  1  0
 64258  1  0
 65259  1  0
 66260  1  0
 66261  1  0
 67262  1  0
 67263  1  0
 69264  1  0
 70265  1  0
 71266  1  1
 72267  1  0
 73268  1  0
 74269  1  0
 75270  1  0
 76271  1  0
 77272  1  0
 78273  1  0
 78274  1  0
 79275  1  0
 80276  1  0
 81277  1  0
 82278  1  0
 82279  1  0
 83280  1  0
 83281  1  0
 84282  1  0
 84283  1  0
 85284  1  0
 85285  1  0
 86286  1  0
 87287  1  0
 87288  1  0
 87289  1  0
 88290  1  0
 88291  1  0
 88292  1  0
 89293  1  0
 89294  1  0
 89295  1  0
 91296  1  0
 91297  1  0
 92298  1  0
 93299  1  0
 95300  1  6
 96301  1  1
 97302  1  6
 98303  1  0
 99304  1  6
102305  1  0
102306  1  0
102307  1  0
103308  1  0
103309  1  0
103310  1  0
105311  1  0
106312  1  0
107313  1  0
107314  1  0
107315  1  0
108316  1  0
109317  1  0
110318  1  0
110319  1  0
111320  1  0
111321  1  0
113322  1  0
114323  1  0
115324  1  6
116325  1  0
117326  1  0
118327  1  0
119328  1  0
120329  1  0
121330  1  1
122331  1  0
122332  1  0
123333  1  6
124334  1  0
125335  1  0
126336  1  0
126337  1  0
127338  1  0
127339  1  0
128340  1  0
128341  1  0
129342  1  0
129343  1  0
130344  1  0
131345  1  0
131346  1  0
131347  1  0
132348  1  0
132349  1  0
132350  1  0
133351  1  0
133352  1  0
133353  1  0
135354  1  0
135355  1  0
136356  1  0
137357  1  0
139358  1  6
140359  1  1
141360  1  1
142361  1  0
143362  1  6
146363  1  0
146364  1  0
146365  1  0
147366  1  0
147367  1  0
147368  1  0
149369  1  0
150370  1  1
151371  1  0
151372  1  0
151373  1  0
152374  1  0
153375  1  0
154376  1  0
154377  1  0
155378  1  0
155379  1  0
157380  1  0
158381  1  0
159382  1  1
160383  1  0
161384  1  0
162385  1  0
163386  1  6
164387  1  0
165388  1  1
166389  1  0
166390  1  0
167391  1  0
168392  1  0
169393  1  0
170394  1  0
170395  1  0
171396  1  0
171397  1  0
172398  1  0
172399  1  0
173400  1  0
173401  1  0
174402  1  0
175403  1  0
175404  1  0
175405  1  0
176406  1  0
176407  1  0
176408  1  0
M  END
>  <PDBID>  (1) 
4URO

>  <PDB ID>  (1) 
4URO

>  <Generic Name>  (1) 
Novobiocin

>  <Brand Name>  (1) 
Albamycin

>  <DrugBank ID>  (1) 
DB01051

>  <ATC Codes>  (1) 
nan

>  <Ligand ID>  (1) 
NOV

>  <Target Name>  (1) 
DNA gyrase subunit B

>  <UniProt ID>  (1) 
P0A0K8

>  <PDB ID.1>  (1) 
4URO

>  <Seq. Identity>  (1) 
84%

$$$$
