PDB_DB00428_08
     RDKit          3D

 37 37  0  0  0  0  0  0  0  0999 V2000
   -0.6251   -0.5683    2.1655 O   0  0  0  0  0  0  0  0  0  0  0  0
   -0.7381   -0.9044    0.8107 C   0  0  1  0  0  0  0  0  0  0  0  0
   -2.1701   -1.3073    0.4840 C   0  0  2  0  0  0  0  0  0  0  0  0
   -2.0936   -2.1991   -0.5912 O   0  0  0  0  0  0  0  0  0  0  0  0
   -3.0208   -0.1564    0.0544 C   0  0  1  0  0  0  0  0  0  0  0  0
   -3.3991    0.7557    1.2017 C   0  0  0  0  0  0  0  0  0  0  0  0
   -4.3656    1.6441    0.7296 O   0  0  0  0  0  0  0  0  0  0  0  0
   -2.5166    0.4998   -1.0206 O   0  0  0  0  0  0  0  0  0  0  0  0
   -1.1751    0.3581   -1.2701 C   0  0  1  0  0  0  0  0  0  0  0  0
   -0.7647    1.4393   -2.0394 O   0  0  0  0  0  0  0  0  0  0  0  0
   -0.3267    0.2792   -0.0273 C   0  0  2  0  0  0  0  0  0  0  0  0
    1.0348    0.1479   -0.4214 N   0  0  0  0  0  0  0  0  0  0  0  0
    2.0294    0.1696    0.5953 C   0  0  0  0  0  0  0  0  0  0  0  0
    1.8577   -0.9126    1.4627 O   0  0  0  0  0  0  0  0  0  0  0  0
    3.3088    0.1371   -0.0382 N   0  0  0  0  0  0  0  0  0  0  0  0
    3.6329   -0.9599   -0.8349 C   0  0  0  0  0  0  0  0  0  0  0  0
    4.2297    1.0624    0.2654 N   0  0  0  0  0  0  0  0  0  0  0  0
    3.7314    2.3161    0.1209 O   0  0  0  0  0  0  0  0  0  0  0  0
   -0.6406   -1.4328    2.6618 H   0  0  0  0  0  0  0  0  0  0  0  0
   -0.0764   -1.7808    0.6409 H   0  0  0  0  0  0  0  0  0  0  0  0
   -2.6352   -1.8728    1.3287 H   0  0  0  0  0  0  0  0  0  0  0  0
   -2.9992   -2.3928   -0.9601 H   0  0  0  0  0  0  0  0  0  0  0  0
   -3.9993   -0.6115   -0.2773 H   0  0  0  0  0  0  0  0  0  0  0  0
   -2.5454    1.2336    1.6859 H   0  0  0  0  0  0  0  0  0  0  0  0
   -3.9156    0.1648    2.0155 H   0  0  0  0  0  0  0  0  0  0  0  0
   -3.9790    2.5627    0.7300 H   0  0  0  0  0  0  0  0  0  0  0  0
   -1.0113   -0.5609   -1.8573 H   0  0  0  0  0  0  0  0  0  0  0  0
   -1.0492    1.3130   -2.9916 H   0  0  0  0  0  0  0  0  0  0  0  0
   -0.4157    1.2032    0.5945 H   0  0  0  0  0  0  0  0  0  0  0  0
    1.2912    0.5461   -1.3304 H   0  0  0  0  0  0  0  0  0  0  0  0
    1.9613    1.1002    1.2354 H   0  0  0  0  0  0  0  0  0  0  0  0
    2.3530   -0.7446    2.3250 H   0  0  0  0  0  0  0  0  0  0  0  0
    3.9654   -1.8675   -0.2786 H   0  0  0  0  0  0  0  0  0  0  0  0
    4.5134   -0.6819   -1.4808 H   0  0  0  0  0  0  0  0  0  0  0  0
    2.7617   -1.2538   -1.4771 H   0  0  0  0  0  0  0  0  0  0  0  0
    4.7239    0.9702    1.1811 H   0  0  0  0  0  0  0  0  0  0  0  0
    3.0678    2.3045   -0.6154 H   0  0  0  0  0  0  0  0  0  0  0  0
  1  2  1  0
  2  3  1  0
  3  4  1  0
  3  5  1  0
  5  6  1  0
  6  7  1  0
  5  8  1  0
  8  9  1  0
  9 10  1  0
  2 11  1  0
  9 11  1  0
 11 12  1  0
 12 13  1  0
 13 14  1  0
 13 15  1  0
 15 16  1  0
 15 17  1  0
 17 18  1  0
  1 19  1  0
  2 20  1  1
  3 21  1  1
  4 22  1  0
  5 23  1  6
  6 24  1  0
  6 25  1  0
  7 26  1  0
  9 27  1  6
 10 28  1  0
 11 29  1  1
 12 30  1  0
 13 31  1  0
 14 32  1  0
 16 33  1  0
 16 34  1  0
 16 35  1  0
 17 36  1  0
 18 37  1  0
M  END
>  <PDBID>  (1) 
2W4X

>  <PDB ID>  (1) 
2W4X

>  <Generic Name>  (1) 
Streptozocin

>  <Brand Name>  (1) 
Zanosar#Zanosar Sterile Powder

>  <DrugBank ID>  (1) 
DB00428

>  <ATC Codes>  (1) 
L01AD04

>  <Ligand ID>  (1) 
STZ

>  <Target Name>  (1) 
O-GlcNAcase BT_4395

>  <UniProt ID>  (1) 
Q89ZI2

>  <PDB ID.1>  (1) 
2W4X

>  <Seq. Identity>  (1) 
100%

$$$$
