PDB_DB00775_09
     RDKit          3D

 76 77  0  0  0  0  0  0  0  0999 V2000
    8.5258    1.9019    0.1128 C   0  0  0  0  0  0  0  0  0  0  0  0
    7.2787    0.9978    0.1363 C   0  0  0  0  0  0  0  0  0  0  0  0
    7.7213   -0.4285    0.0888 C   0  0  0  0  0  0  0  0  0  0  0  0
    6.6380   -1.4527    0.1232 C   0  0  0  0  0  0  0  0  0  0  0  0
    5.4970   -1.4150   -1.1431 S   0  0  0  0  0  0  0  0  0  0  0  0
    6.4292   -1.6324   -2.6083 O   0  0  0  0  0  0  0  0  0  0  0  0
    4.5193   -2.6376   -1.1477 O   0  0  0  0  0  0  0  0  0  0  0  0
    4.8459    0.0426   -1.2587 N   0  0  0  0  0  0  0  0  0  0  0  0
    3.4184    0.1142   -0.9738 C   0  0  1  0  0  0  0  0  0  0  0  0
    3.1119   -0.3460    0.4261 C   0  0  0  0  0  0  0  0  0  0  0  0
    1.6562   -0.2517    0.6702 C   0  0  0  0  0  0  0  0  0  0  0  0
    1.2541   -0.6998    2.0663 C   0  0  0  0  0  0  0  0  0  0  0  0
   -0.0766   -0.0538    2.3401 C   0  0  0  0  0  0  0  0  0  0  0  0
   -1.1207   -0.4136    1.3176 C   0  0  0  0  0  0  0  0  0  0  0  0
   -2.1163    0.5563    1.4141 O   0  0  0  0  0  0  0  0  0  0  0  0
   -0.6465   -0.4875   -0.0712 C   0  0  0  0  0  0  0  0  0  0  0  0
    0.7628   -0.9709   -0.2770 C   0  0  0  0  0  0  0  0  0  0  0  0
    2.9294    1.4890   -1.2817 C   0  0  0  0  0  0  0  0  0  0  0  0
    3.1839    1.7283   -2.6545 O   0  0  0  0  0  0  0  0  0  0  0  0
    3.6207    2.4625   -0.5871 O   0  0  0  0  0  0  0  0  0  0  0  0
   -3.3092    0.1078    1.9078 C   0  0  0  0  0  0  0  0  0  0  0  0
   -4.0161   -0.9396    1.1298 C   0  0  0  0  0  0  0  0  0  0  0  0
   -4.3702   -0.4396   -0.2332 C   0  0  0  0  0  0  0  0  0  0  0  0
   -5.2731    0.7560   -0.2142 C   0  0  0  0  0  0  0  0  0  0  0  0
   -6.5516    0.4664    0.4879 C   0  0  0  0  0  0  0  0  0  0  0  0
   -7.2956   -0.6371   -0.1807 C   0  0  0  0  0  0  0  0  0  0  0  0
   -7.9073   -0.2056   -1.4993 C   0  0  0  0  0  0  0  0  0  0  0  0
   -8.7881    0.9456   -1.2354 N   0  0  0  0  0  0  0  0  0  0  0  0
   -7.9195    2.0462   -0.8723 C   0  0  0  0  0  0  0  0  0  0  0  0
   -7.3619    1.7571    0.5195 C   0  0  0  0  0  0  0  0  0  0  0  0
    9.2216    1.4959   -0.6344 H   0  0  0  0  0  0  0  0  0  0  0  0
    8.9753    1.8920    1.1088 H   0  0  0  0  0  0  0  0  0  0  0  0
    8.2123    2.9118   -0.2208 H   0  0  0  0  0  0  0  0  0  0  0  0
    6.7002    1.3260   -0.7520 H   0  0  0  0  0  0  0  0  0  0  0  0
    6.6692    1.2322    1.0303 H   0  0  0  0  0  0  0  0  0  0  0  0
    8.3694   -0.6006    0.9805 H   0  0  0  0  0  0  0  0  0  0  0  0
    8.3100   -0.6081   -0.8435 H   0  0  0  0  0  0  0  0  0  0  0  0
    7.1293   -2.4494    0.1981 H   0  0  0  0  0  0  0  0  0  0  0  0
    6.0622   -1.3396    1.0916 H   0  0  0  0  0  0  0  0  0  0  0  0
    6.8211   -0.7458   -2.7746 H   0  0  0  0  0  0  0  0  0  0  0  0
    4.3127   -3.1461   -1.9608 H   0  0  0  0  0  0  0  0  0  0  0  0
    4.9751    0.4827   -2.2016 H   0  0  0  0  0  0  0  0  0  0  0  0
    2.9562   -0.6145   -1.6964 H   0  0  0  0  0  0  0  0  0  0  0  0
    3.5610   -1.3225    0.6621 H   0  0  0  0  0  0  0  0  0  0  0  0
    3.6098    0.3754    1.1401 H   0  0  0  0  0  0  0  0  0  0  0  0
    1.3838    0.8429    0.6456 H   0  0  0  0  0  0  0  0  0  0  0  0
    1.1140   -1.8031    2.0051 H   0  0  0  0  0  0  0  0  0  0  0  0
    1.9688   -0.3924    2.8297 H   0  0  0  0  0  0  0  0  0  0  0  0
   -0.4563   -0.3508    3.3390 H   0  0  0  0  0  0  0  0  0  0  0  0
    0.0916    1.0587    2.2769 H   0  0  0  0  0  0  0  0  0  0  0  0
   -1.5639   -1.3895    1.6643 H   0  0  0  0  0  0  0  0  0  0  0  0
   -0.7427    0.4755   -0.6221 H   0  0  0  0  0  0  0  0  0  0  0  0
   -1.3031   -1.2201   -0.6276 H   0  0  0  0  0  0  0  0  0  0  0  0
    0.9965   -0.8388   -1.3367 H   0  0  0  0  0  0  0  0  0  0  0  0
    0.7870   -2.0667   -0.0073 H   0  0  0  0  0  0  0  0  0  0  0  0
    1.8632    1.6576   -1.1400 H   0  0  0  0  0  0  0  0  0  0  0  0
    2.6283    2.4890   -2.9609 H   0  0  0  0  0  0  0  0  0  0  0  0
    3.2609    2.4900    0.3360 H   0  0  0  0  0  0  0  0  0  0  0  0
   -3.2594   -0.2117    2.9725 H   0  0  0  0  0  0  0  0  0  0  0  0
   -3.9888    1.0086    1.9344 H   0  0  0  0  0  0  0  0  0  0  0  0
   -4.9228   -1.2288    1.7272 H   0  0  0  0  0  0  0  0  0  0  0  0
   -3.4375   -1.8885    1.0345 H   0  0  0  0  0  0  0  0  0  0  0  0
   -3.3935   -0.0492   -0.6730 H   0  0  0  0  0  0  0  0  0  0  0  0
   -4.7750   -1.1970   -0.9157 H   0  0  0  0  0  0  0  0  0  0  0  0
   -5.4500    1.0128   -1.3018 H   0  0  0  0  0  0  0  0  0  0  0  0
   -4.7907    1.6729    0.1921 H   0  0  0  0  0  0  0  0  0  0  0  0
   -6.4171    0.1803    1.5507 H   0  0  0  0  0  0  0  0  0  0  0  0
   -6.6369   -1.4960   -0.3399 H   0  0  0  0  0  0  0  0  0  0  0  0
   -8.1156   -0.9984    0.5085 H   0  0  0  0  0  0  0  0  0  0  0  0
   -8.5567   -1.0286   -1.8578 H   0  0  0  0  0  0  0  0  0  0  0  0
   -7.0889    0.0487   -2.1735 H   0  0  0  0  0  0  0  0  0  0  0  0
   -9.3376    0.6925   -0.3915 H   0  0  0  0  0  0  0  0  0  0  0  0
   -8.4971    2.9973   -0.7558 H   0  0  0  0  0  0  0  0  0  0  0  0
   -7.0916    2.1817   -1.5709 H   0  0  0  0  0  0  0  0  0  0  0  0
   -8.1467    1.7485    1.2820 H   0  0  0  0  0  0  0  0  0  0  0  0
   -6.6473    2.5748    0.7462 H   0  0  0  0  0  0  0  0  0  0  0  0
  1  2  1  0
  2  3  1  0
  3  4  1  0
  4  5  1  0
  5  6  1  0
  5  7  1  0
  5  8  1  0
  8  9  1  0
  9 10  1  0
 10 11  1  0
 11 12  1  0
 12 13  1  0
 13 14  1  0
 14 15  1  0
 14 16  1  0
 11 17  1  0
 16 17  1  0
  9 18  1  0
 18 19  1  0
 18 20  1  0
 15 21  1  0
 21 22  1  0
 22 23  1  0
 23 24  1  0
 24 25  1  0
 25 26  1  0
 26 27  1  0
 27 28  1  0
 28 29  1  0
 25 30  1  0
 29 30  1  0
  1 31  1  0
  1 32  1  0
  1 33  1  0
  2 34  1  0
  2 35  1  0
  3 36  1  0
  3 37  1  0
  4 38  1  0
  4 39  1  0
  6 40  1  0
  7 41  1  0
  8 42  1  0
  9 43  1  6
 10 44  1  0
 10 45  1  0
 11 46  1  0
 12 47  1  0
 12 48  1  0
 13 49  1  0
 13 50  1  0
 14 51  1  0
 16 52  1  0
 16 53  1  0
 17 54  1  0
 17 55  1  0
 18 56  1  0
 19 57  1  0
 20 58  1  0
 21 59  1  0
 21 60  1  0
 22 61  1  0
 22 62  1  0
 23 63  1  0
 23 64  1  0
 24 65  1  0
 24 66  1  0
 25 67  1  0
 26 68  1  0
 26 69  1  0
 27 70  1  0
 27 71  1  0
 28 72  1  0
 29 73  1  0
 29 74  1  0
 30 75  1  0
 30 76  1  0
M  END
>  <PDBID>  (1) 
2VDM

>  <PDB ID>  (1) 
2VDM

>  <Generic Name>  (1) 
Tirofiban

>  <Brand Name>  (1) 
Aggrastat#Aggribloc#Agrastat

>  <DrugBank ID>  (1) 
DB00775

>  <ATC Codes>  (1) 
B01AC17

>  <Ligand ID>  (1) 
AGG

>  <Target Name>  (1) 
Integrin alpha-IIb

>  <UniProt ID>  (1) 
P08514

>  <PDB ID.1>  (1) 
2VDM

>  <Seq. Identity>  (1) 
100%

$$$$
