PDB_DB01764_04
     RDKit          3D

354360  0  0  0  0  0  0  0  0999 V2000
   -1.6249   -1.2542   -0.8086 O   0  0  0  0  0  0  0  0  0  0  0  0
   -0.9313   -0.1407   -1.2183 C   0  0  0  0  0  0  0  0  0  0  0  0
   -1.4210    1.0846   -0.6398 N   0  0  0  0  0  0  0  0  0  0  0  0
   -2.7734    1.3670   -0.9030 C   0  0  0  0  0  0  0  0  0  0  0  0
   -3.1897    2.3011    0.2020 C   0  0  0  0  0  0  0  0  0  0  0  0
   -2.3588    1.8211    1.3574 C   0  0  1  0  0  0  0  0  0  0  0  0
   -3.2461    0.7127    2.3157 S   0  0  0  0  0  0  0  0  0  0  0  0
   -3.6138   -0.5242    1.6959 O   0  0  0  0  0  0  0  0  0  0  0  0
   -1.8196    0.3455    3.5102 O   0  0  0  0  0  0  0  0  0  0  0  0
   -4.2644    1.5766    3.3446 C   0  0  0  0  0  0  0  0  0  0  0  0
   -5.0894    0.6952    4.2463 C   0  0  0  0  0  0  0  0  0  0  0  0
   -5.9159   -0.1877    3.4826 N   0  0  0  0  0  0  0  0  0  0  0  0
   -6.9389    0.5761    2.7977 C   0  0  0  0  0  0  0  0  0  0  0  0
   -7.8141   -0.3727    2.0058 C   0  0  0  0  0  0  0  0  0  0  0  0
   -6.5469   -1.2024    4.3070 C   0  0  0  0  0  0  0  0  0  0  0  0
   -5.5294   -2.1779    4.8583 C   0  0  0  0  0  0  0  0  0  0  0  0
   -1.1039    1.2220    0.7509 C   0  0  2  0  0  0  0  0  0  0  0  0
   -0.9677    0.0284   -2.7153 C   0  0  2  0  0  0  0  0  0  0  0  0
   -2.1583   -0.5943   -3.3625 C   0  0  0  0  0  0  0  0  0  0  0  0
   -1.7443   -0.6812   -4.6998 O   0  0  0  0  0  0  0  0  0  0  0  0
    0.1171   -0.6819   -3.3611 N   0  0  0  0  0  0  0  0  0  0  0  0
   -0.3936   -0.8581   -4.6987 C   0  0  0  0  0  0  0  0  0  0  0  0
    0.3505    0.1608   -5.5731 C   0  0  0  0  0  0  0  0  0  0  0  0
    1.7849   -0.2474   -5.7380 C   0  0  1  0  0  0  0  0  0  0  0  0
    2.1054   -0.2462   -7.1025 O   0  0  0  0  0  0  0  0  0  0  0  0
    2.7377    0.7377   -5.0571 C   0  0  0  0  0  0  0  0  0  0  0  0
    4.1522    0.2557   -5.1104 C   0  0  2  0  0  0  0  0  0  0  0  0
    4.2937   -0.8526   -5.9688 O   0  0  0  0  0  0  0  0  0  0  0  0
    4.7999    0.0565   -3.7917 C   0  0  0  0  0  0  0  0  0  0  0  0
    4.0921   -0.8882   -2.8556 C   0  0  2  0  0  0  0  0  0  0  0  0
    4.4991   -0.4740   -1.4489 C   0  0  0  0  0  0  0  0  0  0  0  0
    4.4616   -2.3113   -3.0590 C   0  0  0  0  0  0  0  0  0  0  0  0
    3.9867   -3.2768   -2.0183 C   0  0  0  0  0  0  0  0  0  0  0  0
    2.8159   -2.8571   -1.2049 C   0  0  0  0  0  0  0  0  0  0  0  0
    3.1323   -2.7160    0.2080 N   0  0  0  0  0  0  0  0  0  0  0  0
    2.0614   -3.0540    1.0879 C   0  0  2  0  0  0  0  0  0  0  0  0
    0.8238   -2.9119    0.4872 O   0  0  0  0  0  0  0  0  0  0  0  0
    2.0912   -2.2609    2.3980 C   0  0  0  0  0  0  0  0  0  0  0  0
    1.5531   -0.8919    2.2402 C   0  0  0  0  0  0  0  0  0  0  0  0
    2.3784    0.2182    2.8522 C   0  0  1  0  0  0  0  0  0  0  0  0
    3.8133    0.1746    2.4229 C   0  0  0  0  0  0  0  0  0  0  0  0
    1.7801    1.5772    2.5227 C   0  0  1  0  0  0  0  0  0  0  0  0
    2.8426    2.5932    2.7155 C   0  0  0  0  0  0  0  0  0  0  0  0
    2.3936    4.0134    2.4077 C   0  0  0  0  0  0  0  0  0  0  0  0
    3.2124    2.6255    4.2026 C   0  0  0  0  0  0  0  0  0  0  0  0
    1.2721    1.4687    1.2382 O   0  0  0  0  0  0  0  0  0  0  0  0
    0.0984    2.0932    0.9762 C   0  0  0  0  0  0  0  0  0  0  0  0
   -0.2787    3.0415    1.9242 O   0  0  0  0  0  0  0  0  0  0  0  0
   -1.6249   -1.2542   -0.8086 O   0  0  0  0  0  0  0  0  0  0  0  0
   -0.9313   -0.1407   -1.2183 C   0  0  0  0  0  0  0  0  0  0  0  0
   -1.4210    1.0846   -0.6398 N   0  0  0  0  0  0  0  0  0  0  0  0
   -2.7734    1.3670   -0.9030 C   0  0  0  0  0  0  0  0  0  0  0  0
   -3.1897    2.3011    0.2020 C   0  0  0  0  0  0  0  0  0  0  0  0
   -2.3588    1.8211    1.3574 C   0  0  1  0  0  0  0  0  0  0  0  0
   -3.2461    0.7127    2.3157 S   0  0  0  0  0  0  0  0  0  0  0  0
   -3.6138   -0.5242    1.6959 O   0  0  0  0  0  0  0  0  0  0  0  0
   -1.8196    0.3455    3.5102 O   0  0  0  0  0  0  0  0  0  0  0  0
   -4.2644    1.5766    3.3446 C   0  0  0  0  0  0  0  0  0  0  0  0
   -5.0894    0.6952    4.2463 C   0  0  0  0  0  0  0  0  0  0  0  0
   -5.9159   -0.1877    3.4826 N   0  0  0  0  0  0  0  0  0  0  0  0
   -6.9389    0.5761    2.7977 C   0  0  0  0  0  0  0  0  0  0  0  0
   -7.8141   -0.3727    2.0058 C   0  0  0  0  0  0  0  0  0  0  0  0
   -6.5469   -1.2024    4.3070 C   0  0  0  0  0  0  0  0  0  0  0  0
   -5.5294   -2.1779    4.8583 C   0  0  0  0  0  0  0  0  0  0  0  0
   -1.1039    1.2220    0.7509 C   0  0  2  0  0  0  0  0  0  0  0  0
   -0.9677    0.0284   -2.7153 C   0  0  2  0  0  0  0  0  0  0  0  0
   -2.1583   -0.5943   -3.3625 C   0  0  0  0  0  0  0  0  0  0  0  0
   -1.7443   -0.6812   -4.6998 O   0  0  0  0  0  0  0  0  0  0  0  0
    0.1171   -0.6819   -3.3611 N   0  0  0  0  0  0  0  0  0  0  0  0
   -0.3936   -0.8581   -4.6987 C   0  0  0  0  0  0  0  0  0  0  0  0
    0.3505    0.1608   -5.5731 C   0  0  0  0  0  0  0  0  0  0  0  0
    1.7849   -0.2474   -5.7380 C   0  0  1  0  0  0  0  0  0  0  0  0
    2.1054   -0.2462   -7.1025 O   0  0  0  0  0  0  0  0  0  0  0  0
    2.7377    0.7377   -5.0571 C   0  0  0  0  0  0  0  0  0  0  0  0
    4.1522    0.2557   -5.1104 C   0  0  2  0  0  0  0  0  0  0  0  0
    4.2937   -0.8526   -5.9688 O   0  0  0  0  0  0  0  0  0  0  0  0
    4.7999    0.0565   -3.7917 C   0  0  0  0  0  0  0  0  0  0  0  0
    4.0921   -0.8882   -2.8556 C   0  0  2  0  0  0  0  0  0  0  0  0
    4.4991   -0.4740   -1.4489 C   0  0  0  0  0  0  0  0  0  0  0  0
    4.4616   -2.3113   -3.0590 C   0  0  0  0  0  0  0  0  0  0  0  0
    3.9867   -3.2768   -2.0183 C   0  0  0  0  0  0  0  0  0  0  0  0
    2.8159   -2.8571   -1.2049 C   0  0  0  0  0  0  0  0  0  0  0  0
    3.1323   -2.7160    0.2080 N   0  0  0  0  0  0  0  0  0  0  0  0
    2.0614   -3.0540    1.0879 C   0  0  2  0  0  0  0  0  0  0  0  0
    0.8238   -2.9119    0.4872 O   0  0  0  0  0  0  0  0  0  0  0  0
    2.0912   -2.2609    2.3980 C   0  0  0  0  0  0  0  0  0  0  0  0
    1.5531   -0.8919    2.2402 C   0  0  0  0  0  0  0  0  0  0  0  0
    2.3784    0.2182    2.8522 C   0  0  1  0  0  0  0  0  0  0  0  0
    3.8133    0.1746    2.4229 C   0  0  0  0  0  0  0  0  0  0  0  0
    1.7801    1.5772    2.5227 C   0  0  1  0  0  0  0  0  0  0  0  0
    2.8426    2.5932    2.7155 C   0  0  0  0  0  0  0  0  0  0  0  0
    2.3936    4.0134    2.4077 C   0  0  0  0  0  0  0  0  0  0  0  0
    3.2124    2.6255    4.2026 C   0  0  0  0  0  0  0  0  0  0  0  0
    1.2721    1.4687    1.2382 O   0  0  0  0  0  0  0  0  0  0  0  0
    0.0984    2.0932    0.9762 C   0  0  0  0  0  0  0  0  0  0  0  0
   -0.2787    3.0415    1.9242 O   0  0  0  0  0  0  0  0  0  0  0  0
   -0.0779    1.3471    2.1558 O   0  0  0  0  0  0  0  0  0  0  0  0
   -0.2313    0.6941    0.9056 C   0  0  1  0  0  0  0  0  0  0  0  0
   -1.4870    1.0096    0.4054 N   0  0  0  0  0  0  0  0  0  0  0  0
   -2.3100    1.8180    1.2509 C   0  0  0  0  0  0  0  0  0  0  0  0
   -3.3506    0.8736    1.7507 C   0  0  0  0  0  0  0  0  0  0  0  0
   -3.5097   -0.1062    0.6103 C   0  0  1  0  0  0  0  0  0  0  0  0
   -4.9999    0.4785   -0.2641 S   0  0  0  0  0  0  0  0  0  0  0  0
   -4.8692    1.8308   -0.7344 O   0  0  0  0  0  0  0  0  0  0  0  0
   -5.1403   -0.6125   -1.5679 O   0  0  0  0  0  0  0  0  0  0  0  0
   -6.2565    0.0469    0.8050 C   0  0  0  0  0  0  0  0  0  0  0  0
   -7.6284    0.3096    0.4018 C   0  0  0  0  0  0  0  0  0  0  0  0
   -8.2359    1.4945    0.1238 N   0  0  0  0  0  0  0  0  0  0  0  0
   -8.0396    2.3062   -0.9908 C   0  0  0  0  0  0  0  0  0  0  0  0
   -8.5365    1.6038   -2.2586 C   0  0  0  0  0  0  0  0  0  0  0  0
   -9.0290    2.1057    1.1767 C   0  0  0  0  0  0  0  0  0  0  0  0
  -10.2830    1.3401    1.4947 C   0  0  0  0  0  0  0  0  0  0  0  0
   -2.3001    0.0741   -0.2586 C   0  0  2  0  0  0  0  0  0  0  0  0
    0.8406    1.3150    0.0190 C   0  0  2  0  0  0  0  0  0  0  0  0
    2.2243    0.8817    0.4064 C   0  0  0  0  0  0  0  0  0  0  0  0
    2.9422    2.0696    0.5773 O   0  0  0  0  0  0  0  0  0  0  0  0
    0.8504    2.7787    0.1351 N   0  0  0  0  0  0  0  0  0  0  0  0
    2.2640    3.0203   -0.1902 C   0  0  1  0  0  0  0  0  0  0  0  0
    2.5906    4.4226    0.1897 C   0  0  0  0  0  0  0  0  0  0  0  0
    4.0809    4.6460    0.3809 C   0  0  1  0  0  0  0  0  0  0  0  0
    4.4604    4.4803    1.7230 O   0  0  0  0  0  0  0  0  0  0  0  0
    4.8989    3.8190   -0.5619 C   0  0  0  0  0  0  0  0  0  0  0  0
    6.1030    3.2548    0.1915 C   0  0  2  0  0  0  0  0  0  0  0  0
    7.0736    4.2553    0.1722 O   0  0  0  0  0  0  0  0  0  0  0  0
    6.6406    2.0662   -0.5662 C   0  0  0  0  0  0  0  0  0  0  0  0
    7.0966    1.0433    0.4530 C   0  0  2  0  0  0  0  0  0  0  0  0
    8.3376    1.4864    1.1812 C   0  0  0  0  0  0  0  0  0  0  0  0
    7.3635   -0.3007   -0.2160 C   0  0  0  0  0  0  0  0  0  0  0  0
    6.0459   -1.0339   -0.3218 C   0  0  0  0  0  0  0  0  0  0  0  0
    5.8896   -2.0420    0.8156 C   0  0  0  0  0  0  0  0  0  0  0  0
    5.5426   -3.3372    0.2810 N   0  0  0  0  0  0  0  0  0  0  0  0
    4.1628   -3.6813    0.4988 C   0  0  2  0  0  0  0  0  0  0  0  0
    3.9595   -5.0323    0.3034 O   0  0  0  0  0  0  0  0  0  0  0  0
    3.2025   -2.8774   -0.3631 C   0  0  0  0  0  0  0  0  0  0  0  0
    1.8671   -3.6524   -0.3758 C   0  0  0  0  0  0  0  0  0  0  0  0
    0.7726   -2.7977   -0.9190 C   0  0  1  0  0  0  0  0  0  0  0  0
    0.8624   -2.8724   -2.4440 C   0  0  0  0  0  0  0  0  0  0  0  0
   -0.6187   -3.1670   -0.5115 C   0  0  1  0  0  0  0  0  0  0  0  0
   -0.6950   -4.3516    0.3975 C   0  0  0  0  0  0  0  0  0  0  0  0
   -0.1538   -5.6234   -0.1598 C   0  0  0  0  0  0  0  0  0  0  0  0
   -2.1805   -4.6088    0.7157 C   0  0  0  0  0  0  0  0  0  0  0  0
   -1.1919   -2.0578    0.1571 O   0  0  0  0  0  0  0  0  0  0  0  0
   -1.6843   -1.1591   -0.7788 C   0  0  0  0  0  0  0  0  0  0  0  0
   -2.6983   -1.8681   -1.4740 O   0  0  0  0  0  0  0  0  0  0  0  0
   -1.3112   -2.0673   -1.2758 H   0  0  0  0  0  0  0  0  0  0  0  0
    0.1347   -0.2768   -0.9277 H   0  0  0  0  0  0  0  0  0  0  0  0
   -3.4378    0.4848   -0.9814 H   0  0  0  0  0  0  0  0  0  0  0  0
   -2.8497    1.9837   -1.8488 H   0  0  0  0  0  0  0  0  0  0  0  0
   -4.2797    2.1960    0.3734 H   0  0  0  0  0  0  0  0  0  0  0  0
   -2.8979    3.3352   -0.0547 H   0  0  0  0  0  0  0  0  0  0  0  0
   -2.1566    2.7180    1.9827 H   0  0  0  0  0  0  0  0  0  0  0  0
   -3.3497   -1.4311    1.9577 H   0  0  0  0  0  0  0  0  0  0  0  0
   -1.7644    1.2563    3.9071 H   0  0  0  0  0  0  0  0  0  0  0  0
   -4.9449    2.2873    2.8446 H   0  0  0  0  0  0  0  0  0  0  0  0
   -3.6685    2.2311    4.0545 H   0  0  0  0  0  0  0  0  0  0  0  0
   -5.7409    1.3853    4.8581 H   0  0  0  0  0  0  0  0  0  0  0  0
   -4.4243    0.1710    4.9587 H   0  0  0  0  0  0  0  0  0  0  0  0
   -7.5255    1.1831    3.5135 H   0  0  0  0  0  0  0  0  0  0  0  0
   -6.4959    1.2742    2.0472 H   0  0  0  0  0  0  0  0  0  0  0  0
   -7.2331   -1.2442    1.6940 H   0  0  0  0  0  0  0  0  0  0  0  0
   -8.6489   -0.7093    2.6571 H   0  0  0  0  0  0  0  0  0  0  0  0
   -8.2098    0.1649    1.1122 H   0  0  0  0  0  0  0  0  0  0  0  0
   -7.0787   -0.7293    5.1635 H   0  0  0  0  0  0  0  0  0  0  0  0
   -7.2434   -1.7691    3.6597 H   0  0  0  0  0  0  0  0  0  0  0  0
   -5.2760   -1.9362    5.9195 H   0  0  0  0  0  0  0  0  0  0  0  0
   -4.6095   -2.2296    4.2421 H   0  0  0  0  0  0  0  0  0  0  0  0
   -5.9815   -3.1918    4.8528 H   0  0  0  0  0  0  0  0  0  0  0  0
   -1.0241    0.2067    1.1775 H   0  0  0  0  0  0  0  0  0  0  0  0
   -0.9604    1.1078   -3.0087 H   0  0  0  0  0  0  0  0  0  0  0  0
   -2.4352   -1.5759   -2.9421 H   0  0  0  0  0  0  0  0  0  0  0  0
   -3.0285    0.0985   -3.2945 H   0  0  0  0  0  0  0  0  0  0  0  0
    0.2172   -1.6090   -2.8892 H   0  0  0  0  0  0  0  0  0  0  0  0
   -0.1902   -1.8860   -5.0858 H   0  0  0  0  0  0  0  0  0  0  0  0
   -0.1966    0.1241   -6.5573 H   0  0  0  0  0  0  0  0  0  0  0  0
    0.2483    1.1733   -5.1794 H   0  0  0  0  0  0  0  0  0  0  0  0
    1.9646   -1.2767   -5.3827 H   0  0  0  0  0  0  0  0  0  0  0  0
    1.9928    0.6365   -7.5264 H   0  0  0  0  0  0  0  0  0  0  0  0
    2.5819    1.7088   -5.6052 H   0  0  0  0  0  0  0  0  0  0  0  0
    2.4569    0.9272   -4.0206 H   0  0  0  0  0  0  0  0  0  0  0  0
    4.7428    1.0765   -5.6187 H   0  0  0  0  0  0  0  0  0  0  0  0
    5.2252   -1.2003   -5.7877 H   0  0  0  0  0  0  0  0  0  0  0  0
    4.8491    1.0429   -3.2861 H   0  0  0  0  0  0  0  0  0  0  0  0
    5.8398   -0.2763   -3.9549 H   0  0  0  0  0  0  0  0  0  0  0  0
    3.0068   -0.7582   -2.9546 H   0  0  0  0  0  0  0  0  0  0  0  0
    5.1542    0.4506   -1.4577 H   0  0  0  0  0  0  0  0  0  0  0  0
    3.6329   -0.1819   -0.8405 H   0  0  0  0  0  0  0  0  0  0  0  0
    5.1612   -1.2406   -0.9832 H   0  0  0  0  0  0  0  0  0  0  0  0
    4.1411   -2.7184   -4.0444 H   0  0  0  0  0  0  0  0  0  0  0  0
    5.5920   -2.4048   -3.1045 H   0  0  0  0  0  0  0  0  0  0  0  0
    3.8151   -4.2923   -2.4688 H   0  0  0  0  0  0  0  0  0  0  0  0
    4.8429   -3.4408   -1.2944 H   0  0  0  0  0  0  0  0  0  0  0  0
    2.2491   -1.9919   -1.5623 H   0  0  0  0  0  0  0  0  0  0  0  0
    2.0637   -3.7066   -1.2281 H   0  0  0  0  0  0  0  0  0  0  0  0
    4.0445   -3.1574    0.4479 H   0  0  0  0  0  0  0  0  0  0  0  0
    2.1592   -4.1524    1.3335 H   0  0  0  0  0  0  0  0  0  0  0  0
    0.0737   -2.9222    1.1271 H   0  0  0  0  0  0  0  0  0  0  0  0
    3.0775   -2.3824    2.8291 H   0  0  0  0  0  0  0  0  0  0  0  0
    1.3978   -2.8149    3.1086 H   0  0  0  0  0  0  0  0  0  0  0  0
    1.4597   -0.6589    1.1587 H   0  0  0  0  0  0  0  0  0  0  0  0
    0.4979   -0.8249    2.6440 H   0  0  0  0  0  0  0  0  0  0  0  0
    2.3635    0.0016    3.9554 H   0  0  0  0  0  0  0  0  0  0  0  0
    3.8704    0.6038    1.4017 H   0  0  0  0  0  0  0  0  0  0  0  0
    4.2318   -0.8487    2.3191 H   0  0  0  0  0  0  0  0  0  0  0  0
    4.4693    0.8128    3.0645 H   0  0  0  0  0  0  0  0  0  0  0  0
    0.9663    1.8145    3.2569 H   0  0  0  0  0  0  0  0  0  0  0  0
    3.7725    2.4550    2.1605 H   0  0  0  0  0  0  0  0  0  0  0  0
    1.7096    4.4353    3.1548 H   0  0  0  0  0  0  0  0  0  0  0  0
    2.1289    4.1778    1.3555 H   0  0  0  0  0  0  0  0  0  0  0  0
    3.3377    4.6311    2.5421 H   0  0  0  0  0  0  0  0  0  0  0  0
    2.7198    3.5038    4.7223 H   0  0  0  0  0  0  0  0  0  0  0  0
    2.8324    1.7498    4.7569 H   0  0  0  0  0  0  0  0  0  0  0  0
    4.2964    2.8175    4.3539 H   0  0  0  0  0  0  0  0  0  0  0  0
    0.2445    2.6827    0.0184 H   0  0  0  0  0  0  0  0  0  0  0  0
   -0.5286    3.9141    1.5265 H   0  0  0  0  0  0  0  0  0  0  0  0
   -1.3112   -2.0673   -1.2758 H   0  0  0  0  0  0  0  0  0  0  0  0
    0.1347   -0.2768   -0.9277 H   0  0  0  0  0  0  0  0  0  0  0  0
   -3.4378    0.4848   -0.9814 H   0  0  0  0  0  0  0  0  0  0  0  0
   -2.8497    1.9837   -1.8488 H   0  0  0  0  0  0  0  0  0  0  0  0
   -4.2797    2.1960    0.3734 H   0  0  0  0  0  0  0  0  0  0  0  0
   -2.8979    3.3352   -0.0547 H   0  0  0  0  0  0  0  0  0  0  0  0
   -2.1566    2.7180    1.9827 H   0  0  0  0  0  0  0  0  0  0  0  0
   -3.3497   -1.4311    1.9577 H   0  0  0  0  0  0  0  0  0  0  0  0
   -1.7644    1.2563    3.9071 H   0  0  0  0  0  0  0  0  0  0  0  0
   -4.9449    2.2873    2.8446 H   0  0  0  0  0  0  0  0  0  0  0  0
   -3.6685    2.2311    4.0545 H   0  0  0  0  0  0  0  0  0  0  0  0
   -5.7409    1.3853    4.8581 H   0  0  0  0  0  0  0  0  0  0  0  0
   -4.4243    0.1710    4.9587 H   0  0  0  0  0  0  0  0  0  0  0  0
   -7.5255    1.1831    3.5135 H   0  0  0  0  0  0  0  0  0  0  0  0
   -6.4959    1.2742    2.0472 H   0  0  0  0  0  0  0  0  0  0  0  0
   -7.2331   -1.2442    1.6940 H   0  0  0  0  0  0  0  0  0  0  0  0
   -8.6489   -0.7093    2.6571 H   0  0  0  0  0  0  0  0  0  0  0  0
   -8.2098    0.1649    1.1122 H   0  0  0  0  0  0  0  0  0  0  0  0
   -7.0787   -0.7293    5.1635 H   0  0  0  0  0  0  0  0  0  0  0  0
   -7.2434   -1.7691    3.6597 H   0  0  0  0  0  0  0  0  0  0  0  0
   -5.2760   -1.9362    5.9195 H   0  0  0  0  0  0  0  0  0  0  0  0
   -4.6095   -2.2296    4.2421 H   0  0  0  0  0  0  0  0  0  0  0  0
   -5.9815   -3.1918    4.8528 H   0  0  0  0  0  0  0  0  0  0  0  0
   -1.0241    0.2067    1.1775 H   0  0  0  0  0  0  0  0  0  0  0  0
   -0.9604    1.1078   -3.0087 H   0  0  0  0  0  0  0  0  0  0  0  0
   -2.4352   -1.5759   -2.9421 H   0  0  0  0  0  0  0  0  0  0  0  0
   -3.0285    0.0985   -3.2945 H   0  0  0  0  0  0  0  0  0  0  0  0
    0.2172   -1.6090   -2.8892 H   0  0  0  0  0  0  0  0  0  0  0  0
   -0.1902   -1.8860   -5.0858 H   0  0  0  0  0  0  0  0  0  0  0  0
   -0.1966    0.1241   -6.5573 H   0  0  0  0  0  0  0  0  0  0  0  0
    0.2483    1.1733   -5.1794 H   0  0  0  0  0  0  0  0  0  0  0  0
    1.9646   -1.2767   -5.3827 H   0  0  0  0  0  0  0  0  0  0  0  0
    1.9928    0.6365   -7.5264 H   0  0  0  0  0  0  0  0  0  0  0  0
    2.5819    1.7088   -5.6052 H   0  0  0  0  0  0  0  0  0  0  0  0
    2.4569    0.9272   -4.0206 H   0  0  0  0  0  0  0  0  0  0  0  0
    4.7428    1.0765   -5.6187 H   0  0  0  0  0  0  0  0  0  0  0  0
    5.2252   -1.2003   -5.7877 H   0  0  0  0  0  0  0  0  0  0  0  0
    4.8491    1.0429   -3.2861 H   0  0  0  0  0  0  0  0  0  0  0  0
    5.8398   -0.2763   -3.9549 H   0  0  0  0  0  0  0  0  0  0  0  0
    3.0068   -0.7582   -2.9546 H   0  0  0  0  0  0  0  0  0  0  0  0
    5.1542    0.4506   -1.4577 H   0  0  0  0  0  0  0  0  0  0  0  0
    3.6329   -0.1819   -0.8405 H   0  0  0  0  0  0  0  0  0  0  0  0
    5.1612   -1.2406   -0.9832 H   0  0  0  0  0  0  0  0  0  0  0  0
    4.1411   -2.7184   -4.0444 H   0  0  0  0  0  0  0  0  0  0  0  0
    5.5920   -2.4048   -3.1045 H   0  0  0  0  0  0  0  0  0  0  0  0
    3.8151   -4.2923   -2.4688 H   0  0  0  0  0  0  0  0  0  0  0  0
    4.8429   -3.4408   -1.2944 H   0  0  0  0  0  0  0  0  0  0  0  0
    2.2491   -1.9919   -1.5623 H   0  0  0  0  0  0  0  0  0  0  0  0
    2.0637   -3.7066   -1.2281 H   0  0  0  0  0  0  0  0  0  0  0  0
    4.0445   -3.1574    0.4479 H   0  0  0  0  0  0  0  0  0  0  0  0
    2.1592   -4.1524    1.3335 H   0  0  0  0  0  0  0  0  0  0  0  0
    0.0737   -2.9222    1.1271 H   0  0  0  0  0  0  0  0  0  0  0  0
    3.0775   -2.3824    2.8291 H   0  0  0  0  0  0  0  0  0  0  0  0
    1.3978   -2.8149    3.1086 H   0  0  0  0  0  0  0  0  0  0  0  0
    1.4597   -0.6589    1.1587 H   0  0  0  0  0  0  0  0  0  0  0  0
    0.4979   -0.8249    2.6440 H   0  0  0  0  0  0  0  0  0  0  0  0
    2.3635    0.0016    3.9554 H   0  0  0  0  0  0  0  0  0  0  0  0
    3.8704    0.6038    1.4017 H   0  0  0  0  0  0  0  0  0  0  0  0
    4.2318   -0.8487    2.3191 H   0  0  0  0  0  0  0  0  0  0  0  0
    4.4693    0.8128    3.0645 H   0  0  0  0  0  0  0  0  0  0  0  0
    0.9663    1.8145    3.2569 H   0  0  0  0  0  0  0  0  0  0  0  0
    3.7725    2.4550    2.1605 H   0  0  0  0  0  0  0  0  0  0  0  0
    1.7096    4.4353    3.1548 H   0  0  0  0  0  0  0  0  0  0  0  0
    2.1289    4.1778    1.3555 H   0  0  0  0  0  0  0  0  0  0  0  0
    3.3377    4.6311    2.5421 H   0  0  0  0  0  0  0  0  0  0  0  0
    2.7198    3.5038    4.7223 H   0  0  0  0  0  0  0  0  0  0  0  0
    2.8324    1.7498    4.7569 H   0  0  0  0  0  0  0  0  0  0  0  0
    4.2964    2.8175    4.3539 H   0  0  0  0  0  0  0  0  0  0  0  0
    0.2445    2.6827    0.0184 H   0  0  0  0  0  0  0  0  0  0  0  0
   -0.5286    3.9141    1.5265 H   0  0  0  0  0  0  0  0  0  0  0  0
    0.7840    1.0993    2.5709 H   0  0  0  0  0  0  0  0  0  0  0  0
    0.0513   -0.3340    1.0820 H   0  0  0  0  0  0  0  0  0  0  0  0
   -2.6922    2.6585    0.6374 H   0  0  0  0  0  0  0  0  0  0  0  0
   -1.7535    2.2965    2.0837 H   0  0  0  0  0  0  0  0  0  0  0  0
   -4.2930    1.3689    2.0477 H   0  0  0  0  0  0  0  0  0  0  0  0
   -2.8978    0.3012    2.6029 H   0  0  0  0  0  0  0  0  0  0  0  0
   -3.6887   -1.1357    0.9349 H   0  0  0  0  0  0  0  0  0  0  0  0
   -4.9039    2.6992   -0.2661 H   0  0  0  0  0  0  0  0  0  0  0  0
   -5.9312   -1.1841   -1.4523 H   0  0  0  0  0  0  0  0  0  0  0  0
   -6.0365    0.3562    1.8778 H   0  0  0  0  0  0  0  0  0  0  0  0
   -6.1780   -1.0992    0.9225 H   0  0  0  0  0  0  0  0  0  0  0  0
   -8.3163   -0.2948    1.1308 H   0  0  0  0  0  0  0  0  0  0  0  0
   -7.7949   -0.3729   -0.5377 H   0  0  0  0  0  0  0  0  0  0  0  0
   -8.8019    3.1839   -0.8589 H   0  0  0  0  0  0  0  0  0  0  0  0
   -7.1160    2.8530   -1.1453 H   0  0  0  0  0  0  0  0  0  0  0  0
   -7.7211    0.9362   -2.6012 H   0  0  0  0  0  0  0  0  0  0  0  0
   -8.7885    2.3847   -2.9926 H   0  0  0  0  0  0  0  0  0  0  0  0
   -9.4003    0.9891   -1.9482 H   0  0  0  0  0  0  0  0  0  0  0  0
   -9.3397    3.0963    0.7804 H   0  0  0  0  0  0  0  0  0  0  0  0
   -8.4177    2.3376    2.0822 H   0  0  0  0  0  0  0  0  0  0  0  0
  -10.2305    0.2627    1.3789 H   0  0  0  0  0  0  0  0  0  0  0  0
  -10.6320    1.6713    2.4947 H   0  0  0  0  0  0  0  0  0  0  0  0
  -11.0735    1.6843    0.7668 H   0  0  0  0  0  0  0  0  0  0  0  0
   -2.6678    0.6195   -1.1887 H   0  0  0  0  0  0  0  0  0  0  0  0
    0.6872    1.1009   -1.0423 H   0  0  0  0  0  0  0  0  0  0  0  0
    2.7289    0.3693   -0.4569 H   0  0  0  0  0  0  0  0  0  0  0  0
    2.2753    0.1987    1.2584 H   0  0  0  0  0  0  0  0  0  0  0  0
    0.6422    3.0860    1.1112 H   0  0  0  0  0  0  0  0  0  0  0  0
    2.3557    2.8060   -1.2832 H   0  0  0  0  0  0  0  0  0  0  0  0
    2.2380    5.1032   -0.6159 H   0  0  0  0  0  0  0  0  0  0  0  0
    2.0173    4.6840    1.1097 H   0  0  0  0  0  0  0  0  0  0  0  0
    4.2589    5.7335    0.1337 H   0  0  0  0  0  0  0  0  0  0  0  0
    4.4442    5.3541    2.2021 H   0  0  0  0  0  0  0  0  0  0  0  0
    4.3776    2.9793   -1.0159 H   0  0  0  0  0  0  0  0  0  0  0  0
    5.2974    4.4409   -1.3957 H   0  0  0  0  0  0  0  0  0  0  0  0
    5.8433    2.9782    1.2188 H   0  0  0  0  0  0  0  0  0  0  0  0
    6.6752    5.1510   -0.0595 H   0  0  0  0  0  0  0  0  0  0  0  0
    7.4836    2.3583   -1.2239 H   0  0  0  0  0  0  0  0  0  0  0  0
    5.8401    1.5715   -1.1630 H   0  0  0  0  0  0  0  0  0  0  0  0
    6.3005    0.9239    1.2116 H   0  0  0  0  0  0  0  0  0  0  0  0
    9.0942    1.8723    0.4877 H   0  0  0  0  0  0  0  0  0  0  0  0
    8.0662    2.2377    1.9688 H   0  0  0  0  0  0  0  0  0  0  0  0
    8.7205    0.6146    1.7559 H   0  0  0  0  0  0  0  0  0  0  0  0
    7.8224   -0.1301   -1.2138 H   0  0  0  0  0  0  0  0  0  0  0  0
    8.1120   -0.8966    0.3747 H   0  0  0  0  0  0  0  0  0  0  0  0
    6.0450   -1.5930   -1.2982 H   0  0  0  0  0  0  0  0  0  0  0  0
    5.2374   -0.3033   -0.3322 H   0  0  0  0  0  0  0  0  0  0  0  0
    5.0545   -1.7159    1.4656 H   0  0  0  0  0  0  0  0  0  0  0  0
    6.8343   -2.1121    1.3741 H   0  0  0  0  0  0  0  0  0  0  0  0
    5.8896   -3.5260   -0.6633 H   0  0  0  0  0  0  0  0  0  0  0  0
    3.9625   -3.4862    1.5926 H   0  0  0  0  0  0  0  0  0  0  0  0
    4.1811   -5.3203   -0.6186 H   0  0  0  0  0  0  0  0  0  0  0  0
    3.6058   -2.8310   -1.3770 H   0  0  0  0  0  0  0  0  0  0  0  0
    3.0871   -1.9077    0.1534 H   0  0  0  0  0  0  0  0  0  0  0  0
    2.0969   -4.5605   -0.9636 H   0  0  0  0  0  0  0  0  0  0  0  0
    1.6748   -3.8485    0.6979 H   0  0  0  0  0  0  0  0  0  0  0  0
    0.9475   -1.7231   -0.6661 H   0  0  0  0  0  0  0  0  0  0  0  0
    0.0928   -3.5584   -2.8644 H   0  0  0  0  0  0  0  0  0  0  0  0
    1.8434   -3.2764   -2.7466 H   0  0  0  0  0  0  0  0  0  0  0  0
    0.8026   -1.8595   -2.8756 H   0  0  0  0  0  0  0  0  0  0  0  0
   -1.2475   -3.4237   -1.4046 H   0  0  0  0  0  0  0  0  0  0  0  0
   -0.1837   -4.1144    1.3768 H   0  0  0  0  0  0  0  0  0  0  0  0
   -0.0124   -5.5946   -1.2742 H   0  0  0  0  0  0  0  0  0  0  0  0
   -0.9021   -6.4659   -0.0314 H   0  0  0  0  0  0  0  0  0  0  0  0
    0.7478   -6.0064    0.3707 H   0  0  0  0  0  0  0  0  0  0  0  0
   -2.6780   -4.8531   -0.2440 H   0  0  0  0  0  0  0  0  0  0  0  0
   -2.2364   -5.5117    1.3635 H   0  0  0  0  0  0  0  0  0  0  0  0
   -2.6697   -3.7221    1.1336 H   0  0  0  0  0  0  0  0  0  0  0  0
   -0.9531   -0.8821   -1.5651 H   0  0  0  0  0  0  0  0  0  0  0  0
   -3.2259   -2.4081   -0.8219 H   0  0  0  0  0  0  0  0  0  0  0  0
  1  2  1  0
  2  3  1  0
  3  4  1  0
  4  5  1  0
  5  6  1  0
  6  7  1  0
  7  8  1  0
  7  9  1  0
  7 10  1  0
 10 11  1  0
 11 12  1  0
 12 13  1  0
 13 14  1  0
 12 15  1  0
 15 16  1  0
  3 17  1  0
  6 17  1  0
  2 18  1  0
 18 19  1  0
 19 20  1  0
 18 21  1  0
 20 22  1  0
 21 22  1  0
 22 23  1  0
 23 24  1  0
 24 25  1  0
 24 26  1  0
 26 27  1  0
 27 28  1  0
 27 29  1  0
 29 30  1  0
 30 31  1  0
 30 32  1  0
 32 33  1  0
 33 34  1  0
 34 35  1  0
 35 36  1  0
 36 37  1  0
 36 38  1  0
 38 39  1  0
 39 40  1  0
 40 41  1  0
 40 42  1  0
 42 43  1  0
 43 44  1  0
 43 45  1  0
 42 46  1  0
 17 47  1  0
 46 47  1  0
 47 48  1  0
 49 50  1  0
 50 51  1  0
 51 52  1  0
 52 53  1  0
 53 54  1  0
 54 55  1  0
 55 56  1  0
 55 57  1  0
 55 58  1  0
 58 59  1  0
 59 60  1  0
 60 61  1  0
 61 62  1  0
 60 63  1  0
 63 64  1  0
 51 65  1  0
 54 65  1  0
 50 66  1  0
 66 67  1  0
 67 68  1  0
 66 69  1  0
 68 70  1  0
 69 70  1  0
 70 71  1  0
 71 72  1  0
 72 73  1  0
 72 74  1  0
 74 75  1  0
 75 76  1  0
 75 77  1  0
 77 78  1  0
 78 79  1  0
 78 80  1  0
 80 81  1  0
 81 82  1  0
 82 83  1  0
 83 84  1  0
 84 85  1  0
 84 86  1  0
 86 87  1  0
 87 88  1  0
 88 89  1  0
 88 90  1  0
 90 91  1  0
 91 92  1  0
 91 93  1  0
 90 94  1  0
 65 95  1  0
 94 95  1  0
 95 96  1  0
 97 98  1  0
 98 99  1  0
 99100  1  0
100101  1  0
101102  1  0
102103  1  0
103104  1  0
103105  1  0
103106  1  0
106107  1  0
107108  1  0
108109  1  0
109110  1  0
108111  1  0
111112  1  0
 99113  1  0
102113  1  0
 98114  1  0
114115  1  0
115116  1  0
114117  1  0
116118  1  0
117118  1  0
118119  1  0
119120  1  0
120121  1  0
120122  1  0
122123  1  0
123124  1  0
123125  1  0
125126  1  0
126127  1  0
126128  1  0
128129  1  0
129130  1  0
130131  1  0
131132  1  0
132133  1  0
132134  1  0
134135  1  0
135136  1  0
136137  1  0
136138  1  0
138139  1  0
139140  1  0
139141  1  0
138142  1  0
113143  1  0
142143  1  0
143144  1  0
  1145  1  0
  2146  1  0
  4147  1  0
  4148  1  0
  5149  1  0
  5150  1  0
  6151  1  1
  8152  1  0
  9153  1  0
 10154  1  0
 10155  1  0
 11156  1  0
 11157  1  0
 13158  1  0
 13159  1  0
 14160  1  0
 14161  1  0
 14162  1  0
 15163  1  0
 15164  1  0
 16165  1  0
 16166  1  0
 16167  1  0
 17168  1  1
 18169  1  1
 19170  1  0
 19171  1  0
 21172  1  0
 22173  1  0
 23174  1  0
 23175  1  0
 24176  1  1
 25177  1  0
 26178  1  0
 26179  1  0
 27180  1  6
 28181  1  0
 29182  1  0
 29183  1  0
 30184  1  1
 31185  1  0
 31186  1  0
 31187  1  0
 32188  1  0
 32189  1  0
 33190  1  0
 33191  1  0
 34192  1  0
 34193  1  0
 35194  1  0
 36195  1  1
 37196  1  0
 38197  1  0
 38198  1  0
 39199  1  0
 39200  1  0
 40201  1  1
 41202  1  0
 41203  1  0
 41204  1  0
 42205  1  1
 43206  1  0
 44207  1  0
 44208  1  0
 44209  1  0
 45210  1  0
 45211  1  0
 45212  1  0
 47213  1  0
 48214  1  0
 49215  1  0
 50216  1  0
 52217  1  0
 52218  1  0
 53219  1  0
 53220  1  0
 54221  1  1
 56222  1  0
 57223  1  0
 58224  1  0
 58225  1  0
 59226  1  0
 59227  1  0
 61228  1  0
 61229  1  0
 62230  1  0
 62231  1  0
 62232  1  0
 63233  1  0
 63234  1  0
 64235  1  0
 64236  1  0
 64237  1  0
 65238  1  1
 66239  1  1
 67240  1  0
 67241  1  0
 69242  1  0
 70243  1  0
 71244  1  0
 71245  1  0
 72246  1  1
 73247  1  0
 74248  1  0
 74249  1  0
 75250  1  6
 76251  1  0
 77252  1  0
 77253  1  0
 78254  1  1
 79255  1  0
 79256  1  0
 79257  1  0
 80258  1  0
 80259  1  0
 81260  1  0
 81261  1  0
 82262  1  0
 82263  1  0
 83264  1  0
 84265  1  1
 85266  1  0
 86267  1  0
 86268  1  0
 87269  1  0
 87270  1  0
 88271  1  1
 89272  1  0
 89273  1  0
 89274  1  0
 90275  1  1
 91276  1  0
 92277  1  0
 92278  1  0
 92279  1  0
 93280  1  0
 93281  1  0
 93282  1  0
 95283  1  0
 96284  1  0
 97285  1  0
 98286  1  1
100287  1  0
100288  1  0
101289  1  0
101290  1  0
102291  1  1
104292  1  0
105293  1  0
106294  1  0
106295  1  0
107296  1  0
107297  1  0
109298  1  0
109299  1  0
110300  1  0
110301  1  0
110302  1  0
111303  1  0
111304  1  0
112305  1  0
112306  1  0
112307  1  0
113308  1  6
114309  1  6
115310  1  0
115311  1  0
117312  1  0
118313  1  6
119314  1  0
119315  1  0
120316  1  6
121317  1  0
122318  1  0
122319  1  0
123320  1  1
124321  1  0
125322  1  0
125323  1  0
126324  1  1
127325  1  0
127326  1  0
127327  1  0
128328  1  0
128329  1  0
129330  1  0
129331  1  0
130332  1  0
130333  1  0
131334  1  0
132335  1  1
133336  1  0
134337  1  0
134338  1  0
135339  1  0
135340  1  0
136341  1  6
137342  1  0
137343  1  0
137344  1  0
138345  1  6
139346  1  0
140347  1  0
140348  1  0
140349  1  0
141350  1  0
141351  1  0
141352  1  0
143353  1  0
144354  1  0
M  END
>  <PDBID>  (1) 
1MRL

>  <PDB ID>  (1) 
1MRL

>  <Generic Name>  (1) 
Dalfopristin

>  <Brand Name>  (1) 
Synercid

>  <DrugBank ID>  (1) 
DB01764

>  <ATC Codes>  (1) 
nan

>  <Ligand ID>  (1) 
DOL

>  <Target Name>  (1) 
Streptogramin A acetyltransferase

>  <UniProt ID>  (1) 
P50870

>  <PDB ID.1>  (1) 
1MRL

>  <Seq. Identity>  (1) 
100%

$$$$
