PDB_DB00540_06
     RDKit          3D

 55 57  0  0  0  0  0  0  0  0999 V2000
    5.5834   -0.0357   -0.1931 C   0  0  0  0  0  0  0  0  0  0  0  0
    4.2121    0.0716    0.3397 N   0  0  0  0  0  0  0  0  0  0  0  0
    3.5344   -1.1099   -0.0856 C   0  0  0  0  0  0  0  0  0  0  0  0
    2.1104   -1.2154    0.4206 C   0  0  0  0  0  0  0  0  0  0  0  0
    1.3777   -0.0562   -0.0915 C   0  0  0  0  0  0  0  0  0  0  0  0
   -0.1227    0.0145    0.3096 C   0  0  0  0  0  0  0  0  0  0  0  0
   -0.8392   -1.0853   -0.1284 C   0  0  0  0  0  0  0  0  0  0  0  0
   -0.8866   -2.1218    1.0334 C   0  0  0  0  0  0  0  0  0  0  0  0
   -0.8611   -3.5239    0.5893 C   0  0  0  0  0  0  0  0  0  0  0  0
   -1.6611   -3.7617   -0.6981 C   0  0  0  0  0  0  0  0  0  0  0  0
   -0.3205    1.5025    0.0745 C   0  0  0  0  0  0  0  0  0  0  0  0
    0.5560    2.4008    0.8143 C   0  0  0  0  0  0  0  0  0  0  0  0
   -0.1474    3.7403    1.1067 C   0  0  0  0  0  0  0  0  0  0  0  0
   -0.9936    4.1730   -0.0463 C   0  0  0  0  0  0  0  0  0  0  0  0
   -1.9724    3.1776   -0.5379 C   0  0  0  0  0  0  0  0  0  0  0  0
   -1.8004    1.9398    0.3577 C   0  0  0  0  0  0  0  0  0  0  0  0
   -2.5278    0.8049   -0.0162 C   0  0  0  0  0  0  0  0  0  0  0  0
   -3.2790   -0.3272   -0.3412 C   0  0  0  0  0  0  0  0  0  0  0  0
   -2.1570   -1.3412   -0.7748 C   0  0  0  0  0  0  0  0  0  0  0  0
   -2.7424   -2.6778   -0.6185 C   0  0  0  0  0  0  0  0  0  0  0  0
    5.5262   -0.0586   -1.2925 H   0  0  0  0  0  0  0  0  0  0  0  0
    5.9760   -0.9913    0.2276 H   0  0  0  0  0  0  0  0  0  0  0  0
    6.1995    0.8153    0.1312 H   0  0  0  0  0  0  0  0  0  0  0  0
    3.7711    0.9555   -0.0505 H   0  0  0  0  0  0  0  0  0  0  0  0
    4.1151   -2.0425    0.1423 H   0  0  0  0  0  0  0  0  0  0  0  0
    3.5386   -1.0807   -1.2168 H   0  0  0  0  0  0  0  0  0  0  0  0
    1.7864   -2.2056    0.0760 H   0  0  0  0  0  0  0  0  0  0  0  0
    2.2093   -1.1558    1.5452 H   0  0  0  0  0  0  0  0  0  0  0  0
    1.5052    0.1464   -1.1700 H   0  0  0  0  0  0  0  0  0  0  0  0
    1.8657    0.8216    0.4359 H   0  0  0  0  0  0  0  0  0  0  0  0
   -0.0288    0.0378    1.4477 H   0  0  0  0  0  0  0  0  0  0  0  0
   -0.1694   -1.6838   -0.8515 H   0  0  0  0  0  0  0  0  0  0  0  0
   -1.8038   -1.9515    1.6656 H   0  0  0  0  0  0  0  0  0  0  0  0
   -0.0413   -1.9476    1.7299 H   0  0  0  0  0  0  0  0  0  0  0  0
    0.1590   -3.8524    0.3602 H   0  0  0  0  0  0  0  0  0  0  0  0
   -1.3325   -4.1345    1.3960 H   0  0  0  0  0  0  0  0  0  0  0  0
   -1.0468   -3.6535   -1.5956 H   0  0  0  0  0  0  0  0  0  0  0  0
   -2.1885   -4.7352   -0.6187 H   0  0  0  0  0  0  0  0  0  0  0  0
   -0.1847    1.6335   -1.0399 H   0  0  0  0  0  0  0  0  0  0  0  0
    1.3913    2.7351    0.1223 H   0  0  0  0  0  0  0  0  0  0  0  0
    0.9698    2.0555    1.7729 H   0  0  0  0  0  0  0  0  0  0  0  0
    0.6521    4.5381    1.2082 H   0  0  0  0  0  0  0  0  0  0  0  0
   -0.6334    3.7496    2.0915 H   0  0  0  0  0  0  0  0  0  0  0  0
   -1.5069    5.0969    0.2348 H   0  0  0  0  0  0  0  0  0  0  0  0
   -0.2807    4.4390   -0.8827 H   0  0  0  0  0  0  0  0  0  0  0  0
   -1.7560    2.8490   -1.5752 H   0  0  0  0  0  0  0  0  0  0  0  0
   -3.0259    3.5211   -0.5251 H   0  0  0  0  0  0  0  0  0  0  0  0
   -1.8959    2.3454    1.3813 H   0  0  0  0  0  0  0  0  0  0  0  0
   -2.0190    0.2246    0.8236 H   0  0  0  0  0  0  0  0  0  0  0  0
   -2.0736    0.8429   -1.0597 H   0  0  0  0  0  0  0  0  0  0  0  0
   -3.9162   -0.8191    0.4482 H   0  0  0  0  0  0  0  0  0  0  0  0
   -4.0113   -0.2163   -1.1881 H   0  0  0  0  0  0  0  0  0  0  0  0
   -2.0780   -1.1200   -1.8837 H   0  0  0  0  0  0  0  0  0  0  0  0
   -3.2950   -2.8674    0.3191 H   0  0  0  0  0  0  0  0  0  0  0  0
   -3.4405   -2.8604   -1.4505 H   0  0  0  0  0  0  0  0  0  0  0  0
  1  2  1  0
  2  3  1  0
  3  4  1  0
  4  5  1  0
  5  6  1  0
  6  7  1  0
  7  8  1  0
  8  9  1  0
  9 10  1  0
  6 11  1  0
 11 12  1  0
 12 13  1  0
 13 14  1  0
 14 15  1  0
 11 16  1  0
 15 16  1  0
 16 17  1  0
 17 18  1  0
  7 19  1  0
 18 19  1  0
 10 20  1  0
 19 20  1  0
  1 21  1  0
  1 22  1  0
  1 23  1  0
  2 24  1  0
  3 25  1  0
  3 26  1  0
  4 27  1  0
  4 28  1  0
  5 29  1  0
  5 30  1  0
  6 31  1  0
  7 32  1  0
  8 33  1  0
  8 34  1  0
  9 35  1  0
  9 36  1  0
 10 37  1  0
 10 38  1  0
 11 39  1  0
 12 40  1  0
 12 41  1  0
 13 42  1  0
 13 43  1  0
 14 44  1  0
 14 45  1  0
 15 46  1  0
 15 47  1  0
 16 48  1  0
 17 49  1  0
 17 50  1  0
 18 51  1  0
 18 52  1  0
 19 53  1  0
 20 54  1  0
 20 55  1  0
M  END
>  <PDBID>  (1) 
4M48

>  <PDB ID>  (1) 
4M48

>  <Generic Name>  (1) 
Nortriptyline

>  <Brand Name>  (1) 
Apo-nortriptyline - Cap 10mg#Apo-nortriptyline - Cap 25mg#Ava-nortriptyline#Aventyl#Dom-nortriptyline 10mg Capsules#Dom-nortriptyline 25mg Capsules#Gen-nortriptyline Capsules 10mg#Gen-nortriptyline Capsules 25mg#Nortriptyline#Nortriptyline Hydrochloride#Nortriptyline-10#Nortriptyline-25#Norventyl#Nu-nortriptyline - Cap 10mg#Nu-nortriptyline - Cap 25mg#PMS-nortriptyline#Pamelor#Ratio-nortriptyline#Teva-nortriptyline#Allegron#Noritren#Norpress#Nortrilen#Sensoval

>  <DrugBank ID>  (1) 
DB00540

>  <ATC Codes>  (1) 
N06AA10

>  <Ligand ID>  (1) 
21B

>  <Target Name>  (1) 
Sodium-dependent noradrenaline transporter

>  <UniProt ID>  (1) 
P23975

>  <PDB ID.1>  (1) 
4M48

>  <Seq. Identity>  (1) 
57%

$$$$
