PDB_DB08881_02
     RDKit          3D

 75 78  0  0  0  0  0  0  0  0999 V2000
    7.8701    0.3147   -1.3574 C   0  0  0  0  0  0  0  0  0  0  0  0
    0.9518   -1.3664    0.7007 C   0  0  0  0  0  0  0  0  0  0  0  0
   -0.0377    0.6029   -0.5213 C   0  0  0  0  0  0  0  0  0  0  0  0
   -2.3447   -0.1064    0.2102 C   0  0  0  0  0  0  0  0  0  0  0  0
   -3.7059    0.3641   -0.1342 C   0  0  0  0  0  0  0  0  0  0  0  0
   -3.7532    1.1699   -1.3935 C   0  0  0  0  0  0  0  0  0  0  0  0
   -1.6997    0.0315   -2.2474 C   0  0  0  0  0  0  0  0  0  0  0  0
    4.2243    0.1326    0.7007 C   0  0  0  0  0  0  0  0  0  0  0  0
    4.2517    0.8498    2.0262 C   0  0  0  0  0  0  0  0  0  0  0  0
    3.4111    0.0692    2.9200 N   0  0  0  0  0  0  0  0  0  0  0  0
    2.9370    0.5126    0.0100 C   0  0  0  0  0  0  0  0  0  0  0  0
    2.0180   -1.4721    1.7086 N   0  0  0  0  0  0  0  0  0  0  0  0
    0.5516    0.0696    0.7065 C   0  0  0  0  0  0  0  0  0  0  0  0
    1.8916    0.7254    1.0799 C   0  0  0  0  0  0  0  0  0  0  0  0
    2.1719   -0.1769    2.2929 C   0  0  0  0  0  0  0  0  0  0  0  0
    5.4515    0.3948   -0.0871 C   0  0  0  0  0  0  0  0  0  0  0  0
   -1.3180   -0.1895   -0.8378 C   0  0  0  0  0  0  0  0  0  0  0  0
   -3.1514    0.3363   -2.4822 C   0  0  0  0  0  0  0  0  0  0  0  0
   -1.3302   -0.9994   -3.0919 F   0  0  0  0  0  0  0  0  0  0  0  0
   -2.5210   -1.3182    0.9060 F   0  0  0  0  0  0  0  0  0  0  0  0
   -4.6523   -0.7402   -0.1647 N   0  0  0  0  0  0  0  0  0  0  0  0
   -6.2241   -0.1634   -0.4858 S   0  0  0  0  0  0  0  0  0  0  0  0
   -6.4155    1.2675    0.0328 O   0  0  0  0  0  0  0  0  0  0  0  0
   -6.3832   -0.3215   -2.1287 O   0  0  0  0  0  0  0  0  0  0  0  0
   -7.3449   -1.2284    0.2468 C   0  0  0  0  0  0  0  0  0  0  0  0
   -8.7453   -0.7248   -0.0326 C   0  0  0  0  0  0  0  0  0  0  0  0
   -8.8946    0.6736    0.5499 C   0  0  0  0  0  0  0  0  0  0  0  0
    5.4309   -0.2725   -1.4514 C   0  0  0  0  0  0  0  0  0  0  0  0
    6.8382   -0.6640   -1.8813 C   0  0  0  0  0  0  0  0  0  0  0  0
    7.8806    0.3663    0.1644 C   0  0  0  0  0  0  0  0  0  0  0  0
    6.6234   -0.2797    0.6442 C   0  0  0  0  0  0  0  0  0  0  0  0
    9.4650   -0.2401   -1.8807 Cl  0  0  0  0  0  0  0  0  0  0  0  0
    0.7573    0.5141   -1.6314 O   0  0  0  0  0  0  0  0  0  0  0  0
    7.6165    1.3098   -1.7562 H   0  0  0  0  0  0  0  0  0  0  0  0
    0.0785   -1.9839    0.9901 H   0  0  0  0  0  0  0  0  0  0  0  0
    1.2890   -1.7491   -0.2793 H   0  0  0  0  0  0  0  0  0  0  0  0
   -0.2781    1.6751   -0.3662 H   0  0  0  0  0  0  0  0  0  0  0  0
   -1.9778    0.5870    1.0323 H   0  0  0  0  0  0  0  0  0  0  0  0
   -4.1178    1.0510    0.6702 H   0  0  0  0  0  0  0  0  0  0  0  0
   -3.2057    2.1173   -1.2167 H   0  0  0  0  0  0  0  0  0  0  0  0
   -4.8153    1.3476   -1.6640 H   0  0  0  0  0  0  0  0  0  0  0  0
   -1.1388    0.9324   -2.6385 H   0  0  0  0  0  0  0  0  0  0  0  0
    4.2070   -0.9745    0.9228 H   0  0  0  0  0  0  0  0  0  0  0  0
    5.2365    1.0782    2.4215 H   0  0  0  0  0  0  0  0  0  0  0  0
    3.7045    1.8345    1.8959 H   0  0  0  0  0  0  0  0  0  0  0  0
    3.3448    0.5968    3.8316 H   0  0  0  0  0  0  0  0  0  0  0  0
    2.7003   -0.3312   -0.6689 H   0  0  0  0  0  0  0  0  0  0  0  0
    3.1237    1.4092   -0.6021 H   0  0  0  0  0  0  0  0  0  0  0  0
    1.6844   -2.1361    2.4418 H   0  0  0  0  0  0  0  0  0  0  0  0
   -0.0752    0.2357    1.5993 H   0  0  0  0  0  0  0  0  0  0  0  0
    1.7441    1.7696    1.3630 H   0  0  0  0  0  0  0  0  0  0  0  0
    1.3476    0.0727    3.0179 H   0  0  0  0  0  0  0  0  0  0  0  0
    5.7093    1.4671   -0.1546 H   0  0  0  0  0  0  0  0  0  0  0  0
   -0.9232   -1.2588   -0.8003 H   0  0  0  0  0  0  0  0  0  0  0  0
   -3.7040   -0.6246   -2.5243 H   0  0  0  0  0  0  0  0  0  0  0  0
   -3.3267    0.8501   -3.4495 H   0  0  0  0  0  0  0  0  0  0  0  0
   -4.3657   -1.5058   -0.8095 H   0  0  0  0  0  0  0  0  0  0  0  0
   -6.0617    1.5886    0.8896 H   0  0  0  0  0  0  0  0  0  0  0  0
   -6.6847   -1.2525   -2.3079 H   0  0  0  0  0  0  0  0  0  0  0  0
   -7.1730   -1.2422    1.3490 H   0  0  0  0  0  0  0  0  0  0  0  0
   -7.2641   -2.2847   -0.0886 H   0  0  0  0  0  0  0  0  0  0  0  0
   -9.4746   -1.4090    0.4086 H   0  0  0  0  0  0  0  0  0  0  0  0
   -8.8360   -0.6808   -1.1547 H   0  0  0  0  0  0  0  0  0  0  0  0
   -8.2658    0.8214    1.4499 H   0  0  0  0  0  0  0  0  0  0  0  0
   -8.7309    1.4560   -0.2261 H   0  0  0  0  0  0  0  0  0  0  0  0
   -9.9586    0.8300    0.8884 H   0  0  0  0  0  0  0  0  0  0  0  0
    4.7972   -1.1568   -1.4795 H   0  0  0  0  0  0  0  0  0  0  0  0
    5.0743    0.4820   -2.1808 H   0  0  0  0  0  0  0  0  0  0  0  0
    6.8739   -0.5922   -2.9869 H   0  0  0  0  0  0  0  0  0  0  0  0
    7.0770   -1.7139   -1.6315 H   0  0  0  0  0  0  0  0  0  0  0  0
    7.9238    1.4050    0.5433 H   0  0  0  0  0  0  0  0  0  0  0  0
    8.7464   -0.1730    0.5922 H   0  0  0  0  0  0  0  0  0  0  0  0
    6.5224   -0.2836    1.7216 H   0  0  0  0  0  0  0  0  0  0  0  0
    6.6659   -1.3664    0.3353 H   0  0  0  0  0  0  0  0  0  0  0  0
    0.7065   -0.3296   -2.1190 H   0  0  0  0  0  0  0  0  0  0  0  0
  4  5  1  0
  5  6  1  0
  8  9  1  0
  9 10  1  0
  8 11  1  0
  2 12  1  0
  2 13  1  0
  3 13  1  0
 11 14  1  0
 13 14  1  0
 10 15  1  0
 12 15  1  0
 14 15  1  0
  8 16  1  0
  3 17  1  0
  4 17  1  0
  7 17  1  0
  6 18  1  0
  7 18  1  0
  7 19  1  0
  4 20  1  0
  5 21  1  0
 21 22  1  0
 22 23  1  0
 22 24  1  0
 22 25  1  0
 25 26  1  0
 26 27  1  0
 16 28  1  0
  1 29  1  0
 28 29  1  0
  1 30  1  0
 16 31  1  0
 30 31  1  0
  1 32  1  0
  3 33  1  0
  1 34  1  0
  2 35  1  0
  2 36  1  0
  3 37  1  0
  4 38  1  0
  5 39  1  0
  6 40  1  0
  6 41  1  0
  7 42  1  0
  8 43  1  0
  9 44  1  0
  9 45  1  0
 10 46  1  0
 11 47  1  0
 11 48  1  0
 12 49  1  0
 13 50  1  0
 14 51  1  0
 15 52  1  0
 16 53  1  0
 17 54  1  0
 18 55  1  0
 18 56  1  0
 21 57  1  0
 23 58  1  0
 24 59  1  0
 25 60  1  0
 25 61  1  0
 26 62  1  0
 26 63  1  0
 27 64  1  0
 27 65  1  0
 27 66  1  0
 28 67  1  0
 28 68  1  0
 29 69  1  0
 29 70  1  0
 30 71  1  0
 30 72  1  0
 31 73  1  0
 31 74  1  0
 33 75  1  0
M  END
>  <PDBID>  (1) 
3OG7

>  <PDB ID>  (1) 
3OG7

>  <Generic Name>  (1) 
Vemurafenib

>  <Brand Name>  (1) 
Zelboraf

>  <DrugBank ID>  (1) 
DB08881

>  <ATC Codes>  (1) 
L01XE15

>  <Ligand ID>  (1) 
32

>  <Target Name>  (1) 
Serine/threonine-protein kinase B-raf

>  <UniProt ID>  (1) 
P15056

>  <PDB ID.1>  (1) 
3OG7

>  <Seq. Identity>  (1) 
94%

$$$$
