PDB_DB00323_01
     RDKit          3D

 47 48  0  0  0  0  0  0  0  0999 V2000
    0.4169    0.2800    1.8754 O   0  0  0  0  0  0  0  0  0  0  0  0
    0.3291   -0.7370    0.9504 C   0  0  1  0  0  0  0  0  0  0  0  0
   -1.0432   -1.0098    0.4088 C   0  0  1  0  0  0  0  0  0  0  0  0
   -1.9490   -1.3911    1.5416 C   0  0  0  0  0  0  0  0  0  0  0  0
   -3.3825   -1.1328    1.4132 C   0  0  0  0  0  0  0  0  0  0  0  0
   -4.1351   -2.2779    1.0773 O   0  0  0  0  0  0  0  0  0  0  0  0
   -1.5703    0.0521   -0.4826 C   0  0  0  0  0  0  0  0  0  0  0  0
   -3.0348   -0.2858   -0.8288 C   0  0  0  0  0  0  0  0  0  0  0  0
   -3.4505    0.7364   -1.7797 N   0  0  0  0  0  0  0  0  0  0  0  0
   -2.6583    0.6900   -2.8818 O   0  0  0  0  0  0  0  0  0  0  0  0
   -3.2064    1.9354   -1.1604 O   0  0  0  0  0  0  0  0  0  0  0  0
   -3.7822   -0.0534    0.4489 C   0  0  0  0  0  0  0  0  0  0  0  0
   -5.1474   -0.0595    0.2825 O   0  0  0  0  0  0  0  0  0  0  0  0
    1.4332   -0.6655   -0.0759 C   0  0  0  0  0  0  0  0  0  0  0  0
    1.4698    0.5778   -0.8392 C   0  0  0  0  0  0  0  0  0  0  0  0
    2.7398    1.3693   -0.8271 C   0  0  0  0  0  0  0  0  0  0  0  0
    3.9784    0.6122   -0.4880 C   0  0  0  0  0  0  0  0  0  0  0  0
    5.0999    1.5969   -0.2833 C   0  0  0  0  0  0  0  0  0  0  0  0
    3.7151   -0.0653    0.8426 C   0  0  0  0  0  0  0  0  0  0  0  0
    2.6969   -1.1188    0.5880 C   0  0  0  0  0  0  0  0  0  0  0  0
   -1.5326   -0.8937    2.4686 H   0  0  0  0  0  0  0  0  0  0  0  0
   -3.6570   -2.8538    0.4506 H   0  0  0  0  0  0  0  0  0  0  0  0
   -1.6475    1.0580   -0.0291 H   0  0  0  0  0  0  0  0  0  0  0  0
   -5.4725    0.8693    0.4016 H   0  0  0  0  0  0  0  0  0  0  0  0
    0.6773    1.2781   -0.4619 H   0  0  0  0  0  0  0  0  0  0  0  0
    2.6783    2.2235   -0.0883 H   0  0  0  0  0  0  0  0  0  0  0  0
    5.1663    1.9745    0.7562 H   0  0  0  0  0  0  0  0  0  0  0  0
    4.9721    2.5135   -0.9291 H   0  0  0  0  0  0  0  0  0  0  0  0
    6.0776    1.1206   -0.5118 H   0  0  0  0  0  0  0  0  0  0  0  0
    4.6591   -0.5692    1.1335 H   0  0  0  0  0  0  0  0  0  0  0  0
    2.4885   -1.6189    1.5810 H   0  0  0  0  0  0  0  0  0  0  0  0
    0.2184    1.1663    1.5385 H   0  0  0  0  0  0  0  0  0  0  0  0
    0.5863   -1.6681    1.5902 H   0  0  0  0  0  0  0  0  0  0  0  0
   -0.9266   -1.9277   -0.2431 H   0  0  0  0  0  0  0  0  0  0  0  0
   -1.7936   -2.4858    1.7496 H   0  0  0  0  0  0  0  0  0  0  0  0
   -3.7897   -0.8200    2.4191 H   0  0  0  0  0  0  0  0  0  0  0  0
   -1.0620    0.0241   -1.4656 H   0  0  0  0  0  0  0  0  0  0  0  0
   -3.1216   -1.2967   -1.2330 H   0  0  0  0  0  0  0  0  0  0  0  0
   -2.4075   -0.2391   -3.0640 H   0  0  0  0  0  0  0  0  0  0  0  0
   -3.3690    2.6966   -1.7508 H   0  0  0  0  0  0  0  0  0  0  0  0
   -3.4264    0.9263    0.8643 H   0  0  0  0  0  0  0  0  0  0  0  0
    1.1766   -1.5029   -0.8025 H   0  0  0  0  0  0  0  0  0  0  0  0
    1.2205    0.4291   -1.9210 H   0  0  0  0  0  0  0  0  0  0  0  0
    2.9276    1.8871   -1.8070 H   0  0  0  0  0  0  0  0  0  0  0  0
    4.2141   -0.1212   -1.2778 H   0  0  0  0  0  0  0  0  0  0  0  0
    3.4058    0.7077    1.5556 H   0  0  0  0  0  0  0  0  0  0  0  0
    3.2183   -1.9308    0.0001 H   0  0  0  0  0  0  0  0  0  0  0  0
  1  2  1  0
  2  3  1  0
  3  4  1  0
  4  5  1  0
  5  6  1  0
  3  7  1  0
  7  8  1  0
  8  9  1  0
  9 10  1  0
  9 11  1  0
  5 12  1  0
  8 12  1  0
 12 13  1  0
  2 14  1  0
 14 15  1  0
 15 16  1  0
 16 17  1  0
 17 18  1  0
 17 19  1  0
 14 20  1  0
 19 20  1  0
  4 21  1  0
  6 22  1  0
  7 23  1  0
 24 13  1  0
 15 25  1  0
 16 26  1  0
 18 27  1  0
 18 28  1  0
 18 29  1  0
 19 30  1  0
 20 31  1  0
  1 32  1  0
  2 33  1  1
  3 34  1  6
  4 35  1  0
  5 36  1  0
  7 37  1  0
  8 38  1  0
 10 39  1  0
 11 40  1  0
 12 41  1  0
 14 42  1  0
 15 43  1  0
 16 44  1  0
 17 45  1  0
 19 46  1  0
 20 47  1  0
M  END
>  <PDBID>  (1) 
3S68

>  <PDB ID>  (1) 
3S68

>  <Generic Name>  (1) 
Tolcapone

>  <Brand Name>  (1) 
Tasmar#Tolcapone#Sen De Ning

>  <DrugBank ID>  (1) 
DB00323

>  <ATC Codes>  (1) 
N04BX01

>  <Ligand ID>  (1) 
TCW

>  <Target Name>  (1) 
Catechol O-methyltransferase

>  <UniProt ID>  (1) 
P21964

>  <PDB ID.1>  (1) 
3S68

>  <Seq. Identity>  (1) 
81%

$$$$
