PDB_DB09073_04
     RDKit          3D

 80 84  0  0  0  0  0  0  0  0999 V2000
   -5.5555    3.3722    0.6741 O   0  0  0  0  0  0  0  0  0  0  0  0
   -5.3312    2.3103   -0.1850 C   0  0  0  0  0  0  0  0  0  0  0  0
   -6.6052    1.8042   -0.7553 C   0  0  0  0  0  0  0  0  0  0  0  0
   -4.4304    1.2808    0.4181 C   0  0  0  0  0  0  0  0  0  0  0  0
   -3.0367    1.7498    0.6750 C   0  0  2  0  0  0  0  0  0  0  0  0
   -2.9281    3.1085    1.2487 C   0  0  0  0  0  0  0  0  0  0  0  0
   -2.2628    1.5894   -0.6253 C   0  0  1  0  0  0  0  0  0  0  0  0
   -0.8689    2.1402   -0.5379 C   0  0  0  0  0  0  0  0  0  0  0  0
   -0.0523    1.4409    0.3998 N   0  0  0  0  0  0  0  0  0  0  0  0
   -0.1528   -0.0074    0.2095 C   0  0  0  0  0  0  0  0  0  0  0  0
   -0.8588   -0.4260   -0.9294 N   0  0  0  0  0  0  0  0  0  0  0  0
   -2.2057    0.1250   -1.0001 C   0  0  1  0  0  0  0  0  0  0  0  0
   -3.1299   -0.6051   -0.2194 N   0  0  0  0  0  0  0  0  0  0  0  0
   -3.0627   -2.0079   -0.2120 C   0  0  0  0  0  0  0  0  0  0  0  0
   -3.3543   -2.6472    1.1254 C   0  0  0  0  0  0  0  0  0  0  0  0
   -4.1514   -3.8950    0.7846 C   0  0  0  0  0  0  0  0  0  0  0  0
   -3.9418   -4.1190   -0.7042 C   0  0  0  0  0  0  0  0  0  0  0  0
   -3.9041   -2.6980   -1.2432 C   0  0  0  0  0  0  0  0  0  0  0  0
   -4.4513   -0.0428   -0.3070 C   0  0  0  0  0  0  0  0  0  0  0  0
   -5.4159   -0.8252    0.3248 O   0  0  0  0  0  0  0  0  0  0  0  0
    1.1471   -0.5613    0.3551 N   0  0  0  0  0  0  0  0  0  0  0  0
    2.1968    0.2120   -0.2106 C   0  0  0  0  0  0  0  0  0  0  0  0
    2.9757    0.9115    0.7783 N   0  0  0  0  0  0  0  0  0  0  0  0
    3.9995    0.1515    1.3772 C   0  0  0  0  0  0  0  0  0  0  0  0
    4.7264   -0.7710    0.4426 C   0  0  1  0  0  0  0  0  0  0  0  0
    3.8212   -1.5572   -0.4673 C   0  0  0  0  0  0  0  0  0  0  0  0
    2.9653   -0.5352   -1.2334 C   0  0  0  0  0  0  0  0  0  0  0  0
    5.7214   -0.1043   -0.3524 N   0  0  0  0  0  0  0  0  0  0  0  0
    6.7365   -1.0980   -0.6679 C   0  0  0  0  0  0  0  0  0  0  0  0
    8.0642   -0.7109   -0.0562 C   0  0  0  0  0  0  0  0  0  0  0  0
    8.4784    0.5196   -0.6873 N   0  0  0  0  0  0  0  0  0  0  0  0
    7.4555    1.5256   -0.5695 C   0  0  0  0  0  0  0  0  0  0  0  0
    6.2826    1.0627    0.2862 C   0  0  0  0  0  0  0  0  0  0  0  0
   -7.1318    1.1396   -0.0648 H   0  0  0  0  0  0  0  0  0  0  0  0
   -7.2660    2.6720   -0.9646 H   0  0  0  0  0  0  0  0  0  0  0  0
   -6.4546    1.3130   -1.7567 H   0  0  0  0  0  0  0  0  0  0  0  0
   -3.3657    3.9253    0.6564 H   0  0  0  0  0  0  0  0  0  0  0  0
   -1.8337    3.3282    1.3907 H   0  0  0  0  0  0  0  0  0  0  0  0
   -3.3376    3.0856    2.2855 H   0  0  0  0  0  0  0  0  0  0  0  0
   -0.8313    3.2158   -0.3901 H   0  0  0  0  0  0  0  0  0  0  0  0
   -1.9922   -2.2950   -0.4373 H   0  0  0  0  0  0  0  0  0  0  0  0
   -3.9492   -1.9496    1.7595 H   0  0  0  0  0  0  0  0  0  0  0  0
   -2.4388   -2.8877    1.6988 H   0  0  0  0  0  0  0  0  0  0  0  0
   -3.7278   -4.7351    1.3634 H   0  0  0  0  0  0  0  0  0  0  0  0
   -5.2045   -3.6958    1.0027 H   0  0  0  0  0  0  0  0  0  0  0  0
   -4.7826   -4.6937   -1.1288 H   0  0  0  0  0  0  0  0  0  0  0  0
   -2.9642   -4.6059   -0.8234 H   0  0  0  0  0  0  0  0  0  0  0  0
   -3.4299   -2.6903   -2.2477 H   0  0  0  0  0  0  0  0  0  0  0  0
   -4.9320   -2.3645   -1.3314 H   0  0  0  0  0  0  0  0  0  0  0  0
    1.3434   -1.1873    1.1149 H   0  0  0  0  0  0  0  0  0  0  0  0
    4.7320    0.8451    1.8293 H   0  0  0  0  0  0  0  0  0  0  0  0
    3.1231   -2.1888    0.1237 H   0  0  0  0  0  0  0  0  0  0  0  0
    2.3110   -1.0093   -1.9564 H   0  0  0  0  0  0  0  0  0  0  0  0
    6.8593   -1.2102   -1.7617 H   0  0  0  0  0  0  0  0  0  0  0  0
    6.4863   -2.1044   -0.2747 H   0  0  0  0  0  0  0  0  0  0  0  0
    7.9863   -0.6392    1.0450 H   0  0  0  0  0  0  0  0  0  0  0  0
    8.7800   -1.5212   -0.2693 H   0  0  0  0  0  0  0  0  0  0  0  0
    9.4220    0.8355   -0.4226 H   0  0  0  0  0  0  0  0  0  0  0  0
    7.9397    2.4235   -0.1177 H   0  0  0  0  0  0  0  0  0  0  0  0
    7.1193    1.8112   -1.5762 H   0  0  0  0  0  0  0  0  0  0  0  0
    5.5268    1.8810    0.2276 H   0  0  0  0  0  0  0  0  0  0  0  0
    6.6778    0.8983    1.2926 H   0  0  0  0  0  0  0  0  0  0  0  0
   -5.6583    3.0715    1.6175 H   0  0  0  0  0  0  0  0  0  0  0  0
   -4.7503    2.8213   -1.0580 H   0  0  0  0  0  0  0  0  0  0  0  0
   -4.8628    1.1141    1.4710 H   0  0  0  0  0  0  0  0  0  0  0  0
   -2.5893    1.0392    1.4131 H   0  0  0  0  0  0  0  0  0  0  0  0
   -2.8170    2.1517   -1.3871 H   0  0  0  0  0  0  0  0  0  0  0  0
   -0.4250    1.9647   -1.5651 H   0  0  0  0  0  0  0  0  0  0  0  0
   -0.1481    1.6769    1.3895 H   0  0  0  0  0  0  0  0  0  0  0  0
   -0.7394   -0.4236    1.1159 H   0  0  0  0  0  0  0  0  0  0  0  0
   -0.3759   -0.4711   -1.8278 H   0  0  0  0  0  0  0  0  0  0  0  0
   -2.5195    0.0250   -2.0808 H   0  0  0  0  0  0  0  0  0  0  0  0
   -4.6867    0.1323   -1.3714 H   0  0  0  0  0  0  0  0  0  0  0  0
   -5.7222   -0.4291    1.1868 H   0  0  0  0  0  0  0  0  0  0  0  0
    1.6724    1.0496   -0.7828 H   0  0  0  0  0  0  0  0  0  0  0  0
    3.0707    1.9124    0.6773 H   0  0  0  0  0  0  0  0  0  0  0  0
    3.6170   -0.4700    2.2343 H   0  0  0  0  0  0  0  0  0  0  0  0
    5.2709   -1.5170    1.0935 H   0  0  0  0  0  0  0  0  0  0  0  0
    4.4611   -2.1199   -1.1552 H   0  0  0  0  0  0  0  0  0  0  0  0
    3.6665    0.1832   -1.7331 H   0  0  0  0  0  0  0  0  0  0  0  0
  1  2  1  0
  2  3  1  0
  2  4  1  0
  4  5  1  0
  5  6  1  0
  5  7  1  0
  7  8  1  0
  8  9  1  0
  9 10  1  0
 10 11  1  0
  7 12  1  0
 11 12  1  0
 12 13  1  0
 13 14  1  0
 14 15  1  0
 15 16  1  0
 16 17  1  0
 14 18  1  0
 17 18  1  0
  4 19  1  0
 13 19  1  0
 19 20  1  0
 10 21  1  0
 21 22  1  0
 22 23  1  0
 23 24  1  0
 24 25  1  0
 25 26  1  0
 22 27  1  0
 26 27  1  0
 25 28  1  0
 28 29  1  0
 29 30  1  0
 30 31  1  0
 31 32  1  0
 28 33  1  0
 32 33  1  0
  3 34  1  0
  3 35  1  0
  3 36  1  0
  6 37  1  0
  6 38  1  0
  6 39  1  0
  8 40  1  0
 14 41  1  0
 15 42  1  0
 15 43  1  0
 16 44  1  0
 16 45  1  0
 17 46  1  0
 17 47  1  0
 18 48  1  0
 18 49  1  0
 21 50  1  0
 24 51  1  0
 26 52  1  0
 27 53  1  0
 29 54  1  0
 29 55  1  0
 30 56  1  0
 30 57  1  0
 31 58  1  0
 32 59  1  0
 32 60  1  0
 33 61  1  0
 33 62  1  0
  1 63  1  0
  2 64  1  0
  4 65  1  0
  5 66  1  1
  7 67  1  6
  8 68  1  0
  9 69  1  0
 10 70  1  0
 11 71  1  0
 12 72  1  6
 19 73  1  0
 20 74  1  0
 22 75  1  0
 23 76  1  0
 24 77  1  0
 25 78  1  1
 26 79  1  0
 27 80  1  0
M  END
>  <PDBID>  (1) 
5L2I

>  <PDB ID>  (1) 
5L2I

>  <Generic Name>  (1) 
Palbociclib

>  <Brand Name>  (1) 
Ibrance

>  <DrugBank ID>  (1) 
DB09073

>  <ATC Codes>  (1) 
L01XE33

>  <Ligand ID>  (1) 
LQQ

>  <Target Name>  (1) 
Cyclin-dependent kinase 6

>  <UniProt ID>  (1) 
Q00534

>  <PDB ID.1>  (1) 
5L2I

>  <Seq. Identity>  (1) 
100%

$$$$
