PDB_DB00559_02
     RDKit          3D

 94 97  0  0  0  0  0  0  0  0999 V2000
    4.4823   -0.7721    0.7308 C   0  0  0  0  0  0  0  0  0  0  0  0
   -0.3123   -0.5665   -0.5559 C   0  0  0  0  0  0  0  0  0  0  0  0
   -2.4965   -1.0903    0.2800 C   0  0  0  0  0  0  0  0  0  0  0  0
   -2.1705   -3.4211   -2.0101 C   0  0  0  0  0  0  0  0  0  0  0  0
   -3.6789   -5.8147   -1.7487 C   0  0  0  0  0  0  0  0  0  0  0  0
   -3.4636   -1.6905    2.2072 C   0  0  0  0  0  0  0  0  0  0  0  0
    7.6083    1.4194    0.7859 C   0  0  0  0  0  0  0  0  0  0  0  0
    6.8030    0.1539    1.0488 C   0  0  0  0  0  0  0  0  0  0  0  0
    7.4757   -0.9862    0.3382 C   0  0  0  0  0  0  0  0  0  0  0  0
    6.8421   -0.1225    2.5414 C   0  0  0  0  0  0  0  0  0  0  0  0
    5.4215    0.4085    0.5476 C   0  0  0  0  0  0  0  0  0  0  0  0
    4.7536    1.5811    1.2619 C   0  0  0  0  0  0  0  0  0  0  0  0
    3.6600    2.0842    0.3521 C   0  0  0  0  0  0  0  0  0  0  0  0
    3.0002    0.9243   -0.3564 C   0  0  0  0  0  0  0  0  0  0  0  0
    3.0622   -0.3710    0.3906 C   0  0  0  0  0  0  0  0  0  0  0  0
    1.3960    1.3334   -0.7445 S   0  0  0  0  0  0  0  0  0  0  0  0
    1.4781    2.7889   -1.5827 O   0  0  0  0  0  0  0  0  0  0  0  0
    0.7097    1.8143    0.8015 O   0  0  0  0  0  0  0  0  0  0  0  0
    0.5097    0.2795   -1.3720 N   0  0  0  0  0  0  0  0  0  0  0  0
   -1.4628    0.0830    0.1339 C   0  0  0  0  0  0  0  0  0  0  0  0
   -2.9350   -1.2879   -1.0888 N   0  0  0  0  0  0  0  0  0  0  0  0
   -1.8770   -1.9427   -1.8147 C   0  0  0  0  0  0  0  0  0  0  0  0
   -0.6015   -1.8317   -1.1833 N   0  0  0  0  0  0  0  0  0  0  0  0
   -3.3793   -3.6227   -2.7900 N   0  0  0  0  0  0  0  0  0  0  0  0
   -3.4932   -5.0442   -3.0523 C   0  0  0  0  0  0  0  0  0  0  0  0
   -3.5892   -4.8002   -0.6082 C   0  0  0  0  0  0  0  0  0  0  0  0
   -2.3640   -4.1056   -0.7608 N   0  0  0  0  0  0  0  0  0  0  0  0
   -3.4995   -0.7704    1.1482 O   0  0  0  0  0  0  0  0  0  0  0  0
   -4.5491   -1.4213    3.2183 C   0  0  0  0  0  0  0  0  0  0  0  0
   -4.3722   -0.1521    3.7268 O   0  0  0  0  0  0  0  0  0  0  0  0
   -2.1671    0.9941   -0.6578 O   0  0  0  0  0  0  0  0  0  0  0  0
   -2.5942    2.1200    0.0393 C   0  0  0  0  0  0  0  0  0  0  0  0
   -4.1069    2.0823    0.0506 C   0  0  0  0  0  0  0  0  0  0  0  0
   -4.7701    3.2733   -0.5474 C   0  0  0  0  0  0  0  0  0  0  0  0
   -4.1899    3.5712   -1.9073 C   0  0  0  0  0  0  0  0  0  0  0  0
   -2.7048    3.7078   -1.8915 C   0  0  0  0  0  0  0  0  0  0  0  0
   -2.1034    3.4195   -0.5337 C   0  0  0  0  0  0  0  0  0  0  0  0
   -2.2896    4.4884    0.3273 O   0  0  0  0  0  0  0  0  0  0  0  0
   -1.1701    5.1352    0.7547 C   0  0  0  0  0  0  0  0  0  0  0  0
    4.5194   -1.0472    1.7976 H   0  0  0  0  0  0  0  0  0  0  0  0
    4.8355   -1.6434    0.1427 H   0  0  0  0  0  0  0  0  0  0  0  0
    0.3793   -0.8730    0.3072 H   0  0  0  0  0  0  0  0  0  0  0  0
   -1.8973   -1.9753    0.5705 H   0  0  0  0  0  0  0  0  0  0  0  0
   -1.3526   -3.9344   -2.5502 H   0  0  0  0  0  0  0  0  0  0  0  0
   -4.6778   -6.2984   -1.7978 H   0  0  0  0  0  0  0  0  0  0  0  0
   -2.8632   -6.5376   -1.5933 H   0  0  0  0  0  0  0  0  0  0  0  0
   -3.5308   -2.6985    1.7484 H   0  0  0  0  0  0  0  0  0  0  0  0
   -2.4724   -1.6569    2.7254 H   0  0  0  0  0  0  0  0  0  0  0  0
    7.2010    1.9281   -0.1329 H   0  0  0  0  0  0  0  0  0  0  0  0
    8.6481    1.1194    0.5174 H   0  0  0  0  0  0  0  0  0  0  0  0
    7.5760    2.1076    1.6515 H   0  0  0  0  0  0  0  0  0  0  0  0
    7.2936   -1.0219   -0.7477 H   0  0  0  0  0  0  0  0  0  0  0  0
    7.2029   -1.9716    0.7940 H   0  0  0  0  0  0  0  0  0  0  0  0
    8.5881   -0.8724    0.4521 H   0  0  0  0  0  0  0  0  0  0  0  0
    6.8755   -1.1860    2.7767 H   0  0  0  0  0  0  0  0  0  0  0  0
    7.7737    0.3315    2.9511 H   0  0  0  0  0  0  0  0  0  0  0  0
    5.9779    0.3328    3.0423 H   0  0  0  0  0  0  0  0  0  0  0  0
    5.4270    0.6497   -0.5312 H   0  0  0  0  0  0  0  0  0  0  0  0
    5.4938    2.3908    1.4752 H   0  0  0  0  0  0  0  0  0  0  0  0
    4.3498    1.2625    2.2515 H   0  0  0  0  0  0  0  0  0  0  0  0
    2.9373    2.6940    0.9266 H   0  0  0  0  0  0  0  0  0  0  0  0
    4.1885    2.7372   -0.4045 H   0  0  0  0  0  0  0  0  0  0  0  0
    3.5701    0.7857   -1.3222 H   0  0  0  0  0  0  0  0  0  0  0  0
    2.6660   -1.1571   -0.2981 H   0  0  0  0  0  0  0  0  0  0  0  0
    2.4808   -0.3637    1.3287 H   0  0  0  0  0  0  0  0  0  0  0  0
    1.4315    3.5211   -0.9203 H   0  0  0  0  0  0  0  0  0  0  0  0
    1.1302    1.2558    1.4949 H   0  0  0  0  0  0  0  0  0  0  0  0
    0.3687    0.1131   -2.3990 H   0  0  0  0  0  0  0  0  0  0  0  0
   -1.2704    0.4615    1.1517 H   0  0  0  0  0  0  0  0  0  0  0  0
   -3.8716   -1.6615   -1.1950 H   0  0  0  0  0  0  0  0  0  0  0  0
   -1.8192   -1.4766   -2.8136 H   0  0  0  0  0  0  0  0  0  0  0  0
    0.1447   -2.1813   -1.7867 H   0  0  0  0  0  0  0  0  0  0  0  0
   -4.2395   -3.2976   -2.3430 H   0  0  0  0  0  0  0  0  0  0  0  0
   -2.5828   -5.4108   -3.6037 H   0  0  0  0  0  0  0  0  0  0  0  0
   -4.3686   -5.1867   -3.7282 H   0  0  0  0  0  0  0  0  0  0  0  0
   -4.4810   -4.1795   -0.5192 H   0  0  0  0  0  0  0  0  0  0  0  0
   -3.5074   -5.4008    0.3352 H   0  0  0  0  0  0  0  0  0  0  0  0
   -1.5327   -4.4700   -0.3030 H   0  0  0  0  0  0  0  0  0  0  0  0
   -5.5267   -1.5877    2.7185 H   0  0  0  0  0  0  0  0  0  0  0  0
   -4.3848   -2.1580    4.0610 H   0  0  0  0  0  0  0  0  0  0  0  0
   -4.4705   -0.1558    4.7227 H   0  0  0  0  0  0  0  0  0  0  0  0
   -2.2538    1.9761    1.0914 H   0  0  0  0  0  0  0  0  0  0  0  0
   -4.4716    1.1885   -0.5058 H   0  0  0  0  0  0  0  0  0  0  0  0
   -4.4861    1.9703    1.1093 H   0  0  0  0  0  0  0  0  0  0  0  0
   -5.8561    3.0404   -0.6033 H   0  0  0  0  0  0  0  0  0  0  0  0
   -4.5842    4.1583    0.0951 H   0  0  0  0  0  0  0  0  0  0  0  0
   -4.4342    2.6778   -2.5554 H   0  0  0  0  0  0  0  0  0  0  0  0
   -4.6609    4.4319   -2.4044 H   0  0  0  0  0  0  0  0  0  0  0  0
   -2.4581    4.7873   -2.1160 H   0  0  0  0  0  0  0  0  0  0  0  0
   -2.2027    3.1243   -2.6774 H   0  0  0  0  0  0  0  0  0  0  0  0
   -1.0117    3.3332   -0.6868 H   0  0  0  0  0  0  0  0  0  0  0  0
   -0.4351    4.5199    1.3089 H   0  0  0  0  0  0  0  0  0  0  0  0
   -0.6951    5.7800   -0.0260 H   0  0  0  0  0  0  0  0  0  0  0  0
   -1.5223    5.8765    1.5374 H   0  0  0  0  0  0  0  0  0  0  0  0
  8  7  1  0
  8  9  1  0
  8 10  1  0
  1 11  1  0
  8 11  1  0
 11 12  1  0
 12 13  1  0
 13 14  1  0
  1 15  1  0
 14 15  1  0
 14 16  1  0
 16 17  1  0
 16 18  1  0
  2 19  1  0
 16 19  1  0
  2 20  1  0
  3 20  1  0
  3 21  1  0
  4 22  1  0
 21 22  1  0
  2 23  1  0
 22 23  1  0
  4 24  1  0
  5 25  1  0
 24 25  1  0
  5 26  1  0
  4 27  1  0
 26 27  1  0
  3 28  1  0
  6 28  1  0
  6 29  1  0
 29 30  1  0
 20 31  1  0
 31 32  1  0
 32 33  1  0
 33 34  1  0
 34 35  1  0
 35 36  1  0
 32 37  1  0
 36 37  1  0
 37 38  1  0
 38 39  1  0
  1 40  1  0
  1 41  1  0
  2 42  1  0
  3 43  1  0
  4 44  1  0
  5 45  1  0
  5 46  1  0
  6 47  1  0
  6 48  1  0
  7 49  1  0
  7 50  1  0
  7 51  1  0
  9 52  1  0
  9 53  1  0
  9 54  1  0
 10 55  1  0
 10 56  1  0
 10 57  1  0
 11 58  1  0
 12 59  1  0
 12 60  1  0
 13 61  1  0
 13 62  1  0
 14 63  1  0
 15 64  1  0
 15 65  1  0
 17 66  1  0
 18 67  1  0
 19 68  1  0
 20 69  1  0
 21 70  1  0
 22 71  1  0
 23 72  1  0
 24 73  1  0
 25 74  1  0
 25 75  1  0
 26 76  1  0
 26 77  1  0
 27 78  1  0
 29 79  1  0
 29 80  1  0
 30 81  1  0
 32 82  1  0
 33 83  1  0
 33 84  1  0
 34 85  1  0
 34 86  1  0
 35 87  1  0
 35 88  1  0
 36 89  1  0
 36 90  1  0
 37 91  1  0
 39 92  1  0
 39 93  1  0
 39 94  1  0
M  END
>  <PDBID>  (1) 
5XPR

>  <PDB ID>  (1) 
5XPR

>  <Generic Name>  (1) 
Bosentan

>  <Brand Name>  (1) 
Accel-bosentan#Act Bosentan#Apo-bosentan#Bosentan Tablets#Ipg-bosentan#Mar-bosentan#Mylan-bosentan#PMS-bosentan#Sandoz Bosentan#Teva-bosentan#Tracleer

>  <DrugBank ID>  (1) 
DB00559

>  <ATC Codes>  (1) 
C02KX01

>  <Ligand ID>  (1) 
K86

>  <Target Name>  (1) 
Endothelin B receptor

>  <UniProt ID>  (1) 
P24530

>  <PDB ID.1>  (1) 
5XPR

>  <Seq. Identity>  (1) 
85%

$$$$
