PDB_DB00722_09
     RDKit          3D

 72 73  0  0  0  0  0  0  0  0999 V2000
    0.7585   -2.5551    1.8985 O   0  0  0  0  0  0  0  0  0  0  0  0
    1.0764   -1.1690    3.6310 O   0  0  0  0  0  0  0  0  0  0  0  0
    1.4757   -1.4389    2.3307 C   0  0  0  0  0  0  0  0  0  0  0  0
    1.0950   -0.2940    1.3737 C   0  0  2  0  0  0  0  0  0  0  0  0
    1.8808    0.9230    1.6267 C   0  0  0  0  0  0  0  0  0  0  0  0
    3.3351    0.9304    1.5333 C   0  0  0  0  0  0  0  0  0  0  0  0
    4.0719    0.6551    0.2880 C   0  0  0  0  0  0  0  0  0  0  0  0
    3.9451   -0.6198   -0.4113 C   0  0  0  0  0  0  0  0  0  0  0  0
    4.9669   -0.6818   -1.5609 C   0  0  0  0  0  0  0  0  0  0  0  0
    6.3742   -0.4997   -1.1330 C   0  0  0  0  0  0  0  0  0  0  0  0
    6.4855    0.8564   -0.4533 C   0  0  0  0  0  0  0  0  0  0  0  0
    5.5575    0.8383    0.7013 C   0  0  0  0  0  0  0  0  0  0  0  0
   -0.3149   -0.1750    1.5437 N   0  0  0  0  0  0  0  0  0  0  0  0
   -3.6536    2.4516   -3.4129 N   0  0  0  0  0  0  0  0  0  0  0  0
   -2.5106    0.5509    1.0388 C   0  0  0  0  0  0  0  0  0  0  0  0
   -1.0572    0.7058    0.7439 C   0  0  2  0  0  0  0  0  0  0  0  0
   -2.6928    0.8570    2.4431 O   0  0  0  0  0  0  0  0  0  0  0  0
   -0.7656    0.7635   -0.6894 C   0  0  0  0  0  0  0  0  0  0  0  0
   -1.6785    1.7556   -1.3736 C   0  0  0  0  0  0  0  0  0  0  0  0
   -1.3423    1.8369   -2.8729 C   0  0  0  0  0  0  0  0  0  0  0  0
   -2.2618    2.8354   -3.5475 C   0  0  0  0  0  0  0  0  0  0  0  0
   -5.0481   -1.5421   -2.0818 O   0  0  0  0  0  0  0  0  0  0  0  0
   -5.8384   -1.1457   -0.0370 O   0  0  0  0  0  0  0  0  0  0  0  0
   -3.1840   -0.6212    0.8338 N   0  0  0  0  0  0  0  0  0  0  0  0
   -3.4458   -1.3056   -0.3036 C   0  0  1  0  0  0  0  0  0  0  0  0
   -3.7132   -2.7511    0.1534 C   0  0  0  0  0  0  0  0  0  0  0  0
   -3.4815   -2.7349    1.6484 C   0  0  0  0  0  0  0  0  0  0  0  0
   -3.7298   -1.2844    1.9863 C   0  0  0  0  0  0  0  0  0  0  0  0
   -4.7857   -0.8344   -0.9015 C   0  0  0  0  0  0  0  0  0  0  0  0
    1.0153   -3.3517    2.4547 H   0  0  0  0  0  0  0  0  0  0  0  0
    0.3271   -0.5632    3.7130 H   0  0  0  0  0  0  0  0  0  0  0  0
    2.5323   -1.6924    2.2741 H   0  0  0  0  0  0  0  0  0  0  0  0
    1.2602   -0.6716    0.3656 H   0  0  0  0  0  0  0  0  0  0  0  0
    1.5278    1.8034    0.9908 H   0  0  0  0  0  0  0  0  0  0  0  0
    1.5516    1.2905    2.6615 H   0  0  0  0  0  0  0  0  0  0  0  0
    3.8299    0.3759    2.4172 H   0  0  0  0  0  0  0  0  0  0  0  0
    3.6583    1.9994    1.8162 H   0  0  0  0  0  0  0  0  0  0  0  0
    3.9037    1.4783   -0.4794 H   0  0  0  0  0  0  0  0  0  0  0  0
    4.0967   -1.5132    0.2163 H   0  0  0  0  0  0  0  0  0  0  0  0
    2.9901   -0.7711   -0.9715 H   0  0  0  0  0  0  0  0  0  0  0  0
    4.8677   -1.6915   -2.0443 H   0  0  0  0  0  0  0  0  0  0  0  0
    4.6878    0.0960   -2.2963 H   0  0  0  0  0  0  0  0  0  0  0  0
    6.7262   -1.2512   -0.4252 H   0  0  0  0  0  0  0  0  0  0  0  0
    7.0050   -0.4706   -2.0203 H   0  0  0  0  0  0  0  0  0  0  0  0
    7.5145    0.9180   -0.0470 H   0  0  0  0  0  0  0  0  0  0  0  0
    6.3495    1.6862   -1.1622 H   0  0  0  0  0  0  0  0  0  0  0  0
    5.5635    1.7917    1.2906 H   0  0  0  0  0  0  0  0  0  0  0  0
    5.8003    0.0021    1.3570 H   0  0  0  0  0  0  0  0  0  0  0  0
   -0.8352   -0.9794    1.8716 H   0  0  0  0  0  0  0  0  0  0  0  0
   -4.0308    2.6236   -2.4530 H   0  0  0  0  0  0  0  0  0  0  0  0
   -4.2546    2.7546   -4.1823 H   0  0  0  0  0  0  0  0  0  0  0  0
   -3.1107    1.4041    0.5866 H   0  0  0  0  0  0  0  0  0  0  0  0
   -0.8058    1.7591    1.1397 H   0  0  0  0  0  0  0  0  0  0  0  0
   -2.3109    1.7676    2.5230 H   0  0  0  0  0  0  0  0  0  0  0  0
   -0.8117   -0.1767   -1.2669 H   0  0  0  0  0  0  0  0  0  0  0  0
    0.2710    1.1493   -0.9241 H   0  0  0  0  0  0  0  0  0  0  0  0
   -1.5829    2.7903   -0.9955 H   0  0  0  0  0  0  0  0  0  0  0  0
   -2.7578    1.4650   -1.3286 H   0  0  0  0  0  0  0  0  0  0  0  0
   -1.5121    0.8430   -3.3261 H   0  0  0  0  0  0  0  0  0  0  0  0
   -0.3128    2.1746   -3.0189 H   0  0  0  0  0  0  0  0  0  0  0  0
   -2.0204    2.9038   -4.6043 H   0  0  0  0  0  0  0  0  0  0  0  0
   -2.1583    3.8230   -3.0300 H   0  0  0  0  0  0  0  0  0  0  0  0
   -4.3186   -2.1759   -2.2094 H   0  0  0  0  0  0  0  0  0  0  0  0
   -6.3802   -1.8998   -0.3378 H   0  0  0  0  0  0  0  0  0  0  0  0
   -2.7723   -1.3615   -1.1556 H   0  0  0  0  0  0  0  0  0  0  0  0
   -4.7248   -3.0872   -0.0614 H   0  0  0  0  0  0  0  0  0  0  0  0
   -2.9397   -3.4228   -0.2717 H   0  0  0  0  0  0  0  0  0  0  0  0
   -2.4107   -2.9384    1.9090 H   0  0  0  0  0  0  0  0  0  0  0  0
   -4.1635   -3.4300    2.1855 H   0  0  0  0  0  0  0  0  0  0  0  0
   -4.8078   -1.0462    2.0375 H   0  0  0  0  0  0  0  0  0  0  0  0
   -3.1707   -0.9558    2.8822 H   0  0  0  0  0  0  0  0  0  0  0  0
   -4.8054    0.2435   -1.0762 H   0  0  0  0  0  0  0  0  0  0  0  0
  1  3  1  0
  3  2  1  0
  3  4  1  0
  4  5  1  0
  5  6  1  0
  6  7  1  0
  7  8  1  0
  8  9  1  0
  9 10  1  0
 10 11  1  0
  7 12  1  0
 11 12  1  0
  4 13  1  0
 13 16  1  0
 15 16  1  0
 15 17  1  0
 16 18  1  0
 18 19  1  0
 19 20  1  0
 14 21  1  0
 20 21  1  0
 15 24  1  0
 24 25  1  0
 25 26  1  0
 26 27  1  0
 24 28  1  0
 27 28  1  0
 22 29  1  0
 23 29  1  0
 25 29  1  0
  1 30  1  0
  2 31  1  0
  3 32  1  0
  4 33  1  6
  5 34  1  0
  5 35  1  0
  6 36  1  0
  6 37  1  0
  7 38  1  0
  8 39  1  0
  8 40  1  0
  9 41  1  0
  9 42  1  0
 10 43  1  0
 10 44  1  0
 11 45  1  0
 11 46  1  0
 12 47  1  0
 12 48  1  0
 13 49  1  0
 14 50  1  0
 14 51  1  0
 15 52  1  0
 16 53  1  1
 17 54  1  0
 18 55  1  0
 18 56  1  0
 19 57  1  0
 19 58  1  0
 20 59  1  0
 20 60  1  0
 21 61  1  0
 21 62  1  0
 22 63  1  0
 23 64  1  0
 25 65  1  6
 26 66  1  0
 26 67  1  0
 27 68  1  0
 27 69  1  0
 28 70  1  0
 28 71  1  0
 29 72  1  0
M  END
>  <PDBID>  (1) 
1O86

>  <PDB ID>  (1) 
1O86

>  <Generic Name>  (1) 
Lisinopril

>  <Brand Name>  (1) 
Act Lisinopril#Apo-lisinopril Tablet (type P) - 10mg#Apo-lisinopril Tablet (type P) - 20mg#Apo-lisinopril Tablet (type P) - 40mg#Apo-lisinopril Tablet (type P) - 5mg#Apo-lisinopril Tablet 10 mg#Apo-lisinopril Tablet 20 mg#Apo-lisinopril Tablet 40 mg#Apo-lisinopril Tablet 5 mg#Apo-lisinopril/hctz#Auro-lisinopril#Ava-lisinopril Hct#Dom-lisinopril#Ipg-lisinopril#Jamp-lisinopril#Lisinopril#Lisinopril 10mg#Lisinopril 2.5mg#Lisinopril 20mg#Lisinopril 40mg#Lisinopril 5mg#Lisinopril Tablets#Lisinopril Tablets USP#Lisinopril With Hydrochlorothiazide#Lisinopril and Hctz#Lisinopril and Hydrochlorothiazide#Lisinopril and Hydrochlorthiazide#Lisinopril/hctz (type Z)#Lisnopril/hctz (type P)#Lytensopril#Lytensopril-90#Mar-lisinopril#Mint-lisinopril#Mylan-lisinopril#Mylan-lisinopril Hctz#Ntp-lisinopril/hctz (type P)#Ntp-lisinopril/hctz (type Z)#Nu-lisinopril#Nu-lisinopril/hctz#PMS-lisinopril#Prinivil#Prinzide#Pro-lisinopril - 10#Pro-lisinopril - 20#Pro-lisinopril - 5#Qbrelis#Ran-lisinopril#Ratio-lisinopril P#Ratio-lisinopril Z#Riva-lisinopril#Sandoz Lisinopril#Sandoz Lisinopril Hct#Teva-lisinopril (type P)#Teva-lisinopril (type Z)#Teva-lisinopril/hctz (type P)#Teva-lisinopril/hctz (type Z)#Zestoretic#Zestoretic Tab 10/12.5mg#Zestoretic Tab 20/12.5mg#Zestoretic Tab 20/25mg#Zestril#Zestril Tab 10mg#Zestril Tab 20mg#Zestril Tab 5mg#Acebitor#Acemin#Acerbon#Acinopril#Bellisin#Biopril#Dapril#Fibsol#Fisopril#Hipril#Linopril#Lisipril#Noperten#Presiten#Ranolip#Ranopril#Rantex#Sinopren#Sinopril#Tensopril

>  <DrugBank ID>  (1) 
DB00722

>  <ATC Codes>  (1) 
C09AA03#C09BB03#C09BA03#C10BX07

>  <Ligand ID>  (1) 
LPR

>  <Target Name>  (1) 
Angiotensin-converting enzyme

>  <UniProt ID>  (1) 
P12821

>  <PDB ID.1>  (1) 
1O86

>  <Seq. Identity>  (1) 
100%

$$$$
