PDB_DB00317_07
     RDKit          3D

 71 74  0  0  0  0  0  0  0  0999 V2000
   -4.4276    1.9998    2.0670 C   0  0  0  0  0  0  0  0  0  0  0  0
   -5.6732    2.8076    1.7580 C   0  0  0  0  0  0  0  0  0  0  0  0
   -6.7775    1.9819    1.9447 O   0  0  0  0  0  0  0  0  0  0  0  0
   -6.7646    1.0468    0.8868 C   0  0  0  0  0  0  0  0  0  0  0  0
   -5.5673    0.1315    1.2109 C   0  0  0  0  0  0  0  0  0  0  0  0
   -4.3527    0.8544    1.2218 N   0  0  0  0  0  0  0  0  0  0  0  0
   -3.6082    0.9921    0.0328 C   0  0  0  0  0  0  0  0  0  0  0  0
   -3.7613   -0.2332   -0.8401 C   0  0  0  0  0  0  0  0  0  0  0  0
   -2.9744   -0.1046   -2.0968 C   0  0  0  0  0  0  0  0  0  0  0  0
   -1.6289    0.0114   -2.0312 O   0  0  0  0  0  0  0  0  0  0  0  0
   -0.9623   -1.0835   -1.4434 C   0  0  0  0  0  0  0  0  0  0  0  0
   -0.2600   -1.8387   -2.5475 C   0  0  0  0  0  0  0  0  0  0  0  0
    1.0344   -2.4871   -2.1509 C   0  0  0  0  0  0  0  0  0  0  0  0
   -1.0957   -2.8733   -2.9640 O   0  0  0  0  0  0  0  0  0  0  0  0
   -1.3742   -2.7721   -4.3249 C   0  0  0  0  0  0  0  0  0  0  0  0
   -0.1300   -0.5907   -0.3365 C   0  0  0  0  0  0  0  0  0  0  0  0
    1.0959   -1.3711   -0.0319 C   0  0  0  0  0  0  0  0  0  0  0  0
    1.8858   -1.5534   -1.3097 C   0  0  0  0  0  0  0  0  0  0  0  0
    3.1338   -2.1903   -0.9861 N   0  0  0  0  0  0  0  0  0  0  0  0
    3.1466   -2.6604    0.3801 C   0  0  0  0  0  0  0  0  0  0  0  0
    3.0139   -1.6011    1.3302 N   0  0  0  0  0  0  0  0  0  0  0  0
    1.9401   -0.6651    1.0297 C   0  0  0  0  0  0  0  0  0  0  0  0
    2.3192    0.5894    0.5585 N   0  0  0  0  0  0  0  0  0  0  0  0
    3.4688    1.2527    0.9586 C   0  0  0  0  0  0  0  0  0  0  0  0
    4.7330    0.5179    0.5891 C   0  0  0  0  0  0  0  0  0  0  0  0
    5.9206    1.4542    0.5809 C   0  0  0  0  0  0  0  0  0  0  0  0
    5.7967    2.4290   -0.8979 Cl  0  0  0  0  0  0  0  0  0  0  0  0
    6.0141    2.2877    1.8171 C   0  0  0  0  0  0  0  0  0  0  0  0
    6.6434    3.4656    1.4671 F   0  0  0  0  0  0  0  0  0  0  0  0
    4.7611    2.6087    2.5042 C   0  0  0  0  0  0  0  0  0  0  0  0
    3.6074    1.6756    2.3876 C   0  0  0  0  0  0  0  0  0  0  0  0
   -3.5266    2.6457    1.8829 H   0  0  0  0  0  0  0  0  0  0  0  0
   -4.4138    1.6825    3.1151 H   0  0  0  0  0  0  0  0  0  0  0  0
   -5.6087    3.1577    0.7174 H   0  0  0  0  0  0  0  0  0  0  0  0
   -5.7619    3.6510    2.4736 H   0  0  0  0  0  0  0  0  0  0  0  0
   -7.6562    0.4241    0.9273 H   0  0  0  0  0  0  0  0  0  0  0  0
   -6.6583    1.5070   -0.0951 H   0  0  0  0  0  0  0  0  0  0  0  0
   -5.7546   -0.1747    2.2909 H   0  0  0  0  0  0  0  0  0  0  0  0
   -5.6281   -0.7486    0.5595 H   0  0  0  0  0  0  0  0  0  0  0  0
   -2.5141    1.0674    0.3369 H   0  0  0  0  0  0  0  0  0  0  0  0
   -3.7944    1.9158   -0.5630 H   0  0  0  0  0  0  0  0  0  0  0  0
   -3.5465   -1.1460   -0.2476 H   0  0  0  0  0  0  0  0  0  0  0  0
   -4.8418   -0.2308   -1.1629 H   0  0  0  0  0  0  0  0  0  0  0  0
   -3.3417    0.8569   -2.5859 H   0  0  0  0  0  0  0  0  0  0  0  0
   -3.3093   -0.8701   -2.8709 H   0  0  0  0  0  0  0  0  0  0  0  0
   -1.7583   -1.7623   -1.0609 H   0  0  0  0  0  0  0  0  0  0  0  0
   -0.0211   -1.1646   -3.4004 H   0  0  0  0  0  0  0  0  0  0  0  0
    0.8354   -3.3793   -1.5328 H   0  0  0  0  0  0  0  0  0  0  0  0
    1.6208   -2.6858   -3.0705 H   0  0  0  0  0  0  0  0  0  0  0  0
   -2.0517   -3.6208   -4.5887 H   0  0  0  0  0  0  0  0  0  0  0  0
   -1.8452   -1.8035   -4.5669 H   0  0  0  0  0  0  0  0  0  0  0  0
   -0.4491   -2.9060   -4.9316 H   0  0  0  0  0  0  0  0  0  0  0  0
   -0.7976   -0.5646    0.5849 H   0  0  0  0  0  0  0  0  0  0  0  0
    0.1598    0.4628   -0.5323 H   0  0  0  0  0  0  0  0  0  0  0  0
    0.7575   -2.3646    0.3480 H   0  0  0  0  0  0  0  0  0  0  0  0
    1.9901   -0.6288   -1.8842 H   0  0  0  0  0  0  0  0  0  0  0  0
    3.4488   -2.8964   -1.6572 H   0  0  0  0  0  0  0  0  0  0  0  0
    2.4290   -3.4967    0.5177 H   0  0  0  0  0  0  0  0  0  0  0  0
    4.1544   -3.1133    0.5442 H   0  0  0  0  0  0  0  0  0  0  0  0
    2.9423   -2.0060    2.2872 H   0  0  0  0  0  0  0  0  0  0  0  0
    1.2904   -0.6670    1.9379 H   0  0  0  0  0  0  0  0  0  0  0  0
    2.1409    0.6945   -0.4569 H   0  0  0  0  0  0  0  0  0  0  0  0
    3.5442    2.2279    0.3648 H   0  0  0  0  0  0  0  0  0  0  0  0
    4.9162   -0.2883    1.3257 H   0  0  0  0  0  0  0  0  0  0  0  0
    4.5894    0.0663   -0.4011 H   0  0  0  0  0  0  0  0  0  0  0  0
    6.8221    0.8279    0.4845 H   0  0  0  0  0  0  0  0  0  0  0  0
    6.7060    1.7883    2.5573 H   0  0  0  0  0  0  0  0  0  0  0  0
    4.3904    3.6309    2.1860 H   0  0  0  0  0  0  0  0  0  0  0  0
    4.9465    2.7566    3.6096 H   0  0  0  0  0  0  0  0  0  0  0  0
    2.6996    2.2646    2.7316 H   0  0  0  0  0  0  0  0  0  0  0  0
    3.7380    0.8083    3.0619 H   0  0  0  0  0  0  0  0  0  0  0  0
  1  2  1  0
  2  3  1  0
  3  4  1  0
  4  5  1  0
  1  6  1  0
  5  6  1  0
  6  7  1  0
  7  8  1  0
  8  9  1  0
  9 10  1  0
 10 11  1  0
 11 12  1  0
 12 13  1  0
 12 14  1  0
 14 15  1  0
 11 16  1  0
 16 17  1  0
 13 18  1  0
 17 18  1  0
 18 19  1  0
 19 20  1  0
 20 21  1  0
 17 22  1  0
 21 22  1  0
 22 23  1  0
 23 24  1  0
 24 25  1  0
 25 26  1  0
 26 27  1  0
 26 28  1  0
 28 29  1  0
 28 30  1  0
 24 31  1  0
 30 31  1  0
  1 32  1  0
  1 33  1  0
  2 34  1  0
  2 35  1  0
  4 36  1  0
  4 37  1  0
  5 38  1  0
  5 39  1  0
  7 40  1  0
  7 41  1  0
  8 42  1  0
  8 43  1  0
  9 44  1  0
  9 45  1  0
 11 46  1  0
 12 47  1  0
 13 48  1  0
 13 49  1  0
 15 50  1  0
 15 51  1  0
 15 52  1  0
 16 53  1  0
 16 54  1  0
 17 55  1  0
 18 56  1  0
 19 57  1  0
 20 58  1  0
 20 59  1  0
 21 60  1  0
 22 61  1  0
 23 62  1  0
 24 63  1  0
 25 64  1  0
 25 65  1  0
 26 66  1  0
 28 67  1  0
 30 68  1  0
 30 69  1  0
 31 70  1  0
 31 71  1  0
M  END
>  <PDBID>  (1) 
4WKQ

>  <PDB ID>  (1) 
4WKQ

>  <Generic Name>  (1) 
Gefitinib

>  <Brand Name>  (1) 
Iressa

>  <DrugBank ID>  (1) 
DB00317

>  <ATC Codes>  (1) 
L01XE02

>  <Ligand ID>  (1) 
IRE

>  <Target Name>  (1) 
Epidermal growth factor receptor

>  <UniProt ID>  (1) 
P00533

>  <PDB ID.1>  (1) 
4WKQ

>  <Seq. Identity>  (1) 
96%

$$$$
