PDB_DB08954_06
     RDKit          3D

126130  0  0  0  0  0  0  0  0999 V2000
   -7.2345    0.8119    0.2202 C   0  0  0  0  0  0  0  0  0  0  0  0
    0.4753   -0.0117   -0.2192 N   0  0  0  0  0  0  0  0  0  0  0  0
    3.0574   -1.3626    0.3655 O   0  0  0  0  0  0  0  0  0  0  0  0
    5.9128   -1.4649   -0.8355 C   0  0  0  0  0  0  0  0  0  0  0  0
    7.8528   -1.1755    0.5742 O   0  0  0  0  0  0  0  0  0  0  0  0
    5.9529    0.2433    0.8681 C   0  0  0  0  0  0  0  0  0  0  0  0
   -4.6557   -0.3263   -0.2889 C   0  0  0  0  0  0  0  0  0  0  0  0
   -4.8342    1.1258   -0.4254 C   0  0  0  0  0  0  0  0  0  0  0  0
   -6.3102    1.3560   -0.8142 C   0  0  0  0  0  0  0  0  0  0  0  0
   -3.3412   -0.9576   -0.3730 C   0  0  0  0  0  0  0  0  0  0  0  0
   -2.2497   -0.6548    0.5570 C   0  0  0  0  0  0  0  0  0  0  0  0
   -1.7631    0.7317    0.5498 C   0  0  0  0  0  0  0  0  0  0  0  0
   -6.8815   -0.5840    0.6628 C   0  0  0  0  0  0  0  0  0  0  0  0
   -5.4139   -0.7325    0.9925 C   0  0  0  0  0  0  0  0  0  0  0  0
   -0.5698    0.9495   -0.3704 C   0  0  0  0  0  0  0  0  0  0  0  0
    0.1583   -0.9017    0.8386 C   0  0  0  0  0  0  0  0  0  0  0  0
   -1.0937   -1.6672    0.3718 C   0  0  0  0  0  0  0  0  0  0  0  0
    1.7722    0.6361   -0.1476 C   0  0  2  0  0  0  0  0  0  0  0  0
    2.9073   -0.2748   -0.4813 C   0  0  1  0  0  0  0  0  0  0  0  0
    4.1717    0.3682   -0.9243 C   0  0  0  0  0  0  0  0  0  0  0  0
    4.9950   -0.6517   -1.6734 C   0  0  0  0  0  0  0  0  0  0  0  0
    6.8527   -0.5041   -0.1040 C   0  0  0  0  0  0  0  0  0  0  0  0
    4.9833    1.0858    0.0764 C   0  0  0  0  0  0  0  0  0  0  0  0
    1.8992    1.3319    1.1881 C   0  0  0  0  0  0  0  0  0  0  0  0
   -7.2345    0.8119    0.2202 C   0  0  0  0  0  0  0  0  0  0  0  0
    0.4753   -0.0117   -0.2192 N   0  0  0  0  0  0  0  0  0  0  0  0
    3.0574   -1.3626    0.3655 O   0  0  0  0  0  0  0  0  0  0  0  0
    5.9128   -1.4649   -0.8355 C   0  0  0  0  0  0  0  0  0  0  0  0
    7.8528   -1.1755    0.5742 O   0  0  0  0  0  0  0  0  0  0  0  0
    5.9529    0.2433    0.8681 C   0  0  0  0  0  0  0  0  0  0  0  0
   -4.6557   -0.3263   -0.2889 C   0  0  0  0  0  0  0  0  0  0  0  0
   -4.8342    1.1258   -0.4254 C   0  0  0  0  0  0  0  0  0  0  0  0
   -6.3102    1.3560   -0.8142 C   0  0  0  0  0  0  0  0  0  0  0  0
   -3.3412   -0.9576   -0.3730 C   0  0  0  0  0  0  0  0  0  0  0  0
   -2.2497   -0.6548    0.5570 C   0  0  0  0  0  0  0  0  0  0  0  0
   -1.7631    0.7317    0.5498 C   0  0  0  0  0  0  0  0  0  0  0  0
   -6.8815   -0.5840    0.6628 C   0  0  0  0  0  0  0  0  0  0  0  0
   -5.4139   -0.7325    0.9925 C   0  0  0  0  0  0  0  0  0  0  0  0
   -0.5698    0.9495   -0.3704 C   0  0  0  0  0  0  0  0  0  0  0  0
    0.1583   -0.9017    0.8386 C   0  0  0  0  0  0  0  0  0  0  0  0
   -1.0937   -1.6672    0.3718 C   0  0  0  0  0  0  0  0  0  0  0  0
    1.7722    0.6361   -0.1476 C   0  0  2  0  0  0  0  0  0  0  0  0
    2.9073   -0.2748   -0.4813 C   0  0  1  0  0  0  0  0  0  0  0  0
    4.1717    0.3682   -0.9243 C   0  0  0  0  0  0  0  0  0  0  0  0
    4.9950   -0.6517   -1.6734 C   0  0  0  0  0  0  0  0  0  0  0  0
    6.8527   -0.5041   -0.1040 C   0  0  0  0  0  0  0  0  0  0  0  0
    4.9833    1.0858    0.0764 C   0  0  0  0  0  0  0  0  0  0  0  0
    1.8992    1.3319    1.1881 C   0  0  0  0  0  0  0  0  0  0  0  0
   -7.3377    1.4534    1.0964 H   0  0  0  0  0  0  0  0  0  0  0  0
   -8.2528    0.7391   -0.2593 H   0  0  0  0  0  0  0  0  0  0  0  0
    3.2082   -1.1190    1.2986 H   0  0  0  0  0  0  0  0  0  0  0  0
    6.4639   -2.1502   -1.4874 H   0  0  0  0  0  0  0  0  0  0  0  0
    5.4227   -2.0612   -0.0516 H   0  0  0  0  0  0  0  0  0  0  0  0
    8.6414   -0.5538    0.6556 H   0  0  0  0  0  0  0  0  0  0  0  0
    5.4623   -0.3980    1.5961 H   0  0  0  0  0  0  0  0  0  0  0  0
    6.6148    0.9748    1.4131 H   0  0  0  0  0  0  0  0  0  0  0  0
   -5.3206   -0.7976   -1.1044 H   0  0  0  0  0  0  0  0  0  0  0  0
   -4.7557    1.6941    0.5454 H   0  0  0  0  0  0  0  0  0  0  0  0
   -4.2793    1.6295   -1.2441 H   0  0  0  0  0  0  0  0  0  0  0  0
   -6.4276    2.4597   -0.8361 H   0  0  0  0  0  0  0  0  0  0  0  0
   -6.4703    0.9676   -1.8168 H   0  0  0  0  0  0  0  0  0  0  0  0
   -2.9711   -0.7861   -1.4485 H   0  0  0  0  0  0  0  0  0  0  0  0
   -3.4939   -2.0906   -0.3906 H   0  0  0  0  0  0  0  0  0  0  0  0
   -2.5612   -0.8740    1.6455 H   0  0  0  0  0  0  0  0  0  0  0  0
   -1.5030    1.1119    1.5946 H   0  0  0  0  0  0  0  0  0  0  0  0
   -2.5197    1.4380    0.2031 H   0  0  0  0  0  0  0  0  0  0  0  0
   -7.4877   -0.8446    1.5433 H   0  0  0  0  0  0  0  0  0  0  0  0
   -7.0823   -1.3311   -0.1562 H   0  0  0  0  0  0  0  0  0  0  0  0
   -5.1246   -0.0476    1.8149 H   0  0  0  0  0  0  0  0  0  0  0  0
   -5.2335   -1.7925    1.2311 H   0  0  0  0  0  0  0  0  0  0  0  0
   -0.9311    1.0301   -1.4097 H   0  0  0  0  0  0  0  0  0  0  0  0
   -0.1475    1.9442   -0.0514 H   0  0  0  0  0  0  0  0  0  0  0  0
   -0.1784   -0.3964    1.7919 H   0  0  0  0  0  0  0  0  0  0  0  0
    0.9025   -1.6771    1.0733 H   0  0  0  0  0  0  0  0  0  0  0  0
   -1.0135   -1.9649   -0.6863 H   0  0  0  0  0  0  0  0  0  0  0  0
   -1.2601   -2.5737    0.9729 H   0  0  0  0  0  0  0  0  0  0  0  0
    1.7008    1.4587   -0.9215 H   0  0  0  0  0  0  0  0  0  0  0  0
    2.5348   -0.7955   -1.4532 H   0  0  0  0  0  0  0  0  0  0  0  0
    3.8701    1.1220   -1.7139 H   0  0  0  0  0  0  0  0  0  0  0  0
    5.5961   -0.1590   -2.4657 H   0  0  0  0  0  0  0  0  0  0  0  0
    4.2652   -1.3199   -2.2155 H   0  0  0  0  0  0  0  0  0  0  0  0
    7.2268    0.2329   -0.8354 H   0  0  0  0  0  0  0  0  0  0  0  0
    4.4635    1.7217    0.7811 H   0  0  0  0  0  0  0  0  0  0  0  0
    5.6496    1.7973   -0.5115 H   0  0  0  0  0  0  0  0  0  0  0  0
    2.5656    0.8128    1.8748 H   0  0  0  0  0  0  0  0  0  0  0  0
    0.9131    1.3904    1.7111 H   0  0  0  0  0  0  0  0  0  0  0  0
    2.2068    2.3838    1.0426 H   0  0  0  0  0  0  0  0  0  0  0  0
   -7.3377    1.4534    1.0964 H   0  0  0  0  0  0  0  0  0  0  0  0
   -8.2528    0.7391   -0.2593 H   0  0  0  0  0  0  0  0  0  0  0  0
    3.2082   -1.1190    1.2986 H   0  0  0  0  0  0  0  0  0  0  0  0
    6.4639   -2.1502   -1.4874 H   0  0  0  0  0  0  0  0  0  0  0  0
    5.4227   -2.0612   -0.0516 H   0  0  0  0  0  0  0  0  0  0  0  0
    8.6414   -0.5538    0.6556 H   0  0  0  0  0  0  0  0  0  0  0  0
    5.4623   -0.3980    1.5961 H   0  0  0  0  0  0  0  0  0  0  0  0
    6.6148    0.9748    1.4131 H   0  0  0  0  0  0  0  0  0  0  0  0
   -5.3206   -0.7976   -1.1044 H   0  0  0  0  0  0  0  0  0  0  0  0
   -4.7557    1.6941    0.5454 H   0  0  0  0  0  0  0  0  0  0  0  0
   -4.2793    1.6295   -1.2441 H   0  0  0  0  0  0  0  0  0  0  0  0
   -6.4276    2.4597   -0.8361 H   0  0  0  0  0  0  0  0  0  0  0  0
   -6.4703    0.9676   -1.8168 H   0  0  0  0  0  0  0  0  0  0  0  0
   -2.9711   -0.7861   -1.4485 H   0  0  0  0  0  0  0  0  0  0  0  0
   -3.4939   -2.0906   -0.3906 H   0  0  0  0  0  0  0  0  0  0  0  0
   -2.5612   -0.8740    1.6455 H   0  0  0  0  0  0  0  0  0  0  0  0
   -1.5030    1.1119    1.5946 H   0  0  0  0  0  0  0  0  0  0  0  0
   -2.5197    1.4380    0.2031 H   0  0  0  0  0  0  0  0  0  0  0  0
   -7.4877   -0.8446    1.5433 H   0  0  0  0  0  0  0  0  0  0  0  0
   -7.0823   -1.3311   -0.1562 H   0  0  0  0  0  0  0  0  0  0  0  0
   -5.1246   -0.0476    1.8149 H   0  0  0  0  0  0  0  0  0  0  0  0
   -5.2335   -1.7925    1.2311 H   0  0  0  0  0  0  0  0  0  0  0  0
   -0.9311    1.0301   -1.4097 H   0  0  0  0  0  0  0  0  0  0  0  0
   -0.1475    1.9442   -0.0514 H   0  0  0  0  0  0  0  0  0  0  0  0
   -0.1784   -0.3964    1.7919 H   0  0  0  0  0  0  0  0  0  0  0  0
    0.9025   -1.6771    1.0733 H   0  0  0  0  0  0  0  0  0  0  0  0
   -1.0135   -1.9649   -0.6863 H   0  0  0  0  0  0  0  0  0  0  0  0
   -1.2601   -2.5737    0.9729 H   0  0  0  0  0  0  0  0  0  0  0  0
    1.7008    1.4587   -0.9215 H   0  0  0  0  0  0  0  0  0  0  0  0
    2.5348   -0.7955   -1.4532 H   0  0  0  0  0  0  0  0  0  0  0  0
    3.8701    1.1220   -1.7139 H   0  0  0  0  0  0  0  0  0  0  0  0
    5.5961   -0.1590   -2.4657 H   0  0  0  0  0  0  0  0  0  0  0  0
    4.2652   -1.3199   -2.2155 H   0  0  0  0  0  0  0  0  0  0  0  0
    7.2268    0.2329   -0.8354 H   0  0  0  0  0  0  0  0  0  0  0  0
    4.4635    1.7217    0.7811 H   0  0  0  0  0  0  0  0  0  0  0  0
    5.6496    1.7973   -0.5115 H   0  0  0  0  0  0  0  0  0  0  0  0
    2.5656    0.8128    1.8748 H   0  0  0  0  0  0  0  0  0  0  0  0
    0.9131    1.3904    1.7111 H   0  0  0  0  0  0  0  0  0  0  0  0
    2.2068    2.3838    1.0426 H   0  0  0  0  0  0  0  0  0  0  0  0
  7  8  1  0
  1  9  1  0
  8  9  1  0
  7 10  1  0
 10 11  1  0
 11 12  1  0
  1 13  1  0
  7 14  1  0
 13 14  1  0
  2 15  1  0
 12 15  1  0
  2 16  1  0
 11 17  1  0
 16 17  1  0
  2 18  1  0
  3 19  1  0
 18 19  1  0
 19 20  1  0
  4 21  1  0
 20 21  1  0
  4 22  1  0
  5 22  1  0
  6 22  1  0
  6 23  1  0
 20 23  1  0
 18 24  1  0
 31 32  1  0
 25 33  1  0
 32 33  1  0
 31 34  1  0
 34 35  1  0
 35 36  1  0
 25 37  1  0
 31 38  1  0
 37 38  1  0
 26 39  1  0
 36 39  1  0
 26 40  1  0
 35 41  1  0
 40 41  1  0
 26 42  1  0
 27 43  1  0
 42 43  1  0
 43 44  1  0
 28 45  1  0
 44 45  1  0
 28 46  1  0
 29 46  1  0
 30 46  1  0
 30 47  1  0
 44 47  1  0
 42 48  1  0
  1 49  1  0
  1 50  1  0
  3 51  1  0
  4 52  1  0
  4 53  1  0
  5 54  1  0
  6 55  1  0
  6 56  1  0
  7 57  1  0
  8 58  1  0
  8 59  1  0
  9 60  1  0
  9 61  1  0
 10 62  1  0
 10 63  1  0
 11 64  1  0
 12 65  1  0
 12 66  1  0
 13 67  1  0
 13 68  1  0
 14 69  1  0
 14 70  1  0
 15 71  1  0
 15 72  1  0
 16 73  1  0
 16 74  1  0
 17 75  1  0
 17 76  1  0
 18 77  1  6
 19 78  1  6
 20 79  1  0
 21 80  1  0
 21 81  1  0
 22 82  1  0
 23 83  1  0
 23 84  1  0
 24 85  1  0
 24 86  1  0
 24 87  1  0
 25 88  1  0
 25 89  1  0
 27 90  1  0
 28 91  1  0
 28 92  1  0
 29 93  1  0
 30 94  1  0
 30 95  1  0
 31 96  1  0
 32 97  1  0
 32 98  1  0
 33 99  1  0
 33100  1  0
 34101  1  0
 34102  1  0
 35103  1  0
 36104  1  0
 36105  1  0
 37106  1  0
 37107  1  0
 38108  1  0
 38109  1  0
 39110  1  0
 39111  1  0
 40112  1  0
 40113  1  0
 41114  1  0
 41115  1  0
 42116  1  6
 43117  1  6
 44118  1  0
 45119  1  0
 45120  1  0
 46121  1  0
 47122  1  0
 47123  1  0
 48124  1  0
 48125  1  0
 48126  1  0
M  END
>  <PDBID>  (1) 
4PE5

>  <PDB ID>  (1) 
4PE5

>  <Generic Name>  (1) 
Ifenprodil

>  <Brand Name>  (1) 
Cerocral#Furezanil#Iburonol#Linbulane#Technis#Vadilex#Vasculodil#Youajyl

>  <DrugBank ID>  (1) 
DB08954

>  <ATC Codes>  (1) 
C04AX28

>  <Ligand ID>  (1) 
QEL

>  <Target Name>  (1) 
Glutamate receptor ionotropic, NMDA 1

>  <UniProt ID>  (1) 
Q05586

>  <PDB ID.1>  (1) 
4PE5

>  <Seq. Identity>  (1) 
98%

$$$$
