PDB_DB01113_02
     RDKit          3D

 62 64  0  0  0  0  0  0  0  0999 V2000
    5.2318    2.6876   -0.7499 C   0  0  0  0  0  0  0  0  0  0  0  0
    4.7715    1.4486   -1.1230 O   0  0  0  0  0  0  0  0  0  0  0  0
    4.0264    0.8422   -0.1225 C   0  0  0  0  0  0  0  0  0  0  0  0
    4.6092   -0.4838    0.2727 C   0  0  0  0  0  0  0  0  0  0  0  0
    5.8535   -0.7183   -0.2688 O   0  0  0  0  0  0  0  0  0  0  0  0
    6.8567   -0.8807    0.6637 C   0  0  0  0  0  0  0  0  0  0  0  0
    3.7068   -1.6429   -0.0609 C   0  0  0  0  0  0  0  0  0  0  0  0
    2.3105   -1.5035    0.5026 C   0  0  0  0  0  0  0  0  0  0  0  0
    2.5696    0.6918   -0.5729 C   0  0  0  0  0  0  0  0  0  0  0  0
    1.8688   -0.0780    0.5250 C   0  0  0  0  0  0  0  0  0  0  0  0
    0.4070    0.1595    0.5678 C   0  0  0  0  0  0  0  0  0  0  0  0
   -0.3538   -0.3943   -0.5850 C   0  0  0  0  0  0  0  0  0  0  0  0
    0.0274    0.1204   -1.8659 N   0  0  0  0  0  0  0  0  0  0  0  0
   -0.4543    1.4411   -2.1128 C   0  0  0  0  0  0  0  0  0  0  0  0
   -1.9672    1.5043   -2.0510 C   0  0  0  0  0  0  0  0  0  0  0  0
   -2.4311    1.0494   -0.6600 C   0  0  0  0  0  0  0  0  0  0  0  0
   -1.8366   -0.2939   -0.4343 C   0  0  0  0  0  0  0  0  0  0  0  0
   -2.3342   -0.8351    0.8999 C   0  0  0  0  0  0  0  0  0  0  0  0
   -3.7937   -1.1692    0.6920 C   0  0  0  0  0  0  0  0  0  0  0  0
   -4.3855   -1.7838    1.7626 O   0  0  0  0  0  0  0  0  0  0  0  0
   -4.8841   -3.0235    1.3048 C   0  0  0  0  0  0  0  0  0  0  0  0
   -4.5336    0.1170    0.3851 C   0  0  0  0  0  0  0  0  0  0  0  0
   -3.9439    0.8599   -0.7909 C   0  0  0  0  0  0  0  0  0  0  0  0
   -4.6323    0.9492    1.4711 O   0  0  0  0  0  0  0  0  0  0  0  0
   -5.9736    1.1131    1.8000 C   0  0  0  0  0  0  0  0  0  0  0  0
    5.8191    3.1010   -1.6151 H   0  0  0  0  0  0  0  0  0  0  0  0
    4.3453    3.3288   -0.5333 H   0  0  0  0  0  0  0  0  0  0  0  0
    5.8801    2.5516    0.1385 H   0  0  0  0  0  0  0  0  0  0  0  0
    4.0019    1.5444    0.7368 H   0  0  0  0  0  0  0  0  0  0  0  0
    4.7262   -0.4840    1.3784 H   0  0  0  0  0  0  0  0  0  0  0  0
    6.5869   -1.7554    1.3020 H   0  0  0  0  0  0  0  0  0  0  0  0
    6.9568   -0.0070    1.3658 H   0  0  0  0  0  0  0  0  0  0  0  0
    7.8422   -1.0611    0.2489 H   0  0  0  0  0  0  0  0  0  0  0  0
    3.6976   -1.8890   -1.1541 H   0  0  0  0  0  0  0  0  0  0  0  0
    4.1605   -2.5446    0.4314 H   0  0  0  0  0  0  0  0  0  0  0  0
    1.6800   -2.1781   -0.1168 H   0  0  0  0  0  0  0  0  0  0  0  0
    2.2977   -1.8724    1.5744 H   0  0  0  0  0  0  0  0  0  0  0  0
    2.1813    1.7120   -0.7087 H   0  0  0  0  0  0  0  0  0  0  0  0
    2.5372    0.0964   -1.5019 H   0  0  0  0  0  0  0  0  0  0  0  0
    2.2877    0.3624    1.4831 H   0  0  0  0  0  0  0  0  0  0  0  0
   -0.0532   -0.2709    1.4951 H   0  0  0  0  0  0  0  0  0  0  0  0
    0.2557    1.2633    0.6894 H   0  0  0  0  0  0  0  0  0  0  0  0
   -0.1460   -1.5105   -0.5853 H   0  0  0  0  0  0  0  0  0  0  0  0
   -0.3435   -0.5034   -2.6167 H   0  0  0  0  0  0  0  0  0  0  0  0
   -0.1963    1.6769   -3.1881 H   0  0  0  0  0  0  0  0  0  0  0  0
    0.0070    2.2389   -1.5253 H   0  0  0  0  0  0  0  0  0  0  0  0
   -2.2767    2.5247   -2.2757 H   0  0  0  0  0  0  0  0  0  0  0  0
   -2.3524    0.7489   -2.7674 H   0  0  0  0  0  0  0  0  0  0  0  0
   -2.1899    1.7966    0.1072 H   0  0  0  0  0  0  0  0  0  0  0  0
   -2.2868   -0.9858   -1.2059 H   0  0  0  0  0  0  0  0  0  0  0  0
   -2.2945    0.0219    1.6188 H   0  0  0  0  0  0  0  0  0  0  0  0
   -1.7251   -1.6699    1.2586 H   0  0  0  0  0  0  0  0  0  0  0  0
   -3.8473   -1.7803   -0.2540 H   0  0  0  0  0  0  0  0  0  0  0  0
   -5.3799   -3.5966    2.0922 H   0  0  0  0  0  0  0  0  0  0  0  0
   -4.0556   -3.6148    0.8370 H   0  0  0  0  0  0  0  0  0  0  0  0
   -5.5918   -2.7799    0.4638 H   0  0  0  0  0  0  0  0  0  0  0  0
   -5.5508   -0.1919    0.0729 H   0  0  0  0  0  0  0  0  0  0  0  0
   -4.1485    0.3470   -1.7422 H   0  0  0  0  0  0  0  0  0  0  0  0
   -4.4735    1.8419   -0.8330 H   0  0  0  0  0  0  0  0  0  0  0  0
   -6.4412    0.1317    2.0510 H   0  0  0  0  0  0  0  0  0  0  0  0
   -6.4794    1.4535    0.8495 H   0  0  0  0  0  0  0  0  0  0  0  0
   -6.1460    1.7766    2.6452 H   0  0  0  0  0  0  0  0  0  0  0  0
  1  2  1  0
  2  3  1  0
  3  4  1  0
  4  5  1  0
  5  6  1  0
  4  7  1  0
  7  8  1  0
  3  9  1  0
  8 10  1  0
  9 10  1  0
 10 11  1  0
 11 12  1  0
 12 13  1  0
 13 14  1  0
 14 15  1  0
 15 16  1  0
 12 17  1  0
 16 17  1  0
 17 18  1  0
 18 19  1  0
 19 20  1  0
 20 21  1  0
 19 22  1  0
 16 23  1  0
 22 23  1  0
 22 24  1  0
 24 25  1  0
  1 26  1  0
  1 27  1  0
  1 28  1  0
  3 29  1  0
  4 30  1  0
  6 31  1  0
  6 32  1  0
  6 33  1  0
  7 34  1  0
  7 35  1  0
  8 36  1  0
  8 37  1  0
  9 38  1  0
  9 39  1  0
 10 40  1  0
 11 41  1  0
 11 42  1  0
 12 43  1  0
 13 44  1  0
 14 45  1  0
 14 46  1  0
 15 47  1  0
 15 48  1  0
 16 49  1  0
 17 50  1  0
 18 51  1  0
 18 52  1  0
 19 53  1  0
 21 54  1  0
 21 55  1  0
 21 56  1  0
 22 57  1  0
 23 58  1  0
 23 59  1  0
 25 60  1  0
 25 61  1  0
 25 62  1  0
M  END
>  <PDBID>  (1) 
3IAK

>  <PDB ID>  (1) 
3IAK

>  <Generic Name>  (1) 
Papaverine

>  <Brand Name>  (1) 
Papaverine Hydrochloride#Papaverine Hydrochloride Injection USP#Alapav#Albatran#Artegodan#Cardioverina#Cerebid#Cerespan#Delapav#Dilaves#Dispamil#Drapavel#Durapav#Dynovas#Mesotina#Myobid#Optenyl#Pameion#Pamelon#Panergon#Papacon#Papalease#Papaversan#Papital T.R.#Paptial T.R.#Pavabid#Pavacap#Pavacen#Pavadel#Pavagen#Pavakey#Pavased#Pavatest#Paverolan#Paveron#Pavnell#Qua Bid#Ro-Papav#Therapav#Vasal#Vaso-Pav

>  <DrugBank ID>  (1) 
DB01113

>  <ATC Codes>  (1) 
G04BE52#G04BE02#A03AD01

>  <Ligand ID>  (1) 
EV1

>  <Target Name>  (1) 
cAMP-specific 3',5'-cyclic phosphodiesterase 4B

>  <UniProt ID>  (1) 
Q07343

>  <PDB ID.1>  (1) 
3IAK

>  <Seq. Identity>  (1) 
85%

$$$$
