PDB_DB00703_04
     RDKit          3D

 30 30  0  0  0  0  0  0  0  0999 V2000
    3.3267    1.9848    0.8957 N   0  0  0  0  0  0  0  0  0  0  0  0
    2.9084    0.7052    0.0582 S   0  0  0  0  0  0  0  0  0  0  0  0
    4.1773   -0.4683    0.4500 O   0  0  0  0  0  0  0  0  0  0  0  0
    2.9142    0.8950   -1.5075 O   0  0  0  0  0  0  0  0  0  0  0  0
    1.5308   -0.0931    0.5621 C   0  0  1  0  0  0  0  0  0  0  0  0
    0.0050    0.9014    0.4954 S   0  0  0  0  0  0  0  0  0  0  0  0
   -1.0585   -0.4705   -0.1176 C   0  0  2  0  0  0  0  0  0  0  0  0
   -0.1434   -1.5387   -0.1194 N   0  0  0  0  0  0  0  0  0  0  0  0
   -0.3355   -2.5405    0.8820 C   0  0  0  0  0  0  0  0  0  0  0  0
    1.1286   -1.1545   -0.3672 N   0  0  0  0  0  0  0  0  0  0  0  0
   -1.6551   -0.1424   -1.3743 N   0  0  0  0  0  0  0  0  0  0  0  0
   -2.4774    1.0470   -1.2284 C   0  0  0  0  0  0  0  0  0  0  0  0
   -1.6724    2.0424   -0.6827 O   0  0  0  0  0  0  0  0  0  0  0  0
   -3.6211    0.8213   -0.2642 C   0  0  0  0  0  0  0  0  0  0  0  0
    2.8368    2.1360    1.8000 H   0  0  0  0  0  0  0  0  0  0  0  0
    3.5139    2.8959    0.4614 H   0  0  0  0  0  0  0  0  0  0  0  0
    3.7599   -1.3575    0.3747 H   0  0  0  0  0  0  0  0  0  0  0  0
    3.6975    0.5390   -1.9999 H   0  0  0  0  0  0  0  0  0  0  0  0
    1.6180   -0.4632    1.5989 H   0  0  0  0  0  0  0  0  0  0  0  0
   -1.8490   -0.6046    0.6429 H   0  0  0  0  0  0  0  0  0  0  0  0
   -1.4241   -2.5762    1.1174 H   0  0  0  0  0  0  0  0  0  0  0  0
   -0.0835   -3.5326    0.4454 H   0  0  0  0  0  0  0  0  0  0  0  0
    0.2610   -2.3766    1.7919 H   0  0  0  0  0  0  0  0  0  0  0  0
    1.7674   -1.9573   -0.1516 H   0  0  0  0  0  0  0  0  0  0  0  0
   -2.3132   -0.9174   -1.6126 H   0  0  0  0  0  0  0  0  0  0  0  0
   -2.8888    1.3128   -2.2114 H   0  0  0  0  0  0  0  0  0  0  0  0
   -2.1467    2.6416   -0.0719 H   0  0  0  0  0  0  0  0  0  0  0  0
   -3.4522    1.3251    0.7155 H   0  0  0  0  0  0  0  0  0  0  0  0
   -3.7474   -0.2670   -0.0312 H   0  0  0  0  0  0  0  0  0  0  0  0
   -4.5770    1.2128   -0.6696 H   0  0  0  0  0  0  0  0  0  0  0  0
  1  2  1  0
  2  3  1  0
  2  4  1  0
  2  5  1  0
  5  6  1  0
  6  7  1  0
  7  8  1  0
  8  9  1  0
  5 10  1  0
  8 10  1  0
  7 11  1  0
 11 12  1  0
 12 13  1  0
 12 14  1  0
  1 15  1  0
  1 16  1  0
  3 17  1  0
  4 18  1  0
  5 19  1  1
  7 20  1  1
  9 21  1  0
  9 22  1  0
  9 23  1  0
 10 24  1  0
 11 25  1  0
 12 26  1  0
 13 27  1  0
 14 28  1  0
 14 29  1  0
 14 30  1  0
M  END
>  <PDBID>  (1) 
1BZM

>  <PDB ID>  (1) 
1BZM

>  <Generic Name>  (1) 
Methazolamide

>  <Brand Name>  (1) 
Methazolamide#Neptazane#Neptazane Tablets 25mg#Neptazane Tablets 25mg USP#Neptazane Tablets 50mg#Naptazane

>  <DrugBank ID>  (1) 
DB00703

>  <ATC Codes>  (1) 
S01EC05

>  <Ligand ID>  (1) 
MZM

>  <Target Name>  (1) 
Carbonic anhydrase 1

>  <UniProt ID>  (1) 
P00915

>  <PDB ID.1>  (1) 
1BZM

>  <Seq. Identity>  (1) 
100%

$$$$
