PDB_DB04787_07
     RDKit          3D

104108  0  0  0  0  0  0  0  0999 V2000
   -4.2952   -1.3533   -0.4692 C   0  0  0  0  0  0  0  0  0  0  0  0
   -3.4164   -0.4725    0.4338 C   0  0  0  0  0  0  0  0  0  0  0  0
   -2.1110   -0.3018   -0.2320 C   0  0  2  0  0  0  0  0  0  0  0  0
   -0.9130   -0.6119    0.6416 C   0  0  0  0  0  0  0  0  0  0  0  0
    0.2945   -0.6364   -0.2641 C   0  0  1  0  0  0  0  0  0  0  0  0
    0.4697    0.5936   -1.0789 C   0  0  0  0  0  0  0  0  0  0  0  0
   -0.8034    1.0459   -1.7763 C   0  0  0  0  0  0  0  0  0  0  0  0
   -1.8709    1.1019   -0.7573 C   0  0  0  0  0  0  0  0  0  0  0  0
   -3.1305    1.6116   -1.1841 N   0  0  0  0  0  0  0  0  0  0  0  0
   -3.9015    1.7718    0.0394 C   0  0  0  0  0  0  0  0  0  0  0  0
   -5.4256    2.7162   -0.3042 S   0  0  0  0  0  0  0  0  0  0  0  0
   -4.1241    0.6365    0.7346 O   0  0  0  0  0  0  0  0  0  0  0  0
    1.5526   -0.9143    0.4912 C   0  0  2  0  0  0  0  0  0  0  0  0
    1.8660    0.0857    1.5495 C   0  0  0  0  0  0  0  0  0  0  0  0
    3.3758   -0.0856    1.7265 C   0  0  0  0  0  0  0  0  0  0  0  0
    3.8163   -0.4055    0.3302 C   0  0  0  0  0  0  0  0  0  0  0  0
    2.6663   -0.7944   -0.4256 N   0  0  0  0  0  0  0  0  0  0  0  0
    2.8393   -1.9717   -1.2186 C   0  0  0  0  0  0  0  0  0  0  0  0
    4.4091    0.8280   -0.3478 C   0  0  0  0  0  0  0  0  0  0  0  0
    5.5502    1.2630    0.4338 N   0  0  0  0  0  0  0  0  0  0  0  0
   -3.2540   -1.2890    1.7248 C   0  0  0  0  0  0  0  0  0  0  0  0
   -3.8786   -1.9202   -0.4004 C   0  0  0  0  0  0  0  0  0  0  0  0
   -3.4441   -0.5430    0.1182 C   0  0  0  0  0  0  0  0  0  0  0  0
   -2.0909   -0.2360   -0.4333 C   0  0  0  0  0  0  0  0  0  0  0  0
   -0.9736   -0.9637    0.3058 C   0  0  0  0  0  0  0  0  0  0  0  0
    0.2649   -0.8311   -0.5327 C   0  0  1  0  0  0  0  0  0  0  0  0
    0.4044    0.4246   -1.2819 C   0  0  0  0  0  0  0  0  0  0  0  0
   -0.4706    1.5571   -0.9261 C   0  0  0  0  0  0  0  0  0  0  0  0
   -1.7487    1.2369   -0.2532 C   0  0  0  0  0  0  0  0  0  0  0  0
   -2.8505    2.0733   -0.7501 N   0  0  0  0  0  0  0  0  0  0  0  0
   -4.0767    1.6765   -0.0806 C   0  0  0  0  0  0  0  0  0  0  0  0
   -5.4292    2.6819   -0.7950 S   0  0  0  0  0  0  0  0  0  0  0  0
   -4.3660    0.3631   -0.3435 O   0  0  0  0  0  0  0  0  0  0  0  0
    1.4980   -1.1281    0.3375 C   0  0  2  0  0  0  0  0  0  0  0  0
    1.6045   -0.1841    1.4915 C   0  0  0  0  0  0  0  0  0  0  0  0
    3.0867    0.0152    1.7156 C   0  0  0  0  0  0  0  0  0  0  0  0
    3.7016   -0.4043    0.4249 C   0  0  0  0  0  0  0  0  0  0  0  0
    2.6446   -0.8287   -0.4619 N   0  0  0  0  0  0  0  0  0  0  0  0
    3.0582   -1.9377   -1.2994 C   0  0  0  0  0  0  0  0  0  0  0  0
    4.4286    0.7562   -0.2412 C   0  0  0  0  0  0  0  0  0  0  0  0
    5.4820    1.2537    0.6172 N   0  0  0  0  0  0  0  0  0  0  0  0
   -3.4416   -0.5974    1.6330 C   0  0  0  0  0  0  0  0  0  0  0  0
   -5.2368   -1.6318    0.0337 H   0  0  0  0  0  0  0  0  0  0  0  0
   -3.6884   -2.2543   -0.7692 H   0  0  0  0  0  0  0  0  0  0  0  0
   -4.5288   -0.8336   -1.4230 H   0  0  0  0  0  0  0  0  0  0  0  0
   -2.0008   -0.9741   -1.1341 H   0  0  0  0  0  0  0  0  0  0  0  0
   -0.9802   -1.5940    1.1319 H   0  0  0  0  0  0  0  0  0  0  0  0
   -0.8396    0.2131    1.3895 H   0  0  0  0  0  0  0  0  0  0  0  0
    0.1367   -1.4921   -0.9697 H   0  0  0  0  0  0  0  0  0  0  0  0
    0.8678    1.4631   -0.5489 H   0  0  0  0  0  0  0  0  0  0  0  0
    1.1898    0.3515   -1.9046 H   0  0  0  0  0  0  0  0  0  0  0  0
   -0.5895    2.0420   -2.2317 H   0  0  0  0  0  0  0  0  0  0  0  0
   -1.0192    0.2819   -2.5596 H   0  0  0  0  0  0  0  0  0  0  0  0
   -1.5337    1.7024    0.1191 H   0  0  0  0  0  0  0  0  0  0  0  0
   -3.0025    2.5696   -1.5861 H   0  0  0  0  0  0  0  0  0  0  0  0
   -3.2771    2.4577    0.6869 H   0  0  0  0  0  0  0  0  0  0  0  0
   -4.9881    4.0181   -0.6941 H   0  0  0  0  0  0  0  0  0  0  0  0
    1.5120   -1.9177    0.9684 H   0  0  0  0  0  0  0  0  0  0  0  0
    1.3884   -0.1518    2.5251 H   0  0  0  0  0  0  0  0  0  0  0  0
    1.7011    1.1278    1.2826 H   0  0  0  0  0  0  0  0  0  0  0  0
    3.5843   -0.9582    2.3837 H   0  0  0  0  0  0  0  0  0  0  0  0
    3.8355    0.8539    2.1155 H   0  0  0  0  0  0  0  0  0  0  0  0
    4.6045   -1.2033    0.3322 H   0  0  0  0  0  0  0  0  0  0  0  0
    1.8785   -2.5247   -1.3524 H   0  0  0  0  0  0  0  0  0  0  0  0
    3.1715   -1.6451   -2.2346 H   0  0  0  0  0  0  0  0  0  0  0  0
    3.5702   -2.6638   -0.7446 H   0  0  0  0  0  0  0  0  0  0  0  0
    3.6277    1.6274   -0.3670 H   0  0  0  0  0  0  0  0  0  0  0  0
    4.6874    0.5892   -1.3770 H   0  0  0  0  0  0  0  0  0  0  0  0
    5.9711    0.4439    0.9218 H   0  0  0  0  0  0  0  0  0  0  0  0
    6.2736    1.7285   -0.1661 H   0  0  0  0  0  0  0  0  0  0  0  0
   -2.7408   -0.7197    2.5005 H   0  0  0  0  0  0  0  0  0  0  0  0
   -2.8576   -2.2894    1.5312 H   0  0  0  0  0  0  0  0  0  0  0  0
   -4.3114   -1.4346    2.0933 H   0  0  0  0  0  0  0  0  0  0  0  0
   -4.8667   -2.1396    0.0210 H   0  0  0  0  0  0  0  0  0  0  0  0
   -3.1332   -2.6872   -0.1805 H   0  0  0  0  0  0  0  0  0  0  0  0
   -4.0203   -1.8129   -1.5118 H   0  0  0  0  0  0  0  0  0  0  0  0
   -2.0383   -0.4719   -1.5025 H   0  0  0  0  0  0  0  0  0  0  0  0
   -1.2701   -2.0172    0.4523 H   0  0  0  0  0  0  0  0  0  0  0  0
   -0.8572   -0.4453    1.2782 H   0  0  0  0  0  0  0  0  0  0  0  0
    0.2386   -1.7068   -1.2497 H   0  0  0  0  0  0  0  0  0  0  0  0
    1.4748    0.7786   -1.1741 H   0  0  0  0  0  0  0  0  0  0  0  0
    0.3175    0.2325   -2.3934 H   0  0  0  0  0  0  0  0  0  0  0  0
    0.0780    2.3083   -0.2831 H   0  0  0  0  0  0  0  0  0  0  0  0
   -0.7241    2.1555   -1.8529 H   0  0  0  0  0  0  0  0  0  0  0  0
   -1.6401    1.3859    0.8465 H   0  0  0  0  0  0  0  0  0  0  0  0
   -2.6265    3.0467   -0.3891 H   0  0  0  0  0  0  0  0  0  0  0  0
   -4.0583    1.8428    0.9970 H   0  0  0  0  0  0  0  0  0  0  0  0
   -4.9578    3.6155   -1.7061 H   0  0  0  0  0  0  0  0  0  0  0  0
    1.4654   -2.1935    0.6555 H   0  0  0  0  0  0  0  0  0  0  0  0
    1.1765   -0.5883    2.4383 H   0  0  0  0  0  0  0  0  0  0  0  0
    1.1760    0.7910    1.2165 H   0  0  0  0  0  0  0  0  0  0  0  0
    3.4750   -0.6044    2.5490 H   0  0  0  0  0  0  0  0  0  0  0  0
    3.3201    1.0813    1.8855 H   0  0  0  0  0  0  0  0  0  0  0  0
    4.4095   -1.2376    0.5278 H   0  0  0  0  0  0  0  0  0  0  0  0
    2.1447   -2.4881   -1.6221 H   0  0  0  0  0  0  0  0  0  0  0  0
    3.5282   -1.5065   -2.2071 H   0  0  0  0  0  0  0  0  0  0  0  0
    3.7829   -2.6009   -0.7856 H   0  0  0  0  0  0  0  0  0  0  0  0
    3.6992    1.5553   -0.5227 H   0  0  0  0  0  0  0  0  0  0  0  0
    4.8832    0.4092   -1.1907 H   0  0  0  0  0  0  0  0  0  0  0  0
    6.2584    0.5475    0.5836 H   0  0  0  0  0  0  0  0  0  0  0  0
    5.8189    2.1693    0.2722 H   0  0  0  0  0  0  0  0  0  0  0  0
   -2.9857    0.3009    2.0543 H   0  0  0  0  0  0  0  0  0  0  0  0
   -4.5126   -0.6491    1.9735 H   0  0  0  0  0  0  0  0  0  0  0  0
   -2.9588   -1.5354    1.9758 H   0  0  0  0  0  0  0  0  0  0  0  0
  2  1  1  0
  2  3  1  0
  3  4  1  0
  4  5  1  0
  5  6  1  0
  6  7  1  0
  3  8  1  0
  7  8  1  0
  8  9  1  0
  9 10  1  0
 10 11  1  0
  2 12  1  0
 10 12  1  0
  5 13  1  0
 13 14  1  0
 14 15  1  0
 15 16  1  0
 13 17  1  0
 16 17  1  0
 17 18  1  0
 16 19  1  0
 19 20  1  0
  2 21  1  0
 23 22  1  0
 23 24  1  0
 24 25  1  0
 25 26  1  0
 26 27  1  0
 27 28  1  0
 24 29  1  0
 28 29  1  0
 29 30  1  0
 30 31  1  0
 31 32  1  0
 23 33  1  0
 31 33  1  0
 26 34  1  0
 34 35  1  0
 35 36  1  0
 36 37  1  0
 34 38  1  0
 37 38  1  0
 38 39  1  0
 37 40  1  0
 40 41  1  0
 23 42  1  0
  1 43  1  0
  1 44  1  0
  1 45  1  0
  3 46  1  6
  4 47  1  0
  4 48  1  0
  5 49  1  6
  6 50  1  0
  6 51  1  0
  7 52  1  0
  7 53  1  0
  8 54  1  0
  9 55  1  0
 10 56  1  0
 11 57  1  0
 13 58  1  1
 14 59  1  0
 14 60  1  0
 15 61  1  0
 15 62  1  0
 16 63  1  0
 18 64  1  0
 18 65  1  0
 18 66  1  0
 19 67  1  0
 19 68  1  0
 20 69  1  0
 20 70  1  0
 21 71  1  0
 21 72  1  0
 21 73  1  0
 22 74  1  0
 22 75  1  0
 22 76  1  0
 24 77  1  0
 25 78  1  0
 25 79  1  0
 26 80  1  6
 27 81  1  0
 27 82  1  0
 28 83  1  0
 28 84  1  0
 29 85  1  0
 30 86  1  0
 31 87  1  0
 32 88  1  0
 34 89  1  1
 35 90  1  0
 35 91  1  0
 36 92  1  0
 36 93  1  0
 37 94  1  0
 39 95  1  0
 39 96  1  0
 39 97  1  0
 40 98  1  0
 40 99  1  0
 41100  1  0
 41101  1  0
 42102  1  0
 42103  1  0
 42104  1  0
M  END
>  <PDBID>  (1) 
1ZUC

>  <PDB ID>  (1) 
1ZUC

>  <Generic Name>  (1) 
Tanaproget

>  <Brand Name>  (1) 
nan

>  <DrugBank ID>  (1) 
DB04787

>  <ATC Codes>  (1) 
nan

>  <Ligand ID>  (1) 
T98

>  <Target Name>  (1) 
Progesterone receptor

>  <UniProt ID>  (1) 
P06401

>  <PDB ID.1>  (1) 
1ZUC

>  <Seq. Identity>  (1) 
97%

$$$$
