PDB_DB00302_02
     RDKit          3D

 56 56  0  0  0  0  0  0  0  0999 V2000
    1.3535   -0.2210   -0.5817 C   0  0  0  0  0  0  0  0  0  0  0  0
    0.8055   -1.4158    0.1277 C   0  0  0  0  0  0  0  0  0  0  0  0
   -0.5391   -1.1406    0.7599 C   0  0  0  0  0  0  0  0  0  0  0  0
   -1.4385   -0.3725   -0.1600 C   0  0  0  0  0  0  0  0  0  0  0  0
   -0.8004    0.8656   -0.7307 C   0  0  0  0  0  0  0  0  0  0  0  0
    0.5857    0.9911   -0.0970 C   0  0  0  0  0  0  0  0  0  0  0  0
   -2.6686    0.0769    0.6017 C   0  0  0  0  0  0  0  0  0  0  0  0
    2.8380   -0.0306   -0.3863 C   0  0  0  0  0  0  0  0  0  0  0  0
   -3.4922    0.8178   -0.3666 N   0  0  0  0  0  0  0  0  0  0  0  0
    3.1750    0.1348    0.9469 O   0  0  0  0  0  0  0  0  0  0  0  0
    3.1776    1.1527   -1.0728 O   0  0  0  0  0  0  0  0  0  0  0  0
    1.3535   -0.2210   -0.5817 C   0  0  0  0  0  0  0  0  0  0  0  0
    0.8055   -1.4158    0.1277 C   0  0  0  0  0  0  0  0  0  0  0  0
   -0.5391   -1.1406    0.7599 C   0  0  0  0  0  0  0  0  0  0  0  0
   -1.4385   -0.3725   -0.1600 C   0  0  0  0  0  0  0  0  0  0  0  0
   -0.8004    0.8656   -0.7307 C   0  0  0  0  0  0  0  0  0  0  0  0
    0.5857    0.9911   -0.0970 C   0  0  0  0  0  0  0  0  0  0  0  0
   -2.6686    0.0769    0.6017 C   0  0  0  0  0  0  0  0  0  0  0  0
    2.8380   -0.0306   -0.3863 C   0  0  0  0  0  0  0  0  0  0  0  0
   -3.4922    0.8178   -0.3666 N   0  0  0  0  0  0  0  0  0  0  0  0
    3.1750    0.1348    0.9469 O   0  0  0  0  0  0  0  0  0  0  0  0
    3.1776    1.1527   -1.0728 O   0  0  0  0  0  0  0  0  0  0  0  0
    1.1761   -0.3014   -1.6813 H   0  0  0  0  0  0  0  0  0  0  0  0
    1.4688   -1.7889    0.9498 H   0  0  0  0  0  0  0  0  0  0  0  0
    0.7084   -2.2623   -0.5939 H   0  0  0  0  0  0  0  0  0  0  0  0
   -0.4154   -0.7040    1.7516 H   0  0  0  0  0  0  0  0  0  0  0  0
   -1.0188   -2.1501    0.9063 H   0  0  0  0  0  0  0  0  0  0  0  0
   -1.7694   -1.0823   -0.9704 H   0  0  0  0  0  0  0  0  0  0  0  0
   -0.6535    0.7241   -1.8204 H   0  0  0  0  0  0  0  0  0  0  0  0
   -1.3827    1.7770   -0.5900 H   0  0  0  0  0  0  0  0  0  0  0  0
    0.4527    0.9904    1.0102 H   0  0  0  0  0  0  0  0  0  0  0  0
    1.0826    1.9313   -0.4096 H   0  0  0  0  0  0  0  0  0  0  0  0
   -2.3251    0.8368    1.3547 H   0  0  0  0  0  0  0  0  0  0  0  0
   -3.2135   -0.7398    1.0743 H   0  0  0  0  0  0  0  0  0  0  0  0
    3.3806   -0.9065   -0.7760 H   0  0  0  0  0  0  0  0  0  0  0  0
   -4.4930    0.5377   -0.2603 H   0  0  0  0  0  0  0  0  0  0  0  0
   -3.2336    0.5549   -1.3544 H   0  0  0  0  0  0  0  0  0  0  0  0
    4.1129   -0.1821    1.0580 H   0  0  0  0  0  0  0  0  0  0  0  0
    3.1264    1.9069   -0.4056 H   0  0  0  0  0  0  0  0  0  0  0  0
    1.1761   -0.3014   -1.6813 H   0  0  0  0  0  0  0  0  0  0  0  0
    1.4688   -1.7889    0.9498 H   0  0  0  0  0  0  0  0  0  0  0  0
    0.7084   -2.2623   -0.5939 H   0  0  0  0  0  0  0  0  0  0  0  0
   -0.4154   -0.7040    1.7516 H   0  0  0  0  0  0  0  0  0  0  0  0
   -1.0188   -2.1501    0.9063 H   0  0  0  0  0  0  0  0  0  0  0  0
   -1.7694   -1.0823   -0.9704 H   0  0  0  0  0  0  0  0  0  0  0  0
   -0.6535    0.7241   -1.8204 H   0  0  0  0  0  0  0  0  0  0  0  0
   -1.3827    1.7770   -0.5900 H   0  0  0  0  0  0  0  0  0  0  0  0
    0.4527    0.9904    1.0102 H   0  0  0  0  0  0  0  0  0  0  0  0
    1.0826    1.9313   -0.4096 H   0  0  0  0  0  0  0  0  0  0  0  0
   -2.3251    0.8368    1.3547 H   0  0  0  0  0  0  0  0  0  0  0  0
   -3.2135   -0.7398    1.0743 H   0  0  0  0  0  0  0  0  0  0  0  0
    3.3806   -0.9065   -0.7760 H   0  0  0  0  0  0  0  0  0  0  0  0
   -4.4930    0.5377   -0.2603 H   0  0  0  0  0  0  0  0  0  0  0  0
   -3.2336    0.5549   -1.3544 H   0  0  0  0  0  0  0  0  0  0  0  0
    4.1129   -0.1821    1.0580 H   0  0  0  0  0  0  0  0  0  0  0  0
    3.1264    1.9069   -0.4056 H   0  0  0  0  0  0  0  0  0  0  0  0
  1  2  1  0
  2  3  1  0
  3  4  1  0
  4  5  1  0
  1  6  1  0
  5  6  1  0
  4  7  1  0
  1  8  1  0
  7  9  1  0
  8 10  1  0
  8 11  1  0
 12 13  1  0
 13 14  1  0
 14 15  1  0
 15 16  1  0
 12 17  1  0
 16 17  1  0
 15 18  1  0
 12 19  1  0
 18 20  1  0
 19 21  1  0
 19 22  1  0
  1 23  1  0
  2 24  1  0
  2 25  1  0
  3 26  1  0
  3 27  1  0
  4 28  1  0
  5 29  1  0
  5 30  1  0
  6 31  1  0
  6 32  1  0
  7 33  1  0
  7 34  1  0
  8 35  1  0
  9 36  1  0
  9 37  1  0
 10 38  1  0
 11 39  1  0
 12 40  1  0
 13 41  1  0
 13 42  1  0
 14 43  1  0
 14 44  1  0
 15 45  1  0
 16 46  1  0
 16 47  1  0
 17 48  1  0
 17 49  1  0
 18 50  1  0
 18 51  1  0
 19 52  1  0
 20 53  1  0
 20 54  1  0
 21 55  1  0
 22 56  1  0
M  END
>  <PDBID>  (1) 
1CEB

>  <PDB ID>  (1) 
1CEB

>  <Generic Name>  (1) 
Tranexamic Acid

>  <Brand Name>  (1) 
Cyklokapron#Cyklokapron 100 mg/ml#Cyklokapron 500 mg#Erfa-tranexamic#Gd-tranexamic Acid#Lysteda#Pure Whitenol Serum#Tranexamic Acid#Tranexamic Acid Injection#Tranexamic Acid Injection BP#Tranexamic Acid Tablets#Tranexamic Acid Tranexamic Acid#Cyclo-F#Espercil#Femstrual#Rikavarin#Transamin#Transcam#Traxyl

>  <DrugBank ID>  (1) 
DB00302

>  <ATC Codes>  (1) 
B02AA02

>  <Ligand ID>  (1) 
AMH

>  <Target Name>  (1) 
Plasminogen

>  <UniProt ID>  (1) 
P00747

>  <PDB ID.1>  (1) 
1CEB

>  <Seq. Identity>  (1) 
100%

$$$$
