PDB_DB04552_07
     RDKit          3D

 43 44  0  0  0  0  0  0  0  0999 V2000
    4.9269   -0.5572    1.8064 F   0  0  0  0  0  0  0  0  0  0  0  0
    4.4234    0.6737    1.4938 C   0  0  0  0  0  0  0  0  0  0  0  0
    5.4600    1.4586    0.9747 F   0  0  0  0  0  0  0  0  0  0  0  0
    3.9061    1.2716    2.6254 F   0  0  0  0  0  0  0  0  0  0  0  0
    3.3056    0.5619    0.4745 C   0  0  2  0  0  0  0  0  0  0  0  0
    2.2189   -0.2825    1.0595 C   0  0  0  0  0  0  0  0  0  0  0  0
    1.0603   -0.4861    0.1088 C   0  0  0  0  0  0  0  0  0  0  0  0
    1.4403   -0.1292   -1.3273 C   0  0  0  0  0  0  0  0  0  0  0  0
    2.8145   -0.6008   -1.6728 C   0  0  0  0  0  0  0  0  0  0  0  0
    3.8778   -0.0220   -0.7751 C   0  0  0  0  0  0  0  0  0  0  0  0
   -0.1080    0.2729    0.5137 N   0  0  0  0  0  0  0  0  0  0  0  0
   -1.3030   -0.3660    0.0808 C   0  0  0  0  0  0  0  0  0  0  0  0
   -1.6127   -1.5665    0.8633 N   0  0  0  0  0  0  0  0  0  0  0  0
   -2.5284    0.4809    0.1176 C   0  0  0  0  0  0  0  0  0  0  0  0
   -2.2981    1.9458    0.2640 C   0  0  0  0  0  0  0  0  0  0  0  0
   -3.5757    2.5557    0.2775 O   0  0  0  0  0  0  0  0  0  0  0  0
   -1.6847    2.4707   -0.8976 O   0  0  0  0  0  0  0  0  0  0  0  0
   -3.5130    0.0149    1.1814 C   0  0  0  0  0  0  0  0  0  0  0  0
   -4.0447   -1.3314    0.6724 C   0  0  0  0  0  0  0  0  0  0  0  0
   -2.8168   -2.1314    0.2509 C   0  0  0  0  0  0  0  0  0  0  0  0
    2.8865    1.5536    0.2196 H   0  0  0  0  0  0  0  0  0  0  0  0
    2.6739   -1.2502    1.3927 H   0  0  0  0  0  0  0  0  0  0  0  0
    1.8367    0.2198    1.9653 H   0  0  0  0  0  0  0  0  0  0  0  0
    0.8718   -1.5800    0.0849 H   0  0  0  0  0  0  0  0  0  0  0  0
    0.7295   -0.6758   -1.9981 H   0  0  0  0  0  0  0  0  0  0  0  0
    1.3233    0.9447   -1.4606 H   0  0  0  0  0  0  0  0  0  0  0  0
    2.8780   -1.6953   -1.7388 H   0  0  0  0  0  0  0  0  0  0  0  0
    3.0237   -0.2119   -2.7128 H   0  0  0  0  0  0  0  0  0  0  0  0
    4.4956    0.7546   -1.3112 H   0  0  0  0  0  0  0  0  0  0  0  0
    4.5815   -0.8426   -0.4974 H   0  0  0  0  0  0  0  0  0  0  0  0
   -0.0467    1.2453    0.2118 H   0  0  0  0  0  0  0  0  0  0  0  0
   -1.1295   -0.7432   -0.9602 H   0  0  0  0  0  0  0  0  0  0  0  0
   -0.8548   -2.2483    0.9097 H   0  0  0  0  0  0  0  0  0  0  0  0
   -3.0936    0.3501   -0.8543 H   0  0  0  0  0  0  0  0  0  0  0  0
   -1.8016    2.2468    1.1849 H   0  0  0  0  0  0  0  0  0  0  0  0
   -4.1519    2.0450   -0.3616 H   0  0  0  0  0  0  0  0  0  0  0  0
   -2.0310    3.3752   -1.1040 H   0  0  0  0  0  0  0  0  0  0  0  0
   -2.9488   -0.2224    2.1121 H   0  0  0  0  0  0  0  0  0  0  0  0
   -4.3173    0.7311    1.3407 H   0  0  0  0  0  0  0  0  0  0  0  0
   -4.6540   -1.8474    1.4130 H   0  0  0  0  0  0  0  0  0  0  0  0
   -4.6402   -1.0938   -0.2386 H   0  0  0  0  0  0  0  0  0  0  0  0
   -2.6601   -2.0811   -0.8473 H   0  0  0  0  0  0  0  0  0  0  0  0
   -2.9196   -3.2079    0.5281 H   0  0  0  0  0  0  0  0  0  0  0  0
  2  1  1  0
  2  3  1  0
  2  4  1  0
  2  5  1  0
  5  6  1  0
  6  7  1  0
  7  8  1  0
  8  9  1  0
  5 10  1  0
  9 10  1  0
  7 11  1  0
 11 12  1  0
 12 13  1  0
 12 14  1  0
 14 15  1  0
 15 16  1  0
 15 17  1  0
 14 18  1  0
 18 19  1  0
 13 20  1  0
 19 20  1  0
  5 21  1  6
  6 22  1  0
  6 23  1  0
  7 24  1  0
  8 25  1  0
  8 26  1  0
  9 27  1  0
  9 28  1  0
 10 29  1  0
 10 30  1  0
 11 31  1  0
 12 32  1  0
 13 33  1  0
 14 34  1  0
 15 35  1  0
 16 36  1  0
 17 37  1  0
 18 38  1  0
 18 39  1  0
 19 40  1  0
 19 41  1  0
 20 42  1  0
 20 43  1  0
M  END
>  <PDBID>  (1) 
1TD7

>  <PDB ID>  (1) 
1TD7

>  <Generic Name>  (1) 
Niflumic Acid

>  <Brand Name>  (1) 
Niflam#Niflugel#Nifluril

>  <DrugBank ID>  (1) 
DB04552

>  <ATC Codes>  (1) 
M02AA17#M01AX02

>  <Ligand ID>  (1) 
NFL

>  <Target Name>  (1) 
Phospholipase A2

>  <UniProt ID>  (1) 
P04054

>  <PDB ID.1>  (1) 
1TD7

>  <Seq. Identity>  (1) 
43%

$$$$
