PDB_DB04839_09
     RDKit          3D

 68 72  0  0  0  0  0  0  0  0999 V2000
    4.4386    0.6035    1.4191 C   0  0  0  0  0  0  0  0  0  0  0  0
   -1.0060   -0.7213    0.7075 C   0  0  1  0  0  0  0  0  0  0  0  0
    2.9556    0.7326    1.3076 C   0  0  2  0  0  0  0  0  0  0  0  0
    2.3195   -0.0923    2.3847 C   0  0  0  0  0  0  0  0  0  0  0  0
    0.4912    0.3605   -1.5112 C   0  0  0  0  0  0  0  0  0  0  0  0
    0.8347   -0.2521    2.2122 C   0  0  0  0  0  0  0  0  0  0  0  0
    0.4952   -0.7205    0.7819 C   0  0  2  0  0  0  0  0  0  0  0  0
    1.0464    0.3162   -0.1351 C   0  0  1  0  0  0  0  0  0  0  0  0
    2.5639    0.2396   -0.0776 C   0  0  2  0  0  0  0  0  0  0  0  0
   -1.0409    0.4705   -1.4053 C   0  0  0  0  0  0  0  0  0  0  0  0
   -1.5089   -0.7585   -0.7305 C   0  0  1  0  0  0  0  0  0  0  0  0
    5.1467    1.5075    0.4549 C   0  0  0  0  0  0  0  0  0  0  0  0
    3.0723   -1.1779   -0.2515 C   0  0  0  0  0  0  0  0  0  0  0  0
    3.2179    1.0707   -1.1404 C   0  0  1  0  0  0  0  0  0  0  0  0
    3.3718    2.5303   -1.0430 C   0  0  0  0  0  0  0  0  0  0  0  0
    4.5593    1.5435   -0.9124 C   0  0  1  0  0  0  0  0  0  0  0  0
    5.1051    2.7929    1.0108 O   0  0  0  0  0  0  0  0  0  0  0  0
    2.5632    0.7687    3.9353 Cl  0  0  0  0  0  0  0  0  0  0  0  0
   -0.9355   -2.0110   -1.3409 C   0  0  0  0  0  0  0  0  0  0  0  0
   -1.6504   -1.9364    1.2657 C   0  0  0  0  0  0  0  0  0  0  0  0
   -2.9817   -2.0189    0.5586 C   0  0  0  0  0  0  0  0  0  0  0  0
   -2.9921   -0.8440   -0.4468 C   0  0  2  0  0  0  0  0  0  0  0  0
   -3.7301   -1.3690   -1.6932 C   0  0  0  0  0  0  0  0  0  0  0  0
   -5.1738   -1.6483   -1.3670 C   0  0  0  0  0  0  0  0  0  0  0  0
   -3.1619   -2.5452   -2.1420 O   0  0  0  0  0  0  0  0  0  0  0  0
   -3.4398    0.2173    0.0654 O   0  0  0  0  0  0  0  0  0  0  0  0
   -3.7474    1.4279    0.1322 C   0  0  0  0  0  0  0  0  0  0  0  0
   -3.1852    2.3360    1.2425 C   0  0  0  0  0  0  0  0  0  0  0  0
   -5.1466    1.7450    0.1799 O   0  0  0  0  0  0  0  0  0  0  0  0
    4.7229    0.9335    2.4593 H   0  0  0  0  0  0  0  0  0  0  0  0
    4.7172   -0.4450    1.3440 H   0  0  0  0  0  0  0  0  0  0  0  0
   -1.3645    0.1767    1.2097 H   0  0  0  0  0  0  0  0  0  0  0  0
    2.6083    1.7862    1.4326 H   0  0  0  0  0  0  0  0  0  0  0  0
    2.7913   -1.0970    2.5153 H   0  0  0  0  0  0  0  0  0  0  0  0
    0.7913   -0.4477   -2.1695 H   0  0  0  0  0  0  0  0  0  0  0  0
    0.8276    1.3210   -1.9677 H   0  0  0  0  0  0  0  0  0  0  0  0
    0.2462    0.6323    2.4547 H   0  0  0  0  0  0  0  0  0  0  0  0
    0.4863   -1.0845    2.8770 H   0  0  0  0  0  0  0  0  0  0  0  0
    0.9618   -1.7125    0.7127 H   0  0  0  0  0  0  0  0  0  0  0  0
    0.7879    1.3170    0.3340 H   0  0  0  0  0  0  0  0  0  0  0  0
   -1.5207    0.6633   -2.3614 H   0  0  0  0  0  0  0  0  0  0  0  0
   -1.2469    1.3301   -0.7283 H   0  0  0  0  0  0  0  0  0  0  0  0
    6.2101    1.2056    0.4230 H   0  0  0  0  0  0  0  0  0  0  0  0
    2.9957   -1.8067    0.6326 H   0  0  0  0  0  0  0  0  0  0  0  0
    4.1742   -1.1013   -0.5025 H   0  0  0  0  0  0  0  0  0  0  0  0
    2.5390   -1.7178   -1.0722 H   0  0  0  0  0  0  0  0  0  0  0  0
    2.9995    0.6849   -2.1798 H   0  0  0  0  0  0  0  0  0  0  0  0
    3.4018    3.1385   -1.9527 H   0  0  0  0  0  0  0  0  0  0  0  0
    3.0318    3.0492   -0.1268 H   0  0  0  0  0  0  0  0  0  0  0  0
    5.2968    1.5194   -1.7396 H   0  0  0  0  0  0  0  0  0  0  0  0
    5.9092    2.9135    1.6000 H   0  0  0  0  0  0  0  0  0  0  0  0
   -0.9816   -1.9098   -2.4437 H   0  0  0  0  0  0  0  0  0  0  0  0
   -1.3011   -2.9450   -0.9231 H   0  0  0  0  0  0  0  0  0  0  0  0
    0.1740   -2.0114   -1.1081 H   0  0  0  0  0  0  0  0  0  0  0  0
   -1.0212   -2.8498    1.0646 H   0  0  0  0  0  0  0  0  0  0  0  0
   -1.7724   -1.8622    2.3728 H   0  0  0  0  0  0  0  0  0  0  0  0
   -3.1535   -2.9836    0.0600 H   0  0  0  0  0  0  0  0  0  0  0  0
   -3.7689   -1.8970    1.3303 H   0  0  0  0  0  0  0  0  0  0  0  0
   -3.5950   -0.6334   -2.5113 H   0  0  0  0  0  0  0  0  0  0  0  0
   -5.8835   -0.9323   -1.8645 H   0  0  0  0  0  0  0  0  0  0  0  0
   -5.3693   -1.6482   -0.2547 H   0  0  0  0  0  0  0  0  0  0  0  0
   -5.5068   -2.6633   -1.7027 H   0  0  0  0  0  0  0  0  0  0  0  0
   -3.3952   -2.6311   -3.1192 H   0  0  0  0  0  0  0  0  0  0  0  0
   -3.4759    1.9969   -0.8218 H   0  0  0  0  0  0  0  0  0  0  0  0
   -3.3866    1.9446    2.2493 H   0  0  0  0  0  0  0  0  0  0  0  0
   -2.1330    2.5995    1.0723 H   0  0  0  0  0  0  0  0  0  0  0  0
   -3.7452    3.3036    1.1657 H   0  0  0  0  0  0  0  0  0  0  0  0
   -5.5327    1.2968   -0.6246 H   0  0  0  0  0  0  0  0  0  0  0  0
  1  3  1  0
  3  4  1  0
  4  6  1  0
  2  7  1  0
  6  7  1  0
  5  8  1  0
  7  8  1  0
  3  9  1  0
  8  9  1  0
  5 10  1  0
  2 11  1  0
 10 11  1  0
  1 12  1  0
  9 13  1  6
  9 14  1  0
 14 15  1  0
 12 16  1  0
 14 16  1  0
 15 16  1  0
 12 17  1  0
  4 18  1  0
 11 19  1  6
  2 20  1  0
 20 21  1  0
 11 22  1  0
 21 22  1  0
 22 23  1  0
 23 24  1  0
 23 25  1  0
 22 26  1  1
 26 27  1  0
 27 28  1  0
 27 29  1  0
  1 30  1  0
  1 31  1  0
  2 32  1  1
  3 33  1  1
  4 34  1  0
  5 35  1  0
  5 36  1  0
  6 37  1  0
  6 38  1  0
  7 39  1  6
  8 40  1  1
 10 41  1  0
 10 42  1  0
 12 43  1  0
 13 44  1  0
 13 45  1  0
 13 46  1  0
 14 47  1  6
 15 48  1  0
 15 49  1  0
 16 50  1  6
 17 51  1  0
 19 52  1  0
 19 53  1  0
 19 54  1  0
 20 55  1  0
 20 56  1  0
 21 57  1  0
 21 58  1  0
 23 59  1  0
 24 60  1  0
 24 61  1  0
 24 62  1  0
 25 63  1  0
 27 64  1  0
 28 65  1  0
 28 66  1  0
 28 67  1  0
 29 68  1  0
M  END
>  <PDBID>  (1) 
2OZ7

>  <PDB ID>  (1) 
2OZ7

>  <Generic Name>  (1) 
Cyproterone acetate

>  <Brand Name>  (1) 
Alti-cpa#Androcur#Androcur Depot#ClÃ©o -35#Cyestra-35#Cyproterone#Diane-35#Med-cyproterone#Mylan-cyproterone#Novo-cyproterone#Novo-cyproterone/ethinyl Estradiol#Ran-cyproterone/ethinyl Estradiol#Riva-cyproterone#Riva-cyproterone 50 mg#Cyprostat

>  <DrugBank ID>  (1) 
DB04839

>  <ATC Codes>  (1) 
G03HB01#G03HA01

>  <Ligand ID>  (1) 
CA4

>  <Target Name>  (1) 
Androgen receptor

>  <UniProt ID>  (1) 
P10275

>  <PDB ID.1>  (1) 
2OZ7

>  <Seq. Identity>  (1) 
100%

$$$$
