PDB_DB00966_01
     RDKit          3D

 99104  0  0  0  0  0  0  0  0999 V2000
   -0.7936    1.1822    0.5962 C   0  0  0  0  0  0  0  0  0  0  0  0
   -0.2428    1.7521   -0.5293 N   0  0  0  0  0  0  0  0  0  0  0  0
   -1.5485    2.3576    1.2435 C   0  0  0  0  0  0  0  0  0  0  0  0
   -1.6806   -0.0143    0.5107 C   0  0  0  0  0  0  0  0  0  0  0  0
   -0.1980    3.1826   -0.4172 C   0  0  0  0  0  0  0  0  0  0  0  0
    0.1778    1.1364   -1.6740 C   0  0  0  0  0  0  0  0  0  0  0  0
   -1.3676    3.4928    0.3987 N   0  0  0  0  0  0  0  0  0  0  0  0
   -3.0434    2.0612    1.2687 C   0  0  0  0  0  0  0  0  0  0  0  0
   -2.9652    0.1615   -0.2252 C   0  0  0  0  0  0  0  0  0  0  0  0
    0.9660    3.6908    0.4350 C   0  0  0  0  0  0  0  0  0  0  0  0
    1.4060    0.2956   -1.7365 C   0  0  0  0  0  0  0  0  0  0  0  0
   -3.3767    1.6095   -0.1370 C   0  0  0  0  0  0  0  0  0  0  0  0
   -3.8428    3.3097    1.5363 C   0  0  0  0  0  0  0  0  0  0  0  0
   -3.9999   -0.7679    0.3091 C   0  0  0  0  0  0  0  0  0  0  0  0
    0.9010    5.2059    0.4866 C   0  0  0  0  0  0  0  0  0  0  0  0
    1.4912   -0.8858   -0.8459 C   0  0  0  0  0  0  0  0  0  0  0  0
    2.7109    1.0329   -1.6657 C   0  0  0  0  0  0  0  0  0  0  0  0
   -5.2922   -0.6754   -0.3387 N   0  0  0  0  0  0  0  0  0  0  0  0
   -3.6702   -2.1544    0.2453 N   0  0  0  0  0  0  0  0  0  0  0  0
    1.0040    5.7660   -0.9006 C   0  0  0  0  0  0  0  0  0  0  0  0
    2.9494   -1.3909   -0.9327 C   0  0  0  0  0  0  0  0  0  0  0  0
    3.3247    0.9116   -0.2754 C   0  0  0  0  0  0  0  0  0  0  0  0
   -5.9400   -1.7681    0.3448 C   0  0  0  0  0  0  0  0  0  0  0  0
   -5.2359   -0.9943   -1.7459 C   0  0  0  0  0  0  0  0  0  0  0  0
   -4.9138   -2.8820    0.0930 C   0  0  0  0  0  0  0  0  0  0  0  0
    3.7275   -0.5122    0.0178 C   0  0  0  0  0  0  0  0  0  0  0  0
   -7.3059   -2.1151   -0.0448 C   0  0  0  0  0  0  0  0  0  0  0  0
   -5.1552   -3.9213    1.1342 C   0  0  0  0  0  0  0  0  0  0  0  0
    5.2042   -0.7239   -0.0037 C   0  0  1  0  0  0  0  0  0  0  0  0
   -7.4389   -3.6387    0.1123 C   0  0  0  0  0  0  0  0  0  0  0  0
   -6.6623   -4.0071    1.3580 C   0  0  0  0  0  0  0  0  0  0  0  0
    5.5875   -2.1194    0.3669 C   0  0  0  0  0  0  0  0  0  0  0  0
    5.8979   -0.3230   -1.2563 C   0  0  0  0  0  0  0  0  0  0  0  0
    6.7992   -2.6136   -0.3954 C   0  0  0  0  0  0  0  0  0  0  0  0
    5.9055   -2.2525    1.8480 C   0  0  0  0  0  0  0  0  0  0  0  0
    7.4021   -0.2934   -0.9426 C   0  0  0  0  0  0  0  0  0  0  0  0
    7.9019   -1.6100   -0.4455 C   0  0  0  0  0  0  0  0  0  0  0  0
    6.2479   -3.5836    2.0763 O   0  0  0  0  0  0  0  0  0  0  0  0
    6.9601   -1.4613    2.2517 O   0  0  0  0  0  0  0  0  0  0  0  0
    0.0121    0.9496    1.3204 H   0  0  0  0  0  0  0  0  0  0  0  0
   -1.2373    2.5540    2.2678 H   0  0  0  0  0  0  0  0  0  0  0  0
   -1.9540   -0.2473    1.5911 H   0  0  0  0  0  0  0  0  0  0  0  0
   -1.1035   -0.8937    0.2121 H   0  0  0  0  0  0  0  0  0  0  0  0
   -0.2249    3.6231   -1.4196 H   0  0  0  0  0  0  0  0  0  0  0  0
    0.3769    1.9632   -2.4451 H   0  0  0  0  0  0  0  0  0  0  0  0
   -0.6172    0.5452   -2.2338 H   0  0  0  0  0  0  0  0  0  0  0  0
   -2.1655    3.8645   -0.0972 H   0  0  0  0  0  0  0  0  0  0  0  0
   -3.2751    1.2508    1.9926 H   0  0  0  0  0  0  0  0  0  0  0  0
   -2.7960   -0.0732   -1.2984 H   0  0  0  0  0  0  0  0  0  0  0  0
    0.8571    3.2844    1.4639 H   0  0  0  0  0  0  0  0  0  0  0  0
    1.8997    3.4176   -0.0607 H   0  0  0  0  0  0  0  0  0  0  0  0
    1.4275   -0.1658   -2.8060 H   0  0  0  0  0  0  0  0  0  0  0  0
   -4.4421    1.7747   -0.3760 H   0  0  0  0  0  0  0  0  0  0  0  0
   -2.7971    2.1482   -0.9118 H   0  0  0  0  0  0  0  0  0  0  0  0
   -4.5372    3.1148    2.4040 H   0  0  0  0  0  0  0  0  0  0  0  0
   -4.5086    3.5776    0.6947 H   0  0  0  0  0  0  0  0  0  0  0  0
   -3.2426    4.1863    1.7916 H   0  0  0  0  0  0  0  0  0  0  0  0
   -4.1690   -0.5075    1.3751 H   0  0  0  0  0  0  0  0  0  0  0  0
   -0.0263    5.4919    1.0011 H   0  0  0  0  0  0  0  0  0  0  0  0
    1.7862    5.5540    1.0526 H   0  0  0  0  0  0  0  0  0  0  0  0
    1.2557   -0.7202    0.2155 H   0  0  0  0  0  0  0  0  0  0  0  0
    0.8765   -1.7500   -1.2080 H   0  0  0  0  0  0  0  0  0  0  0  0
    2.5259    2.0986   -1.8602 H   0  0  0  0  0  0  0  0  0  0  0  0
    3.4370    0.7123   -2.4468 H   0  0  0  0  0  0  0  0  0  0  0  0
   -3.1030   -2.5064    1.0343 H   0  0  0  0  0  0  0  0  0  0  0  0
    1.4704    6.7915   -0.8995 H   0  0  0  0  0  0  0  0  0  0  0  0
    0.0062    5.7954   -1.3629 H   0  0  0  0  0  0  0  0  0  0  0  0
    1.6795    5.1580   -1.5522 H   0  0  0  0  0  0  0  0  0  0  0  0
    3.3463   -1.2778   -1.9437 H   0  0  0  0  0  0  0  0  0  0  0  0
    2.9527   -2.4497   -0.5615 H   0  0  0  0  0  0  0  0  0  0  0  0
    2.5005    1.1672    0.4333 H   0  0  0  0  0  0  0  0  0  0  0  0
    4.1156    1.6449   -0.1270 H   0  0  0  0  0  0  0  0  0  0  0  0
   -5.8615   -1.5499    1.4388 H   0  0  0  0  0  0  0  0  0  0  0  0
   -5.9365   -1.8011   -2.0475 H   0  0  0  0  0  0  0  0  0  0  0  0
   -5.5733   -0.0957   -2.3047 H   0  0  0  0  0  0  0  0  0  0  0  0
   -4.2289   -1.3381   -2.0606 H   0  0  0  0  0  0  0  0  0  0  0  0
   -5.0226   -3.3264   -0.8921 H   0  0  0  0  0  0  0  0  0  0  0  0
    3.3810   -0.7908    1.0457 H   0  0  0  0  0  0  0  0  0  0  0  0
   -8.0150   -1.7068    0.7365 H   0  0  0  0  0  0  0  0  0  0  0  0
   -7.6837   -1.7601   -1.0027 H   0  0  0  0  0  0  0  0  0  0  0  0
   -4.8497   -4.9024    0.7112 H   0  0  0  0  0  0  0  0  0  0  0  0
   -4.6160   -3.7440    2.0795 H   0  0  0  0  0  0  0  0  0  0  0  0
    5.6298   -0.0657    0.8134 H   0  0  0  0  0  0  0  0  0  0  0  0
   -8.4986   -3.8924    0.3176 H   0  0  0  0  0  0  0  0  0  0  0  0
   -7.1044   -4.1487   -0.7899 H   0  0  0  0  0  0  0  0  0  0  0  0
   -6.9118   -3.2164    2.1145 H   0  0  0  0  0  0  0  0  0  0  0  0
   -6.9615   -4.9649    1.7962 H   0  0  0  0  0  0  0  0  0  0  0  0
    4.7886   -2.8803    0.1755 H   0  0  0  0  0  0  0  0  0  0  0  0
    5.6723    0.7101   -1.5888 H   0  0  0  0  0  0  0  0  0  0  0  0
    5.7545   -0.9919   -2.1107 H   0  0  0  0  0  0  0  0  0  0  0  0
    7.2042   -3.5348    0.0790 H   0  0  0  0  0  0  0  0  0  0  0  0
    6.5049   -2.8491   -1.4522 H   0  0  0  0  0  0  0  0  0  0  0  0
    5.0253   -1.9679    2.4651 H   0  0  0  0  0  0  0  0  0  0  0  0
    7.5042    0.4414   -0.0906 H   0  0  0  0  0  0  0  0  0  0  0  0
    7.9871    0.1215   -1.7757 H   0  0  0  0  0  0  0  0  0  0  0  0
    8.6423   -1.9850   -1.2095 H   0  0  0  0  0  0  0  0  0  0  0  0
    8.4881   -1.5203    0.4876 H   0  0  0  0  0  0  0  0  0  0  0  0
    5.7508   -4.2135    1.5290 H   0  0  0  0  0  0  0  0  0  0  0  0
    6.7128   -0.5434    2.4714 H   0  0  0  0  0  0  0  0  0  0  0  0
  1  2  1  0
  1  3  1  0
  1  4  1  0
  2  5  1  0
  2  6  1  0
  3  7  1  0
  5  7  1  0
  3  8  1  0
  4  9  1  0
  5 10  1  0
  6 11  1  0
  8 12  1  0
  9 12  1  0
  8 13  1  0
  9 14  1  0
 10 15  1  0
 11 16  1  0
 11 17  1  0
 14 18  1  0
 14 19  1  0
 15 20  1  0
 16 21  1  0
 17 22  1  0
 18 23  1  0
 18 24  1  0
 19 25  1  0
 23 25  1  0
 21 26  1  0
 22 26  1  0
 23 27  1  0
 25 28  1  0
 26 29  1  0
 27 30  1  0
 28 31  1  0
 30 31  1  0
 29 32  1  0
 29 33  1  0
 32 34  1  0
 32 35  1  0
 33 36  1  0
 34 37  1  0
 36 37  1  0
 35 38  1  0
 35 39  1  0
  1 40  1  0
  3 41  1  0
  4 42  1  0
  4 43  1  0
  5 44  1  0
  6 45  1  0
  6 46  1  0
  7 47  1  0
  8 48  1  0
  9 49  1  0
 10 50  1  0
 10 51  1  0
 11 52  1  0
 12 53  1  0
 12 54  1  0
 13 55  1  0
 13 56  1  0
 13 57  1  0
 14 58  1  0
 15 59  1  0
 15 60  1  0
 16 61  1  0
 16 62  1  0
 17 63  1  0
 17 64  1  0
 19 65  1  0
 20 66  1  0
 20 67  1  0
 20 68  1  0
 21 69  1  0
 21 70  1  0
 22 71  1  0
 22 72  1  0
 23 73  1  0
 24 74  1  0
 24 75  1  0
 24 76  1  0
 25 77  1  0
 26 78  1  0
 27 79  1  0
 27 80  1  0
 28 81  1  0
 28 82  1  0
 29 83  1  1
 30 84  1  0
 30 85  1  0
 31 86  1  0
 31 87  1  0
 32 88  1  0
 33 89  1  0
 33 90  1  0
 34 91  1  0
 34 92  1  0
 35 93  1  0
 36 94  1  0
 36 95  1  0
 37 96  1  0
 37 97  1  0
 38 98  1  0
 39 99  1  0
M  END
>  <PDBID>  (1) 
3VN2

>  <PDB ID>  (1) 
3VN2

>  <Generic Name>  (1) 
Telmisartan

>  <Brand Name>  (1) 
Ach-telmisartan Hctz#Act Telmisartan#Act Telmisartan/hct#Apo-telmisartan#Apo-telmisartan/hctz#Auro-telmisartan#Auro-telmisartan Hctz#Mar-telmisartan#Micardis#Micardis 40mg Tab#Micardis 80mg Tab#Micardis Hct#Micardis Plus#Mylan-telmisartan#Mylan-telmisartan Hctz#Ntp-telmisartan#Ntp-telmisartan Hctz#PMS-telmisartan#PMS-telmisartan-hctz#Pendo-telmisartan#Pendo-telmisartan-hctz#Ran-telmisartan#Ran-telmisartan Hctz#Sandoz Telmisartan#Sandoz Telmisartan Hct#Septa-telmisartan#Telmisartan#Telmisartan Hctz#Telmisartan Tablets#Telmisartan and Amlodipine#Telmisartan and Hydrochlorothiazide#Telmisartan and Hydrochlorothiazide 40 Mg/12.5 mg#Telmisartan and Hydrochlorothiazide 80 Mg/12.5 mg#Telmisartan and Hydrochlorothiazide 80 Mg/25 mg#Telmisartan and Hydrochlorthiazide#Telmisartan-hctz#Telmisartan/hctz#Teva-telmisartan#Teva-telmisartan Hctz#Torrent-telmisartan#Torrent-telmisartan and Hydrochlorothiazide#Twynsta#Van-telmisartan#Van-telmisartan-hctz#Zinda-telmisartan#Zinda-telmisartan/ Hctz#Pritor

>  <DrugBank ID>  (1) 
DB00966

>  <ATC Codes>  (1) 
C09DB04#C09DA07#C09CA07

>  <Ligand ID>  (1) 
TLS

>  <Target Name>  (1) 
Peroxisome proliferator-activated receptor gamma

>  <UniProt ID>  (1) 
P37231

>  <PDB ID.1>  (1) 
3VN2

>  <Seq. Identity>  (1) 
95%

$$$$
