PDB_DB00190_08
     RDKit          3D

 74 74  0  0  0  0  0  0  0  0999 V2000
   -2.9478    0.4029    1.4426 N   0  0  0  0  0  0  0  0  0  0  0  0
   -4.2089    0.6724    0.9345 N   0  0  0  0  0  0  0  0  0  0  0  0
   -1.9560    0.2379    0.3545 C   0  0  2  0  0  0  0  0  0  0  0  0
   -0.6891   -0.0394    1.0772 C   0  0  0  0  0  0  0  0  0  0  0  0
   -1.9573    1.5667   -0.3754 C   0  0  0  0  0  0  0  0  0  0  0  0
    0.5355   -0.2624    0.2978 C   0  0  0  0  0  0  0  0  0  0  0  0
    1.0236    0.8021   -0.5924 C   0  0  0  0  0  0  0  0  0  0  0  0
    2.5568    0.9004   -0.6129 C   0  0  0  0  0  0  0  0  0  0  0  0
    1.6539   -0.6503    1.2488 C   0  0  0  0  0  0  0  0  0  0  0  0
    2.8102   -1.2852    0.5310 C   0  0  0  0  0  0  0  0  0  0  0  0
    3.1613   -0.4578   -0.6852 C   0  0  0  0  0  0  0  0  0  0  0  0
    4.5369   -0.3519   -0.7348 O   0  0  0  0  0  0  0  0  0  0  0  0
    3.0155    1.6600    0.4558 O   0  0  0  0  0  0  0  0  0  0  0  0
   -2.4577   -0.8912   -0.4788 C   0  0  0  0  0  0  0  0  0  0  0  0
   -3.7186   -0.6533   -1.0253 O   0  0  0  0  0  0  0  0  0  0  0  0
   -2.6117   -2.0005    0.3745 O   0  0  0  0  0  0  0  0  0  0  0  0
   -2.9478    0.4029    1.4426 N   0  0  0  0  0  0  0  0  0  0  0  0
   -4.2089    0.6724    0.9345 N   0  0  0  0  0  0  0  0  0  0  0  0
   -1.9560    0.2379    0.3545 C   0  0  2  0  0  0  0  0  0  0  0  0
   -0.6891   -0.0394    1.0772 C   0  0  0  0  0  0  0  0  0  0  0  0
   -1.9573    1.5667   -0.3754 C   0  0  0  0  0  0  0  0  0  0  0  0
    0.5355   -0.2624    0.2978 C   0  0  0  0  0  0  0  0  0  0  0  0
    1.0236    0.8021   -0.5924 C   0  0  0  0  0  0  0  0  0  0  0  0
    2.5568    0.9004   -0.6129 C   0  0  0  0  0  0  0  0  0  0  0  0
    1.6539   -0.6503    1.2488 C   0  0  0  0  0  0  0  0  0  0  0  0
    2.8102   -1.2852    0.5310 C   0  0  0  0  0  0  0  0  0  0  0  0
    3.1613   -0.4578   -0.6852 C   0  0  0  0  0  0  0  0  0  0  0  0
    4.5369   -0.3519   -0.7348 O   0  0  0  0  0  0  0  0  0  0  0  0
    3.0155    1.6600    0.4558 O   0  0  0  0  0  0  0  0  0  0  0  0
   -2.4577   -0.8912   -0.4788 C   0  0  0  0  0  0  0  0  0  0  0  0
   -3.7186   -0.6533   -1.0253 O   0  0  0  0  0  0  0  0  0  0  0  0
   -2.6117   -2.0005    0.3745 O   0  0  0  0  0  0  0  0  0  0  0  0
   -2.9360   -0.4323    2.0680 H   0  0  0  0  0  0  0  0  0  0  0  0
   -4.5740    1.5923    1.2411 H   0  0  0  0  0  0  0  0  0  0  0  0
   -0.5417    0.8295    1.7890 H   0  0  0  0  0  0  0  0  0  0  0  0
   -0.8736   -0.9047    1.7512 H   0  0  0  0  0  0  0  0  0  0  0  0
   -3.0163    1.8943   -0.6019 H   0  0  0  0  0  0  0  0  0  0  0  0
   -1.4708    1.5082   -1.3711 H   0  0  0  0  0  0  0  0  0  0  0  0
   -1.5601    2.3810    0.2642 H   0  0  0  0  0  0  0  0  0  0  0  0
    0.3800   -1.1916   -0.3317 H   0  0  0  0  0  0  0  0  0  0  0  0
    0.6826    1.8262   -0.3655 H   0  0  0  0  0  0  0  0  0  0  0  0
    0.7419    0.6227   -1.6535 H   0  0  0  0  0  0  0  0  0  0  0  0
    2.8128    1.4609   -1.5339 H   0  0  0  0  0  0  0  0  0  0  0  0
    1.9453    0.1706    1.9221 H   0  0  0  0  0  0  0  0  0  0  0  0
    1.2138   -1.4496    1.9114 H   0  0  0  0  0  0  0  0  0  0  0  0
    2.4853   -2.3024    0.1939 H   0  0  0  0  0  0  0  0  0  0  0  0
    3.6429   -1.3661    1.2535 H   0  0  0  0  0  0  0  0  0  0  0  0
    2.7807   -0.9538   -1.6001 H   0  0  0  0  0  0  0  0  0  0  0  0
    4.8541    0.5590   -0.9619 H   0  0  0  0  0  0  0  0  0  0  0  0
    3.8730    1.2928    0.7647 H   0  0  0  0  0  0  0  0  0  0  0  0
   -1.8077   -1.1418   -1.3421 H   0  0  0  0  0  0  0  0  0  0  0  0
   -4.4098   -1.2531   -0.7034 H   0  0  0  0  0  0  0  0  0  0  0  0
   -2.9688   -2.7925   -0.1290 H   0  0  0  0  0  0  0  0  0  0  0  0
   -2.9360   -0.4323    2.0680 H   0  0  0  0  0  0  0  0  0  0  0  0
   -4.5740    1.5923    1.2411 H   0  0  0  0  0  0  0  0  0  0  0  0
   -0.5417    0.8295    1.7890 H   0  0  0  0  0  0  0  0  0  0  0  0
   -0.8736   -0.9047    1.7512 H   0  0  0  0  0  0  0  0  0  0  0  0
   -3.0163    1.8943   -0.6019 H   0  0  0  0  0  0  0  0  0  0  0  0
   -1.4708    1.5082   -1.3711 H   0  0  0  0  0  0  0  0  0  0  0  0
   -1.5601    2.3810    0.2642 H   0  0  0  0  0  0  0  0  0  0  0  0
    0.3800   -1.1916   -0.3317 H   0  0  0  0  0  0  0  0  0  0  0  0
    0.6826    1.8262   -0.3655 H   0  0  0  0  0  0  0  0  0  0  0  0
    0.7419    0.6227   -1.6535 H   0  0  0  0  0  0  0  0  0  0  0  0
    2.8128    1.4609   -1.5339 H   0  0  0  0  0  0  0  0  0  0  0  0
    1.9453    0.1706    1.9221 H   0  0  0  0  0  0  0  0  0  0  0  0
    1.2138   -1.4496    1.9114 H   0  0  0  0  0  0  0  0  0  0  0  0
    2.4853   -2.3024    0.1939 H   0  0  0  0  0  0  0  0  0  0  0  0
    3.6429   -1.3661    1.2535 H   0  0  0  0  0  0  0  0  0  0  0  0
    2.7807   -0.9538   -1.6001 H   0  0  0  0  0  0  0  0  0  0  0  0
    4.8541    0.5590   -0.9619 H   0  0  0  0  0  0  0  0  0  0  0  0
    3.8730    1.2928    0.7647 H   0  0  0  0  0  0  0  0  0  0  0  0
   -1.8077   -1.1418   -1.3421 H   0  0  0  0  0  0  0  0  0  0  0  0
   -4.4098   -1.2531   -0.7034 H   0  0  0  0  0  0  0  0  0  0  0  0
   -2.9688   -2.7925   -0.1290 H   0  0  0  0  0  0  0  0  0  0  0  0
  1  2  1  0
  3  1  1  1
  3  4  1  0
  3  5  1  0
  4  6  1  0
  6  7  1  0
  7  8  1  0
  6  9  1  0
  9 10  1  0
  8 11  1  0
 10 11  1  0
 11 12  1  0
  8 13  1  0
  3 14  1  0
 14 15  1  0
 14 16  1  0
 17 18  1  0
 19 17  1  1
 19 20  1  0
 19 21  1  0
 20 22  1  0
 22 23  1  0
 23 24  1  0
 22 25  1  0
 25 26  1  0
 24 27  1  0
 26 27  1  0
 27 28  1  0
 24 29  1  0
 19 30  1  0
 30 31  1  0
 30 32  1  0
  1 33  1  0
  2 34  1  0
  4 35  1  0
  4 36  1  0
  5 37  1  0
  5 38  1  0
  5 39  1  0
  6 40  1  0
  7 41  1  0
  7 42  1  0
  8 43  1  0
  9 44  1  0
  9 45  1  0
 10 46  1  0
 10 47  1  0
 11 48  1  0
 12 49  1  0
 13 50  1  0
 14 51  1  0
 15 52  1  0
 16 53  1  0
 17 54  1  0
 18 55  1  0
 20 56  1  0
 20 57  1  0
 21 58  1  0
 21 59  1  0
 21 60  1  0
 22 61  1  0
 23 62  1  0
 23 63  1  0
 24 64  1  0
 25 65  1  0
 25 66  1  0
 26 67  1  0
 26 68  1  0
 27 69  1  0
 28 70  1  0
 29 71  1  0
 30 72  1  0
 31 73  1  0
 32 74  1  0
M  END
>  <PDBID>  (1) 
1JS3

>  <PDB ID>  (1) 
1JS3

>  <Generic Name>  (1) 
Carbidopa

>  <Brand Name>  (1) 
Apo-levocarb - Tab 10mg/100mg#Apo-levocarb - Tab 25mg/250mg#Apo-levocarb CR#Apo-levocarb-tab 25mg/100mg#Carbidopa#Carbidopa Tablets, 25 mg#Carbidopa and Levodopa#Carbidopa, Levodopa and Entacapone#Carbidopa, Levodopa, and Entacapone#Dom-levo-carbidopa#Duodopa#Duopa#Lodosyn#Mint-levocarb#Nu-levocarb - Tab 10mg/100mg#Nu-levocarb - Tab 25 Mg/100 mg#Nu-levocarb - Tablets 25 Mg/250 mg#PMS-levocarb CR#Parcopa#Pro-lecarb-100/10 - Tab#Pro-lecarb-100/25 - Tab#Pro-levocarb - 100/25#Ratio-levodopa/carbidopa#Rytary#Sinemet#Sinemet 100/10#Sinemet 100/25#Sinemet 250/25#Sinemet CR#Sinemet CR 100/25#Sinemet CR 200/50#Stalevo#Teva-levocarbidopa

>  <DrugBank ID>  (1) 
DB00190

>  <ATC Codes>  (1) 
nan

>  <Ligand ID>  (1) 
142

>  <Target Name>  (1) 
Aromatic-L-amino-acid decarboxylase

>  <UniProt ID>  (1) 
P20711

>  <PDB ID.1>  (1) 
1JS3

>  <Seq. Identity>  (1) 
90%

$$$$
