PDB_DB08915_08
     RDKit          3D

 74 77  0  0  0  0  0  0  0  0999 V2000
   -3.1202   -1.2934    2.4342 C   0  0  0  0  0  0  0  0  0  0  0  0
   -3.0279   -0.0658    1.5807 C   0  0  0  0  0  0  0  0  0  0  0  0
   -4.2545    0.5565    1.3760 O   0  0  0  0  0  0  0  0  0  0  0  0
   -4.2763    1.0116    0.0818 C   0  0  0  0  0  0  0  0  0  0  0  0
   -5.6489    0.6836   -0.5053 C   0  0  0  0  0  0  0  0  0  0  0  0
   -6.6630    1.4005    0.3597 C   0  0  0  0  0  0  0  0  0  0  0  0
   -8.0754    1.0960   -0.0435 C   0  0  0  0  0  0  0  0  0  0  0  0
   -8.1296   -0.0789   -1.0243 C   0  0  0  0  0  0  0  0  0  0  0  0
   -7.2987   -1.1912   -0.3893 C   0  0  0  0  0  0  0  0  0  0  0  0
   -5.8421   -0.7977   -0.5146 C   0  0  0  0  0  0  0  0  0  0  0  0
   -3.2770    0.3364   -0.6820 N   0  0  0  0  0  0  0  0  0  0  0  0
   -2.4910   -0.4316    0.2304 C   0  0  0  0  0  0  0  0  0  0  0  0
   -1.0134   -0.0635    0.1703 C   0  0  0  0  0  0  0  0  0  0  0  0
   -0.4371   -0.4151   -1.1684 C   0  0  0  0  0  0  0  0  0  0  0  0
    0.8862   -0.1091   -1.2493 O   0  0  0  0  0  0  0  0  0  0  0  0
    1.7319   -0.7692   -0.3752 C   0  0  0  0  0  0  0  0  0  0  0  0
    2.5487   -1.7251   -1.2537 C   0  0  0  0  0  0  0  0  0  0  0  0
    3.4691   -1.0288   -2.2038 C   0  0  0  0  0  0  0  0  0  0  0  0
    2.6242    0.2039    0.2981 C   0  0  0  0  0  0  0  0  0  0  0  0
    1.8794    1.3681    0.8986 C   0  0  0  0  0  0  0  0  0  0  0  0
    2.9610    2.2799    1.4860 C   0  0  0  0  0  0  0  0  0  0  0  0
    3.4921    0.8322   -0.7694 C   0  0  0  0  0  0  0  0  0  0  0  0
    4.1328    2.2724    0.0587 S   0  0  0  0  0  0  0  0  0  0  0  0
    4.4260   -0.0773   -1.4361 C   0  0  0  0  0  0  0  0  0  0  0  0
    5.2894   -0.9602   -0.6482 C   0  0  0  0  0  0  0  0  0  0  0  0
    6.3425   -0.4075    0.2190 C   0  0  2  0  0  0  0  0  0  0  0  0
    5.9131    0.4405    1.2304 O   0  0  0  0  0  0  0  0  0  0  0  0
    6.1618   -0.0629    2.5053 C   0  0  0  0  0  0  0  0  0  0  0  0
    7.5183    0.1902   -0.5231 C   0  0  0  0  0  0  0  0  0  0  0  0
    7.9338   -0.6728   -1.5312 O   0  0  0  0  0  0  0  0  0  0  0  0
    7.2838    1.4732   -0.9663 O   0  0  0  0  0  0  0  0  0  0  0  0
   -3.3424   -2.1821    1.7817 H   0  0  0  0  0  0  0  0  0  0  0  0
   -2.1338   -1.4876    2.9297 H   0  0  0  0  0  0  0  0  0  0  0  0
   -3.8955   -1.1877    3.2378 H   0  0  0  0  0  0  0  0  0  0  0  0
   -2.3575    0.6635    2.0820 H   0  0  0  0  0  0  0  0  0  0  0  0
   -4.1803    2.1257    0.0140 H   0  0  0  0  0  0  0  0  0  0  0  0
   -5.7572    1.0780   -1.5266 H   0  0  0  0  0  0  0  0  0  0  0  0
   -6.4881    2.4923    0.2079 H   0  0  0  0  0  0  0  0  0  0  0  0
   -6.4745    1.2238    1.4454 H   0  0  0  0  0  0  0  0  0  0  0  0
   -8.6129    0.7510    0.8850 H   0  0  0  0  0  0  0  0  0  0  0  0
   -8.6216    1.9761   -0.4310 H   0  0  0  0  0  0  0  0  0  0  0  0
   -7.7125    0.2685   -1.9755 H   0  0  0  0  0  0  0  0  0  0  0  0
   -9.2058   -0.3609   -1.0798 H   0  0  0  0  0  0  0  0  0  0  0  0
   -7.4971   -2.1606   -0.8767 H   0  0  0  0  0  0  0  0  0  0  0  0
   -7.5584   -1.1867    0.6917 H   0  0  0  0  0  0  0  0  0  0  0  0
   -5.3757   -1.2418   -1.4255 H   0  0  0  0  0  0  0  0  0  0  0  0
   -5.3239   -1.2243    0.3684 H   0  0  0  0  0  0  0  0  0  0  0  0
   -2.6825    1.0119   -1.2379 H   0  0  0  0  0  0  0  0  0  0  0  0
   -2.5504   -1.5251    0.0546 H   0  0  0  0  0  0  0  0  0  0  0  0
   -0.9268    1.0339    0.3705 H   0  0  0  0  0  0  0  0  0  0  0  0
   -0.4642   -0.6007    0.9575 H   0  0  0  0  0  0  0  0  0  0  0  0
   -0.9987    0.1344   -1.9801 H   0  0  0  0  0  0  0  0  0  0  0  0
   -0.6433   -1.4962   -1.3660 H   0  0  0  0  0  0  0  0  0  0  0  0
    1.2015   -1.4609    0.3230 H   0  0  0  0  0  0  0  0  0  0  0  0
    2.9860   -2.5561   -0.6869 H   0  0  0  0  0  0  0  0  0  0  0  0
    1.7613   -2.2120   -1.9048 H   0  0  0  0  0  0  0  0  0  0  0  0
    4.0935   -1.7976   -2.6792 H   0  0  0  0  0  0  0  0  0  0  0  0
    2.8717   -0.4687   -2.9313 H   0  0  0  0  0  0  0  0  0  0  0  0
    3.2272   -0.2290    1.1229 H   0  0  0  0  0  0  0  0  0  0  0  0
    1.2442    1.0160    1.7218 H   0  0  0  0  0  0  0  0  0  0  0  0
    1.2673    1.9116    0.1700 H   0  0  0  0  0  0  0  0  0  0  0  0
    3.4134    1.8505    2.3772 H   0  0  0  0  0  0  0  0  0  0  0  0
    2.5774    3.3011    1.5788 H   0  0  0  0  0  0  0  0  0  0  0  0
    2.7583    1.1967   -1.5510 H   0  0  0  0  0  0  0  0  0  0  0  0
    4.9342    0.4816   -2.2498 H   0  0  0  0  0  0  0  0  0  0  0  0
    5.8014   -1.6623   -1.3717 H   0  0  0  0  0  0  0  0  0  0  0  0
    4.6569   -1.6294   -0.0279 H   0  0  0  0  0  0  0  0  0  0  0  0
    6.7887   -1.2986    0.7628 H   0  0  0  0  0  0  0  0  0  0  0  0
    7.2451   -0.2150    2.6345 H   0  0  0  0  0  0  0  0  0  0  0  0
    5.6984   -1.0910    2.5463 H   0  0  0  0  0  0  0  0  0  0  0  0
    5.6726    0.5157    3.2911 H   0  0  0  0  0  0  0  0  0  0  0  0
    8.3549    0.2432    0.2109 H   0  0  0  0  0  0  0  0  0  0  0  0
    7.4163   -0.4749   -2.3296 H   0  0  0  0  0  0  0  0  0  0  0  0
    7.7938    1.6555   -1.7799 H   0  0  0  0  0  0  0  0  0  0  0  0
  1  2  1  0
  2  3  1  0
  3  4  1  0
  4  5  1  0
  5  6  1  0
  6  7  1  0
  7  8  1  0
  8  9  1  0
  5 10  1  0
  9 10  1  0
  4 11  1  0
  2 12  1  0
 11 12  1  0
 12 13  1  0
 13 14  1  0
 14 15  1  0
 15 16  1  0
 16 17  1  0
 17 18  1  0
 16 19  1  0
 19 20  1  0
 20 21  1  0
 19 22  1  0
 21 23  1  0
 22 23  1  0
 18 24  1  0
 22 24  1  0
 24 25  1  0
 25 26  1  0
 26 27  1  0
 27 28  1  0
 26 29  1  0
 29 30  1  0
 29 31  1  0
  1 32  1  0
  1 33  1  0
  1 34  1  0
  2 35  1  0
  4 36  1  0
  5 37  1  0
  6 38  1  0
  6 39  1  0
  7 40  1  0
  7 41  1  0
  8 42  1  0
  8 43  1  0
  9 44  1  0
  9 45  1  0
 10 46  1  0
 10 47  1  0
 11 48  1  0
 12 49  1  0
 13 50  1  0
 13 51  1  0
 14 52  1  0
 14 53  1  0
 16 54  1  0
 17 55  1  0
 17 56  1  0
 18 57  1  0
 18 58  1  0
 19 59  1  0
 20 60  1  0
 20 61  1  0
 21 62  1  0
 21 63  1  0
 22 64  1  0
 24 65  1  0
 25 66  1  0
 25 67  1  0
 26 68  1  1
 28 69  1  0
 28 70  1  0
 28 71  1  0
 29 72  1  0
 30 73  1  0
 31 74  1  0
M  END
>  <PDBID>  (1) 
3G8I

>  <PDB ID>  (1) 
3G8I

>  <Generic Name>  (1) 
Aleglitazar

>  <Brand Name>  (1) 
nan

>  <DrugBank ID>  (1) 
DB08915

>  <ATC Codes>  (1) 
nan

>  <Ligand ID>  (1) 
RO7

>  <Target Name>  (1) 
Peroxisome proliferator-activated receptor alpha

>  <UniProt ID>  (1) 
Q07869

>  <PDB ID.1>  (1) 
3G8I

>  <Seq. Identity>  (1) 
100%

$$$$
