PDB_DB00877_02
     RDKit          3D

162165  0  0  0  0  0  0  0  0999 V2000
    1.8994    1.6495   -0.3176 C   0  0  0  0  0  0  0  0  0  0  0  0
    2.4391    0.4686   -0.9014 O   0  0  0  0  0  0  0  0  0  0  0  0
    1.0570    1.1712    0.6868 O   0  0  0  0  0  0  0  0  0  0  0  0
    1.1921    2.3327   -1.4187 C   0  0  2  0  0  0  0  0  0  0  0  0
    2.0466    2.1802   -2.6759 C   0  0  0  0  0  0  0  0  0  0  0  0
    2.8912    3.3891   -2.9541 C   0  0  0  0  0  0  0  0  0  0  0  0
    1.9947    4.5893   -3.0661 C   0  0  0  0  0  0  0  0  0  0  0  0
    0.5890    4.2072   -2.6002 C   0  0  0  0  0  0  0  0  0  0  0  0
    0.7020    3.6240   -1.2486 N   0  0  0  0  0  0  0  0  0  0  0  0
    1.1802    4.5497   -0.3414 C   0  0  2  0  0  0  0  0  0  0  0  0
    2.5454    4.4759   -0.0184 O   0  0  0  0  0  0  0  0  0  0  0  0
    0.4379    4.6742    0.9657 C   0  0  0  0  0  0  0  0  0  0  0  0
    1.0888    5.6506    1.7193 O   0  0  0  0  0  0  0  0  0  0  0  0
   -0.9906    5.1009    0.8168 C   0  0  1  0  0  0  0  0  0  0  0  0
   -1.7609    4.1085    0.1680 O   0  0  0  0  0  0  0  0  0  0  0  0
   -1.5117    5.1475    2.1308 O   0  0  0  0  0  0  0  0  0  0  0  0
   -1.1848    6.4657    0.2433 C   0  0  1  0  0  0  0  0  0  0  0  0
   -2.6498    6.7265    0.0204 C   0  0  0  0  0  0  0  0  0  0  0  0
   -3.4175    5.5719   -0.5284 C   0  0  0  0  0  0  0  0  0  0  0  0
   -3.0909    4.3800    0.3821 C   0  0  1  0  0  0  0  0  0  0  0  0
   -4.0274    3.2430    0.1422 C   0  0  0  0  0  0  0  0  0  0  0  0
   -5.3792    3.5723    0.7404 C   0  0  2  0  0  0  0  0  0  0  0  0
   -5.1846    3.9248    2.0635 O   0  0  0  0  0  0  0  0  0  0  0  0
   -6.3082    2.3806    0.7207 C   0  0  0  0  0  0  0  0  0  0  0  0
   -6.4295    1.7692   -0.6488 C   0  0  0  0  0  0  0  0  0  0  0  0
   -7.2904    0.5358   -0.5485 C   0  0  0  0  0  0  0  0  0  0  0  0
   -6.3780   -0.6583   -0.8118 C   0  0  0  0  0  0  0  0  0  0  0  0
   -7.0070   -1.8889   -0.2442 C   0  0  0  0  0  0  0  0  0  0  0  0
   -6.0576   -2.7921    0.4808 C   0  0  0  0  0  0  0  0  0  0  0  0
   -4.6903   -2.8640   -0.1136 C   0  0  2  0  0  0  0  0  0  0  0  0
   -4.4025   -4.2570   -0.6823 C   0  0  0  0  0  0  0  0  0  0  0  0
   -4.0847   -5.2567    0.3754 C   0  0  2  0  0  0  0  0  0  0  0  0
   -2.6402   -5.5361    0.6026 C   0  0  0  0  0  0  0  0  0  0  0  0
   -2.5844   -6.4927    1.6463 O   0  0  0  0  0  0  0  0  0  0  0  0
   -1.8628   -5.9809   -0.5893 C   0  0  2  0  0  0  0  0  0  0  0  0
   -2.2703   -7.2003   -1.0960 O   0  0  0  0  0  0  0  0  0  0  0  0
   -0.3880   -5.9722   -0.2370 C   0  0  2  0  0  0  0  0  0  0  0  0
   -0.2438   -5.2624    0.9501 O   0  0  0  0  0  0  0  0  0  0  0  0
    0.4630   -5.4358   -1.3411 C   0  0  0  0  0  0  0  0  0  0  0  0
    1.0563   -4.0866   -1.0362 C   0  0  0  0  0  0  0  0  0  0  0  0
    2.1746   -4.1022   -0.0540 C   0  0  2  0  0  0  0  0  0  0  0  0
    2.2156   -2.7228    0.6069 C   0  0  0  0  0  0  0  0  0  0  0  0
    0.8881   -2.3566    0.8228 O   0  0  0  0  0  0  0  0  0  0  0  0
    2.8308   -1.7851   -0.4062 C   0  0  0  0  0  0  0  0  0  0  0  0
    2.9457   -0.3678    0.0945 C   0  0  1  0  0  0  0  0  0  0  0  0
    4.4502    0.0427    0.2027 C   0  0  1  0  0  0  0  0  0  0  0  0
    5.1103   -0.7754    1.2465 C   0  0  0  0  0  0  0  0  0  0  0  0
    6.5224   -0.5386    1.5896 C   0  0  1  0  0  0  0  0  0  0  0  0
    7.4792   -0.7316    0.4803 C   0  0  0  0  0  0  0  0  0  0  0  0
    8.9311   -0.6077    0.9820 C   0  0  1  0  0  0  0  0  0  0  0  0
    9.6788   -0.1450   -0.0945 O   0  0  0  0  0  0  0  0  0  0  0  0
    9.0253    0.3909    2.0963 C   0  0  2  0  0  0  0  0  0  0  0  0
    8.6892   -0.2501    3.2891 O   0  0  0  0  0  0  0  0  0  0  0  0
    7.9856    1.4658    1.8646 C   0  0  0  0  0  0  0  0  0  0  0  0
    6.6348    0.8619    2.1947 C   0  0  0  0  0  0  0  0  0  0  0  0
   -0.6651    7.4926    1.2098 C   0  0  0  0  0  0  0  0  0  0  0  0
   -7.6934    2.9017    1.0962 C   0  0  0  0  0  0  0  0  0  0  0  0
   -3.6175   -2.4454    0.8632 C   0  0  0  0  0  0  0  0  0  0  0  0
   -4.8241   -6.5625    0.1197 C   0  0  0  0  0  0  0  0  0  0  0  0
    1.4699   -6.4615   -1.7437 C   0  0  0  0  0  0  0  0  0  0  0  0
    3.5230   -4.3720   -0.6721 C   0  0  0  0  0  0  0  0  0  0  0  0
    4.9861   -0.2911   -1.1805 C   0  0  0  0  0  0  0  0  0  0  0  0
   -5.6669    5.1637    2.4032 C   0  0  0  0  0  0  0  0  0  0  0  0
   -2.6825   -7.1301   -2.4166 C   0  0  0  0  0  0  0  0  0  0  0  0
   10.6868   -1.0663   -0.4372 C   0  0  0  0  0  0  0  0  0  0  0  0
   -1.2097    4.2884    2.5649 H   0  0  0  0  0  0  0  0  0  0  0  0
   -0.2726   -5.8124    1.7491 H   0  0  0  0  0  0  0  0  0  0  0  0
    8.4909    0.4525    3.9780 H   0  0  0  0  0  0  0  0  0  0  0  0
    2.7844    2.1653    0.0859 H   0  0  0  0  0  0  0  0  0  0  0  0
    1.3994    1.5030    1.5492 H   0  0  0  0  0  0  0  0  0  0  0  0
    0.2919    1.6737   -1.6501 H   0  0  0  0  0  0  0  0  0  0  0  0
    1.4183    1.9901   -3.5760 H   0  0  0  0  0  0  0  0  0  0  0  0
    2.7297    1.3102   -2.6073 H   0  0  0  0  0  0  0  0  0  0  0  0
    3.7494    3.5137   -2.2911 H   0  0  0  0  0  0  0  0  0  0  0  0
    3.3232    3.2256   -3.9810 H   0  0  0  0  0  0  0  0  0  0  0  0
    1.9073    4.9760   -4.0861 H   0  0  0  0  0  0  0  0  0  0  0  0
    2.4040    5.3848   -2.4162 H   0  0  0  0  0  0  0  0  0  0  0  0
    0.1151    3.5330   -3.3087 H   0  0  0  0  0  0  0  0  0  0  0  0
    0.0400    5.1504   -2.4866 H   0  0  0  0  0  0  0  0  0  0  0  0
    1.0841    5.5861   -0.7992 H   0  0  0  0  0  0  0  0  0  0  0  0
    2.7289    4.3951    0.9317 H   0  0  0  0  0  0  0  0  0  0  0  0
    0.4537    3.7519    1.5686 H   0  0  0  0  0  0  0  0  0  0  0  0
    1.7723    6.1507    1.2488 H   0  0  0  0  0  0  0  0  0  0  0  0
   -0.6815    6.6153   -0.7307 H   0  0  0  0  0  0  0  0  0  0  0  0
   -2.7251    7.5649   -0.7268 H   0  0  0  0  0  0  0  0  0  0  0  0
   -3.1193    7.0636    0.9672 H   0  0  0  0  0  0  0  0  0  0  0  0
   -4.4948    5.7843   -0.4068 H   0  0  0  0  0  0  0  0  0  0  0  0
   -3.1896    5.3515   -1.5840 H   0  0  0  0  0  0  0  0  0  0  0  0
   -3.2847    4.7570    1.4275 H   0  0  0  0  0  0  0  0  0  0  0  0
   -4.1084    3.1225   -0.9742 H   0  0  0  0  0  0  0  0  0  0  0  0
   -3.6624    2.3186    0.5890 H   0  0  0  0  0  0  0  0  0  0  0  0
   -5.8961    4.3951    0.2112 H   0  0  0  0  0  0  0  0  0  0  0  0
   -6.0281    1.6302    1.4708 H   0  0  0  0  0  0  0  0  0  0  0  0
   -5.4177    1.5607   -1.0437 H   0  0  0  0  0  0  0  0  0  0  0  0
   -6.9560    2.4760   -1.3385 H   0  0  0  0  0  0  0  0  0  0  0  0
   -7.6702    0.3783    0.5002 H   0  0  0  0  0  0  0  0  0  0  0  0
   -8.1225    0.5394   -1.2866 H   0  0  0  0  0  0  0  0  0  0  0  0
   -6.2911   -0.7275   -1.9216 H   0  0  0  0  0  0  0  0  0  0  0  0
   -5.4037   -0.4008   -0.3761 H   0  0  0  0  0  0  0  0  0  0  0  0
   -7.7965   -1.5927    0.4680 H   0  0  0  0  0  0  0  0  0  0  0  0
   -7.5368   -2.4154   -1.0775 H   0  0  0  0  0  0  0  0  0  0  0  0
   -6.0051   -2.5739    1.5866 H   0  0  0  0  0  0  0  0  0  0  0  0
   -6.5054   -3.8278    0.4402 H   0  0  0  0  0  0  0  0  0  0  0  0
   -4.6144   -2.1759   -0.9938 H   0  0  0  0  0  0  0  0  0  0  0  0
   -3.7168   -4.2097   -1.5314 H   0  0  0  0  0  0  0  0  0  0  0  0
   -5.3947   -4.5705   -1.1278 H   0  0  0  0  0  0  0  0  0  0  0  0
   -4.4777   -4.8404    1.3524 H   0  0  0  0  0  0  0  0  0  0  0  0
   -2.0906   -4.6542    1.0306 H   0  0  0  0  0  0  0  0  0  0  0  0
   -3.2636   -6.1739    2.3216 H   0  0  0  0  0  0  0  0  0  0  0  0
   -1.9726   -5.2214   -1.3891 H   0  0  0  0  0  0  0  0  0  0  0  0
   -0.0909   -7.0211   -0.0154 H   0  0  0  0  0  0  0  0  0  0  0  0
   -0.2061   -5.2736   -2.2376 H   0  0  0  0  0  0  0  0  0  0  0  0
    1.4166   -3.6492   -1.9776 H   0  0  0  0  0  0  0  0  0  0  0  0
    0.2232   -3.4634   -0.6239 H   0  0  0  0  0  0  0  0  0  0  0  0
    2.0477   -4.8818    0.7447 H   0  0  0  0  0  0  0  0  0  0  0  0
    2.7238   -2.7362    1.5678 H   0  0  0  0  0  0  0  0  0  0  0  0
    0.6361   -2.4441    1.7887 H   0  0  0  0  0  0  0  0  0  0  0  0
    3.8136   -2.1213   -0.7549 H   0  0  0  0  0  0  0  0  0  0  0  0
    2.1569   -1.8428   -1.3122 H   0  0  0  0  0  0  0  0  0  0  0  0
    2.4329   -0.2145    1.0402 H   0  0  0  0  0  0  0  0  0  0  0  0
    4.5001    1.1148    0.3401 H   0  0  0  0  0  0  0  0  0  0  0  0
    4.5270   -0.7793    2.2137 H   0  0  0  0  0  0  0  0  0  0  0  0
    5.0490   -1.8853    0.9568 H   0  0  0  0  0  0  0  0  0  0  0  0
    6.7680   -1.3007    2.4139 H   0  0  0  0  0  0  0  0  0  0  0  0
    7.4108   -1.7607    0.0932 H   0  0  0  0  0  0  0  0  0  0  0  0
    7.3399   -0.0244   -0.3285 H   0  0  0  0  0  0  0  0  0  0  0  0
    9.3434   -1.5917    1.2773 H   0  0  0  0  0  0  0  0  0  0  0  0
   10.0560    0.8020    2.1198 H   0  0  0  0  0  0  0  0  0  0  0  0
    8.1262    2.3539    2.5059 H   0  0  0  0  0  0  0  0  0  0  0  0
    7.9818    1.7410    0.7747 H   0  0  0  0  0  0  0  0  0  0  0  0
    5.8102    1.5250    1.8963 H   0  0  0  0  0  0  0  0  0  0  0  0
    6.5897    0.7382    3.2914 H   0  0  0  0  0  0  0  0  0  0  0  0
   -1.3879    8.3595    1.2154 H   0  0  0  0  0  0  0  0  0  0  0  0
   -0.6101    7.1568    2.2471 H   0  0  0  0  0  0  0  0  0  0  0  0
    0.2870    7.9724    0.8385 H   0  0  0  0  0  0  0  0  0  0  0  0
   -7.8883    3.8966    0.6465 H   0  0  0  0  0  0  0  0  0  0  0  0
   -7.8581    2.8716    2.1926 H   0  0  0  0  0  0  0  0  0  0  0  0
   -8.4946    2.2349    0.6655 H   0  0  0  0  0  0  0  0  0  0  0  0
   -3.6579   -3.0172    1.8016 H   0  0  0  0  0  0  0  0  0  0  0  0
   -3.8412   -1.3850    1.1484 H   0  0  0  0  0  0  0  0  0  0  0  0
   -2.6587   -2.4295    0.3472 H   0  0  0  0  0  0  0  0  0  0  0  0
   -5.6610   -6.6769    0.8565 H   0  0  0  0  0  0  0  0  0  0  0  0
   -5.3056   -6.4943   -0.8659 H   0  0  0  0  0  0  0  0  0  0  0  0
   -4.1657   -7.4462    0.2460 H   0  0  0  0  0  0  0  0  0  0  0  0
    0.9128   -7.2554   -2.3229 H   0  0  0  0  0  0  0  0  0  0  0  0
    1.9065   -6.9927   -0.8733 H   0  0  0  0  0  0  0  0  0  0  0  0
    2.2408   -6.0919   -2.4455 H   0  0  0  0  0  0  0  0  0  0  0  0
    4.3343   -3.9490   -0.0153 H   0  0  0  0  0  0  0  0  0  0  0  0
    3.6465   -3.9383   -1.6640 H   0  0  0  0  0  0  0  0  0  0  0  0
    3.7531   -5.4724   -0.6914 H   0  0  0  0  0  0  0  0  0  0  0  0
    5.5686   -1.2251   -1.2201 H   0  0  0  0  0  0  0  0  0  0  0  0
    5.5550    0.5221   -1.6476 H   0  0  0  0  0  0  0  0  0  0  0  0
    4.1412   -0.4733   -1.9105 H   0  0  0  0  0  0  0  0  0  0  0  0
   -5.4396    5.3166    3.4917 H   0  0  0  0  0  0  0  0  0  0  0  0
   -6.7816    5.2021    2.3247 H   0  0  0  0  0  0  0  0  0  0  0  0
   -5.2757    6.0136    1.8498 H   0  0  0  0  0  0  0  0  0  0  0  0
   -3.0078   -8.0813   -2.8298 H   0  0  0  0  0  0  0  0  0  0  0  0
   -1.9017   -6.7325   -3.0961 H   0  0  0  0  0  0  0  0  0  0  0  0
   -3.5284   -6.4155   -2.4704 H   0  0  0  0  0  0  0  0  0  0  0  0
   11.3527   -1.2050    0.4256 H   0  0  0  0  0  0  0  0  0  0  0  0
   11.2592   -0.7014   -1.3055 H   0  0  0  0  0  0  0  0  0  0  0  0
   10.2399   -2.0717   -0.6371 H   0  0  0  0  0  0  0  0  0  0  0  0
  1  2  1  0
  1  3  1  0
  1  4  1  0
  4  5  1  0
  5  6  1  0
  6  7  1  0
  7  8  1  0
  4  9  1  0
  8  9  1  0
  9 10  1  0
 10 11  1  0
 10 12  1  0
 12 13  1  0
 12 14  1  0
 14 15  1  0
 14 16  1  1
 14 17  1  0
 17 18  1  0
 18 19  1  0
 15 20  1  0
 19 20  1  0
 20 21  1  0
 21 22  1  0
 22 23  1  0
 22 24  1  0
 24 25  1  0
 25 26  1  0
 26 27  1  0
 27 28  1  0
 28 29  1  0
 29 30  1  0
 30 31  1  0
 31 32  1  0
 32 33  1  0
 33 34  1  0
 33 35  1  0
 35 36  1  0
 35 37  1  0
 37 38  1  0
 37 39  1  0
 39 40  1  0
 40 41  1  0
 41 42  1  0
 42 43  1  0
 42 44  1  0
  2 45  1  0
 44 45  1  0
 45 46  1  0
 46 47  1  0
 47 48  1  0
 48 49  1  0
 49 50  1  0
 50 51  1  0
 50 52  1  0
 52 53  1  0
 52 54  1  0
 48 55  1  0
 54 55  1  0
 17 56  1  0
 24 57  1  0
 30 58  1  0
 32 59  1  0
 39 60  1  0
 41 61  1  0
 46 62  1  0
 23 63  1  0
 36 64  1  0
 51 65  1  0
 16 66  1  0
 38 67  1  0
 53 68  1  0
  1 69  1  0
  3 70  1  0
  4 71  1  6
  5 72  1  0
  5 73  1  0
  6 74  1  0
  6 75  1  0
  7 76  1  0
  7 77  1  0
  8 78  1  0
  8 79  1  0
 10 80  1  6
 11 81  1  0
 12 82  1  0
 13 83  1  0
 17 84  1  6
 18 85  1  0
 18 86  1  0
 19 87  1  0
 19 88  1  0
 20 89  1  1
 21 90  1  0
 21 91  1  0
 22 92  1  6
 24 93  1  0
 25 94  1  0
 25 95  1  0
 26 96  1  0
 26 97  1  0
 27 98  1  0
 27 99  1  0
 28100  1  0
 28101  1  0
 29102  1  0
 29103  1  0
 30104  1  6
 31105  1  0
 31106  1  0
 32107  1  1
 33108  1  0
 34109  1  0
 35110  1  6
 37111  1  1
 39112  1  0
 40113  1  0
 40114  1  0
 41115  1  1
 42116  1  0
 43117  1  0
 44118  1  0
 44119  1  0
 45120  1  1
 46121  1  1
 47122  1  0
 47123  1  0
 48124  1  1
 49125  1  0
 49126  1  0
 50127  1  1
 52128  1  1
 54129  1  0
 54130  1  0
 55131  1  0
 55132  1  0
 56133  1  0
 56134  1  0
 56135  1  0
 57136  1  0
 57137  1  0
 57138  1  0
 58139  1  0
 58140  1  0
 58141  1  0
 59142  1  0
 59143  1  0
 59144  1  0
 60145  1  0
 60146  1  0
 60147  1  0
 61148  1  0
 61149  1  0
 61150  1  0
 62151  1  0
 62152  1  0
 62153  1  0
 63154  1  0
 63155  1  0
 63156  1  0
 64157  1  0
 64158  1  0
 64159  1  0
 65160  1  0
 65161  1  0
 65162  1  0
M  END
>  <PDBID>  (1) 
1FKB

>  <PDB ID>  (1) 
1FKB

>  <Generic Name>  (1) 
Sirolimus

>  <Brand Name>  (1) 
Gd-sirolimus#Rapamune#Rapamune Oral Solution#Sirolimus

>  <DrugBank ID>  (1) 
DB00877

>  <ATC Codes>  (1) 
S01XA23#L04AA10

>  <Ligand ID>  (1) 
RAP

>  <Target Name>  (1) 
Peptidyl-prolyl cis-trans isomerase FKBP1A

>  <UniProt ID>  (1) 
P62942

>  <PDB ID.1>  (1) 
1FKB

>  <Seq. Identity>  (1) 
100%

$$$$
