PDB_DB11730_04
     RDKit          3D

 78 82  0  0  0  0  0  0  0  0999 V2000
    0.3414    1.0679    0.6149 C   0  0  2  0  0  0  0  0  0  0  0  0
   -0.7820   -0.6815    1.8262 C   0  0  0  0  0  0  0  0  0  0  0  0
   -1.3988   -0.8247    0.4571 C   0  0  0  0  0  0  0  0  0  0  0  0
   -1.8066    0.4643   -0.1458 C   0  0  0  0  0  0  0  0  0  0  0  0
    4.0133   -1.6463   -0.7442 C   0  0  0  0  0  0  0  0  0  0  0  0
    2.7083   -1.0913   -1.0421 N   0  0  0  0  0  0  0  0  0  0  0  0
   -2.7348   -1.5543    0.6238 C   0  0  0  0  0  0  0  0  0  0  0  0
    4.4996    0.7461   -0.4566 C   0  0  0  0  0  0  0  0  0  0  0  0
    4.8737   -0.6564   -0.0389 C   0  0  0  0  0  0  0  0  0  0  0  0
   -3.8035   -0.5423    0.2675 C   0  0  0  0  0  0  0  0  0  0  0  0
    2.2264   -0.1919   -0.0121 C   0  0  0  0  0  0  0  0  0  0  0  0
   -5.0346   -0.7814    1.0722 C   0  0  2  0  0  0  0  0  0  0  0  0
   -5.2959    2.2762   -1.9659 C   0  0  0  0  0  0  0  0  0  0  0  0
   -5.6867    3.0117   -0.7315 C   0  0  0  0  0  0  0  0  0  0  0  0
   -3.9092    1.7214   -1.7379 C   0  0  0  0  0  0  0  0  0  0  0  0
   -4.6348    2.7641    0.3303 C   0  0  0  0  0  0  0  0  0  0  0  0
    6.9209   -0.9918   -1.3070 C   0  0  0  0  0  0  0  0  0  0  0  0
    6.9909   -0.5206    1.0718 C   0  0  0  0  0  0  0  0  0  0  0  0
    8.0194    0.0082   -1.5279 C   0  0  0  0  0  0  0  0  0  0  0  0
    8.0135    0.5300    0.8321 C   0  0  0  0  0  0  0  0  0  0  0  0
   -3.6250    1.8595   -0.2803 C   0  0  0  0  0  0  0  0  0  0  0  0
   -5.1129   -3.2424    1.3700 C   0  0  0  0  0  0  0  0  0  0  0  0
   -6.6281   -2.2045   -0.0813 C   0  0  0  0  0  0  0  0  0  0  0  0
    3.1146    1.0006    0.1176 C   0  0  0  0  0  0  0  0  0  0  0  0
    0.1736    0.3988    1.8861 N   0  0  0  0  0  0  0  0  0  0  0  0
   -0.9781    1.5761    0.2561 N   0  0  0  0  0  0  0  0  0  0  0  0
   -3.1685    0.7383    0.4259 N   0  0  0  0  0  0  0  0  0  0  0  0
    6.2573   -0.9518   -0.0717 N   0  0  0  0  0  0  0  0  0  0  0  0
    0.9032    0.2458   -0.4086 N   0  0  0  0  0  0  0  0  0  0  0  0
   -5.6494   -2.0228    0.9518 N   0  0  0  0  0  0  0  0  0  0  0  0
    8.1553    0.9832   -0.5057 N   0  0  0  0  0  0  0  0  0  0  0  0
   -6.0328    0.1818    0.6905 O   0  0  0  0  0  0  0  0  0  0  0  0
   -1.5195   -0.5606    2.6373 H   0  0  0  0  0  0  0  0  0  0  0  0
    3.8263   -2.5630   -0.1162 H   0  0  0  0  0  0  0  0  0  0  0  0
   -2.7523   -2.4349   -0.0830 H   0  0  0  0  0  0  0  0  0  0  0  0
    4.4343    0.8955   -1.5361 H   0  0  0  0  0  0  0  0  0  0  0  0
   -6.0310    1.4931   -2.2356 H   0  0  0  0  0  0  0  0  0  0  0  0
   -5.3166    2.9901   -2.8309 H   0  0  0  0  0  0  0  0  0  0  0  0
   -6.6520    2.6475   -0.3130 H   0  0  0  0  0  0  0  0  0  0  0  0
   -5.8239    4.1117   -0.9541 H   0  0  0  0  0  0  0  0  0  0  0  0
   -3.7930    0.7004   -2.1512 H   0  0  0  0  0  0  0  0  0  0  0  0
   -3.2299    2.3469   -2.3715 H   0  0  0  0  0  0  0  0  0  0  0  0
   -5.0252    2.4877    1.3148 H   0  0  0  0  0  0  0  0  0  0  0  0
   -4.2113    3.8175    0.5292 H   0  0  0  0  0  0  0  0  0  0  0  0
    7.4060   -2.0098   -1.3918 H   0  0  0  0  0  0  0  0  0  0  0  0
    6.1789   -0.9766   -2.1349 H   0  0  0  0  0  0  0  0  0  0  0  0
    7.4894   -1.4120    1.5003 H   0  0  0  0  0  0  0  0  0  0  0  0
    6.2326   -0.2019    1.8438 H   0  0  0  0  0  0  0  0  0  0  0  0
    9.0257   -0.4760   -1.6842 H   0  0  0  0  0  0  0  0  0  0  0  0
    7.8212    0.5354   -2.4968 H   0  0  0  0  0  0  0  0  0  0  0  0
    7.7389    1.4309    1.4565 H   0  0  0  0  0  0  0  0  0  0  0  0
    9.0383    0.2532    1.2097 H   0  0  0  0  0  0  0  0  0  0  0  0
   -2.6609    2.5484   -0.2890 H   0  0  0  0  0  0  0  0  0  0  0  0
   -4.4983   -3.7147    0.5861 H   0  0  0  0  0  0  0  0  0  0  0  0
   -4.5637   -3.2215    2.3421 H   0  0  0  0  0  0  0  0  0  0  0  0
   -5.9504   -4.0282    1.5138 H   0  0  0  0  0  0  0  0  0  0  0  0
   -7.5264   -1.5725    0.1847 H   0  0  0  0  0  0  0  0  0  0  0  0
   -6.3011   -1.8444   -1.0859 H   0  0  0  0  0  0  0  0  0  0  0  0
   -6.9980   -3.2505   -0.1229 H   0  0  0  0  0  0  0  0  0  0  0  0
    3.1776    1.3265    1.1752 H   0  0  0  0  0  0  0  0  0  0  0  0
    0.9445    0.8436   -1.2791 H   0  0  0  0  0  0  0  0  0  0  0  0
    7.8230    1.9268   -0.7154 H   0  0  0  0  0  0  0  0  0  0  0  0
    1.0152    1.9285    0.7861 H   0  0  0  0  0  0  0  0  0  0  0  0
   -0.2332   -1.6269    2.0437 H   0  0  0  0  0  0  0  0  0  0  0  0
   -0.7695   -1.4338   -0.2077 H   0  0  0  0  0  0  0  0  0  0  0  0
   -1.9605    0.3750   -1.2273 H   0  0  0  0  0  0  0  0  0  0  0  0
    4.4288   -1.9481   -1.7501 H   0  0  0  0  0  0  0  0  0  0  0  0
    2.0171   -1.8275   -1.3007 H   0  0  0  0  0  0  0  0  0  0  0  0
   -2.8069   -1.9598    1.6393 H   0  0  0  0  0  0  0  0  0  0  0  0
    5.1885    1.4455    0.0591 H   0  0  0  0  0  0  0  0  0  0  0  0
    4.5704   -0.7139    1.0537 H   0  0  0  0  0  0  0  0  0  0  0  0
   -4.0689   -0.7600   -0.7915 H   0  0  0  0  0  0  0  0  0  0  0  0
    2.1987   -0.6911    0.9931 H   0  0  0  0  0  0  0  0  0  0  0  0
   -4.8239   -0.5725    2.1741 H   0  0  0  0  0  0  0  0  0  0  0  0
    2.6511    1.8436   -0.4520 H   0  0  0  0  0  0  0  0  0  0  0  0
    1.0325    0.1958    2.3983 H   0  0  0  0  0  0  0  0  0  0  0  0
   -1.3678    1.9876    1.1426 H   0  0  0  0  0  0  0  0  0  0  0  0
   -6.2841   -0.0010   -0.2306 H   0  0  0  0  0  0  0  0  0  0  0  0
  2  3  1  0
  3  4  1  0
  5  6  1  0
  3  7  1  0
  5  9  1  0
  8  9  1  0
  7 10  1  0
  6 11  1  0
 10 12  1  0
 13 14  1  0
 13 15  1  0
 14 16  1  0
 17 19  1  0
 18 20  1  0
 15 21  1  0
 16 21  1  0
  8 24  1  0
 11 24  1  0
  1 25  1  0
  2 25  1  0
  1 26  1  0
  4 26  1  0
  4 27  1  0
 10 27  1  0
 21 27  1  0
  9 28  1  0
 17 28  1  0
 18 28  1  0
  1 29  1  0
 11 29  1  0
 12 30  1  0
 22 30  1  0
 23 30  1  0
 19 31  1  0
 20 31  1  0
 12 32  1  0
  2 33  1  0
  5 34  1  0
  7 35  1  0
  8 36  1  0
 13 37  1  0
 13 38  1  0
 14 39  1  0
 14 40  1  0
 15 41  1  0
 15 42  1  0
 16 43  1  0
 16 44  1  0
 17 45  1  0
 17 46  1  0
 18 47  1  0
 18 48  1  0
 19 49  1  0
 19 50  1  0
 20 51  1  0
 20 52  1  0
 21 53  1  0
 22 54  1  0
 22 55  1  0
 22 56  1  0
 23 57  1  0
 23 58  1  0
 23 59  1  0
 24 60  1  0
 29 61  1  0
 31 62  1  0
  1 63  1  1
  2 64  1  0
  3 65  1  0
  4 66  1  0
  5 67  1  0
  6 68  1  0
  7 69  1  0
  8 70  1  0
  9 71  1  0
 10 72  1  0
 11 73  1  0
 12 74  1  1
 24 75  1  0
 25 76  1  0
 26 77  1  0
 32 78  1  0
M  END
>  <PDBID>  (1) 
5L2T

>  <PDB ID>  (1) 
5L2T

>  <Generic Name>  (1) 
Ribociclib

>  <Brand Name>  (1) 
Kisqali

>  <DrugBank ID>  (1) 
DB11730

>  <ATC Codes>  (1) 
nan

>  <Ligand ID>  (1) 
6ZZ

>  <Target Name>  (1) 
Cyclin-dependent kinase 6

>  <UniProt ID>  (1) 
Q00534

>  <PDB ID.1>  (1) 
5L2T

>  <Seq. Identity>  (1) 
100%

$$$$
