PDB_DB00559_00
     RDKit          3D

 94 97  0  0  0  0  0  0  0  0999 V2000
    4.1651   -1.5642    0.4545 C   0  0  0  0  0  0  0  0  0  0  0  0
   -0.4328    0.0450    0.4045 C   0  0  0  0  0  0  0  0  0  0  0  0
   -2.5231    0.9433   -0.4261 C   0  0  0  0  0  0  0  0  0  0  0  0
   -0.9294    3.4160    1.8396 C   0  0  0  0  0  0  0  0  0  0  0  0
   -1.2949    6.0037    0.8171 C   0  0  0  0  0  0  0  0  0  0  0  0
   -4.4002    0.9565   -1.6773 C   0  0  0  0  0  0  0  0  0  0  0  0
    7.2197    0.7491    0.3943 C   0  0  0  0  0  0  0  0  0  0  0  0
    6.4321   -0.5240    0.5901 C   0  0  0  0  0  0  0  0  0  0  0  0
    7.0482   -1.5933   -0.2750 C   0  0  0  0  0  0  0  0  0  0  0  0
    6.5927   -0.9408    2.0344 C   0  0  0  0  0  0  0  0  0  0  0  0
    4.9730   -0.3010    0.2653 C   0  0  0  0  0  0  0  0  0  0  0  0
    4.7652    0.3185   -1.0764 C   0  0  0  0  0  0  0  0  0  0  0  0
    3.8138   -0.5240   -1.9002 C   0  0  0  0  0  0  0  0  0  0  0  0
    2.4832   -0.7255   -1.2129 C   0  0  0  0  0  0  0  0  0  0  0  0
    2.7154   -1.2302    0.1712 C   0  0  0  0  0  0  0  0  0  0  0  0
    1.5123    0.7049   -1.2151 S   0  0  0  0  0  0  0  0  0  0  0  0
    1.4149    1.0329   -2.9935 O   0  0  0  0  0  0  0  0  0  0  0  0
    2.1496    1.9524   -0.6574 O   0  0  0  0  0  0  0  0  0  0  0  0
   -0.0089    0.3680   -0.9104 N   0  0  0  0  0  0  0  0  0  0  0  0
   -1.9490   -0.2235    0.3378 C   0  0  0  0  0  0  0  0  0  0  0  0
   -1.9570    2.1846    0.0669 N   0  0  0  0  0  0  0  0  0  0  0  0
   -1.3689    2.0293    1.3801 C   0  0  0  0  0  0  0  0  0  0  0  0
   -0.2586    1.1059    1.3754 N   0  0  0  0  0  0  0  0  0  0  0  0
    0.0038    3.9140    0.9146 N   0  0  0  0  0  0  0  0  0  0  0  0
    0.0083    5.2930    0.6335 C   0  0  0  0  0  0  0  0  0  0  0  0
   -2.4470    5.0217    1.0408 C   0  0  0  0  0  0  0  0  0  0  0  0
   -2.0583    4.2111    2.1637 N   0  0  0  0  0  0  0  0  0  0  0  0
   -3.8951    0.9895   -0.3841 O   0  0  0  0  0  0  0  0  0  0  0  0
   -5.9068    1.0149   -1.6234 C   0  0  0  0  0  0  0  0  0  0  0  0
   -6.4317   -0.0526   -0.9187 O   0  0  0  0  0  0  0  0  0  0  0  0
   -2.1065   -1.4143   -0.3255 O   0  0  0  0  0  0  0  0  0  0  0  0
   -2.7627   -2.3941    0.4512 C   0  0  0  0  0  0  0  0  0  0  0  0
   -1.7875   -3.5256    0.6442 C   0  0  0  0  0  0  0  0  0  0  0  0
   -2.5211   -4.8468    0.5890 C   0  0  0  0  0  0  0  0  0  0  0  0
   -3.2314   -5.1026   -0.6983 C   0  0  0  0  0  0  0  0  0  0  0  0
   -3.4743   -3.7834   -1.3987 C   0  0  0  0  0  0  0  0  0  0  0  0
   -3.9987   -2.8268   -0.3183 C   0  0  0  0  0  0  0  0  0  0  0  0
   -4.8580   -3.5757    0.4667 O   0  0  0  0  0  0  0  0  0  0  0  0
   -6.1558   -3.1310    0.4913 C   0  0  0  0  0  0  0  0  0  0  0  0
    4.2110   -1.8134    1.5482 H   0  0  0  0  0  0  0  0  0  0  0  0
    4.5119   -2.4038   -0.1492 H   0  0  0  0  0  0  0  0  0  0  0  0
    0.0680   -0.8821    0.7539 H   0  0  0  0  0  0  0  0  0  0  0  0
   -2.1756    0.8817   -1.5007 H   0  0  0  0  0  0  0  0  0  0  0  0
   -0.3911    3.2219    2.8177 H   0  0  0  0  0  0  0  0  0  0  0  0
   -1.5520    6.7050    0.0171 H   0  0  0  0  0  0  0  0  0  0  0  0
   -1.2345    6.6080    1.7572 H   0  0  0  0  0  0  0  0  0  0  0  0
   -4.1083   -0.0193   -2.1299 H   0  0  0  0  0  0  0  0  0  0  0  0
   -3.9754    1.7677   -2.3011 H   0  0  0  0  0  0  0  0  0  0  0  0
    7.7487    1.0616    1.3180 H   0  0  0  0  0  0  0  0  0  0  0  0
    7.9288    0.6608   -0.4696 H   0  0  0  0  0  0  0  0  0  0  0  0
    6.5045    1.5554    0.1342 H   0  0  0  0  0  0  0  0  0  0  0  0
    8.1336   -1.6208   -0.0213 H   0  0  0  0  0  0  0  0  0  0  0  0
    6.6580   -2.6091   -0.0547 H   0  0  0  0  0  0  0  0  0  0  0  0
    6.9907   -1.3467   -1.3569 H   0  0  0  0  0  0  0  0  0  0  0  0
    6.1834   -0.2161    2.7430 H   0  0  0  0  0  0  0  0  0  0  0  0
    6.2284   -1.9743    2.2035 H   0  0  0  0  0  0  0  0  0  0  0  0
    7.6985   -0.9858    2.2300 H   0  0  0  0  0  0  0  0  0  0  0  0
    4.5930    0.4270    1.0344 H   0  0  0  0  0  0  0  0  0  0  0  0
    5.7064    0.3881   -1.6742 H   0  0  0  0  0  0  0  0  0  0  0  0
    4.3817    1.3573   -1.0096 H   0  0  0  0  0  0  0  0  0  0  0  0
    4.2775   -1.5119   -2.0206 H   0  0  0  0  0  0  0  0  0  0  0  0
    3.7104   -0.0667   -2.8956 H   0  0  0  0  0  0  0  0  0  0  0  0
    1.9495   -1.5115   -1.7907 H   0  0  0  0  0  0  0  0  0  0  0  0
    2.4226   -0.4575    0.9143 H   0  0  0  0  0  0  0  0  0  0  0  0
    2.0843   -2.1355    0.4082 H   0  0  0  0  0  0  0  0  0  0  0  0
    1.0353    0.1795   -3.3394 H   0  0  0  0  0  0  0  0  0  0  0  0
    2.0191    2.8164   -1.1574 H   0  0  0  0  0  0  0  0  0  0  0  0
   -0.4635   -0.2912   -1.5810 H   0  0  0  0  0  0  0  0  0  0  0  0
   -2.3710   -0.2159    1.3556 H   0  0  0  0  0  0  0  0  0  0  0  0
   -1.2758    2.6209   -0.5942 H   0  0  0  0  0  0  0  0  0  0  0  0
   -2.1395    1.6698    2.0908 H   0  0  0  0  0  0  0  0  0  0  0  0
    0.6614    1.5971    1.2600 H   0  0  0  0  0  0  0  0  0  0  0  0
    0.9843    3.6218    1.1890 H   0  0  0  0  0  0  0  0  0  0  0  0
    0.2926    5.4249   -0.4535 H   0  0  0  0  0  0  0  0  0  0  0  0
    0.8264    5.8453    1.1826 H   0  0  0  0  0  0  0  0  0  0  0  0
   -2.6061    4.4823    0.1088 H   0  0  0  0  0  0  0  0  0  0  0  0
   -3.3344    5.6544    1.2573 H   0  0  0  0  0  0  0  0  0  0  0  0
   -2.8645    3.5999    2.4181 H   0  0  0  0  0  0  0  0  0  0  0  0
   -6.2623    1.9775   -1.2149 H   0  0  0  0  0  0  0  0  0  0  0  0
   -6.3132    0.9283   -2.6696 H   0  0  0  0  0  0  0  0  0  0  0  0
   -7.0711    0.2055   -0.2298 H   0  0  0  0  0  0  0  0  0  0  0  0
   -3.0023   -1.9621    1.4359 H   0  0  0  0  0  0  0  0  0  0  0  0
   -0.9319   -3.4905   -0.0623 H   0  0  0  0  0  0  0  0  0  0  0  0
   -1.3370   -3.4648    1.6620 H   0  0  0  0  0  0  0  0  0  0  0  0
   -3.2058   -4.8611    1.4877 H   0  0  0  0  0  0  0  0  0  0  0  0
   -1.8096   -5.6947    0.8111 H   0  0  0  0  0  0  0  0  0  0  0  0
   -4.2536   -5.5099   -0.4515 H   0  0  0  0  0  0  0  0  0  0  0  0
   -2.7117   -5.8319   -1.3528 H   0  0  0  0  0  0  0  0  0  0  0  0
   -2.5772   -3.3834   -1.8963 H   0  0  0  0  0  0  0  0  0  0  0  0
   -4.3346   -3.9027   -2.1091 H   0  0  0  0  0  0  0  0  0  0  0  0
   -4.4823   -1.9848   -0.8112 H   0  0  0  0  0  0  0  0  0  0  0  0
   -6.1716   -2.0991    0.8901 H   0  0  0  0  0  0  0  0  0  0  0  0
   -6.6854   -3.2321   -0.4716 H   0  0  0  0  0  0  0  0  0  0  0  0
   -6.7076   -3.7540    1.2249 H   0  0  0  0  0  0  0  0  0  0  0  0
  8  7  1  0
  8  9  1  0
  8 10  1  0
  1 11  1  0
  8 11  1  0
 11 12  1  0
 12 13  1  0
 13 14  1  0
  1 15  1  0
 14 15  1  0
 14 16  1  0
 16 17  1  0
 16 18  1  0
  2 19  1  0
 16 19  1  0
  2 20  1  0
  3 20  1  0
  3 21  1  0
  4 22  1  0
 21 22  1  0
  2 23  1  0
 22 23  1  0
  4 24  1  0
  5 25  1  0
 24 25  1  0
  5 26  1  0
  4 27  1  0
 26 27  1  0
  3 28  1  0
  6 28  1  0
  6 29  1  0
 29 30  1  0
 20 31  1  0
 31 32  1  0
 32 33  1  0
 33 34  1  0
 34 35  1  0
 35 36  1  0
 32 37  1  0
 36 37  1  0
 37 38  1  0
 38 39  1  0
  1 40  1  0
  1 41  1  0
  2 42  1  0
  3 43  1  0
  4 44  1  0
  5 45  1  0
  5 46  1  0
  6 47  1  0
  6 48  1  0
  7 49  1  0
  7 50  1  0
  7 51  1  0
  9 52  1  0
  9 53  1  0
  9 54  1  0
 10 55  1  0
 10 56  1  0
 10 57  1  0
 11 58  1  0
 12 59  1  0
 12 60  1  0
 13 61  1  0
 13 62  1  0
 14 63  1  0
 15 64  1  0
 15 65  1  0
 17 66  1  0
 18 67  1  0
 19 68  1  0
 20 69  1  0
 21 70  1  0
 22 71  1  0
 23 72  1  0
 24 73  1  0
 25 74  1  0
 25 75  1  0
 26 76  1  0
 26 77  1  0
 27 78  1  0
 29 79  1  0
 29 80  1  0
 30 81  1  0
 32 82  1  0
 33 83  1  0
 33 84  1  0
 34 85  1  0
 34 86  1  0
 35 87  1  0
 35 88  1  0
 36 89  1  0
 36 90  1  0
 37 91  1  0
 39 92  1  0
 39 93  1  0
 39 94  1  0
M  END
>  <PDBID>  (1) 
5XPR

>  <PDB ID>  (1) 
5XPR

>  <Generic Name>  (1) 
Bosentan

>  <Brand Name>  (1) 
Accel-bosentan#Act Bosentan#Apo-bosentan#Bosentan Tablets#Ipg-bosentan#Mar-bosentan#Mylan-bosentan#PMS-bosentan#Sandoz Bosentan#Teva-bosentan#Tracleer

>  <DrugBank ID>  (1) 
DB00559

>  <ATC Codes>  (1) 
C02KX01

>  <Ligand ID>  (1) 
K86

>  <Target Name>  (1) 
Endothelin B receptor

>  <UniProt ID>  (1) 
P24530

>  <PDB ID.1>  (1) 
5XPR

>  <Seq. Identity>  (1) 
85%

$$$$
