PDB_DB00238_01
     RDKit          3D

 48 51  0  0  0  0  0  0  0  0999 V2000
   -0.5133    1.1983    0.2842 N   0  0  0  0  0  0  0  0  0  0  0  0
   -0.5503    2.0383   -0.8597 C   0  0  0  0  0  0  0  0  0  0  0  0
   -1.7703    2.9840   -0.9955 C   0  0  0  0  0  0  0  0  0  0  0  0
   -0.3548    3.5168   -0.7674 C   0  0  0  0  0  0  0  0  0  0  0  0
    1.6793    1.9278    0.5705 N   0  0  0  0  0  0  0  0  0  0  0  0
    3.0477    1.6418    0.8830 C   0  0  0  0  0  0  0  0  0  0  0  0
    3.4692    0.2381    0.5820 C   0  0  0  0  0  0  0  0  0  0  0  0
    2.5900   -0.2603   -0.5331 C   0  0  0  0  0  0  0  0  0  0  0  0
    3.1194   -1.4653   -1.2248 C   0  0  0  0  0  0  0  0  0  0  0  0
    0.7774    0.8243    0.7396 C   0  0  2  0  0  0  0  0  0  0  0  0
    1.2002   -0.4309    0.0128 C   0  0  2  0  0  0  0  0  0  0  0  0
    1.0353   -1.5245    0.9214 N   0  0  0  0  0  0  0  0  0  0  0  0
   -0.3487   -1.9519    0.8315 C   0  0  0  0  0  0  0  0  0  0  0  0
   -0.6116   -2.4029   -0.4581 O   0  0  0  0  0  0  0  0  0  0  0  0
   -1.3104   -0.9086    1.2813 C   0  0  1  0  0  0  0  0  0  0  0  0
   -1.5266    0.2083    0.3117 C   0  0  2  0  0  0  0  0  0  0  0  0
   -2.6734   -1.5912    1.4342 C   0  0  0  0  0  0  0  0  0  0  0  0
   -3.1929   -2.0914    0.1145 C   0  0  0  0  0  0  0  0  0  0  0  0
   -3.0458   -1.1036   -0.9995 C   0  0  0  0  0  0  0  0  0  0  0  0
   -1.8054   -0.3846   -0.9907 N   0  0  0  0  0  0  0  0  0  0  0  0
   -0.1796    1.5893   -1.8100 H   0  0  0  0  0  0  0  0  0  0  0  0
   -2.1571    3.1354   -2.0294 H   0  0  0  0  0  0  0  0  0  0  0  0
   -2.4824    2.9889   -0.1468 H   0  0  0  0  0  0  0  0  0  0  0  0
    0.1305    4.0632   -1.6133 H   0  0  0  0  0  0  0  0  0  0  0  0
   -0.2575    4.0468    0.1870 H   0  0  0  0  0  0  0  0  0  0  0  0
    1.3737    2.6631    1.2640 H   0  0  0  0  0  0  0  0  0  0  0  0
    3.3235    1.8863    1.9349 H   0  0  0  0  0  0  0  0  0  0  0  0
    3.6754    2.3115    0.2399 H   0  0  0  0  0  0  0  0  0  0  0  0
    4.5268    0.1684    0.2437 H   0  0  0  0  0  0  0  0  0  0  0  0
    3.2817   -0.4043    1.4725 H   0  0  0  0  0  0  0  0  0  0  0  0
    2.5171    0.5730   -1.2856 H   0  0  0  0  0  0  0  0  0  0  0  0
    2.2693   -2.0581   -1.6151 H   0  0  0  0  0  0  0  0  0  0  0  0
    3.7348   -2.1353   -0.5827 H   0  0  0  0  0  0  0  0  0  0  0  0
    3.7560   -1.1608   -2.1062 H   0  0  0  0  0  0  0  0  0  0  0  0
    0.7025    0.6567    1.8542 H   0  0  0  0  0  0  0  0  0  0  0  0
    0.5470   -0.6428   -0.8727 H   0  0  0  0  0  0  0  0  0  0  0  0
    1.6949   -2.2957    0.8090 H   0  0  0  0  0  0  0  0  0  0  0  0
   -0.4521   -2.8230    1.5098 H   0  0  0  0  0  0  0  0  0  0  0  0
    0.1916   -2.8858   -0.7749 H   0  0  0  0  0  0  0  0  0  0  0  0
   -1.0116   -0.5292    2.2562 H   0  0  0  0  0  0  0  0  0  0  0  0
   -2.4808    0.7057    0.6115 H   0  0  0  0  0  0  0  0  0  0  0  0
   -2.6382   -2.4374    2.1257 H   0  0  0  0  0  0  0  0  0  0  0  0
   -3.3734   -0.7919    1.7982 H   0  0  0  0  0  0  0  0  0  0  0  0
   -2.8062   -3.1133   -0.1375 H   0  0  0  0  0  0  0  0  0  0  0  0
   -4.3040   -2.2564    0.2458 H   0  0  0  0  0  0  0  0  0  0  0  0
   -3.0829   -1.6810   -1.9657 H   0  0  0  0  0  0  0  0  0  0  0  0
   -3.8697   -0.3595   -1.0110 H   0  0  0  0  0  0  0  0  0  0  0  0
   -1.8444    0.3236   -1.7394 H   0  0  0  0  0  0  0  0  0  0  0  0
  1  2  1  0
  2  3  1  0
  2  4  1  0
  3  4  1  0
  5  6  1  0
  6  7  1  0
  7  8  1  0
  8  9  1  0
  1 10  1  0
  5 10  1  0
  8 11  1  0
 10 11  1  0
 11 12  1  0
 12 13  1  0
 13 14  1  0
 13 15  1  0
  1 16  1  0
 15 16  1  0
 15 17  1  0
 17 18  1  0
 18 19  1  0
 16 20  1  0
 19 20  1  0
  2 21  1  0
  3 22  1  0
  3 23  1  0
  4 24  1  0
  4 25  1  0
  5 26  1  0
  6 27  1  0
  6 28  1  0
  7 29  1  0
  7 30  1  0
  8 31  1  0
  9 32  1  0
  9 33  1  0
  9 34  1  0
 10 35  1  1
 11 36  1  6
 12 37  1  0
 13 38  1  0
 14 39  1  0
 15 40  1  1
 16 41  1  1
 17 42  1  0
 17 43  1  0
 18 44  1  0
 18 45  1  0
 19 46  1  0
 19 47  1  0
 20 48  1  0
M  END
>  <PDBID>  (1) 
2HND

>  <PDB ID>  (1) 
2HND

>  <Generic Name>  (1) 
Nevirapine

>  <Brand Name>  (1) 
Apo-nevirapine#Apo-nevirapine XR#Apo-zidovudine-lamivudine-nevirapine#Auro-nevirapine#Mylan-nevirapine#Nevirapine#Nevirapine Extended Release#PMS-nevirapine#Teva-nevirapine#Viramune#Viramune XR

>  <DrugBank ID>  (1) 
DB00238

>  <ATC Codes>  (1) 
J05AR05#J05AG01#J05AR07

>  <Ligand ID>  (1) 
NVP

>  <Target Name>  (1) 
Reverse transcriptase/RNaseH

>  <UniProt ID>  (1) 
Q72547

>  <PDB ID.1>  (1) 
2HND

>  <Seq. Identity>  (1) 
96%

$$$$
