PDB_DB00311_01
     RDKit          3D

 36 37  0  0  0  0  0  0  0  0999 V2000
    3.1176   -2.1787   -0.8729 N   0  0  0  0  0  0  0  0  0  0  0  0
    0.8284    0.5452   -0.2738 C   0  0  2  0  0  0  0  0  0  0  0  0
    0.0747    0.4340    1.0564 C   0  0  1  0  0  0  0  0  0  0  0  0
   -1.2841   -0.1216    0.8521 C   0  0  0  0  0  0  0  0  0  0  0  0
   -1.9579    0.7165   -0.2430 C   0  0  0  0  0  0  0  0  0  0  0  0
   -4.2214    0.7183   -0.7361 C   0  0  0  0  0  0  0  0  0  0  0  0
    3.7753   -2.5336    1.6483 O   0  0  0  0  0  0  0  0  0  0  0  0
    5.1699   -0.8697    0.1730 O   0  0  0  0  0  0  0  0  0  0  0  0
    3.6351   -1.3299    0.2282 S   0  0  0  0  0  0  0  0  0  0  0  0
    2.7018   -0.1213    0.9427 C   0  0  0  0  0  0  0  0  0  0  0  0
    2.1847    0.8802    0.0714 N   0  0  0  0  0  0  0  0  0  0  0  0
    1.2216   -0.7823    1.8241 S   0  0  0  0  0  0  0  0  0  0  0  0
   -1.1538    1.9693   -0.5328 C   0  0  0  0  0  0  0  0  0  0  0  0
    0.2153    1.6014   -1.1110 C   0  0  0  0  0  0  0  0  0  0  0  0
   -3.2234    1.1135    0.1316 O   0  0  0  0  0  0  0  0  0  0  0  0
   -4.3166   -0.7737   -0.8935 C   0  0  0  0  0  0  0  0  0  0  0  0
    3.5687   -2.2915   -1.8090 H   0  0  0  0  0  0  0  0  0  0  0  0
    2.4910   -3.0074   -0.7468 H   0  0  0  0  0  0  0  0  0  0  0  0
    0.7436   -0.4415   -0.7794 H   0  0  0  0  0  0  0  0  0  0  0  0
    0.1436    1.3391    1.6545 H   0  0  0  0  0  0  0  0  0  0  0  0
   -1.8604   -0.0201    1.7946 H   0  0  0  0  0  0  0  0  0  0  0  0
   -1.2151   -1.1644    0.4981 H   0  0  0  0  0  0  0  0  0  0  0  0
   -2.0233    0.1521   -1.1841 H   0  0  0  0  0  0  0  0  0  0  0  0
   -4.0854    1.2368   -1.7065 H   0  0  0  0  0  0  0  0  0  0  0  0
   -5.1831    1.0787   -0.3183 H   0  0  0  0  0  0  0  0  0  0  0  0
    4.0722   -1.9370    2.3525 H   0  0  0  0  0  0  0  0  0  0  0  0
    5.6284   -0.8366   -0.6966 H   0  0  0  0  0  0  0  0  0  0  0  0
    3.2791    0.3948    1.7393 H   0  0  0  0  0  0  0  0  0  0  0  0
    2.7245    0.9657   -0.7926 H   0  0  0  0  0  0  0  0  0  0  0  0
   -0.9534    2.5700    0.3687 H   0  0  0  0  0  0  0  0  0  0  0  0
   -1.7374    2.5730   -1.2343 H   0  0  0  0  0  0  0  0  0  0  0  0
    0.7979    2.5097   -1.2523 H   0  0  0  0  0  0  0  0  0  0  0  0
   -0.0146    1.2049   -2.1428 H   0  0  0  0  0  0  0  0  0  0  0  0
   -4.4705   -1.0816   -1.9683 H   0  0  0  0  0  0  0  0  0  0  0  0
   -3.4556   -1.3210   -0.5003 H   0  0  0  0  0  0  0  0  0  0  0  0
   -5.2174   -1.1913   -0.3607 H   0  0  0  0  0  0  0  0  0  0  0  0
  2  3  1  0
  3  4  1  0
  4  5  1  0
  1  9  1  0
  9  7  1  0
  8  9  1  0
  9 10  1  0
  2 11  1  0
 10 11  1  0
  3 12  1  0
 10 12  1  0
  5 13  1  0
  2 14  1  0
 13 14  1  0
  5 15  1  0
  6 15  1  0
  6 16  1  0
  1 17  1  0
  1 18  1  0
  2 19  1  6
  3 20  1  1
  4 21  1  0
  4 22  1  0
  5 23  1  0
  6 24  1  0
  6 25  1  0
  7 26  1  0
  8 27  1  0
 10 28  1  0
 11 29  1  0
 13 30  1  0
 13 31  1  0
 14 32  1  0
 14 33  1  0
 16 34  1  0
 16 35  1  0
 16 36  1  0
M  END
>  <PDBID>  (1) 
3DD0

>  <PDB ID>  (1) 
3DD0

>  <Generic Name>  (1) 
Ethoxzolamide

>  <Brand Name>  (1) 
Cardrase#Ethamide

>  <DrugBank ID>  (1) 
DB00311

>  <ATC Codes>  (1) 
nan

>  <Ligand ID>  (1) 
EZL

>  <Target Name>  (1) 
Carbonic anhydrase 1

>  <UniProt ID>  (1) 
P00915

>  <PDB ID.1>  (1) 
3DD0

>  <Seq. Identity>  (1) 
61%

$$$$
