PDB_DB00712_06
     RDKit          3D

 90 92  0  0  0  0  0  0  0  0999 V2000
   -4.2614    1.2644    0.8875 C   0  0  0  0  0  0  0  0  0  0  0  0
   -2.7519    1.0296    1.0207 C   0  0  0  0  0  0  0  0  0  0  0  0
   -2.1759    0.5146   -0.2840 C   0  0  0  0  0  0  0  0  0  0  0  0
   -2.6453   -0.8875   -0.4704 C   0  0  0  0  0  0  0  0  0  0  0  0
   -4.0198   -1.0502    0.1879 C   0  0  0  0  0  0  0  0  0  0  0  0
   -4.8515    0.2013    0.0099 C   0  0  0  0  0  0  0  0  0  0  0  0
   -0.6999    0.7041   -0.3054 C   0  0  0  0  0  0  0  0  0  0  0  0
    0.0133   -0.0254    0.8165 C   0  0  0  0  0  0  0  0  0  0  0  0
    1.3606    0.6628    0.9675 C   0  0  0  0  0  0  0  0  0  0  0  0
    2.1604    0.4220   -0.2835 C   0  0  0  0  0  0  0  0  0  0  0  0
    1.3797   -0.1715   -1.4029 C   0  0  0  0  0  0  0  0  0  0  0  0
   -0.0170    0.3475   -1.5687 C   0  0  0  0  0  0  0  0  0  0  0  0
    3.3378   -0.4352    0.1369 C   0  0  2  0  0  0  0  0  0  0  0  0
    4.1530    0.3103    1.1863 C   0  0  0  0  0  0  0  0  0  0  0  0
    4.2379   -0.8324   -1.0066 C   0  0  0  0  0  0  0  0  0  0  0  0
    3.5753   -1.5695   -1.9823 O   0  0  0  0  0  0  0  0  0  0  0  0
    5.2177   -1.6684   -0.4694 O   0  0  0  0  0  0  0  0  0  0  0  0
   -0.6897   -0.6555   -2.2847 F   0  0  0  0  0  0  0  0  0  0  0  0
   -4.2614    1.2644    0.8875 C   0  0  0  0  0  0  0  0  0  0  0  0
   -2.7519    1.0296    1.0207 C   0  0  0  0  0  0  0  0  0  0  0  0
   -2.1759    0.5146   -0.2840 C   0  0  0  0  0  0  0  0  0  0  0  0
   -2.6453   -0.8875   -0.4704 C   0  0  0  0  0  0  0  0  0  0  0  0
   -4.0198   -1.0502    0.1879 C   0  0  0  0  0  0  0  0  0  0  0  0
   -4.8515    0.2013    0.0099 C   0  0  0  0  0  0  0  0  0  0  0  0
   -0.6999    0.7041   -0.3054 C   0  0  0  0  0  0  0  0  0  0  0  0
    0.0133   -0.0254    0.8165 C   0  0  0  0  0  0  0  0  0  0  0  0
    1.3606    0.6628    0.9675 C   0  0  0  0  0  0  0  0  0  0  0  0
    2.1604    0.4220   -0.2835 C   0  0  0  0  0  0  0  0  0  0  0  0
    1.3797   -0.1715   -1.4029 C   0  0  0  0  0  0  0  0  0  0  0  0
   -0.0170    0.3475   -1.5687 C   0  0  0  0  0  0  0  0  0  0  0  0
    3.3378   -0.4352    0.1369 C   0  0  2  0  0  0  0  0  0  0  0  0
    4.1530    0.3103    1.1863 C   0  0  0  0  0  0  0  0  0  0  0  0
    4.2379   -0.8324   -1.0066 C   0  0  0  0  0  0  0  0  0  0  0  0
    3.5753   -1.5695   -1.9823 O   0  0  0  0  0  0  0  0  0  0  0  0
    5.2177   -1.6684   -0.4694 O   0  0  0  0  0  0  0  0  0  0  0  0
   -0.6897   -0.6555   -2.2847 F   0  0  0  0  0  0  0  0  0  0  0  0
   -4.4803    2.2436    0.4548 H   0  0  0  0  0  0  0  0  0  0  0  0
   -4.7356    1.1955    1.8893 H   0  0  0  0  0  0  0  0  0  0  0  0
   -2.6212    0.3108    1.8468 H   0  0  0  0  0  0  0  0  0  0  0  0
   -2.3355    2.0427    1.2704 H   0  0  0  0  0  0  0  0  0  0  0  0
   -2.6418    1.1283   -1.0842 H   0  0  0  0  0  0  0  0  0  0  0  0
   -2.8219   -1.0696   -1.5453 H   0  0  0  0  0  0  0  0  0  0  0  0
   -2.0085   -1.6543    0.0086 H   0  0  0  0  0  0  0  0  0  0  0  0
   -4.5943   -1.8772   -0.2885 H   0  0  0  0  0  0  0  0  0  0  0  0
   -3.9409   -1.2622    1.2596 H   0  0  0  0  0  0  0  0  0  0  0  0
   -4.9416    0.4986   -1.0519 H   0  0  0  0  0  0  0  0  0  0  0  0
   -5.8647   -0.0289    0.3699 H   0  0  0  0  0  0  0  0  0  0  0  0
   -0.5148    1.7910   -0.1219 H   0  0  0  0  0  0  0  0  0  0  0  0
   -0.5038    0.0641    1.7849 H   0  0  0  0  0  0  0  0  0  0  0  0
    0.1281   -1.1139    0.6021 H   0  0  0  0  0  0  0  0  0  0  0  0
    1.8753    0.3557    1.8935 H   0  0  0  0  0  0  0  0  0  0  0  0
    1.1384    1.7441    1.0768 H   0  0  0  0  0  0  0  0  0  0  0  0
    2.5853    1.3943   -0.6077 H   0  0  0  0  0  0  0  0  0  0  0  0
    1.3854   -1.2739   -1.2713 H   0  0  0  0  0  0  0  0  0  0  0  0
    1.9206    0.0271   -2.3508 H   0  0  0  0  0  0  0  0  0  0  0  0
   -0.0290    1.2291   -2.2439 H   0  0  0  0  0  0  0  0  0  0  0  0
    2.9880   -1.3747    0.6161 H   0  0  0  0  0  0  0  0  0  0  0  0
    4.0093   -0.1015    2.1996 H   0  0  0  0  0  0  0  0  0  0  0  0
    5.2299    0.3406    0.9184 H   0  0  0  0  0  0  0  0  0  0  0  0
    3.8186    1.3859    1.2254 H   0  0  0  0  0  0  0  0  0  0  0  0
    4.7737    0.0389   -1.4328 H   0  0  0  0  0  0  0  0  0  0  0  0
    3.6296   -2.5343   -1.7710 H   0  0  0  0  0  0  0  0  0  0  0  0
    5.2284   -1.6605    0.5216 H   0  0  0  0  0  0  0  0  0  0  0  0
   -4.4803    2.2436    0.4548 H   0  0  0  0  0  0  0  0  0  0  0  0
   -4.7356    1.1955    1.8893 H   0  0  0  0  0  0  0  0  0  0  0  0
   -2.6212    0.3108    1.8468 H   0  0  0  0  0  0  0  0  0  0  0  0
   -2.3355    2.0427    1.2704 H   0  0  0  0  0  0  0  0  0  0  0  0
   -2.6418    1.1283   -1.0842 H   0  0  0  0  0  0  0  0  0  0  0  0
   -2.8219   -1.0696   -1.5453 H   0  0  0  0  0  0  0  0  0  0  0  0
   -2.0085   -1.6543    0.0086 H   0  0  0  0  0  0  0  0  0  0  0  0
   -4.5943   -1.8772   -0.2885 H   0  0  0  0  0  0  0  0  0  0  0  0
   -3.9409   -1.2622    1.2596 H   0  0  0  0  0  0  0  0  0  0  0  0
   -4.9416    0.4986   -1.0519 H   0  0  0  0  0  0  0  0  0  0  0  0
   -5.8647   -0.0289    0.3699 H   0  0  0  0  0  0  0  0  0  0  0  0
   -0.5148    1.7910   -0.1219 H   0  0  0  0  0  0  0  0  0  0  0  0
   -0.5038    0.0641    1.7849 H   0  0  0  0  0  0  0  0  0  0  0  0
    0.1281   -1.1139    0.6021 H   0  0  0  0  0  0  0  0  0  0  0  0
    1.8753    0.3557    1.8935 H   0  0  0  0  0  0  0  0  0  0  0  0
    1.1384    1.7441    1.0768 H   0  0  0  0  0  0  0  0  0  0  0  0
    2.5853    1.3943   -0.6077 H   0  0  0  0  0  0  0  0  0  0  0  0
    1.3854   -1.2739   -1.2713 H   0  0  0  0  0  0  0  0  0  0  0  0
    1.9206    0.0271   -2.3508 H   0  0  0  0  0  0  0  0  0  0  0  0
   -0.0290    1.2291   -2.2439 H   0  0  0  0  0  0  0  0  0  0  0  0
    2.9880   -1.3747    0.6161 H   0  0  0  0  0  0  0  0  0  0  0  0
    4.0093   -0.1015    2.1996 H   0  0  0  0  0  0  0  0  0  0  0  0
    5.2299    0.3406    0.9184 H   0  0  0  0  0  0  0  0  0  0  0  0
    3.8186    1.3859    1.2254 H   0  0  0  0  0  0  0  0  0  0  0  0
    4.7737    0.0389   -1.4328 H   0  0  0  0  0  0  0  0  0  0  0  0
    3.6296   -2.5343   -1.7710 H   0  0  0  0  0  0  0  0  0  0  0  0
    5.2284   -1.6605    0.5216 H   0  0  0  0  0  0  0  0  0  0  0  0
  1  2  1  0
  2  3  1  0
  3  4  1  0
  4  5  1  0
  1  6  1  0
  5  6  1  0
  3  7  1  0
  7  8  1  0
  8  9  1  0
  9 10  1  0
 10 11  1  0
  7 12  1  0
 11 12  1  0
 10 13  1  0
 13 14  1  0
 13 15  1  0
 15 16  1  0
 15 17  1  0
 12 18  1  0
 19 20  1  0
 20 21  1  0
 21 22  1  0
 22 23  1  0
 19 24  1  0
 23 24  1  0
 21 25  1  0
 25 26  1  0
 26 27  1  0
 27 28  1  0
 28 29  1  0
 25 30  1  0
 29 30  1  0
 28 31  1  0
 31 32  1  0
 31 33  1  0
 33 34  1  0
 33 35  1  0
 30 36  1  0
  1 37  1  0
  1 38  1  0
  2 39  1  0
  2 40  1  0
  3 41  1  0
  4 42  1  0
  4 43  1  0
  5 44  1  0
  5 45  1  0
  6 46  1  0
  6 47  1  0
  7 48  1  0
  8 49  1  0
  8 50  1  0
  9 51  1  0
  9 52  1  0
 10 53  1  0
 11 54  1  0
 11 55  1  0
 12 56  1  0
 13 57  1  1
 14 58  1  0
 14 59  1  0
 14 60  1  0
 15 61  1  0
 16 62  1  0
 17 63  1  0
 19 64  1  0
 19 65  1  0
 20 66  1  0
 20 67  1  0
 21 68  1  0
 22 69  1  0
 22 70  1  0
 23 71  1  0
 23 72  1  0
 24 73  1  0
 24 74  1  0
 25 75  1  0
 26 76  1  0
 26 77  1  0
 27 78  1  0
 27 79  1  0
 28 80  1  0
 29 81  1  0
 29 82  1  0
 30 83  1  0
 31 84  1  1
 32 85  1  0
 32 86  1  0
 32 87  1  0
 33 88  1  0
 34 89  1  0
 35 90  1  0
M  END
>  <PDBID>  (1) 
5JVZ

>  <PDB ID>  (1) 
5JVZ

>  <Generic Name>  (1) 
Flurbiprofen

>  <Brand Name>  (1) 
Ansaid Tablets 100 mg#Ansaid Tablets 50 mg#Antiphlamine Pain Relieving#Apo-flurbiprofen Fc Tablets 100mg#Apo-flurbiprofen Fc Tablets 50mg#Flurbiprofen#Flurbiprofen Sodium#Flurbiprofen-100 Tab 100mg#Flurbiprofen-50 Tab 50mg#Froben#Froben SR#Froben Tab 100mg#Froben Tab 50mg#Froben-SR Cap 200mg#Novo-flurprofen SR#Nu-flurbiprofen Tab 100mg#Nu-flurbiprofen Tab 50mg#Ocufen#Ocufen Oph Soln 0.03%#Ratio-flurbiprofen Tablets 100mg#Ratio-flurbiprofen Tablets 50mg#Teva-flurbiprofen#Acustop Cataplasma#Adofeed#Ansaid#Antadys#Cebutid#Flurofen#Ocuflur#Stayban#Strefen#Strepfen#Strepsils#Strepsils Intensive#TransAct#Urbifen#Zepolas

>  <DrugBank ID>  (1) 
DB00712

>  <ATC Codes>  (1) 
M02AA19#R02AX01#M01AE09#S01BC04

>  <Ligand ID>  (1) 
FLP,FLR

>  <Target Name>  (1) 
Prostaglandin G/H synthase 2

>  <UniProt ID>  (1) 
P35354

>  <PDB ID.1>  (1) 
5JVZ

>  <Seq. Identity>  (1) 
85%

$$$$
