PDB_DB00715_09
     RDKit          3D

 56 59  0  0  0  0  0  0  0  0999 V2000
   -6.5340    0.7767   -0.7029 F   0  0  0  0  0  0  0  0  0  0  0  0
   -5.0521    0.0644    0.9407 C   0  0  0  0  0  0  0  0  0  0  0  0
   -4.6831   -0.3965   -1.4812 C   0  0  0  0  0  0  0  0  0  0  0  0
    3.6622   -0.6811   -1.6383 C   0  0  0  0  0  0  0  0  0  0  0  0
   -3.5766    0.4577    0.7437 C   0  0  0  0  0  0  0  0  0  0  0  0
   -3.4360   -1.1626   -1.0940 C   0  0  0  0  0  0  0  0  0  0  0  0
    4.9008   -0.9590   -0.8814 C   0  0  0  0  0  0  0  0  0  0  0  0
    2.8444   -0.8156    0.6391 C   0  0  0  0  0  0  0  0  0  0  0  0
   -0.2838    0.7222    2.0972 C   0  0  0  0  0  0  0  0  0  0  0  0
   -0.9044   -0.5546    1.7019 C   0  0  0  0  0  0  0  0  0  0  0  0
   -0.1697    1.4537   -0.2044 C   0  0  0  0  0  0  0  0  0  0  0  0
    4.6420    2.1384    0.3189 C   0  0  0  0  0  0  0  0  0  0  0  0
    0.1741   -0.5340   -1.6497 C   0  0  0  0  0  0  0  0  0  0  0  0
    0.4098    1.4338    1.0867 N   0  0  0  0  0  0  0  0  0  0  0  0
    1.3209   -0.9340   -1.2236 O   0  0  0  0  0  0  0  0  0  0  0  0
    5.5952    1.1960   -0.0416 O   0  0  0  0  0  0  0  0  0  0  0  0
    3.4889    1.4460    0.6541 O   0  0  0  0  0  0  0  0  0  0  0  0
   -5.6878   -0.2925   -0.3795 C   0  0  0  0  0  0  0  0  0  0  0  0
    2.4277   -0.4113   -0.7818 C   0  0  0  0  0  0  0  0  0  0  0  0
   -2.8874   -0.7627    0.2224 C   0  0  0  0  0  0  0  0  0  0  0  0
    5.1443   -0.0513    0.2876 C   0  0  0  0  0  0  0  0  0  0  0  0
    3.8826    0.1890    1.0893 C   0  0  0  0  0  0  0  0  0  0  0  0
   -0.7460    0.2033   -0.7132 C   0  0  1  0  0  0  0  0  0  0  0  0
   -1.3782   -0.7014    0.3003 C   0  0  1  0  0  0  0  0  0  0  0  0
   -5.6050    0.8385    1.4969 H   0  0  0  0  0  0  0  0  0  0  0  0
   -5.0193   -0.8411    1.5854 H   0  0  0  0  0  0  0  0  0  0  0  0
   -4.4824    0.6062   -1.8692 H   0  0  0  0  0  0  0  0  0  0  0  0
   -5.1616   -0.9796   -2.3139 H   0  0  0  0  0  0  0  0  0  0  0  0
    3.4834   -1.5699   -2.3089 H   0  0  0  0  0  0  0  0  0  0  0  0
    3.7708    0.1640   -2.3437 H   0  0  0  0  0  0  0  0  0  0  0  0
   -3.5706    1.3087    0.0628 H   0  0  0  0  0  0  0  0  0  0  0  0
   -3.2533    0.7146    1.7815 H   0  0  0  0  0  0  0  0  0  0  0  0
   -3.7568   -2.2489   -1.0659 H   0  0  0  0  0  0  0  0  0  0  0  0
   -2.7656   -1.1044   -1.9557 H   0  0  0  0  0  0  0  0  0  0  0  0
    5.0304   -2.0118   -0.5721 H   0  0  0  0  0  0  0  0  0  0  0  0
    5.7607   -0.7737   -1.5925 H   0  0  0  0  0  0  0  0  0  0  0  0
    2.0235   -0.8247    1.3490 H   0  0  0  0  0  0  0  0  0  0  0  0
    3.3747   -1.7956    0.5873 H   0  0  0  0  0  0  0  0  0  0  0  0
   -1.0717    1.3908    2.5081 H   0  0  0  0  0  0  0  0  0  0  0  0
    0.4333    0.5783    2.9554 H   0  0  0  0  0  0  0  0  0  0  0  0
   -0.1897   -1.3826    1.9943 H   0  0  0  0  0  0  0  0  0  0  0  0
   -1.8024   -0.8007    2.3576 H   0  0  0  0  0  0  0  0  0  0  0  0
    0.4934    2.0109   -0.8841 H   0  0  0  0  0  0  0  0  0  0  0  0
   -1.0483    2.1907   -0.0940 H   0  0  0  0  0  0  0  0  0  0  0  0
    4.9689    2.7587    1.1823 H   0  0  0  0  0  0  0  0  0  0  0  0
    4.5146    2.8277   -0.5395 H   0  0  0  0  0  0  0  0  0  0  0  0
   -0.4180   -1.4842   -1.9569 H   0  0  0  0  0  0  0  0  0  0  0  0
    0.1691   -0.0165   -2.6712 H   0  0  0  0  0  0  0  0  0  0  0  0
    0.9150    2.2652    1.3768 H   0  0  0  0  0  0  0  0  0  0  0  0
   -6.3523   -1.1759   -0.2862 H   0  0  0  0  0  0  0  0  0  0  0  0
    2.3659    0.6931   -0.7456 H   0  0  0  0  0  0  0  0  0  0  0  0
   -3.1582   -1.5770    0.9650 H   0  0  0  0  0  0  0  0  0  0  0  0
    5.8744   -0.5348    0.9620 H   0  0  0  0  0  0  0  0  0  0  0  0
    4.0382    0.2218    2.1652 H   0  0  0  0  0  0  0  0  0  0  0  0
   -1.6407    0.4762   -1.4021 H   0  0  0  0  0  0  0  0  0  0  0  0
   -1.0740   -1.7484   -0.0186 H   0  0  0  0  0  0  0  0  0  0  0  0
  2  5  1  0
  3  6  1  0
  4  7  1  0
  9 10  1  0
  9 14  1  0
 11 14  1  0
 13 15  1  0
 12 16  1  0
 12 17  1  0
  1 18  1  0
  2 18  1  0
  3 18  1  0
  4 19  1  0
  8 19  1  0
 15 19  1  0
  5 20  1  0
  6 20  1  0
  7 21  1  0
 16 21  1  0
  8 22  1  0
 17 22  1  0
 21 22  1  0
 11 23  1  0
 13 23  1  0
 10 24  1  0
 20 24  1  0
 23 24  1  0
  2 25  1  0
  2 26  1  0
  3 27  1  0
  3 28  1  0
  4 29  1  0
  4 30  1  0
  5 31  1  0
  5 32  1  0
  6 33  1  0
  6 34  1  0
  7 35  1  0
  7 36  1  0
  8 37  1  0
  8 38  1  0
  9 39  1  0
  9 40  1  0
 10 41  1  0
 10 42  1  0
 11 43  1  0
 11 44  1  0
 12 45  1  0
 12 46  1  0
 13 47  1  0
 13 48  1  0
 14 49  1  0
 18 50  1  0
 19 51  1  0
 20 52  1  0
 21 53  1  0
 22 54  1  0
 23 55  1  6
 24 56  1  6
M  END
>  <PDBID>  (1) 
5I6X

>  <PDB ID>  (1) 
5I6X

>  <Generic Name>  (1) 
Paroxetine

>  <Brand Name>  (1) 
Act Paroxetine#Apo-paroxetine#Auro-paroxetine#Bio-paroxetine#Brisdelle#Dom-paroxetine#Ipg-paroxetine#Jamp-paroxetine#Mar-paroxetine#Mint-paroxetine#Mylan-paroxetine#Ntp-paroxetine#Nu-paroxetine#PMS-paroxetine#Paroxetine#Paroxetine Hydrochloride#Paroxetine Hydrochloride Anhydrous#Paroxetine-10#Paroxetine-20#Paroxetine-30#Paxil#Paxil CR#Paxil Tab 10mg#Paxil Tab 20mg#Paxil Tab 30mg#Paxilcr CR#Pexeva#Priva-paroxetine#Q-paroxetine#Ratio-paroxetine#Riva-paroxetine#Sandoz Paroxetine#Sandoz Paroxetine Tablets#Teva-paroxetine#Aropax#PAXILCR#Sereupin#Seroxat#Seroxat CR

>  <DrugBank ID>  (1) 
DB00715

>  <ATC Codes>  (1) 
N06AB05

>  <Ligand ID>  (1) 
8PR

>  <Target Name>  (1) 
Sodium-dependent serotonin transporter

>  <UniProt ID>  (1) 
P31645

>  <PDB ID.1>  (1) 
5I6X

>  <Seq. Identity>  (1) 
99%

$$$$
