PDB_DB00712_03
     RDKit          3D

 90 92  0  0  0  0  0  0  0  0999 V2000
    3.8985   -0.0722    1.4727 C   0  0  0  0  0  0  0  0  0  0  0  0
    2.6907    0.7571    1.0857 C   0  0  0  0  0  0  0  0  0  0  0  0
    1.7123   -0.1452    0.3845 C   0  0  0  0  0  0  0  0  0  0  0  0
    2.4985   -1.2623   -0.2566 C   0  0  0  0  0  0  0  0  0  0  0  0
    3.7322   -0.6181   -0.9025 C   0  0  0  0  0  0  0  0  0  0  0  0
    4.6898   -0.3388    0.2362 C   0  0  0  0  0  0  0  0  0  0  0  0
    0.8675    0.5511   -0.6319 C   0  0  0  0  0  0  0  0  0  0  0  0
    0.0282    1.6539   -0.0888 C   0  0  0  0  0  0  0  0  0  0  0  0
   -1.2604    1.0972    0.5434 C   0  0  0  0  0  0  0  0  0  0  0  0
   -2.1734    0.5865   -0.5417 C   0  0  0  0  0  0  0  0  0  0  0  0
   -1.3158    0.2095   -1.7171 C   0  0  0  0  0  0  0  0  0  0  0  0
   -0.0223   -0.4608   -1.3092 C   0  0  0  0  0  0  0  0  0  0  0  0
   -2.9966   -0.5393   -0.0181 C   0  0  2  0  0  0  0  0  0  0  0  0
   -3.9316   -1.1085   -1.0734 C   0  0  0  0  0  0  0  0  0  0  0  0
   -3.9060    0.0091    1.0882 C   0  0  0  0  0  0  0  0  0  0  0  0
   -4.6886   -1.0405    1.5834 O   0  0  0  0  0  0  0  0  0  0  0  0
   -3.1320    0.4975    2.1342 O   0  0  0  0  0  0  0  0  0  0  0  0
    0.5514   -0.9032   -2.5084 F   0  0  0  0  0  0  0  0  0  0  0  0
    3.8985   -0.0722    1.4727 C   0  0  0  0  0  0  0  0  0  0  0  0
    2.6907    0.7571    1.0857 C   0  0  0  0  0  0  0  0  0  0  0  0
    1.7123   -0.1452    0.3845 C   0  0  0  0  0  0  0  0  0  0  0  0
    2.4985   -1.2623   -0.2566 C   0  0  0  0  0  0  0  0  0  0  0  0
    3.7322   -0.6181   -0.9025 C   0  0  0  0  0  0  0  0  0  0  0  0
    4.6898   -0.3388    0.2362 C   0  0  0  0  0  0  0  0  0  0  0  0
    0.8675    0.5511   -0.6319 C   0  0  0  0  0  0  0  0  0  0  0  0
    0.0282    1.6539   -0.0888 C   0  0  0  0  0  0  0  0  0  0  0  0
   -1.2604    1.0972    0.5434 C   0  0  0  0  0  0  0  0  0  0  0  0
   -2.1734    0.5865   -0.5417 C   0  0  0  0  0  0  0  0  0  0  0  0
   -1.3158    0.2095   -1.7171 C   0  0  0  0  0  0  0  0  0  0  0  0
   -0.0223   -0.4608   -1.3092 C   0  0  0  0  0  0  0  0  0  0  0  0
   -2.9966   -0.5393   -0.0181 C   0  0  2  0  0  0  0  0  0  0  0  0
   -3.9316   -1.1085   -1.0734 C   0  0  0  0  0  0  0  0  0  0  0  0
   -3.9060    0.0091    1.0882 C   0  0  0  0  0  0  0  0  0  0  0  0
   -4.6886   -1.0405    1.5834 O   0  0  0  0  0  0  0  0  0  0  0  0
   -3.1320    0.4975    2.1342 O   0  0  0  0  0  0  0  0  0  0  0  0
    0.5514   -0.9032   -2.5084 F   0  0  0  0  0  0  0  0  0  0  0  0
    3.6417   -0.9641    2.0677 H   0  0  0  0  0  0  0  0  0  0  0  0
    4.5265    0.6124    2.1170 H   0  0  0  0  0  0  0  0  0  0  0  0
    2.2455    1.1431    2.0032 H   0  0  0  0  0  0  0  0  0  0  0  0
    3.0854    1.5568    0.4154 H   0  0  0  0  0  0  0  0  0  0  0  0
    1.0787   -0.6094    1.1679 H   0  0  0  0  0  0  0  0  0  0  0  0
    1.9028   -1.8434   -0.9626 H   0  0  0  0  0  0  0  0  0  0  0  0
    2.8408   -2.0031    0.5167 H   0  0  0  0  0  0  0  0  0  0  0  0
    4.1771   -1.2980   -1.6705 H   0  0  0  0  0  0  0  0  0  0  0  0
    3.4308    0.2927   -1.4350 H   0  0  0  0  0  0  0  0  0  0  0  0
    5.4013   -1.1825    0.3386 H   0  0  0  0  0  0  0  0  0  0  0  0
    5.2874    0.5522   -0.0044 H   0  0  0  0  0  0  0  0  0  0  0  0
    1.5167    0.9799   -1.4337 H   0  0  0  0  0  0  0  0  0  0  0  0
    0.5082    2.2426    0.7126 H   0  0  0  0  0  0  0  0  0  0  0  0
   -0.3039    2.3655   -0.8639 H   0  0  0  0  0  0  0  0  0  0  0  0
   -1.7182    1.9677    1.0391 H   0  0  0  0  0  0  0  0  0  0  0  0
   -0.9942    0.3197    1.2929 H   0  0  0  0  0  0  0  0  0  0  0  0
   -2.8253    1.4634   -0.8389 H   0  0  0  0  0  0  0  0  0  0  0  0
   -1.8774   -0.4079   -2.4575 H   0  0  0  0  0  0  0  0  0  0  0  0
   -1.0442    1.1304   -2.2753 H   0  0  0  0  0  0  0  0  0  0  0  0
   -0.1967   -1.3661   -0.6965 H   0  0  0  0  0  0  0  0  0  0  0  0
   -2.3873   -1.3448    0.4227 H   0  0  0  0  0  0  0  0  0  0  0  0
   -3.4576   -1.9081   -1.6650 H   0  0  0  0  0  0  0  0  0  0  0  0
   -4.2885   -0.2534   -1.6781 H   0  0  0  0  0  0  0  0  0  0  0  0
   -4.7726   -1.5885   -0.5101 H   0  0  0  0  0  0  0  0  0  0  0  0
   -4.4952    0.8321    0.6780 H   0  0  0  0  0  0  0  0  0  0  0  0
   -4.9557   -0.8086    2.5212 H   0  0  0  0  0  0  0  0  0  0  0  0
   -3.5684    1.2466    2.6170 H   0  0  0  0  0  0  0  0  0  0  0  0
    3.6417   -0.9641    2.0677 H   0  0  0  0  0  0  0  0  0  0  0  0
    4.5265    0.6124    2.1170 H   0  0  0  0  0  0  0  0  0  0  0  0
    2.2455    1.1431    2.0032 H   0  0  0  0  0  0  0  0  0  0  0  0
    3.0854    1.5568    0.4154 H   0  0  0  0  0  0  0  0  0  0  0  0
    1.0787   -0.6094    1.1679 H   0  0  0  0  0  0  0  0  0  0  0  0
    1.9028   -1.8434   -0.9626 H   0  0  0  0  0  0  0  0  0  0  0  0
    2.8408   -2.0031    0.5167 H   0  0  0  0  0  0  0  0  0  0  0  0
    4.1771   -1.2980   -1.6705 H   0  0  0  0  0  0  0  0  0  0  0  0
    3.4308    0.2927   -1.4350 H   0  0  0  0  0  0  0  0  0  0  0  0
    5.4013   -1.1825    0.3386 H   0  0  0  0  0  0  0  0  0  0  0  0
    5.2874    0.5522   -0.0044 H   0  0  0  0  0  0  0  0  0  0  0  0
    1.5167    0.9799   -1.4337 H   0  0  0  0  0  0  0  0  0  0  0  0
    0.5082    2.2426    0.7126 H   0  0  0  0  0  0  0  0  0  0  0  0
   -0.3039    2.3655   -0.8639 H   0  0  0  0  0  0  0  0  0  0  0  0
   -1.7182    1.9677    1.0391 H   0  0  0  0  0  0  0  0  0  0  0  0
   -0.9942    0.3197    1.2929 H   0  0  0  0  0  0  0  0  0  0  0  0
   -2.8253    1.4634   -0.8389 H   0  0  0  0  0  0  0  0  0  0  0  0
   -1.8774   -0.4079   -2.4575 H   0  0  0  0  0  0  0  0  0  0  0  0
   -1.0442    1.1304   -2.2753 H   0  0  0  0  0  0  0  0  0  0  0  0
   -0.1967   -1.3661   -0.6965 H   0  0  0  0  0  0  0  0  0  0  0  0
   -2.3873   -1.3448    0.4227 H   0  0  0  0  0  0  0  0  0  0  0  0
   -3.4576   -1.9081   -1.6650 H   0  0  0  0  0  0  0  0  0  0  0  0
   -4.2885   -0.2534   -1.6781 H   0  0  0  0  0  0  0  0  0  0  0  0
   -4.7726   -1.5885   -0.5101 H   0  0  0  0  0  0  0  0  0  0  0  0
   -4.4952    0.8321    0.6780 H   0  0  0  0  0  0  0  0  0  0  0  0
   -4.9557   -0.8086    2.5212 H   0  0  0  0  0  0  0  0  0  0  0  0
   -3.5684    1.2466    2.6170 H   0  0  0  0  0  0  0  0  0  0  0  0
  1  2  1  0
  2  3  1  0
  3  4  1  0
  4  5  1  0
  1  6  1  0
  5  6  1  0
  3  7  1  0
  7  8  1  0
  8  9  1  0
  9 10  1  0
 10 11  1  0
  7 12  1  0
 11 12  1  0
 10 13  1  0
 13 14  1  0
 13 15  1  0
 15 16  1  0
 15 17  1  0
 12 18  1  0
 19 20  1  0
 20 21  1  0
 21 22  1  0
 22 23  1  0
 19 24  1  0
 23 24  1  0
 21 25  1  0
 25 26  1  0
 26 27  1  0
 27 28  1  0
 28 29  1  0
 25 30  1  0
 29 30  1  0
 28 31  1  0
 31 32  1  0
 31 33  1  0
 33 34  1  0
 33 35  1  0
 30 36  1  0
  1 37  1  0
  1 38  1  0
  2 39  1  0
  2 40  1  0
  3 41  1  0
  4 42  1  0
  4 43  1  0
  5 44  1  0
  5 45  1  0
  6 46  1  0
  6 47  1  0
  7 48  1  0
  8 49  1  0
  8 50  1  0
  9 51  1  0
  9 52  1  0
 10 53  1  0
 11 54  1  0
 11 55  1  0
 12 56  1  0
 13 57  1  1
 14 58  1  0
 14 59  1  0
 14 60  1  0
 15 61  1  0
 16 62  1  0
 17 63  1  0
 19 64  1  0
 19 65  1  0
 20 66  1  0
 20 67  1  0
 21 68  1  0
 22 69  1  0
 22 70  1  0
 23 71  1  0
 23 72  1  0
 24 73  1  0
 24 74  1  0
 25 75  1  0
 26 76  1  0
 26 77  1  0
 27 78  1  0
 27 79  1  0
 28 80  1  0
 29 81  1  0
 29 82  1  0
 30 83  1  0
 31 84  1  1
 32 85  1  0
 32 86  1  0
 32 87  1  0
 33 88  1  0
 34 89  1  0
 35 90  1  0
M  END
>  <PDBID>  (1) 
5JVZ

>  <PDB ID>  (1) 
5JVZ

>  <Generic Name>  (1) 
Flurbiprofen

>  <Brand Name>  (1) 
Ansaid Tablets 100 mg#Ansaid Tablets 50 mg#Antiphlamine Pain Relieving#Apo-flurbiprofen Fc Tablets 100mg#Apo-flurbiprofen Fc Tablets 50mg#Flurbiprofen#Flurbiprofen Sodium#Flurbiprofen-100 Tab 100mg#Flurbiprofen-50 Tab 50mg#Froben#Froben SR#Froben Tab 100mg#Froben Tab 50mg#Froben-SR Cap 200mg#Novo-flurprofen SR#Nu-flurbiprofen Tab 100mg#Nu-flurbiprofen Tab 50mg#Ocufen#Ocufen Oph Soln 0.03%#Ratio-flurbiprofen Tablets 100mg#Ratio-flurbiprofen Tablets 50mg#Teva-flurbiprofen#Acustop Cataplasma#Adofeed#Ansaid#Antadys#Cebutid#Flurofen#Ocuflur#Stayban#Strefen#Strepfen#Strepsils#Strepsils Intensive#TransAct#Urbifen#Zepolas

>  <DrugBank ID>  (1) 
DB00712

>  <ATC Codes>  (1) 
M02AA19#R02AX01#M01AE09#S01BC04

>  <Ligand ID>  (1) 
FLP,FLR

>  <Target Name>  (1) 
Prostaglandin G/H synthase 2

>  <UniProt ID>  (1) 
P35354

>  <PDB ID.1>  (1) 
5JVZ

>  <Seq. Identity>  (1) 
85%

$$$$
