PDB_DB01268_04
     RDKit          3D

 72 74  0  0  0  0  0  0  0  0999 V2000
    0.7826   -3.4963   -0.7401 C   0  0  0  0  0  0  0  0  0  0  0  0
   -7.2424    1.8547   -0.4110 C   0  0  0  0  0  0  0  0  0  0  0  0
   -7.1905    0.7479    0.5952 C   0  0  0  0  0  0  0  0  0  0  0  0
   -4.7290    2.0469   -0.5541 C   0  0  0  0  0  0  0  0  0  0  0  0
   -0.3755   -0.1113   -0.1091 C   0  0  0  0  0  0  0  0  0  0  0  0
   -6.0439    2.7552   -0.3566 C   0  0  0  0  0  0  0  0  0  0  0  0
   -4.9371    0.5815   -0.2940 C   0  0  0  0  0  0  0  0  0  0  0  0
   -3.6212   -0.0638    0.2162 C   0  0  0  0  0  0  0  0  0  0  0  0
   -4.2807   -1.3592    0.7451 C   0  0  0  0  0  0  0  0  0  0  0  0
    1.8534   -0.8885    0.8439 C   0  0  0  0  0  0  0  0  0  0  0  0
   -0.7078    0.2748    1.2825 C   0  0  0  0  0  0  0  0  0  0  0  0
   -2.7765   -0.2816   -0.9484 C   0  0  0  0  0  0  0  0  0  0  0  0
    0.0434   -2.3983   -0.0069 C   0  0  0  0  0  0  0  0  0  0  0  0
   -5.7560    0.4327    0.9709 C   0  0  0  0  0  0  0  0  0  0  0  0
   -1.4338   -0.8449   -0.8788 C   0  0  0  0  0  0  0  0  0  0  0  0
    0.7664   -1.0952   -0.1652 C   0  0  0  0  0  0  0  0  0  0  0  0
   -1.2882   -2.1993   -0.4992 N   0  0  0  0  0  0  0  0  0  0  0  0
   -5.5498   -0.9263    1.3285 N   0  0  0  0  0  0  0  0  0  0  0  0
    2.4397    0.3714    0.6925 N   0  0  0  0  0  0  0  0  0  0  0  0
   -4.5996   -2.2208   -0.3004 O   0  0  0  0  0  0  0  0  0  0  0  0
    2.7402   -1.9654    0.6598 O   0  0  0  0  0  0  0  0  0  0  0  0
   -6.1955    3.6549   -1.4218 F   0  0  0  0  0  0  0  0  0  0  0  0
    3.7971    0.6094    1.0311 C   0  0  0  0  0  0  0  0  0  0  0  0
    4.7525   -0.0476    0.1119 C   0  0  0  0  0  0  0  0  0  0  0  0
    6.1435    0.2160    0.4785 N   0  0  0  0  0  0  0  0  0  0  0  0
    7.0007   -0.4544   -0.4392 C   0  0  0  0  0  0  0  0  0  0  0  0
    6.4189    1.5771    0.7431 C   0  0  0  0  0  0  0  0  0  0  0  0
    6.3319    2.5181   -0.4187 C   0  0  0  0  0  0  0  0  0  0  0  0
    8.4387   -0.3757   -0.0937 C   0  0  0  0  0  0  0  0  0  0  0  0
    1.1865   -3.2032   -1.7087 H   0  0  0  0  0  0  0  0  0  0  0  0
    0.1311   -4.3864   -0.9175 H   0  0  0  0  0  0  0  0  0  0  0  0
    1.6333   -3.8743   -0.1284 H   0  0  0  0  0  0  0  0  0  0  0  0
   -8.1240    2.5062   -0.1740 H   0  0  0  0  0  0  0  0  0  0  0  0
   -7.4462    1.4328   -1.3958 H   0  0  0  0  0  0  0  0  0  0  0  0
   -7.7231   -0.1278    0.2030 H   0  0  0  0  0  0  0  0  0  0  0  0
   -7.6773    1.1222    1.5415 H   0  0  0  0  0  0  0  0  0  0  0  0
   -3.9778    2.4090    0.2108 H   0  0  0  0  0  0  0  0  0  0  0  0
   -4.3242    2.1714   -1.5718 H   0  0  0  0  0  0  0  0  0  0  0  0
   -0.0329    0.8051   -0.6797 H   0  0  0  0  0  0  0  0  0  0  0  0
   -6.0677    3.3284    0.6009 H   0  0  0  0  0  0  0  0  0  0  0  0
   -5.3148    0.0129   -1.1325 H   0  0  0  0  0  0  0  0  0  0  0  0
   -3.2755    0.4581    1.0841 H   0  0  0  0  0  0  0  0  0  0  0  0
   -3.6298   -1.8205    1.4785 H   0  0  0  0  0  0  0  0  0  0  0  0
    1.4805   -1.0359    1.8903 H   0  0  0  0  0  0  0  0  0  0  0  0
   -1.2279   -0.4893    1.8470 H   0  0  0  0  0  0  0  0  0  0  0  0
   -1.1677    1.2951    1.3125 H   0  0  0  0  0  0  0  0  0  0  0  0
    0.2634    0.4559    1.8414 H   0  0  0  0  0  0  0  0  0  0  0  0
   -2.7049    0.7037   -1.5225 H   0  0  0  0  0  0  0  0  0  0  0  0
   -3.3639   -0.9131   -1.6913 H   0  0  0  0  0  0  0  0  0  0  0  0
   -0.0129   -2.7018    1.0789 H   0  0  0  0  0  0  0  0  0  0  0  0
   -5.3567    1.1661    1.7055 H   0  0  0  0  0  0  0  0  0  0  0  0
   -1.0321   -0.8098   -1.9663 H   0  0  0  0  0  0  0  0  0  0  0  0
    1.2620   -1.0420   -1.1818 H   0  0  0  0  0  0  0  0  0  0  0  0
   -1.9847   -2.6626    0.0516 H   0  0  0  0  0  0  0  0  0  0  0  0
   -5.4347   -1.0000    2.3670 H   0  0  0  0  0  0  0  0  0  0  0  0
    2.0516    1.0197   -0.0030 H   0  0  0  0  0  0  0  0  0  0  0  0
   -5.4210   -1.9814   -0.7806 H   0  0  0  0  0  0  0  0  0  0  0  0
    3.0719   -2.3206    1.5105 H   0  0  0  0  0  0  0  0  0  0  0  0
    3.9029    1.7484    1.0004 H   0  0  0  0  0  0  0  0  0  0  0  0
    4.0327    0.3728    2.0971 H   0  0  0  0  0  0  0  0  0  0  0  0
    4.6703   -1.1482    0.1285 H   0  0  0  0  0  0  0  0  0  0  0  0
    4.5540    0.2572   -0.9367 H   0  0  0  0  0  0  0  0  0  0  0  0
    6.8306    0.0404   -1.4470 H   0  0  0  0  0  0  0  0  0  0  0  0
    6.6436   -1.5242   -0.5252 H   0  0  0  0  0  0  0  0  0  0  0  0
    5.7504    1.9514    1.5546 H   0  0  0  0  0  0  0  0  0  0  0  0
    7.4649    1.6626    1.1591 H   0  0  0  0  0  0  0  0  0  0  0  0
    5.3947    3.1335   -0.3803 H   0  0  0  0  0  0  0  0  0  0  0  0
    6.4655    2.0293   -1.3947 H   0  0  0  0  0  0  0  0  0  0  0  0
    7.1480    3.2592   -0.3324 H   0  0  0  0  0  0  0  0  0  0  0  0
    9.0684   -0.0390   -0.9745 H   0  0  0  0  0  0  0  0  0  0  0  0
    8.8272   -1.4368    0.0866 H   0  0  0  0  0  0  0  0  0  0  0  0
    8.6846    0.2638    0.7480 H   0  0  0  0  0  0  0  0  0  0  0  0
  2  3  1  0
  2  6  1  0
  4  6  1  0
  4  7  1  0
  7  8  1  0
  8  9  1  0
  5 11  1  0
  8 12  1  0
  1 13  1  0
  3 14  1  0
  7 14  1  0
  5 15  1  0
 12 15  1  0
  5 16  1  0
 10 16  1  0
 13 16  1  0
 13 17  1  0
 15 17  1  0
  9 18  1  0
 14 18  1  0
 10 19  1  0
  9 20  1  0
 10 21  1  0
  6 22  1  0
 19 23  1  0
 23 24  1  0
 24 25  1  0
 25 26  1  0
 25 27  1  0
 27 28  1  0
 26 29  1  0
  1 30  1  0
  1 31  1  0
  1 32  1  0
  2 33  1  0
  2 34  1  0
  3 35  1  0
  3 36  1  0
  4 37  1  0
  4 38  1  0
  5 39  1  0
  6 40  1  0
  7 41  1  0
  8 42  1  0
  9 43  1  0
 10 44  1  0
 11 45  1  0
 11 46  1  0
 11 47  1  0
 12 48  1  0
 12 49  1  0
 13 50  1  0
 14 51  1  0
 15 52  1  0
 16 53  1  0
 17 54  1  0
 18 55  1  0
 19 56  1  0
 20 57  1  0
 21 58  1  0
 23 59  1  0
 23 60  1  0
 24 61  1  0
 24 62  1  0
 26 63  1  0
 26 64  1  0
 27 65  1  0
 27 66  1  0
 28 67  1  0
 28 68  1  0
 28 69  1  0
 29 70  1  0
 29 71  1  0
 29 72  1  0
M  END
>  <PDBID>  (1) 
4AGD

>  <PDB ID>  (1) 
4AGD

>  <Generic Name>  (1) 
Sunitinib

>  <Brand Name>  (1) 
Sutent

>  <DrugBank ID>  (1) 
DB01268

>  <ATC Codes>  (1) 
L01XE04

>  <Ligand ID>  (1) 
B49

>  <Target Name>  (1) 
Vascular endothelial growth factor receptor 3

>  <UniProt ID>  (1) 
P35916

>  <PDB ID.1>  (1) 
4AGD

>  <Seq. Identity>  (1) 
66%

$$$$
