PDB_DB01361_03
     RDKit          3D

134137  0  0  0  0  0  0  0  0999 V2000
    6.8870    0.4594   -3.1597 C   0  0  0  0  0  0  0  0  0  0  0  0
    5.7243   -0.1474   -2.7020 O   0  0  0  0  0  0  0  0  0  0  0  0
    5.7144   -0.0866   -1.3176 C   0  0  1  0  0  0  0  0  0  0  0  0
    4.5497    0.6989   -0.7787 C   0  0  0  0  0  0  0  0  0  0  0  0
    3.2335   -0.0279   -0.9142 C   0  0  1  0  0  0  0  0  0  0  0  0
    3.4917   -1.3847   -1.0934 O   0  0  0  0  0  0  0  0  0  0  0  0
    4.4226   -1.7355   -0.1193 C   0  0  1  0  0  0  0  0  0  0  0  0
    4.2524   -3.1626    0.3381 C   0  0  0  0  0  0  0  0  0  0  0  0
    5.7890   -1.4824   -0.7116 C   0  0  2  0  0  0  0  0  0  0  0  0
    6.7002   -1.5401    0.3254 O   0  0  0  0  0  0  0  0  0  0  0  0
    7.6833   -2.4917    0.1905 C   0  0  1  0  0  0  0  0  0  0  0  0
    8.9099   -1.8419    0.0708 O   0  0  0  0  0  0  0  0  0  0  0  0
    7.7573   -3.4901    1.2843 C   0  0  0  0  0  0  0  0  0  0  0  0
    2.4286    0.0753    0.2113 O   0  0  0  0  0  0  0  0  0  0  0  0
    1.1590    0.5952   -0.0379 C   0  0  2  0  0  0  0  0  0  0  0  0
    1.0736    1.8323    0.8697 C   0  0  2  0  0  0  0  0  0  0  0  0
    1.7881    3.0229    0.3556 C   0  0  0  0  0  0  0  0  0  0  0  0
    2.0788    2.8259   -0.9844 O   0  0  0  0  0  0  0  0  0  0  0  0
    1.3510    4.2427    0.5528 O   0  0  0  0  0  0  0  0  0  0  0  0
    0.1118    4.7103    0.7123 C   0  0  2  0  0  0  0  0  0  0  0  0
   -0.7090    4.2256    1.8591 C   0  0  0  0  0  0  0  0  0  0  0  0
   -0.6938    4.9439   -0.5753 C   0  0  2  0  0  0  0  0  0  0  0  0
   -0.1870    6.2662   -1.2146 C   0  0  0  0  0  0  0  0  0  0  0  0
   -2.1471    5.1271   -0.3576 C   0  0  1  0  0  0  0  0  0  0  0  0
   -2.5978    6.4258   -0.7378 O   0  0  0  0  0  0  0  0  0  0  0  0
   -2.9808    7.2069    0.3156 C   0  0  2  0  0  0  0  0  0  0  0  0
   -4.3100    7.6378    0.2756 O   0  0  0  0  0  0  0  0  0  0  0  0
   -2.0424    8.4001    0.4063 C   0  0  0  0  0  0  0  0  0  0  0  0
   -3.1191    4.1659   -0.9155 C   0  0  2  0  0  0  0  0  0  0  0  0
   -2.7651    3.2743   -2.0271 C   0  0  2  0  0  0  0  0  0  0  0  0
   -3.5938    3.5997   -3.1195 O   0  0  0  0  0  0  0  0  0  0  0  0
   -2.9618    1.7844   -1.7068 C   0  0  2  0  0  0  0  0  0  0  0  0
   -3.8091    1.0190   -2.4549 O   0  0  0  0  0  0  0  0  0  0  0  0
   -4.2392    1.3220   -1.1520 C   0  0  0  0  0  0  0  0  0  0  0  0
   -1.7122    1.1733   -1.0749 C   0  0  0  0  0  0  0  0  0  0  0  0
   -1.3026   -0.1243   -1.6823 C   0  0  1  0  0  0  0  0  0  0  0  0
   -0.4074   -0.0204   -2.8823 C   0  0  0  0  0  0  0  0  0  0  0  0
   -0.6560   -1.0621   -0.6729 C   0  0  2  0  0  0  0  0  0  0  0  0
   -1.7785   -1.7481   -0.1267 O   0  0  0  0  0  0  0  0  0  0  0  0
   -1.9225   -3.0171   -0.6082 C   0  0  2  0  0  0  0  0  0  0  0  0
   -2.9005   -2.9969   -1.6597 O   0  0  0  0  0  0  0  0  0  0  0  0
   -4.1643   -3.2733   -1.2286 C   0  0  2  0  0  0  0  0  0  0  0  0
   -4.7517   -2.2925   -0.2502 C   0  0  0  0  0  0  0  0  0  0  0  0
   -4.3060   -4.6994   -0.7311 C   0  0  0  0  0  0  0  0  0  0  0  0
   -2.9133   -5.1961   -0.4442 C   0  0  2  0  0  0  0  0  0  0  0  0
   -2.9249   -6.4734    0.2040 N   0  0  0  0  0  0  0  0  0  0  0  0
   -3.4943   -7.4460   -0.7706 C   0  0  0  0  0  0  0  0  0  0  0  0
   -3.9487   -6.4622    1.2639 C   0  0  0  0  0  0  0  0  0  0  0  0
   -2.2064   -4.0893    0.3606 C   0  0  1  0  0  0  0  0  0  0  0  0
   -1.1094   -4.6392    1.0177 O   0  0  0  0  0  0  0  0  0  0  0  0
   -1.1885   -4.6867    2.3815 C   0  0  2  0  0  0  0  0  0  0  0  0
   -0.2351   -3.9377    3.0623 O   0  0  0  0  0  0  0  0  0  0  0  0
   -1.1025   -6.0954    2.9332 C   0  0  0  0  0  0  0  0  0  0  0  0
    0.1294   -0.4430    0.3955 C   0  0  1  0  0  0  0  0  0  0  0  0
    0.8058   -1.5420    1.1941 C   0  0  0  0  0  0  0  0  0  0  0  0
   -4.4706    4.8613   -1.2267 C   0  0  0  0  0  0  0  0  0  0  0  0
    1.6563    1.4595    2.2509 C   0  0  0  0  0  0  0  0  0  0  0  0
    6.9710    1.5270   -2.8593 H   0  0  0  0  0  0  0  0  0  0  0  0
    6.9778    0.4163   -4.2650 H   0  0  0  0  0  0  0  0  0  0  0  0
    7.8055   -0.0677   -2.7734 H   0  0  0  0  0  0  0  0  0  0  0  0
    6.6357    0.4275   -0.9902 H   0  0  0  0  0  0  0  0  0  0  0  0
    4.4846    1.6147   -1.3989 H   0  0  0  0  0  0  0  0  0  0  0  0
    4.7642    1.0283    0.2567 H   0  0  0  0  0  0  0  0  0  0  0  0
    2.6928    0.3149   -1.8422 H   0  0  0  0  0  0  0  0  0  0  0  0
    4.3474   -1.0912    0.7868 H   0  0  0  0  0  0  0  0  0  0  0  0
    4.7293   -3.8735   -0.3936 H   0  0  0  0  0  0  0  0  0  0  0  0
    3.1854   -3.3847    0.3633 H   0  0  0  0  0  0  0  0  0  0  0  0
    4.6709   -3.2501    1.3406 H   0  0  0  0  0  0  0  0  0  0  0  0
    5.9406   -2.1876   -1.5236 H   0  0  0  0  0  0  0  0  0  0  0  0
    7.5298   -3.0452   -0.7726 H   0  0  0  0  0  0  0  0  0  0  0  0
    8.8159   -0.8560    0.0774 H   0  0  0  0  0  0  0  0  0  0  0  0
    7.1947   -3.1991    2.1993 H   0  0  0  0  0  0  0  0  0  0  0  0
    7.4489   -4.5253    0.9514 H   0  0  0  0  0  0  0  0  0  0  0  0
    8.8145   -3.5978    1.6003 H   0  0  0  0  0  0  0  0  0  0  0  0
    1.1216    0.8101   -1.0935 H   0  0  0  0  0  0  0  0  0  0  0  0
    0.0052    1.9939    1.0575 H   0  0  0  0  0  0  0  0  0  0  0  0
    2.8465    2.9624    0.8543 H   0  0  0  0  0  0  0  0  0  0  0  0
    1.3011    2.7071   -1.5343 H   0  0  0  0  0  0  0  0  0  0  0  0
    0.3105    5.8152    1.0430 H   0  0  0  0  0  0  0  0  0  0  0  0
   -1.1649    5.0744    2.4678 H   0  0  0  0  0  0  0  0  0  0  0  0
    0.0204    3.7883    2.6036 H   0  0  0  0  0  0  0  0  0  0  0  0
   -1.5462    3.5717    1.6492 H   0  0  0  0  0  0  0  0  0  0  0  0
   -0.3906    4.2262   -1.3527 H   0  0  0  0  0  0  0  0  0  0  0  0
    0.6218    6.0487   -1.9638 H   0  0  0  0  0  0  0  0  0  0  0  0
   -1.0021    6.7320   -1.7627 H   0  0  0  0  0  0  0  0  0  0  0  0
    0.2703    6.9070   -0.4387 H   0  0  0  0  0  0  0  0  0  0  0  0
   -2.2617    5.2000    0.7848 H   0  0  0  0  0  0  0  0  0  0  0  0
   -2.8654    6.6514    1.2840 H   0  0  0  0  0  0  0  0  0  0  0  0
   -4.8739    7.1253    0.9191 H   0  0  0  0  0  0  0  0  0  0  0  0
   -1.6492    8.6898   -0.5723 H   0  0  0  0  0  0  0  0  0  0  0  0
   -1.1788    8.0893    1.0384 H   0  0  0  0  0  0  0  0  0  0  0  0
   -2.5529    9.2593    0.9164 H   0  0  0  0  0  0  0  0  0  0  0  0
   -3.4174    3.4841   -0.0471 H   0  0  0  0  0  0  0  0  0  0  0  0
   -1.7088    3.3454   -2.2955 H   0  0  0  0  0  0  0  0  0  0  0  0
   -3.3905    2.9447   -3.8337 H   0  0  0  0  0  0  0  0  0  0  0  0
   -5.1103    1.9878   -1.0316 H   0  0  0  0  0  0  0  0  0  0  0  0
   -4.2153    0.5328   -0.3731 H   0  0  0  0  0  0  0  0  0  0  0  0
   -0.9457    1.9656   -1.1702 H   0  0  0  0  0  0  0  0  0  0  0  0
   -1.8823    0.9832    0.0084 H   0  0  0  0  0  0  0  0  0  0  0  0
   -2.2444   -0.5933   -2.0610 H   0  0  0  0  0  0  0  0  0  0  0  0
   -0.0803    1.0138   -3.1153 H   0  0  0  0  0  0  0  0  0  0  0  0
   -0.9260   -0.3508   -3.8332 H   0  0  0  0  0  0  0  0  0  0  0  0
    0.4514   -0.7206   -2.7710 H   0  0  0  0  0  0  0  0  0  0  0  0
   -0.0713   -1.7635   -1.2734 H   0  0  0  0  0  0  0  0  0  0  0  0
   -0.9994   -3.2706   -1.2090 H   0  0  0  0  0  0  0  0  0  0  0  0
   -4.8198   -3.2137   -2.1420 H   0  0  0  0  0  0  0  0  0  0  0  0
   -5.4519   -1.5678   -0.7141 H   0  0  0  0  0  0  0  0  0  0  0  0
   -4.0389   -1.7402    0.3540 H   0  0  0  0  0  0  0  0  0  0  0  0
   -5.3859   -2.8845    0.4644 H   0  0  0  0  0  0  0  0  0  0  0  0
   -4.8333   -5.3569   -1.4562 H   0  0  0  0  0  0  0  0  0  0  0  0
   -4.8491   -4.6494    0.2339 H   0  0  0  0  0  0  0  0  0  0  0  0
   -2.4174   -5.2708   -1.4586 H   0  0  0  0  0  0  0  0  0  0  0  0
   -2.9726   -7.3748   -1.7323 H   0  0  0  0  0  0  0  0  0  0  0  0
   -3.3082   -8.4535   -0.3478 H   0  0  0  0  0  0  0  0  0  0  0  0
   -4.5849   -7.3051   -0.8430 H   0  0  0  0  0  0  0  0  0  0  0  0
   -3.9711   -5.5387    1.8357 H   0  0  0  0  0  0  0  0  0  0  0  0
   -4.9488   -6.6902    0.8406 H   0  0  0  0  0  0  0  0  0  0  0  0
   -3.6756   -7.2827    1.9532 H   0  0  0  0  0  0  0  0  0  0  0  0
   -2.9488   -3.7311    1.1203 H   0  0  0  0  0  0  0  0  0  0  0  0
   -2.1730   -4.2605    2.7003 H   0  0  0  0  0  0  0  0  0  0  0  0
    0.4705   -4.4590    3.4854 H   0  0  0  0  0  0  0  0  0  0  0  0
   -1.9880   -6.3712    3.5397 H   0  0  0  0  0  0  0  0  0  0  0  0
   -0.2067   -6.1751    3.5748 H   0  0  0  0  0  0  0  0  0  0  0  0
   -0.9221   -6.8448    2.1113 H   0  0  0  0  0  0  0  0  0  0  0  0
   -0.5198    0.0788    1.1759 H   0  0  0  0  0  0  0  0  0  0  0  0
    0.5220   -1.4941    2.2890 H   0  0  0  0  0  0  0  0  0  0  0  0
    0.5456   -2.5390    0.8390 H   0  0  0  0  0  0  0  0  0  0  0  0
    1.9134   -1.3735    1.2155 H   0  0  0  0  0  0  0  0  0  0  0  0
   -5.0364    5.0676   -0.3008 H   0  0  0  0  0  0  0  0  0  0  0  0
   -4.2782    5.8199   -1.7362 H   0  0  0  0  0  0  0  0  0  0  0  0
   -5.1080    4.2142   -1.8632 H   0  0  0  0  0  0  0  0  0  0  0  0
    2.4961    0.7420    2.1501 H   0  0  0  0  0  0  0  0  0  0  0  0
    2.0884    2.3896    2.7233 H   0  0  0  0  0  0  0  0  0  0  0  0
    0.8768    1.0841    2.9141 H   0  0  0  0  0  0  0  0  0  0  0  0
  1  2  1  0
  2  3  1  0
  3  4  1  0
  4  5  1  0
  5  6  1  0
  6  7  1  0
  7  8  1  0
  3  9  1  0
  7  9  1  0
  9 10  1  0
 10 11  1  0
 11 12  1  0
 11 13  1  0
  5 14  1  0
 14 15  1  0
 15 16  1  0
 16 17  1  0
 17 18  1  0
 17 19  1  0
 19 20  1  0
 20 21  1  0
 20 22  1  0
 22 23  1  0
 22 24  1  0
 24 25  1  0
 25 26  1  0
 26 27  1  0
 26 28  1  0
 24 29  1  0
 29 30  1  0
 30 31  1  0
 30 32  1  0
 32 33  1  6
 32 34  1  0
 33 34  1  0
 32 35  1  0
 35 36  1  0
 36 37  1  0
 36 38  1  0
 38 39  1  0
 39 40  1  0
 40 41  1  0
 41 42  1  0
 42 43  1  0
 42 44  1  0
 44 45  1  0
 45 46  1  0
 46 47  1  0
 46 48  1  0
 40 49  1  0
 45 49  1  0
 49 50  1  0
 50 51  1  0
 51 52  1  0
 51 53  1  0
 15 54  1  0
 38 54  1  0
 54 55  1  0
 29 56  1  0
 16 57  1  0
  1 58  1  0
  1 59  1  0
  1 60  1  0
  3 61  1  1
  4 62  1  0
  4 63  1  0
  5 64  1  6
  7 65  1  1
  8 66  1  0
  8 67  1  0
  8 68  1  0
  9 69  1  6
 11 70  1  6
 12 71  1  0
 13 72  1  0
 13 73  1  0
 13 74  1  0
 15 75  1  6
 16 76  1  1
 17 77  1  0
 18 78  1  0
 20 79  1  1
 21 80  1  0
 21 81  1  0
 21 82  1  0
 22 83  1  6
 23 84  1  0
 23 85  1  0
 23 86  1  0
 24 87  1  1
 26 88  1  1
 27 89  1  0
 28 90  1  0
 28 91  1  0
 28 92  1  0
 29 93  1  1
 30 94  1  6
 31 95  1  0
 34 96  1  0
 34 97  1  0
 35 98  1  0
 35 99  1  0
 36100  1  6
 37101  1  0
 37102  1  0
 37103  1  0
 38104  1  6
 40105  1  6
 42106  1  6
 43107  1  0
 43108  1  0
 43109  1  0
 44110  1  0
 44111  1  0
 45112  1  6
 47113  1  0
 47114  1  0
 47115  1  0
 48116  1  0
 48117  1  0
 48118  1  0
 49119  1  1
 51120  1  6
 52121  1  0
 53122  1  0
 53123  1  0
 53124  1  0
 54125  1  1
 55126  1  0
 55127  1  0
 55128  1  0
 56129  1  0
 56130  1  0
 56131  1  0
 57132  1  0
 57133  1  0
 57134  1  0
M  END
>  <PDBID>  (1) 
1OND

>  <PDB ID>  (1) 
1OND

>  <Generic Name>  (1) 
Troleandomycin

>  <Brand Name>  (1) 
Tao#Triocetin

>  <DrugBank ID>  (1) 
DB01361

>  <ATC Codes>  (1) 
J01FA08

>  <Ligand ID>  (1) 
TAO

>  <Target Name>  (1) 
50S ribosomal protein L32

>  <UniProt ID>  (1) 
P49228

>  <PDB ID.1>  (1) 
1OND

>  <Seq. Identity>  (1) 
100%

$$$$
