PDB_DB00481_09
     RDKit          3D

166174  0  0  0  0  0  0  0  0999 V2000
   -3.2571   -2.8590    1.0567 C   0  0  0  0  0  0  0  0  0  0  0  0
   -3.4674   -4.1316    0.2983 C   0  0  0  0  0  0  0  0  0  0  0  0
   -4.6683   -4.1125   -0.6055 C   0  0  0  0  0  0  0  0  0  0  0  0
   -4.7669   -5.3237   -1.2512 O   0  0  0  0  0  0  0  0  0  0  0  0
   -4.4334   -2.9633   -1.5941 C   0  0  0  0  0  0  0  0  0  0  0  0
   -4.5490   -1.7275   -0.7973 C   0  0  0  0  0  0  0  0  0  0  0  0
   -4.2001   -0.2092   -1.7749 S   0  0  0  0  0  0  0  0  0  0  0  0
   -3.1428    0.5782   -0.4798 C   0  0  1  0  0  0  0  0  0  0  0  0
   -3.9911    1.3807    0.4571 C   0  0  0  0  0  0  0  0  0  0  0  0
   -4.6596    2.4509   -0.4298 C   0  0  0  0  0  0  0  0  0  0  0  0
   -5.5784    3.2484    0.4337 C   0  0  0  0  0  0  0  0  0  0  0  0
   -4.8951    3.8411    1.6326 C   0  0  0  0  0  0  0  0  0  0  0  0
   -4.0850    4.8828    1.2213 O   0  0  0  0  0  0  0  0  0  0  0  0
   -4.1006    2.8230    2.4257 C   0  0  0  0  0  0  0  0  0  0  0  0
   -3.1544    2.0504    1.4994 C   0  0  0  0  0  0  0  0  0  0  0  0
   -3.6503   -1.6117    0.3901 C   0  0  0  0  0  0  0  0  0  0  0  0
   -2.5240   -0.6563    0.0579 C   0  0  0  0  0  0  0  0  0  0  0  0
   -1.5006   -1.1661   -0.8548 C   0  0  0  0  0  0  0  0  0  0  0  0
   -0.8631   -2.3337   -0.4580 O   0  0  0  0  0  0  0  0  0  0  0  0
   -0.3937   -0.1724   -1.0985 C   0  0  0  0  0  0  0  0  0  0  0  0
    0.3446    0.2366    0.1543 C   0  0  0  0  0  0  0  0  0  0  0  0
    1.3107    1.3301   -0.2624 C   0  0  0  0  0  0  0  0  0  0  0  0
    2.3382    0.6867   -1.1871 C   0  0  0  0  0  0  0  0  0  0  0  0
    1.5902    0.2944   -2.4510 C   0  0  0  0  0  0  0  0  0  0  0  0
    0.6384   -0.8287   -2.0145 C   0  0  0  0  0  0  0  0  0  0  0  0
    3.4192    1.4603   -1.4105 O   0  0  0  0  0  0  0  0  0  0  0  0
    4.6598    1.0403   -1.0934 C   0  0  0  0  0  0  0  0  0  0  0  0
    4.7779    0.7790    0.3863 C   0  0  0  0  0  0  0  0  0  0  0  0
    6.0958    0.3337    0.7911 N   0  0  0  0  0  0  0  0  0  0  0  0
    7.1157    1.3306    0.6866 C   0  0  0  0  0  0  0  0  0  0  0  0
    8.5032    0.7830    0.8854 C   0  0  0  0  0  0  0  0  0  0  0  0
    8.8442   -0.3852    0.0240 C   0  0  0  0  0  0  0  0  0  0  0  0
    7.6167   -0.7442   -0.8029 C   0  0  0  0  0  0  0  0  0  0  0  0
    6.4648   -0.9115    0.1446 C   0  0  0  0  0  0  0  0  0  0  0  0
   -3.0677   -2.6944    0.9557 C   0  0  0  0  0  0  0  0  0  0  0  0
   -3.8324   -4.0012    0.7574 C   0  0  0  0  0  0  0  0  0  0  0  0
   -5.2467   -3.8326    0.3422 C   0  0  0  0  0  0  0  0  0  0  0  0
   -5.7714   -5.0758    0.0615 O   0  0  0  0  0  0  0  0  0  0  0  0
   -5.3342   -2.9221   -0.8943 C   0  0  0  0  0  0  0  0  0  0  0  0
   -4.6861   -1.6349   -0.4343 C   0  0  0  0  0  0  0  0  0  0  0  0
   -4.6738   -0.3417   -1.7048 S   0  0  0  0  0  0  0  0  0  0  0  0
   -3.1791    0.4733   -0.9396 C   0  0  1  0  0  0  0  0  0  0  0  0
   -3.7934    1.2600    0.1854 C   0  0  0  0  0  0  0  0  0  0  0  0
   -4.8157    2.2574   -0.3556 C   0  0  0  0  0  0  0  0  0  0  0  0
   -5.6343    2.7492    0.7953 C   0  0  0  0  0  0  0  0  0  0  0  0
   -4.7711    3.3644    1.8836 C   0  0  0  0  0  0  0  0  0  0  0  0
   -4.3026    4.5797    1.4463 O   0  0  0  0  0  0  0  0  0  0  0  0
   -3.6536    2.4655    2.2927 C   0  0  0  0  0  0  0  0  0  0  0  0
   -2.8458    1.9344    1.1101 C   0  0  0  0  0  0  0  0  0  0  0  0
   -3.2105   -1.9132   -0.3321 C   0  0  0  0  0  0  0  0  0  0  0  0
   -2.3855   -0.7022   -0.4590 C   0  0  1  0  0  0  0  0  0  0  0  0
   -1.2410   -1.0421   -1.3869 C   0  0  2  0  0  0  0  0  0  0  0  0
   -0.5613   -2.1395   -0.8604 O   0  0  0  0  0  0  0  0  0  0  0  0
   -0.2715    0.0041   -1.7166 C   0  0  0  0  0  0  0  0  0  0  0  0
    0.4334    0.5200   -0.4839 C   0  0  0  0  0  0  0  0  0  0  0  0
    1.5335    1.5041   -0.8530 C   0  0  0  0  0  0  0  0  0  0  0  0
    2.5544    0.7004   -1.6713 C   0  0  0  0  0  0  0  0  0  0  0  0
    1.8785    0.3459   -2.9666 C   0  0  0  0  0  0  0  0  0  0  0  0
    0.7231   -0.5848   -2.7101 C   0  0  0  0  0  0  0  0  0  0  0  0
    3.6585    1.4660   -1.7823 O   0  0  0  0  0  0  0  0  0  0  0  0
    4.8335    1.0554   -1.2521 C   0  0  0  0  0  0  0  0  0  0  0  0
    4.7106    0.8795    0.2329 C   0  0  0  0  0  0  0  0  0  0  0  0
    5.9462    0.4426    0.8475 N   0  0  0  0  0  0  0  0  0  0  0  0
    6.9710    1.4651    0.8060 C   0  0  0  0  0  0  0  0  0  0  0  0
    8.1830    0.8865    1.5519 C   0  0  0  0  0  0  0  0  0  0  0  0
    8.7577   -0.2677    0.7445 C   0  0  0  0  0  0  0  0  0  0  0  0
    7.7306   -0.7458   -0.2842 C   0  0  0  0  0  0  0  0  0  0  0  0
    6.3747   -0.8310    0.3652 C   0  0  0  0  0  0  0  0  0  0  0  0
   -2.1877   -2.8286    1.3798 H   0  0  0  0  0  0  0  0  0  0  0  0
   -3.7944   -3.0158    2.0480 H   0  0  0  0  0  0  0  0  0  0  0  0
   -3.6341   -4.9997    1.0048 H   0  0  0  0  0  0  0  0  0  0  0  0
   -2.6009   -4.4507   -0.3191 H   0  0  0  0  0  0  0  0  0  0  0  0
   -5.5529   -3.8425   -0.0070 H   0  0  0  0  0  0  0  0  0  0  0  0
   -5.5059   -5.8394   -0.8431 H   0  0  0  0  0  0  0  0  0  0  0  0
   -3.5455   -3.1072   -2.1918 H   0  0  0  0  0  0  0  0  0  0  0  0
   -5.3035   -2.9830   -2.3081 H   0  0  0  0  0  0  0  0  0  0  0  0
   -5.6448   -1.6188   -0.5303 H   0  0  0  0  0  0  0  0  0  0  0  0
   -2.4215    1.2472   -0.9297 H   0  0  0  0  0  0  0  0  0  0  0  0
   -4.8165    0.8702    0.9389 H   0  0  0  0  0  0  0  0  0  0  0  0
   -3.8888    3.0642   -0.9409 H   0  0  0  0  0  0  0  0  0  0  0  0
   -5.2676    1.8933   -1.1707 H   0  0  0  0  0  0  0  0  0  0  0  0
   -6.4482    2.6314    0.6785 H   0  0  0  0  0  0  0  0  0  0  0  0
   -5.9238    4.1232   -0.1857 H   0  0  0  0  0  0  0  0  0  0  0  0
   -5.6873    4.2491    2.2922 H   0  0  0  0  0  0  0  0  0  0  0  0
   -4.4163    5.2178    0.3504 H   0  0  0  0  0  0  0  0  0  0  0  0
   -3.4957    3.3871    3.1649 H   0  0  0  0  0  0  0  0  0  0  0  0
   -4.8047    2.1108    2.8685 H   0  0  0  0  0  0  0  0  0  0  0  0
   -2.4001    2.7052    1.0585 H   0  0  0  0  0  0  0  0  0  0  0  0
   -2.7001    1.2393    2.1306 H   0  0  0  0  0  0  0  0  0  0  0  0
   -4.2513   -1.0261    1.1454 H   0  0  0  0  0  0  0  0  0  0  0  0
   -2.0496   -0.3977    1.0422 H   0  0  0  0  0  0  0  0  0  0  0  0
   -1.9215   -1.3824   -1.8677 H   0  0  0  0  0  0  0  0  0  0  0  0
   -0.6088   -2.9343   -1.1720 H   0  0  0  0  0  0  0  0  0  0  0  0
   -0.7174    0.7220   -1.6247 H   0  0  0  0  0  0  0  0  0  0  0  0
   -0.2954    0.6345    0.9400 H   0  0  0  0  0  0  0  0  0  0  0  0
    0.9545   -0.5724    0.5805 H   0  0  0  0  0  0  0  0  0  0  0  0
    1.7497    1.8347    0.5964 H   0  0  0  0  0  0  0  0  0  0  0  0
    0.7025    2.0199   -0.9028 H   0  0  0  0  0  0  0  0  0  0  0  0
    2.6333   -0.2712   -0.7207 H   0  0  0  0  0  0  0  0  0  0  0  0
    2.2506   -0.1452   -3.2078 H   0  0  0  0  0  0  0  0  0  0  0  0
    0.9399    1.1047   -2.8294 H   0  0  0  0  0  0  0  0  0  0  0  0
    0.1531   -1.2256   -2.9022 H   0  0  0  0  0  0  0  0  0  0  0  0
    1.2418   -1.5788   -1.5124 H   0  0  0  0  0  0  0  0  0  0  0  0
    5.3746    1.8828   -1.3364 H   0  0  0  0  0  0  0  0  0  0  0  0
    5.0419    0.1912   -1.6986 H   0  0  0  0  0  0  0  0  0  0  0  0
    4.5285    1.7103    0.9388 H   0  0  0  0  0  0  0  0  0  0  0  0
    4.0545   -0.0214    0.6504 H   0  0  0  0  0  0  0  0  0  0  0  0
    7.0645    1.9246   -0.2355 H   0  0  0  0  0  0  0  0  0  0  0  0
    6.9400    2.0480    1.5412 H   0  0  0  0  0  0  0  0  0  0  0  0
    9.2203    1.6099    0.6448 H   0  0  0  0  0  0  0  0  0  0  0  0
    8.6987    0.5574    1.9757 H   0  0  0  0  0  0  0  0  0  0  0  0
    9.7000   -0.1487   -0.6763 H   0  0  0  0  0  0  0  0  0  0  0  0
    9.1684   -1.2854    0.5819 H   0  0  0  0  0  0  0  0  0  0  0  0
    7.7735   -1.7253   -1.3056 H   0  0  0  0  0  0  0  0  0  0  0  0
    7.4089    0.0367   -1.5347 H   0  0  0  0  0  0  0  0  0  0  0  0
    5.6275   -1.3963   -0.3578 H   0  0  0  0  0  0  0  0  0  0  0  0
    6.8192   -1.6123    0.9529 H   0  0  0  0  0  0  0  0  0  0  0  0
   -2.0519   -2.9810    1.2140 H   0  0  0  0  0  0  0  0  0  0  0  0
   -3.5326   -2.0941    1.7599 H   0  0  0  0  0  0  0  0  0  0  0  0
   -3.7953   -4.5593    1.7106 H   0  0  0  0  0  0  0  0  0  0  0  0
   -3.2984   -4.6004   -0.0016 H   0  0  0  0  0  0  0  0  0  0  0  0
   -5.8852   -3.3602    1.1090 H   0  0  0  0  0  0  0  0  0  0  0  0
   -6.7370   -5.0326   -0.2083 H   0  0  0  0  0  0  0  0  0  0  0  0
   -4.7068   -3.3527   -1.7046 H   0  0  0  0  0  0  0  0  0  0  0  0
   -6.3776   -2.7988   -1.2071 H   0  0  0  0  0  0  0  0  0  0  0  0
   -5.0880   -1.3028    0.5360 H   0  0  0  0  0  0  0  0  0  0  0  0
   -2.7558    1.0522   -1.7458 H   0  0  0  0  0  0  0  0  0  0  0  0
   -4.3929    0.5533    0.7959 H   0  0  0  0  0  0  0  0  0  0  0  0
   -4.3555    3.0384   -0.9683 H   0  0  0  0  0  0  0  0  0  0  0  0
   -5.4983    1.6757   -1.0218 H   0  0  0  0  0  0  0  0  0  0  0  0
   -6.1716    1.8519    1.2123 H   0  0  0  0  0  0  0  0  0  0  0  0
   -6.3640    3.4938    0.4845 H   0  0  0  0  0  0  0  0  0  0  0  0
   -5.4382    3.4853    2.7688 H   0  0  0  0  0  0  0  0  0  0  0  0
   -3.9096    4.4728    0.5536 H   0  0  0  0  0  0  0  0  0  0  0  0
   -3.0051    3.0288    2.9943 H   0  0  0  0  0  0  0  0  0  0  0  0
   -4.0854    1.5681    2.8020 H   0  0  0  0  0  0  0  0  0  0  0  0
   -2.2652    2.7490    0.6576 H   0  0  0  0  0  0  0  0  0  0  0  0
   -2.1528    1.2000    1.5722 H   0  0  0  0  0  0  0  0  0  0  0  0
   -2.9294   -2.6498   -1.1432 H   0  0  0  0  0  0  0  0  0  0  0  0
   -1.9281   -0.4751    0.5203 H   0  0  0  0  0  0  0  0  0  0  0  0
   -1.7411   -1.4376   -2.3204 H   0  0  0  0  0  0  0  0  0  0  0  0
   -0.2728   -1.8917    0.0532 H   0  0  0  0  0  0  0  0  0  0  0  0
   -0.6771    0.9020   -2.2220 H   0  0  0  0  0  0  0  0  0  0  0  0
   -0.2841    1.0661    0.1253 H   0  0  0  0  0  0  0  0  0  0  0  0
    0.9706   -0.2928    0.0775 H   0  0  0  0  0  0  0  0  0  0  0  0
    2.0416    1.7683    0.0901 H   0  0  0  0  0  0  0  0  0  0  0  0
    1.1615    2.3672   -1.4044 H   0  0  0  0  0  0  0  0  0  0  0  0
    2.7408   -0.2430   -1.1321 H   0  0  0  0  0  0  0  0  0  0  0  0
    2.6216   -0.2346   -3.5677 H   0  0  0  0  0  0  0  0  0  0  0  0
    1.4913    1.2309   -3.4920 H   0  0  0  0  0  0  0  0  0  0  0  0
    0.1710   -0.7016   -3.6667 H   0  0  0  0  0  0  0  0  0  0  0  0
    1.0545   -1.5986   -2.4104 H   0  0  0  0  0  0  0  0  0  0  0  0
    5.5717    1.8979   -1.4059 H   0  0  0  0  0  0  0  0  0  0  0  0
    5.3031    0.1869   -1.7528 H   0  0  0  0  0  0  0  0  0  0  0  0
    4.3836    1.8532    0.6571 H   0  0  0  0  0  0  0  0  0  0  0  0
    3.9189    0.1623    0.4508 H   0  0  0  0  0  0  0  0  0  0  0  0
    7.2265    1.6538   -0.2395 H   0  0  0  0  0  0  0  0  0  0  0  0
    6.6343    2.3307    1.3721 H   0  0  0  0  0  0  0  0  0  0  0  0
    8.9816    1.6399    1.6922 H   0  0  0  0  0  0  0  0  0  0  0  0
    7.8650    0.4470    2.5199 H   0  0  0  0  0  0  0  0  0  0  0  0
    9.6310    0.0967    0.1830 H   0  0  0  0  0  0  0  0  0  0  0  0
    8.9896   -1.1400    1.3832 H   0  0  0  0  0  0  0  0  0  0  0  0
    8.0918   -1.7513   -0.6058 H   0  0  0  0  0  0  0  0  0  0  0  0
    7.7321   -0.0837   -1.1715 H   0  0  0  0  0  0  0  0  0  0  0  0
    5.6250   -1.3067   -0.2798 H   0  0  0  0  0  0  0  0  0  0  0  0
    6.4818   -1.5086    1.2585 H   0  0  0  0  0  0  0  0  0  0  0  0
  1  2  1  0
  2  3  1  0
  3  4  1  0
  3  5  1  0
  5  6  1  0
  6  7  1  0
  7  8  1  0
  8  9  1  0
  9 10  1  0
 10 11  1  0
 11 12  1  0
 12 13  1  0
 12 14  1  0
  9 15  1  0
 14 15  1  0
  1 16  1  0
  6 16  1  0
  8 17  1  0
 16 17  1  0
 17 18  1  0
 18 19  1  0
 18 20  1  0
 20 21  1  0
 21 22  1  0
 22 23  1  0
 23 24  1  0
 20 25  1  0
 24 25  1  0
 23 26  1  0
 26 27  1  0
 27 28  1  0
 28 29  1  0
 29 30  1  0
 30 31  1  0
 31 32  1  0
 32 33  1  0
 29 34  1  0
 33 34  1  0
 35 36  1  0
 36 37  1  0
 37 38  1  0
 37 39  1  0
 39 40  1  0
 40 41  1  0
 41 42  1  0
 42 43  1  0
 43 44  1  0
 44 45  1  0
 45 46  1  0
 46 47  1  0
 46 48  1  0
 43 49  1  0
 48 49  1  0
 35 50  1  0
 40 50  1  0
 42 51  1  0
 50 51  1  0
 51 52  1  0
 52 53  1  0
 52 54  1  0
 54 55  1  0
 55 56  1  0
 56 57  1  0
 57 58  1  0
 54 59  1  0
 58 59  1  0
 57 60  1  0
 60 61  1  0
 61 62  1  0
 62 63  1  0
 63 64  1  0
 64 65  1  0
 65 66  1  0
 66 67  1  0
 63 68  1  0
 67 68  1  0
  1 69  1  0
  1 70  1  0
  2 71  1  0
  2 72  1  0
  3 73  1  0
  4 74  1  0
  5 75  1  0
  5 76  1  0
  6 77  1  0
  8 78  1  6
  9 79  1  0
 10 80  1  0
 10 81  1  0
 11 82  1  0
 11 83  1  0
 12 84  1  0
 13 85  1  0
 14 86  1  0
 14 87  1  0
 15 88  1  0
 15 89  1  0
 16 90  1  0
 17 91  1  0
 18 92  1  0
 19 93  1  0
 20 94  1  0
 21 95  1  0
 21 96  1  0
 22 97  1  0
 22 98  1  0
 23 99  1  0
 24100  1  0
 24101  1  0
 25102  1  0
 25103  1  0
 27104  1  0
 27105  1  0
 28106  1  0
 28107  1  0
 30108  1  0
 30109  1  0
 31110  1  0
 31111  1  0
 32112  1  0
 32113  1  0
 33114  1  0
 33115  1  0
 34116  1  0
 34117  1  0
 35118  1  0
 35119  1  0
 36120  1  0
 36121  1  0
 37122  1  0
 38123  1  0
 39124  1  0
 39125  1  0
 40126  1  0
 42127  1  6
 43128  1  0
 44129  1  0
 44130  1  0
 45131  1  0
 45132  1  0
 46133  1  0
 47134  1  0
 48135  1  0
 48136  1  0
 49137  1  0
 49138  1  0
 50139  1  0
 51140  1  1
 52141  1  6
 53142  1  0
 54143  1  0
 55144  1  0
 55145  1  0
 56146  1  0
 56147  1  0
 57148  1  0
 58149  1  0
 58150  1  0
 59151  1  0
 59152  1  0
 61153  1  0
 61154  1  0
 62155  1  0
 62156  1  0
 64157  1  0
 64158  1  0
 65159  1  0
 65160  1  0
 66161  1  0
 66162  1  0
 67163  1  0
 67164  1  0
 68165  1  0
 68166  1  0
M  END
>  <PDBID>  (1) 
2QXS

>  <PDB ID>  (1) 
2QXS

>  <Generic Name>  (1) 
Raloxifene

>  <Brand Name>  (1) 
Act Raloxifene#Apo-raloxifene#Evista#Evista (60mg)#PMS-raloxifene#Raloxifene#Raloxifene Hydrochloride#Teva-raloxifene#Keoxifene

>  <DrugBank ID>  (1) 
DB00481

>  <ATC Codes>  (1) 
G03XC01

>  <Ligand ID>  (1) 
RAL

>  <Target Name>  (1) 
Estrogen receptor

>  <UniProt ID>  (1) 
P03372

>  <PDB ID.1>  (1) 
2QXS

>  <Seq. Identity>  (1) 
93%

$$$$
