PDB_DB01015_02
     RDKit          3D

 40 41  0  0  0  0  0  0  0  0999 V2000
   -0.6371   -1.9267    1.0577 O   0  0  0  0  0  0  0  0  0  0  0  0
   -0.1546   -0.3576    0.5998 S   0  0  0  0  0  0  0  0  0  0  0  0
   -0.3245    0.5807    1.6434 O   0  0  0  0  0  0  0  0  0  0  0  0
    1.3872   -0.5918   -0.1751 C   0  0  0  0  0  0  0  0  0  0  0  0
    1.9328    0.7725   -0.5332 C   0  0  0  0  0  0  0  0  0  0  0  0
    3.2069    0.5353   -1.3407 C   0  0  0  0  0  0  0  0  0  0  0  0
    2.3651   -1.2623    0.7522 C   0  0  0  0  0  0  0  0  0  0  0  0
    3.7185   -1.3610    0.1034 C   0  0  0  0  0  0  0  0  0  0  0  0
    4.2271   -0.0348   -0.3767 C   0  0  0  0  0  0  0  0  0  0  0  0
    4.3215    0.9105    0.7367 N   0  0  0  0  0  0  0  0  0  0  0  0
   -1.2466   -0.0236   -0.7675 N   0  0  0  0  0  0  0  0  0  0  0  0
   -2.2124    0.9170   -0.2286 C   0  0  0  0  0  0  0  0  0  0  0  0
   -3.1772    1.2821   -1.2475 N   0  0  0  0  0  0  0  0  0  0  0  0
   -4.0716    0.3002   -1.3365 O   0  0  0  0  0  0  0  0  0  0  0  0
   -4.2126   -0.3026   -0.1143 C   0  0  0  0  0  0  0  0  0  0  0  0
   -3.0950    0.2140    0.7811 C   0  0  0  0  0  0  0  0  0  0  0  0
   -5.5684   -0.0903    0.5190 C   0  0  0  0  0  0  0  0  0  0  0  0
   -0.8645   -2.4043    0.2205 H   0  0  0  0  0  0  0  0  0  0  0  0
   -0.4997    1.5264    1.7638 H   0  0  0  0  0  0  0  0  0  0  0  0
    1.2792   -1.2597   -1.0588 H   0  0  0  0  0  0  0  0  0  0  0  0
    2.2527    1.2529    0.4145 H   0  0  0  0  0  0  0  0  0  0  0  0
    1.2058    1.3919   -1.0892 H   0  0  0  0  0  0  0  0  0  0  0  0
    3.5237    1.4839   -1.7950 H   0  0  0  0  0  0  0  0  0  0  0  0
    2.9988   -0.2605   -2.1044 H   0  0  0  0  0  0  0  0  0  0  0  0
    2.0521   -2.2894    1.0273 H   0  0  0  0  0  0  0  0  0  0  0  0
    2.4574   -0.6802    1.7009 H   0  0  0  0  0  0  0  0  0  0  0  0
    3.6533   -2.0492   -0.7551 H   0  0  0  0  0  0  0  0  0  0  0  0
    4.4387   -1.7781    0.8367 H   0  0  0  0  0  0  0  0  0  0  0  0
    5.2020   -0.1973   -0.8561 H   0  0  0  0  0  0  0  0  0  0  0  0
    5.0658    0.6328    1.4108 H   0  0  0  0  0  0  0  0  0  0  0  0
    4.6027    1.8404    0.3537 H   0  0  0  0  0  0  0  0  0  0  0  0
   -0.6762    0.4089   -1.5195 H   0  0  0  0  0  0  0  0  0  0  0  0
   -1.7404    1.8231    0.1693 H   0  0  0  0  0  0  0  0  0  0  0  0
   -3.6546    2.1646   -0.9313 H   0  0  0  0  0  0  0  0  0  0  0  0
   -4.0731   -1.4111   -0.2796 H   0  0  0  0  0  0  0  0  0  0  0  0
   -2.5350   -0.5794    1.2736 H   0  0  0  0  0  0  0  0  0  0  0  0
   -3.4657    0.9985    1.4729 H   0  0  0  0  0  0  0  0  0  0  0  0
   -5.5921    0.8916    1.0221 H   0  0  0  0  0  0  0  0  0  0  0  0
   -6.3328   -0.1685   -0.3034 H   0  0  0  0  0  0  0  0  0  0  0  0
   -5.7573   -0.8987    1.2566 H   0  0  0  0  0  0  0  0  0  0  0  0
  2  1  1  0
  2  3  1  0
  2  4  1  0
  4  5  1  0
  5  6  1  0
  4  7  1  0
  7  8  1  0
  6  9  1  0
  8  9  1  0
  9 10  1  0
  2 11  1  0
 11 12  1  0
 12 13  1  0
 13 14  1  0
 14 15  1  0
 12 16  1  0
 15 16  1  0
 15 17  1  0
  1 18  1  0
  3 19  1  0
  4 20  1  0
  5 21  1  0
  5 22  1  0
  6 23  1  0
  6 24  1  0
  7 25  1  0
  7 26  1  0
  8 27  1  0
  8 28  1  0
  9 29  1  0
 10 30  1  0
 10 31  1  0
 11 32  1  0
 12 33  1  0
 13 34  1  0
 15 35  1  0
 16 36  1  0
 16 37  1  0
 17 38  1  0
 17 39  1  0
 17 40  1  0
M  END
>  <PDBID>  (1) 
3TZF

>  <PDB ID>  (1) 
3TZF

>  <Generic Name>  (1) 
Sulfamethoxazole

>  <Brand Name>  (1) 
Apo Sulfamethoxazole Tab 500mg#Apo Sulfatrim DS Tab#Apo Sulfatrim Pediatric#Apo Sulfatrim Tab#Apo-sulfatrim Oral Suspension#Bactrim#Bactrim DS#Bactrim DS Roche Tab#Bactrim Roche Inj#Bactrim Roche Suspension Paediatric#Bactrim Roche Tab#Nu-cotrimox Sus 40/8mg/ml#Nu-cotrimox Tab 400/80mg#Nu-cotrimox-DS Tab 800/160mg#Protrin Df Tab#Protrin Tab#Riva-sep DS#Roubac Tab 160/800#Roubac Tab 80/400#Septra#Septra DS Tablets#Septra Injection#Septra Pediatric Suspension#Sulfamethoxazole Tab 500mg#Sulfamethoxazole and Trimethoprim#Sulfamethoxazole and Trimethoprim (double Strength)#Sulfamethoxazole and Trimethoprim DS#Sulfamethoxazole and Trimethoprim Double Strength#Sulfamethoxazole and Trimethoprim Tablets#Sulfatrim#Teva-trimel#Teva-trimel DS#Trisulfa DS Tab#Trisulfa S Suspension#Trisulfa Tab#Gantanol#Sinomin#Urobak

>  <DrugBank ID>  (1) 
DB01015

>  <ATC Codes>  (1) 
J01EE01#J01EC01

>  <Ligand ID>  (1) 
08D

>  <Target Name>  (1) 
Dihydropteroate synthase

>  <UniProt ID>  (1) 
P0AC13

>  <PDB ID.1>  (1) 
3TZF

>  <Seq. Identity>  (1) 
75%

$$$$
