PDB_DB00205_02
     RDKit          3D

 84 86  0  0  0  0  0  0  0  0999 V2000
   -1.9557    1.5536   -1.1695 N   0  0  0  0  0  0  0  0  0  0  0  0
   -2.8520    1.3653   -0.0426 C   0  0  0  0  0  0  0  0  0  0  0  0
   -0.5555    1.3972   -0.7338 C   0  0  0  0  0  0  0  0  0  0  0  0
   -0.4023   -0.0781   -0.4520 C   0  0  0  0  0  0  0  0  0  0  0  0
   -1.6634   -0.6284    0.0996 C   0  0  0  0  0  0  0  0  0  0  0  0
   -2.3147    0.3944    0.9046 N   0  0  0  0  0  0  0  0  0  0  0  0
    0.8865   -0.4851    0.1246 C   0  0  0  0  0  0  0  0  0  0  0  0
    1.9537   -0.0518   -0.8941 C   0  0  0  0  0  0  0  0  0  0  0  0
    3.1483   -0.9213   -0.5907 C   0  0  0  0  0  0  0  0  0  0  0  0
    3.7414   -0.3889    0.6859 C   0  0  0  0  0  0  0  0  0  0  0  0
    2.7857    0.3786    1.5387 C   0  0  0  0  0  0  0  0  0  0  0  0
    1.3374    0.0095    1.4175 C   0  0  0  0  0  0  0  0  0  0  0  0
   -0.3113    2.2869    0.3121 N   0  0  0  0  0  0  0  0  0  0  0  0
   -3.2593    2.5838    0.5721 N   0  0  0  0  0  0  0  0  0  0  0  0
   -1.6344   -1.8963    0.8537 C   0  0  0  0  0  0  0  0  0  0  0  0
   -1.1205   -3.0693    0.0431 C   0  0  0  0  0  0  0  0  0  0  0  0
    5.1249    0.6306    0.1999 Cl  0  0  0  0  0  0  0  0  0  0  0  0
   -1.9557    1.5536   -1.1695 N   0  0  0  0  0  0  0  0  0  0  0  0
   -2.8520    1.3653   -0.0426 C   0  0  0  0  0  0  0  0  0  0  0  0
   -0.5555    1.3972   -0.7338 C   0  0  0  0  0  0  0  0  0  0  0  0
   -0.4023   -0.0781   -0.4520 C   0  0  0  0  0  0  0  0  0  0  0  0
   -1.6634   -0.6284    0.0996 C   0  0  0  0  0  0  0  0  0  0  0  0
   -2.3147    0.3944    0.9046 N   0  0  0  0  0  0  0  0  0  0  0  0
    0.8865   -0.4851    0.1246 C   0  0  0  0  0  0  0  0  0  0  0  0
    1.9537   -0.0518   -0.8941 C   0  0  0  0  0  0  0  0  0  0  0  0
    3.1483   -0.9213   -0.5907 C   0  0  0  0  0  0  0  0  0  0  0  0
    3.7414   -0.3889    0.6859 C   0  0  0  0  0  0  0  0  0  0  0  0
    2.7857    0.3786    1.5387 C   0  0  0  0  0  0  0  0  0  0  0  0
    1.3374    0.0095    1.4175 C   0  0  0  0  0  0  0  0  0  0  0  0
   -0.3113    2.2869    0.3121 N   0  0  0  0  0  0  0  0  0  0  0  0
   -3.2593    2.5838    0.5721 N   0  0  0  0  0  0  0  0  0  0  0  0
   -1.6344   -1.8963    0.8537 C   0  0  0  0  0  0  0  0  0  0  0  0
   -1.1205   -3.0693    0.0431 C   0  0  0  0  0  0  0  0  0  0  0  0
    5.1249    0.6306    0.1999 Cl  0  0  0  0  0  0  0  0  0  0  0  0
   -2.0839    2.5241   -1.5703 H   0  0  0  0  0  0  0  0  0  0  0  0
   -3.7697    0.8711   -0.4727 H   0  0  0  0  0  0  0  0  0  0  0  0
    0.0753    1.6754   -1.6033 H   0  0  0  0  0  0  0  0  0  0  0  0
   -0.3675   -0.5016   -1.4923 H   0  0  0  0  0  0  0  0  0  0  0  0
   -2.4404   -0.8198   -0.7098 H   0  0  0  0  0  0  0  0  0  0  0  0
   -3.0945    0.0061    1.4612 H   0  0  0  0  0  0  0  0  0  0  0  0
    0.9331   -1.5938    0.1105 H   0  0  0  0  0  0  0  0  0  0  0  0
    1.5723   -0.2774   -1.9167 H   0  0  0  0  0  0  0  0  0  0  0  0
    2.2314    1.0045   -0.7596 H   0  0  0  0  0  0  0  0  0  0  0  0
    3.9005   -0.9438   -1.3903 H   0  0  0  0  0  0  0  0  0  0  0  0
    2.7889   -1.9437   -0.4357 H   0  0  0  0  0  0  0  0  0  0  0  0
    4.1933   -1.2655    1.2004 H   0  0  0  0  0  0  0  0  0  0  0  0
    2.9478    1.4571    1.3112 H   0  0  0  0  0  0  0  0  0  0  0  0
    3.1484    0.2762    2.5890 H   0  0  0  0  0  0  0  0  0  0  0  0
    1.1771   -0.8030    2.1937 H   0  0  0  0  0  0  0  0  0  0  0  0
    0.7601    0.8650    1.8601 H   0  0  0  0  0  0  0  0  0  0  0  0
   -0.9466    2.3640    1.0868 H   0  0  0  0  0  0  0  0  0  0  0  0
    0.5344    2.8528    0.3008 H   0  0  0  0  0  0  0  0  0  0  0  0
   -3.3143    2.4551    1.6039 H   0  0  0  0  0  0  0  0  0  0  0  0
   -4.1890    2.8877    0.2114 H   0  0  0  0  0  0  0  0  0  0  0  0
   -2.7084   -2.1429    1.0754 H   0  0  0  0  0  0  0  0  0  0  0  0
   -1.1722   -1.8508    1.8554 H   0  0  0  0  0  0  0  0  0  0  0  0
   -1.9091   -3.8627   -0.1161 H   0  0  0  0  0  0  0  0  0  0  0  0
   -0.8858   -2.7089   -0.9750 H   0  0  0  0  0  0  0  0  0  0  0  0
   -0.2902   -3.6060    0.5379 H   0  0  0  0  0  0  0  0  0  0  0  0
   -2.0839    2.5241   -1.5703 H   0  0  0  0  0  0  0  0  0  0  0  0
   -3.7697    0.8711   -0.4727 H   0  0  0  0  0  0  0  0  0  0  0  0
    0.0753    1.6754   -1.6033 H   0  0  0  0  0  0  0  0  0  0  0  0
   -0.3675   -0.5016   -1.4923 H   0  0  0  0  0  0  0  0  0  0  0  0
   -2.4404   -0.8198   -0.7098 H   0  0  0  0  0  0  0  0  0  0  0  0
   -3.0945    0.0061    1.4612 H   0  0  0  0  0  0  0  0  0  0  0  0
    0.9331   -1.5938    0.1105 H   0  0  0  0  0  0  0  0  0  0  0  0
    1.5723   -0.2774   -1.9167 H   0  0  0  0  0  0  0  0  0  0  0  0
    2.2314    1.0045   -0.7596 H   0  0  0  0  0  0  0  0  0  0  0  0
    3.9005   -0.9438   -1.3903 H   0  0  0  0  0  0  0  0  0  0  0  0
    2.7889   -1.9437   -0.4357 H   0  0  0  0  0  0  0  0  0  0  0  0
    4.1933   -1.2655    1.2004 H   0  0  0  0  0  0  0  0  0  0  0  0
    2.9478    1.4571    1.3112 H   0  0  0  0  0  0  0  0  0  0  0  0
    3.1484    0.2762    2.5890 H   0  0  0  0  0  0  0  0  0  0  0  0
    1.1771   -0.8030    2.1937 H   0  0  0  0  0  0  0  0  0  0  0  0
    0.7601    0.8650    1.8601 H   0  0  0  0  0  0  0  0  0  0  0  0
   -0.9466    2.3640    1.0868 H   0  0  0  0  0  0  0  0  0  0  0  0
    0.5344    2.8528    0.3008 H   0  0  0  0  0  0  0  0  0  0  0  0
   -3.3143    2.4551    1.6039 H   0  0  0  0  0  0  0  0  0  0  0  0
   -4.1890    2.8877    0.2114 H   0  0  0  0  0  0  0  0  0  0  0  0
   -2.7084   -2.1429    1.0754 H   0  0  0  0  0  0  0  0  0  0  0  0
   -1.1722   -1.8508    1.8554 H   0  0  0  0  0  0  0  0  0  0  0  0
   -1.9091   -3.8627   -0.1161 H   0  0  0  0  0  0  0  0  0  0  0  0
   -0.8858   -2.7089   -0.9750 H   0  0  0  0  0  0  0  0  0  0  0  0
   -0.2902   -3.6060    0.5379 H   0  0  0  0  0  0  0  0  0  0  0  0
  1  2  1  0
  1  3  1  0
  3  4  1  0
  4  5  1  0
  2  6  1  0
  5  6  1  0
  4  7  1  0
  7  8  1  0
  8  9  1  0
  9 10  1  0
 10 11  1  0
  7 12  1  0
 11 12  1  0
  3 13  1  0
  2 14  1  0
  5 15  1  0
 15 16  1  0
 10 17  1  0
 18 19  1  0
 18 20  1  0
 20 21  1  0
 21 22  1  0
 19 23  1  0
 22 23  1  0
 21 24  1  0
 24 25  1  0
 25 26  1  0
 26 27  1  0
 27 28  1  0
 24 29  1  0
 28 29  1  0
 20 30  1  0
 19 31  1  0
 22 32  1  0
 32 33  1  0
 27 34  1  0
  1 35  1  0
  2 36  1  0
  3 37  1  0
  4 38  1  0
  5 39  1  0
  6 40  1  0
  7 41  1  0
  8 42  1  0
  8 43  1  0
  9 44  1  0
  9 45  1  0
 10 46  1  0
 11 47  1  0
 11 48  1  0
 12 49  1  0
 12 50  1  0
 13 51  1  0
 13 52  1  0
 14 53  1  0
 14 54  1  0
 15 55  1  0
 15 56  1  0
 16 57  1  0
 16 58  1  0
 16 59  1  0
 18 60  1  0
 19 61  1  0
 20 62  1  0
 21 63  1  0
 22 64  1  0
 23 65  1  0
 24 66  1  0
 25 67  1  0
 25 68  1  0
 26 69  1  0
 26 70  1  0
 27 71  1  0
 28 72  1  0
 28 73  1  0
 29 74  1  0
 29 75  1  0
 30 76  1  0
 30 77  1  0
 31 78  1  0
 31 79  1  0
 32 80  1  0
 32 81  1  0
 33 82  1  0
 33 83  1  0
 33 84  1  0
M  END
>  <PDBID>  (1) 
3QFX

>  <PDB ID>  (1) 
3QFX

>  <Generic Name>  (1) 
Pyrimethamine

>  <Brand Name>  (1) 
Daraprim#Fansidar Tablets#Pyrimethamine Leucovorin

>  <DrugBank ID>  (1) 
DB00205

>  <ATC Codes>  (1) 
P01BF04#P01BD01#P01BD51

>  <Ligand ID>  (1) 
CP6

>  <Target Name>  (1) 
Dihydrofolate reductase

>  <UniProt ID>  (1) 
P00374

>  <PDB ID.1>  (1) 
3QFX

>  <Seq. Identity>  (1) 
32%

$$$$
