PDB_DB00184_09
     RDKit          3D

 64 66  0  0  0  0  0  0  0  0999 V2000
    2.5508   -1.2279    0.5293 N   0  0  0  0  0  0  0  0  0  0  0  0
    1.2827   -1.3943   -0.1255 C   0  0  0  0  0  0  0  0  0  0  0  0
    0.5614   -0.0935   -0.3590 C   0  0  0  0  0  0  0  0  0  0  0  0
    1.3097    1.0067    0.3460 C   0  0  0  0  0  0  0  0  0  0  0  0
    2.7058    1.0724   -0.2643 C   0  0  0  0  0  0  0  0  0  0  0  0
    3.3957   -0.2428   -0.0839 C   0  0  0  0  0  0  0  0  0  0  0  0
   -1.6620    0.9216   -0.0645 N   0  0  0  0  0  0  0  0  0  0  0  0
   -0.8527   -0.2426    0.0975 C   0  0  1  0  0  0  0  0  0  0  0  0
   -1.5292   -1.2362   -0.8501 C   0  0  0  0  0  0  0  0  0  0  0  0
   -2.9795   -0.9795   -0.6120 C   0  0  0  0  0  0  0  0  0  0  0  0
   -3.0301    0.4087   -0.0781 C   0  0  0  0  0  0  0  0  0  0  0  0
   -1.5685    1.8509    1.0433 C   0  0  0  0  0  0  0  0  0  0  0  0
    2.5508   -1.2279    0.5293 N   0  0  0  0  0  0  0  0  0  0  0  0
    1.2827   -1.3943   -0.1255 C   0  0  0  0  0  0  0  0  0  0  0  0
    0.5614   -0.0935   -0.3590 C   0  0  0  0  0  0  0  0  0  0  0  0
    1.3097    1.0067    0.3460 C   0  0  0  0  0  0  0  0  0  0  0  0
    2.7058    1.0724   -0.2643 C   0  0  0  0  0  0  0  0  0  0  0  0
    3.3957   -0.2428   -0.0839 C   0  0  0  0  0  0  0  0  0  0  0  0
   -1.6620    0.9216   -0.0645 N   0  0  0  0  0  0  0  0  0  0  0  0
   -0.8527   -0.2426    0.0975 C   0  0  1  0  0  0  0  0  0  0  0  0
   -1.5292   -1.2362   -0.8501 C   0  0  0  0  0  0  0  0  0  0  0  0
   -2.9795   -0.9795   -0.6120 C   0  0  0  0  0  0  0  0  0  0  0  0
   -3.0301    0.4087   -0.0781 C   0  0  0  0  0  0  0  0  0  0  0  0
   -1.5685    1.8509    1.0433 C   0  0  0  0  0  0  0  0  0  0  0  0
    3.0459   -2.1346    0.5303 H   0  0  0  0  0  0  0  0  0  0  0  0
    1.4298   -1.9591   -1.0891 H   0  0  0  0  0  0  0  0  0  0  0  0
    0.6726   -2.0752    0.5117 H   0  0  0  0  0  0  0  0  0  0  0  0
    0.5626    0.1366   -1.4401 H   0  0  0  0  0  0  0  0  0  0  0  0
    0.8631    2.0001    0.1997 H   0  0  0  0  0  0  0  0  0  0  0  0
    1.4212    0.7722    1.4300 H   0  0  0  0  0  0  0  0  0  0  0  0
    3.2770    1.9221    0.1748 H   0  0  0  0  0  0  0  0  0  0  0  0
    2.5855    1.2750   -1.3309 H   0  0  0  0  0  0  0  0  0  0  0  0
    3.8778   -0.6096   -1.0191 H   0  0  0  0  0  0  0  0  0  0  0  0
    4.2480   -0.0637    0.6325 H   0  0  0  0  0  0  0  0  0  0  0  0
   -0.9306   -0.6161    1.1364 H   0  0  0  0  0  0  0  0  0  0  0  0
   -1.2599   -1.0248   -1.8856 H   0  0  0  0  0  0  0  0  0  0  0  0
   -1.2363   -2.2823   -0.5735 H   0  0  0  0  0  0  0  0  0  0  0  0
   -3.6190   -1.1414   -1.5080 H   0  0  0  0  0  0  0  0  0  0  0  0
   -3.3283   -1.7426    0.1417 H   0  0  0  0  0  0  0  0  0  0  0  0
   -3.3426    0.3400    1.0054 H   0  0  0  0  0  0  0  0  0  0  0  0
   -3.7376    1.0794   -0.5593 H   0  0  0  0  0  0  0  0  0  0  0  0
   -1.3114    2.8814    0.7045 H   0  0  0  0  0  0  0  0  0  0  0  0
   -0.8595    1.4378    1.7732 H   0  0  0  0  0  0  0  0  0  0  0  0
   -2.5421    1.9614    1.5867 H   0  0  0  0  0  0  0  0  0  0  0  0
    3.0459   -2.1346    0.5303 H   0  0  0  0  0  0  0  0  0  0  0  0
    1.4298   -1.9591   -1.0891 H   0  0  0  0  0  0  0  0  0  0  0  0
    0.6726   -2.0752    0.5117 H   0  0  0  0  0  0  0  0  0  0  0  0
    0.5626    0.1366   -1.4401 H   0  0  0  0  0  0  0  0  0  0  0  0
    0.8631    2.0001    0.1997 H   0  0  0  0  0  0  0  0  0  0  0  0
    1.4212    0.7722    1.4300 H   0  0  0  0  0  0  0  0  0  0  0  0
    3.2770    1.9221    0.1748 H   0  0  0  0  0  0  0  0  0  0  0  0
    2.5855    1.2750   -1.3309 H   0  0  0  0  0  0  0  0  0  0  0  0
    3.8778   -0.6096   -1.0191 H   0  0  0  0  0  0  0  0  0  0  0  0
    4.2480   -0.0637    0.6325 H   0  0  0  0  0  0  0  0  0  0  0  0
   -0.9306   -0.6161    1.1364 H   0  0  0  0  0  0  0  0  0  0  0  0
   -1.2599   -1.0248   -1.8856 H   0  0  0  0  0  0  0  0  0  0  0  0
   -1.2363   -2.2823   -0.5735 H   0  0  0  0  0  0  0  0  0  0  0  0
   -3.6190   -1.1414   -1.5080 H   0  0  0  0  0  0  0  0  0  0  0  0
   -3.3283   -1.7426    0.1417 H   0  0  0  0  0  0  0  0  0  0  0  0
   -3.3426    0.3400    1.0054 H   0  0  0  0  0  0  0  0  0  0  0  0
   -3.7376    1.0794   -0.5593 H   0  0  0  0  0  0  0  0  0  0  0  0
   -1.3114    2.8814    0.7045 H   0  0  0  0  0  0  0  0  0  0  0  0
   -0.8595    1.4378    1.7732 H   0  0  0  0  0  0  0  0  0  0  0  0
   -2.5421    1.9614    1.5867 H   0  0  0  0  0  0  0  0  0  0  0  0
  1  2  1  0
  2  3  1  0
  3  4  1  0
  4  5  1  0
  1  6  1  0
  5  6  1  0
  3  8  1  0
  7  8  1  0
  8  9  1  0
  9 10  1  0
  7 11  1  0
 10 11  1  0
  7 12  1  0
 13 14  1  0
 14 15  1  0
 15 16  1  0
 16 17  1  0
 13 18  1  0
 17 18  1  0
 15 20  1  0
 19 20  1  0
 20 21  1  0
 21 22  1  0
 19 23  1  0
 22 23  1  0
 19 24  1  0
  1 25  1  0
  2 26  1  0
  2 27  1  0
  3 28  1  0
  4 29  1  0
  4 30  1  0
  5 31  1  0
  5 32  1  0
  6 33  1  0
  6 34  1  0
  8 35  1  1
  9 36  1  0
  9 37  1  0
 10 38  1  0
 10 39  1  0
 11 40  1  0
 11 41  1  0
 12 42  1  0
 12 43  1  0
 12 44  1  0
 13 45  1  0
 14 46  1  0
 14 47  1  0
 15 48  1  0
 16 49  1  0
 16 50  1  0
 17 51  1  0
 17 52  1  0
 18 53  1  0
 18 54  1  0
 20 55  1  1
 21 56  1  0
 21 57  1  0
 22 58  1  0
 22 59  1  0
 23 60  1  0
 23 61  1  0
 24 62  1  0
 24 63  1  0
 24 64  1  0
M  END
>  <PDBID>  (1) 
5KXI

>  <PDB ID>  (1) 
5KXI

>  <Generic Name>  (1) 
Nicotine

>  <Brand Name>  (1) 
American Fare Nicotine Transdermal System#Berkley and Jensen Nicotine#Berkley and Jensen Nicotine Polacrilex#Care One Nicotine#Careone Mini Nicotine Polacrilex#Careone Nicotine#Careone Nicotine Polacrilex#Careone Nicotine Transdermal System Step 1#Careone Nicotine Transdermal System Step 2#Careone Nicotine Transdermal System Step 3#Equaline Nicotine#Equate Nicotine#Exchange Select Nicotine Transdermal System Step 3#Good Neighbor Pharmacy Nicotine#Good Neighbor Pharmacy Nicotine Mini#Good Sense Nicotine#Good Sense Nicotine Mint#Good Sense Nicotine Stop Smoking Aid#Habitrol Patch Nicotine Transdermal System, Step 1#Habitrol Patch Nicotine Transdermal System, Step 2#Habitrol Patch Nicotine Transdermal System, Step 3#Harris Teeter Nicotine#Health Mart Nicotine#Health Mart Nicotine Polacrilex#Healthmart Nicotine Transdermal System Step 1#Healthmart Nicotine Transdermal System Step 2#Healthmart Nicotine Transdermal System Step 3#Healthy Accents Nicotine#Humana Pharmacy Nicotine#In Control Nicotine#Kirkland Signature Quit 2#Kirkland Signature Quit 4#Kroger Nicotine Transdermal System Step 1#Kroger Nicotine Transdermal System Step 2#Kroger Nicotine Transdermal System Step 3#Leader Nicotine#Leader Nicotine Transdermal System Step 1#Leader Nicotine Transdermal System Step 2#Leader Nicotine Transdermal System Step 3#Meijer Nicotine Transdermal System Step 1#Meijer Nicotine Transdermal System Step 2#Meijer Nicotine Transdermal System Step 3#Members Mark Mini Nicotine#Members Mark Nicotine#Mini Nicotine#Nicoderm Cq#Nicoderm Trd 114mg Nicotine/21#Nicoderm Trd 36mg Nicotine/7 Sqcm Patch#Nicoderm Trd 78mg Nicotine/14#Nicorelief#Nicorette#Nicorette Cinnamon Surge#Nicorette Fresh Mint#Nicorette Fruit Chill#Nicorette Gum 2mg#Nicorette Invisipatch#Nicorette Mint#Nicorette Original#Nicorette Plus 4mg#Nicorette Spearmint Burst#Nicorette White Ice Mint#Nicotine#Nicotine Coated Mint#Nicotine Gum#Nicotine Mini#Nicotine Mint Flavor#Nicotine Original#Nicotine Polacrilex#Nicotine Polacrilex Stop Smoking Aid#Nicotine Polacrilex, Coated Fruit Flavor#Nicotine Polacrilex, Coated Mint Flavor#Nicotine Polacrilex, Original#Nicotine Stop Smoking Aid#Nicotine Transdermal System#Nicotine Transdermal System Patch Kit#Nicotine Transdermal System Step 1#Nicotine Transdermal System Step 2#Nicotine Transdermal System Step 3#Nicotine Un1654#Nicotrol#Nicotrol (professional Sample)#Nictoine Gum#Preferred Plus Nicotine#Preferred Plus Nicotine Polacrilex Gum, Original Flavor#Rexall Nicotine#Rite Aid Nicotine Transdermal System Step 1#Rite Aid Nicotine Transdermal System Step 2#Rite Aid Nicotine Transdermal System Step 3#Rugby Nicotine#Rugby Nicotine Polacrilex Gum, Coated Cinnamon Flavor#Rugby Nicotine Polacrilex Gum, Coated Fruit Flavor#Rugby Nicotine Polacrilex Gum, Coated Mint Flavor#Rugby Nicotine Polacrilex Gum, Mint Flavor#Rugby Nicotine Polacrilex Gum, Original Flavor#Safeway Nicotine Transdermal System Step 1#Safeway Nicotine Transdermal System Step 2#Safeway Nicotine Transdermal System Step 3#Signature Care Nicotine#Simply Right Nicotine#Smart Sense Nicotine#Smart Sense Nicotine Mint#Smart Sense Nicotine Polacrilex#Stop Smoking Aid#Stop Smoking Aid Nicotine#Sunmark Nicotine#Sunmark Nicotine Transdermal System Step 1#Sunmark Nicotine Transdermal System Step 2#Sunmark Nicotine Transdermal System Step 3#Topcare Nicotine#Topcare Nicotine Gum#Topcare Nicotine Polacrilex#Topcare Nicotine Stop Smoking Aid#Tru Relief Nicotine#Up and Up Nicotine#Up and Up Nicotine Polacrilex#Zonnic#Zonnic Nicotine#Zonnic Nicotine Mini#Zonnic Nicotine Polacrilex#Habitrol#Nicoderm

>  <DrugBank ID>  (1) 
DB00184

>  <ATC Codes>  (1) 
N07BA01

>  <Ligand ID>  (1) 
NCT

>  <Target Name>  (1) 
Neuronal acetylcholine receptor subunit alpha-4

>  <UniProt ID>  (1) 
P43681

>  <PDB ID.1>  (1) 
5KXI

>  <Seq. Identity>  (1) 
54%

$$$$
