PDB_DB08809_04
     RDKit          3D

 10  9  0  0  0  0  0  0  0  0999 V2000
    1.0132    0.0362    0.0212 C   0  0  0  0  0  0  0  0  0  0  0  0
   -0.3779   -0.5570   -0.0406 C   0  0  0  0  0  0  0  0  0  0  0  0
   -1.0059   -0.5985    1.1783 O   0  0  0  0  0  0  0  0  0  0  0  0
    1.7485    0.0499   -1.5978 Cl  0  0  0  0  0  0  0  0  0  0  0  0
    1.0201    1.6710    0.6610 Cl  0  0  0  0  0  0  0  0  0  0  0  0
   -1.1421    0.2328   -0.9096 O   0  0  0  0  0  0  0  0  0  0  0  0
    1.6578   -0.5974    0.6720 H   0  0  0  0  0  0  0  0  0  0  0  0
   -0.3308   -1.5611   -0.4895 H   0  0  0  0  0  0  0  0  0  0  0  0
   -1.6566    0.1328    1.3218 H   0  0  0  0  0  0  0  0  0  0  0  0
   -0.9263    1.1913   -0.8167 H   0  0  0  0  0  0  0  0  0  0  0  0
  1  2  1  0
  2  3  1  0
  1  4  1  0
  1  5  1  0
  2  6  1  0
  1  7  1  0
  2  8  1  0
  3  9  1  0
  6 10  1  0
M  END
>  <PDBID>  (1) 
2Q8H

>  <PDB ID>  (1) 
2Q8H

>  <Generic Name>  (1) 
Dichloroacetic Acid

>  <Brand Name>  (1) 
Bichloracetic Acid 100%

>  <DrugBank ID>  (1) 
DB08809

>  <ATC Codes>  (1) 
nan

>  <Ligand ID>  (1) 
TF4

>  <Target Name>  (1) 
[Pyruvate dehydrogenase (acetyl-transferring)] kinase isozyme 1, mitochondrial

>  <UniProt ID>  (1) 
Q15118

>  <PDB ID.1>  (1) 
2Q8H

>  <Seq. Identity>  (1) 
100%

$$$$
