PDB_DB00703_03
     RDKit          3D

 30 30  0  0  0  0  0  0  0  0999 V2000
   -3.8147    0.1883   -0.8185 N   0  0  0  0  0  0  0  0  0  0  0  0
   -2.3194   -0.2871   -1.4141 S   0  0  0  0  0  0  0  0  0  0  0  0
   -1.6746    0.9693   -2.2033 O   0  0  0  0  0  0  0  0  0  0  0  0
   -2.6096   -1.5208   -2.4250 O   0  0  0  0  0  0  0  0  0  0  0  0
   -1.3569   -0.7519   -0.1574 C   0  0  1  0  0  0  0  0  0  0  0  0
    0.2958   -1.3360   -0.7009 S   0  0  0  0  0  0  0  0  0  0  0  0
    1.1314   -0.8201    0.8226 C   0  0  2  0  0  0  0  0  0  0  0  0
    0.0900   -0.1888    1.5484 N   0  0  0  0  0  0  0  0  0  0  0  0
   -0.2352   -0.8187    2.7976 C   0  0  0  0  0  0  0  0  0  0  0  0
   -0.9241    0.2395    0.7835 N   0  0  0  0  0  0  0  0  0  0  0  0
    2.3347   -0.1428    0.6817 N   0  0  0  0  0  0  0  0  0  0  0  0
    2.4332    1.0629   -0.0193 C   0  0  0  0  0  0  0  0  0  0  0  0
    3.7862    1.4816    0.0031 O   0  0  0  0  0  0  0  0  0  0  0  0
    2.0764    0.8569   -1.4788 C   0  0  0  0  0  0  0  0  0  0  0  0
   -4.2320    0.8649   -1.4945 H   0  0  0  0  0  0  0  0  0  0  0  0
   -3.6992    0.7002    0.1028 H   0  0  0  0  0  0  0  0  0  0  0  0
   -1.3177    1.6614   -1.5825 H   0  0  0  0  0  0  0  0  0  0  0  0
   -1.9909   -2.2970   -2.3777 H   0  0  0  0  0  0  0  0  0  0  0  0
   -1.7897   -1.6180    0.4229 H   0  0  0  0  0  0  0  0  0  0  0  0
    1.3459   -1.7913    1.3706 H   0  0  0  0  0  0  0  0  0  0  0  0
   -1.2819   -0.7251    3.1106 H   0  0  0  0  0  0  0  0  0  0  0  0
    0.0922   -1.8951    2.6971 H   0  0  0  0  0  0  0  0  0  0  0  0
    0.4733   -0.3987    3.5651 H   0  0  0  0  0  0  0  0  0  0  0  0
   -1.6884    0.5941    1.3757 H   0  0  0  0  0  0  0  0  0  0  0  0
    3.1447   -0.6361    1.0128 H   0  0  0  0  0  0  0  0  0  0  0  0
    1.8389    1.9029    0.4080 H   0  0  0  0  0  0  0  0  0  0  0  0
    3.8886    2.3147   -0.5353 H   0  0  0  0  0  0  0  0  0  0  0  0
    2.7083    1.4850   -2.1449 H   0  0  0  0  0  0  0  0  0  0  0  0
    1.0136    1.0855   -1.5937 H   0  0  0  0  0  0  0  0  0  0  0  0
    2.2814   -0.1800   -1.7563 H   0  0  0  0  0  0  0  0  0  0  0  0
  1  2  1  0
  2  3  1  0
  2  4  1  0
  2  5  1  0
  5  6  1  0
  6  7  1  0
  7  8  1  0
  8  9  1  0
  5 10  1  0
  8 10  1  0
  7 11  1  0
 11 12  1  0
 12 13  1  0
 12 14  1  0
  1 15  1  0
  1 16  1  0
  3 17  1  0
  4 18  1  0
  5 19  1  1
  7 20  1  1
  9 21  1  0
  9 22  1  0
  9 23  1  0
 10 24  1  0
 11 25  1  0
 12 26  1  0
 13 27  1  0
 14 28  1  0
 14 29  1  0
 14 30  1  0
M  END
>  <PDBID>  (1) 
1BZM

>  <PDB ID>  (1) 
1BZM

>  <Generic Name>  (1) 
Methazolamide

>  <Brand Name>  (1) 
Methazolamide#Neptazane#Neptazane Tablets 25mg#Neptazane Tablets 25mg USP#Neptazane Tablets 50mg#Naptazane

>  <DrugBank ID>  (1) 
DB00703

>  <ATC Codes>  (1) 
S01EC05

>  <Ligand ID>  (1) 
MZM

>  <Target Name>  (1) 
Carbonic anhydrase 1

>  <UniProt ID>  (1) 
P00915

>  <PDB ID.1>  (1) 
1BZM

>  <Seq. Identity>  (1) 
100%

$$$$
