PDB_DB00509_06
     RDKit          3D

 49 50  0  0  0  0  0  0  0  0999 V2000
    2.3906    0.8503    0.3710 C   0  0  2  0  0  0  0  0  0  0  0  0
    1.3617    1.2365    1.4648 C   0  0  0  0  0  0  0  0  0  0  0  0
    0.0105    1.5220    0.9677 C   0  0  2  0  0  0  0  0  0  0  0  0
   -0.5046    0.4920   -0.0176 C   0  0  0  0  0  0  0  0  0  0  0  0
    0.4567    0.3828   -1.1469 C   0  0  0  0  0  0  0  0  0  0  0  0
    1.7727   -0.1425   -0.5473 C   0  0  0  0  0  0  0  0  0  0  0  0
    3.5216    0.2819    1.1544 C   0  0  0  0  0  0  0  0  0  0  0  0
    4.7766   -0.1646    0.6148 C   0  0  1  0  0  0  0  0  0  0  0  0
    4.8840   -1.2354   -0.3709 C   0  0  0  0  0  0  0  0  0  0  0  0
   -2.7417   -0.1018   -0.1194 C   0  0  0  0  0  0  0  0  0  0  0  0
   -3.6874    0.5316    0.8161 C   0  0  0  0  0  0  0  0  0  0  0  0
   -5.1250    0.2109    0.6419 C   0  0  0  0  0  0  0  0  0  0  0  0
   -5.2471   -1.1518   -0.0048 C   0  0  0  0  0  0  0  0  0  0  0  0
   -4.7259   -0.9615   -1.4146 C   0  0  0  0  0  0  0  0  0  0  0  0
   -3.2696   -0.6836   -1.3653 C   0  0  0  0  0  0  0  0  0  0  0  0
    5.7755    0.8800    0.3238 N   0  0  0  0  0  0  0  0  0  0  0  0
   -1.7517    0.8385   -0.4516 O   0  0  0  0  0  0  0  0  0  0  0  0
   -6.5798   -1.5526   -0.0651 O   0  0  0  0  0  0  0  0  0  0  0  0
    4.7760   -0.7791   -1.6801 O   0  0  0  0  0  0  0  0  0  0  0  0
    3.9143   -2.2496   -0.2173 O   0  0  0  0  0  0  0  0  0  0  0  0
   -0.2403    3.5124    0.2413 I   0  0  0  0  0  0  0  0  0  0  0  0
   -6.1357    0.1597    2.5250 I   0  0  0  0  0  0  0  0  0  0  0  0
    0.8536    2.1949   -2.1443 I   0  0  0  0  0  0  0  0  0  0  0  0
   -5.6982    0.7113   -2.3377 I   0  0  0  0  0  0  0  0  0  0  0  0
    2.6208    1.7730   -0.1788 H   0  0  0  0  0  0  0  0  0  0  0  0
    1.7969    2.1291    1.9564 H   0  0  0  0  0  0  0  0  0  0  0  0
    1.3621    0.4200    2.2133 H   0  0  0  0  0  0  0  0  0  0  0  0
   -0.6872    1.4354    1.8538 H   0  0  0  0  0  0  0  0  0  0  0  0
   -0.5154   -0.4765    0.5197 H   0  0  0  0  0  0  0  0  0  0  0  0
    0.1052   -0.3781   -1.8663 H   0  0  0  0  0  0  0  0  0  0  0  0
    1.4857   -1.0899   -0.0603 H   0  0  0  0  0  0  0  0  0  0  0  0
    2.3987   -0.3127   -1.4228 H   0  0  0  0  0  0  0  0  0  0  0  0
    3.7672    1.0223    2.0297 H   0  0  0  0  0  0  0  0  0  0  0  0
    3.1000   -0.5783    1.8287 H   0  0  0  0  0  0  0  0  0  0  0  0
    5.3455   -0.6420    1.5782 H   0  0  0  0  0  0  0  0  0  0  0  0
    5.8762   -1.7896   -0.2586 H   0  0  0  0  0  0  0  0  0  0  0  0
   -2.1923   -0.9163    0.4403 H   0  0  0  0  0  0  0  0  0  0  0  0
   -3.4276    0.2895    1.8908 H   0  0  0  0  0  0  0  0  0  0  0  0
   -3.5958    1.6583    0.7817 H   0  0  0  0  0  0  0  0  0  0  0  0
   -5.6099    0.9880    0.0044 H   0  0  0  0  0  0  0  0  0  0  0  0
   -4.5979   -1.8713    0.5127 H   0  0  0  0  0  0  0  0  0  0  0  0
   -4.9556   -1.8415   -2.0639 H   0  0  0  0  0  0  0  0  0  0  0  0
   -3.0289   -0.0260   -2.2497 H   0  0  0  0  0  0  0  0  0  0  0  0
   -2.7466   -1.6554   -1.6168 H   0  0  0  0  0  0  0  0  0  0  0  0
    5.6419    1.6993    0.9467 H   0  0  0  0  0  0  0  0  0  0  0  0
    5.7849    1.1240   -0.6873 H   0  0  0  0  0  0  0  0  0  0  0  0
   -6.6308   -2.2481   -0.7672 H   0  0  0  0  0  0  0  0  0  0  0  0
    5.6625   -0.4699   -1.9707 H   0  0  0  0  0  0  0  0  0  0  0  0
    4.2535   -3.0255    0.2616 H   0  0  0  0  0  0  0  0  0  0  0  0
  1  2  1  0
  2  3  1  0
  3  4  1  0
  4  5  1  0
  1  6  1  0
  5  6  1  0
  1  7  1  0
  7  8  1  0
  8  9  1  0
 10 11  1  0
 11 12  1  0
 12 13  1  0
 13 14  1  0
 10 15  1  0
 14 15  1  0
  8 16  1  0
  4 17  1  0
 10 17  1  0
 13 18  1  0
  9 19  1  0
  9 20  1  0
  3 21  1  0
 12 22  1  0
  5 23  1  0
 14 24  1  0
  1 25  1  6
  2 26  1  0
  2 27  1  0
  3 28  1  1
  4 29  1  0
  5 30  1  0
  6 31  1  0
  6 32  1  0
  7 33  1  0
  7 34  1  0
  8 35  1  1
  9 36  1  0
 10 37  1  0
 11 38  1  0
 11 39  1  0
 12 40  1  0
 13 41  1  0
 14 42  1  0
 15 43  1  0
 15 44  1  0
 16 45  1  0
 16 46  1  0
 18 47  1  0
 19 48  1  0
 20 49  1  0
M  END
>  <PDBID>  (1) 
1Y0X

>  <PDB ID>  (1) 
1Y0X

>  <Generic Name>  (1) 
Dextrothyroxine

>  <Brand Name>  (1) 
Choloxin - Tab 4mg#Choloxin Tab 2mg#Choloxin Tablet 4mg#Choloxin#Dynothel#Eulipos#Lisolipin

>  <DrugBank ID>  (1) 
DB00509

>  <ATC Codes>  (1) 
C10AX01

>  <Ligand ID>  (1) 
T44

>  <Target Name>  (1) 
Thyroid hormone receptor beta

>  <UniProt ID>  (1) 
P10828

>  <PDB ID.1>  (1) 
1Y0X

>  <Seq. Identity>  (1) 
100%

$$$$
