PDB_DB08912_08
     RDKit          3D

316328  0  0  0  0  0  0  0  0999 V2000
   -5.8764   -3.2610   -0.9591 C   0  0  0  0  0  0  0  0  0  0  0  0
   -4.1683   -1.8563   -0.2574 C   0  0  2  0  0  0  0  0  0  0  0  0
   -5.3375   -1.9137   -1.1214 N   0  0  0  0  0  0  0  0  0  0  0  0
   -4.5709   -1.7217    1.1948 C   0  0  0  0  0  0  0  0  0  0  0  0
   -5.8257   -3.6930    0.4054 N   0  0  0  0  0  0  0  0  0  0  0  0
   -5.7996   -2.6250    1.3691 C   0  0  0  0  0  0  0  0  0  0  0  0
   -5.0240   -4.1501   -1.7621 N   0  0  0  0  0  0  0  0  0  0  0  0
   -3.2408   -0.7905   -0.7311 C   0  0  0  0  0  0  0  0  0  0  0  0
   -3.9877    0.8565   -0.7183 S   0  0  0  0  0  0  0  0  0  0  0  0
   -2.9482    1.4903    0.6421 C   0  0  1  0  0  0  0  0  0  0  0  0
   -1.8486    0.6129    0.6816 N   0  0  0  0  0  0  0  0  0  0  0  0
   -2.0206   -0.6358    0.1192 C   0  0  0  0  0  0  0  0  0  0  0  0
   -2.6704    2.9473    0.5488 C   0  0  0  0  0  0  0  0  0  0  0  0
   -3.9302    3.7872    0.5802 C   0  0  0  0  0  0  0  0  0  0  0  0
   -1.8309    3.3269    1.7556 C   0  0  0  0  0  0  0  0  0  0  0  0
   -1.9051    3.3436   -0.6878 C   0  0  0  0  0  0  0  0  0  0  0  0
   -0.8049   -1.2221   -0.6174 C   0  0  2  0  0  0  0  0  0  0  0  0
    1.3537   -0.0463    0.0532 C   0  0  2  0  0  0  0  0  0  0  0  0
    0.3670   -1.1225    0.2550 C   0  0  0  0  0  0  0  0  0  0  0  0
    1.1071    0.7667   -1.1892 C   0  0  0  0  0  0  0  0  0  0  0  0
   -0.6674   -0.6588   -1.9898 C   0  0  0  0  0  0  0  0  0  0  0  0
    0.7597   -0.2479   -2.2857 C   0  0  0  0  0  0  0  0  0  0  0  0
   -0.0126   -1.1402    1.6042 F   0  0  0  0  0  0  0  0  0  0  0  0
    2.7273   -0.5121    0.0496 N   0  0  0  0  0  0  0  0  0  0  0  0
    3.8234    0.5814   -0.1236 S   0  0  0  0  0  0  0  0  0  0  0  0
    5.2453    0.2725    0.8835 C   0  0  0  0  0  0  0  0  0  0  0  0
    7.5786    0.9325    1.0917 C   0  0  0  0  0  0  0  0  0  0  0  0
    6.2265    1.3865    0.5961 C   0  0  0  0  0  0  0  0  0  0  0  0
    8.0875   -0.0983    0.1133 C   0  0  0  0  0  0  0  0  0  0  0  0
    5.8275   -1.0817    0.5821 C   0  0  0  0  0  0  0  0  0  0  0  0
    7.0001   -1.0242   -0.3649 C   0  0  0  0  0  0  0  0  0  0  0  0
    6.2096   -1.7485    1.7280 F   0  0  0  0  0  0  0  0  0  0  0  0
    6.2642    1.5703   -0.7730 F   0  0  0  0  0  0  0  0  0  0  0  0
    4.2437    1.2469   -1.3813 O   0  0  0  0  0  0  0  0  0  0  0  0
    3.1299    1.8960    0.9994 O   0  0  0  0  0  0  0  0  0  0  0  0
   -4.5997   -3.2255    1.2698 C   0  0  0  0  0  0  0  0  0  0  0  0
   -3.8222   -1.7333   -0.3734 C   0  0  0  0  0  0  0  0  0  0  0  0
   -4.0108   -1.8998    1.0508 N   0  0  0  0  0  0  0  0  0  0  0  0
   -5.2197   -1.6507   -0.9866 C   0  0  0  0  0  0  0  0  0  0  0  0
   -5.9103   -3.3121    0.6693 N   0  0  0  0  0  0  0  0  0  0  0  0
   -5.9055   -2.9887   -0.7305 C   0  0  0  0  0  0  0  0  0  0  0  0
   -3.6765   -4.2077    0.7429 N   0  0  0  0  0  0  0  0  0  0  0  0
   -3.1413   -0.4271   -0.6556 C   0  0  0  0  0  0  0  0  0  0  0  0
   -4.2359    0.8969    0.0090 S   0  0  0  0  0  0  0  0  0  0  0  0
   -2.9215    1.7794    0.9422 C   0  0  1  0  0  0  0  0  0  0  0  0
   -1.7235    1.2123    0.3348 N   0  0  0  0  0  0  0  0  0  0  0  0
   -1.9199   -0.1841    0.1713 C   0  0  2  0  0  0  0  0  0  0  0  0
   -2.9170    3.2501    0.5684 C   0  0  0  0  0  0  0  0  0  0  0  0
   -4.2125    3.9315    0.8687 C   0  0  0  0  0  0  0  0  0  0  0  0
   -1.7403    3.8755    1.2911 C   0  0  0  0  0  0  0  0  0  0  0  0
   -2.5735    3.3055   -0.9230 C   0  0  0  0  0  0  0  0  0  0  0  0
   -0.6930   -0.8215   -0.3659 C   0  0  2  0  0  0  0  0  0  0  0  0
    1.7094   -1.3235   -0.0133 C   0  0  0  0  0  0  0  0  0  0  0  0
    0.4971   -0.5444    0.5035 C   0  0  0  0  0  0  0  0  0  0  0  0
    1.2955   -2.2703   -1.1408 C   0  0  0  0  0  0  0  0  0  0  0  0
   -0.3508   -0.4753   -1.7709 C   0  0  0  0  0  0  0  0  0  0  0  0
    0.6632   -1.5116   -2.2638 C   0  0  0  0  0  0  0  0  0  0  0  0
    0.1978   -1.0286    1.7777 F   0  0  0  0  0  0  0  0  0  0  0  0
    2.7088   -0.4414   -0.5742 N   0  0  0  0  0  0  0  0  0  0  0  0
    3.4023    0.6614    0.2123 S   0  0  0  0  0  0  0  0  0  0  0  0
    5.1000    0.2273    0.4885 C   0  0  0  0  0  0  0  0  0  0  0  0
    7.1576    0.7861    1.6678 C   0  0  0  0  0  0  0  0  0  0  0  0
    5.7852    1.3006    1.2755 C   0  0  0  0  0  0  0  0  0  0  0  0
    7.8033    0.0202    0.5450 C   0  0  0  0  0  0  0  0  0  0  0  0
    5.7598    0.0652   -0.8781 C   0  0  0  0  0  0  0  0  0  0  0  0
    7.2311    0.4056   -0.8126 C   0  0  0  0  0  0  0  0  0  0  0  0
    5.5726   -1.2404   -1.2752 F   0  0  0  0  0  0  0  0  0  0  0  0
    5.8746    2.4908    0.5754 F   0  0  0  0  0  0  0  0  0  0  0  0
    3.6339    1.9687   -1.0504 O   0  0  0  0  0  0  0  0  0  0  0  0
    2.7985    1.4375    1.3763 O   0  0  0  0  0  0  0  0  0  0  0  0
   -5.7537   -3.3136   -0.8185 C   0  0  0  0  0  0  0  0  0  0  0  0
   -3.8259   -1.9278   -0.4287 C   0  0  2  0  0  0  0  0  0  0  0  0
   -5.0757   -2.0832   -1.1576 N   0  0  0  0  0  0  0  0  0  0  0  0
   -4.0484   -1.9007    1.0600 C   0  0  0  0  0  0  0  0  0  0  0  0
   -5.3627   -3.8072    0.4886 N   0  0  0  0  0  0  0  0  0  0  0  0
   -5.3046   -2.6810    1.4139 C   0  0  0  0  0  0  0  0  0  0  0  0
   -5.5865   -4.3338   -1.8221 N   0  0  0  0  0  0  0  0  0  0  0  0
   -3.1848   -0.6746   -0.9207 C   0  0  1  0  0  0  0  0  0  0  0  0
   -4.3041    0.7515   -0.5896 S   0  0  0  0  0  0  0  0  0  0  0  0
   -2.9433    1.9400   -0.2855 C   0  0  0  0  0  0  0  0  0  0  0  0
   -1.7761    1.1535   -0.3569 N   0  0  0  0  0  0  0  0  0  0  0  0
   -2.0016   -0.2195   -0.0881 C   0  0  0  0  0  0  0  0  0  0  0  0
   -3.1536    2.7713    0.9161 C   0  0  0  0  0  0  0  0  0  0  0  0
   -4.4560    3.5545    0.7093 C   0  0  0  0  0  0  0  0  0  0  0  0
   -3.2129    2.0221    2.2122 C   0  0  0  0  0  0  0  0  0  0  0  0
   -2.0423    3.7965    0.9831 C   0  0  0  0  0  0  0  0  0  0  0  0
   -0.7435   -0.9865   -0.4942 C   0  0  2  0  0  0  0  0  0  0  0  0
    1.4149    0.3437   -0.2480 C   0  0  2  0  0  0  0  0  0  0  0  0
    0.4464   -0.6111    0.3223 C   0  0  0  0  0  0  0  0  0  0  0  0
    1.2838    0.6459   -1.7040 C   0  0  0  0  0  0  0  0  0  0  0  0
   -0.5296   -0.9336   -1.9781 C   0  0  0  0  0  0  0  0  0  0  0  0
    0.9006   -0.6645   -2.3693 C   0  0  0  0  0  0  0  0  0  0  0  0
   -0.0216   -0.0981    1.5321 F   0  0  0  0  0  0  0  0  0  0  0  0
    2.7982   -0.1076   -0.0316 N   0  0  0  0  0  0  0  0  0  0  0  0
    3.9174    0.7417   -0.5333 S   0  0  0  0  0  0  0  0  0  0  0  0
    5.3456    0.5060    0.6722 C   0  0  0  0  0  0  0  0  0  0  0  0
    7.6985    1.0926    0.8233 C   0  0  0  0  0  0  0  0  0  0  0  0
    6.3924    1.3974    0.0829 C   0  0  0  0  0  0  0  0  0  0  0  0
    8.0722   -0.3304    0.4021 C   0  0  0  0  0  0  0  0  0  0  0  0
    5.6476   -0.9538    0.5654 C   0  0  0  0  0  0  0  0  0  0  0  0
    7.0578   -1.3205    0.9017 C   0  0  0  0  0  0  0  0  0  0  0  0
    4.8193   -1.6206    1.4584 F   0  0  0  0  0  0  0  0  0  0  0  0
    6.5966    1.0889   -1.2304 F   0  0  0  0  0  0  0  0  0  0  0  0
    4.5610    0.8818   -1.8522 O   0  0  0  0  0  0  0  0  0  0  0  0
    3.5343    2.4277    0.1102 O   0  0  0  0  0  0  0  0  0  0  0  0
   -5.4625   -3.4121   -1.3807 C   0  0  0  0  0  0  0  0  0  0  0  0
   -3.9104   -1.8919   -0.5542 C   0  0  2  0  0  0  0  0  0  0  0  0
   -5.0576   -2.0043   -1.4149 N   0  0  0  0  0  0  0  0  0  0  0  0
   -4.4263   -1.9931    0.8793 C   0  0  0  0  0  0  0  0  0  0  0  0
   -5.8014   -3.7800   -0.0353 N   0  0  0  0  0  0  0  0  0  0  0  0
   -5.8138   -2.6096    0.8064 C   0  0  0  0  0  0  0  0  0  0  0  0
   -4.4021   -4.2745   -1.8785 N   0  0  0  0  0  0  0  0  0  0  0  0
   -3.1671   -0.5906   -0.7664 C   0  0  1  0  0  0  0  0  0  0  0  0
   -4.2276    0.8406   -0.4249 S   0  0  0  0  0  0  0  0  0  0  0  0
   -3.2145    1.5191    0.8909 C   0  0  1  0  0  0  0  0  0  0  0  0
   -1.9805    0.8519    0.7472 N   0  0  0  0  0  0  0  0  0  0  0  0
   -2.0629   -0.4322    0.2230 C   0  0  2  0  0  0  0  0  0  0  0  0
   -3.0465    2.9991    0.8377 C   0  0  0  0  0  0  0  0  0  0  0  0
   -4.3608    3.7434    0.9319 C   0  0  0  0  0  0  0  0  0  0  0  0
   -2.2169    3.4124    2.0471 C   0  0  0  0  0  0  0  0  0  0  0  0
   -2.2882    3.4564   -0.3936 C   0  0  0  0  0  0  0  0  0  0  0  0
   -0.8016   -0.9066   -0.4738 C   0  0  2  0  0  0  0  0  0  0  0  0
    1.3520    0.2281    0.2641 C   0  0  2  0  0  0  0  0  0  0  0  0
    0.3448   -0.8379    0.4428 C   0  0  0  0  0  0  0  0  0  0  0  0
    1.1045    1.1642   -0.8691 C   0  0  0  0  0  0  0  0  0  0  0  0
   -0.6743   -0.1736   -1.7663 C   0  0  0  0  0  0  0  0  0  0  0  0
    0.7370    0.2764   -2.0638 C   0  0  0  0  0  0  0  0  0  0  0  0
   -0.0531   -0.8236    1.7912 F   0  0  0  0  0  0  0  0  0  0  0  0
    2.6737   -0.3518    0.0796 N   0  0  0  0  0  0  0  0  0  0  0  0
    3.8455    0.5637   -0.1023 S   0  0  0  0  0  0  0  0  0  0  0  0
    5.3400   -0.0139    0.7171 C   0  0  0  0  0  0  0  0  0  0  0  0
    7.7324    0.5859    0.8346 C   0  0  0  0  0  0  0  0  0  0  0  0
    6.3776    1.0449    0.4053 C   0  0  0  0  0  0  0  0  0  0  0  0
    8.0807   -0.6521    0.0213 C   0  0  0  0  0  0  0  0  0  0  0  0
    5.6769   -1.3531    0.1003 C   0  0  2  0  0  0  0  0  0  0  0  0
    7.0979   -1.7675    0.2950 C   0  0  0  0  0  0  0  0  0  0  0  0
    5.2750   -1.4084   -1.2184 F   0  0  0  0  0  0  0  0  0  0  0  0
    6.3861    1.1846   -0.9855 F   0  0  0  0  0  0  0  0  0  0  0  0
    4.2754    1.3055   -1.3420 O   0  0  0  0  0  0  0  0  0  0  0  0
    3.5214    1.8922    1.1930 O   0  0  0  0  0  0  0  0  0  0  0  0
   -6.9131   -3.3472   -1.3268 H   0  0  0  0  0  0  0  0  0  0  0  0
   -3.6480   -2.8318   -0.3525 H   0  0  0  0  0  0  0  0  0  0  0  0
   -6.0357   -1.1859   -0.8573 H   0  0  0  0  0  0  0  0  0  0  0  0
   -3.8082   -2.1324    1.8847 H   0  0  0  0  0  0  0  0  0  0  0  0
   -4.8885   -0.6835    1.4543 H   0  0  0  0  0  0  0  0  0  0  0  0
   -5.0712   -4.4102    0.5777 H   0  0  0  0  0  0  0  0  0  0  0  0
   -5.7822   -3.0941    2.3750 H   0  0  0  0  0  0  0  0  0  0  0  0
   -6.7070   -2.0093    1.2201 H   0  0  0  0  0  0  0  0  0  0  0  0
   -4.5794   -4.8738   -1.1626 H   0  0  0  0  0  0  0  0  0  0  0  0
   -4.2578   -3.6230   -2.2441 H   0  0  0  0  0  0  0  0  0  0  0  0
   -2.9327   -1.0477   -1.7747 H   0  0  0  0  0  0  0  0  0  0  0  0
   -3.5591    1.3361    1.5755 H   0  0  0  0  0  0  0  0  0  0  0  0
   -1.4491    0.5966    1.6712 H   0  0  0  0  0  0  0  0  0  0  0  0
   -2.1623   -1.3702    0.9717 H   0  0  0  0  0  0  0  0  0  0  0  0
   -3.8167    4.6223    1.3018 H   0  0  0  0  0  0  0  0  0  0  0  0
   -4.1496    4.2500   -0.4183 H   0  0  0  0  0  0  0  0  0  0  0  0
   -4.7590    3.1449    0.9400 H   0  0  0  0  0  0  0  0  0  0  0  0
   -1.8237    4.4264    1.8370 H   0  0  0  0  0  0  0  0  0  0  0  0
   -0.8248    2.8811    1.6992 H   0  0  0  0  0  0  0  0  0  0  0  0
   -2.3033    2.9218    2.6725 H   0  0  0  0  0  0  0  0  0  0  0  0
   -1.9924    2.6016   -1.5123 H   0  0  0  0  0  0  0  0  0  0  0  0
   -0.8335    3.4932   -0.4350 H   0  0  0  0  0  0  0  0  0  0  0  0
   -2.2549    4.3122   -1.1063 H   0  0  0  0  0  0  0  0  0  0  0  0
   -1.0726   -2.3190   -0.7228 H   0  0  0  0  0  0  0  0  0  0  0  0
    1.2920    0.6732    0.9178 H   0  0  0  0  0  0  0  0  0  0  0  0
    0.9576   -2.1025    0.1669 H   0  0  0  0  0  0  0  0  0  0  0  0
    1.9398    1.4084   -1.4860 H   0  0  0  0  0  0  0  0  0  0  0  0
    0.2188    1.4133   -0.9947 H   0  0  0  0  0  0  0  0  0  0  0  0
   -0.9439   -1.4239   -2.7395 H   0  0  0  0  0  0  0  0  0  0  0  0
   -1.3015    0.2233   -2.1982 H   0  0  0  0  0  0  0  0  0  0  0  0
    0.8102    0.2065   -3.2817 H   0  0  0  0  0  0  0  0  0  0  0  0
    1.3868   -1.1508   -2.1870 H   0  0  0  0  0  0  0  0  0  0  0  0
    2.8405   -1.5056   -0.1463 H   0  0  0  0  0  0  0  0  0  0  0  0
    4.9265    0.2589    1.9456 H   0  0  0  0  0  0  0  0  0  0  0  0
    7.5109    0.5583    2.1205 H   0  0  0  0  0  0  0  0  0  0  0  0
    8.2342    1.8395    1.1056 H   0  0  0  0  0  0  0  0  0  0  0  0
    5.9260    2.3108    1.1398 H   0  0  0  0  0  0  0  0  0  0  0  0
    8.9610   -0.6162    0.5445 H   0  0  0  0  0  0  0  0  0  0  0  0
    8.4581    0.4596   -0.7813 H   0  0  0  0  0  0  0  0  0  0  0  0
    5.0403   -1.6901    0.0956 H   0  0  0  0  0  0  0  0  0  0  0  0
    7.4391   -2.0495   -0.3925 H   0  0  0  0  0  0  0  0  0  0  0  0
    6.6667   -0.8189   -1.4028 H   0  0  0  0  0  0  0  0  0  0  0  0
    4.2082    2.1947   -1.6363 H   0  0  0  0  0  0  0  0  0  0  0  0
    3.5726    2.6851    0.6515 H   0  0  0  0  0  0  0  0  0  0  0  0
   -4.7014   -3.3725    2.3589 H   0  0  0  0  0  0  0  0  0  0  0  0
   -3.3280   -2.5971   -0.8448 H   0  0  0  0  0  0  0  0  0  0  0  0
   -4.7692   -1.2134    1.3433 H   0  0  0  0  0  0  0  0  0  0  0  0
   -5.8246   -0.8713   -0.4851 H   0  0  0  0  0  0  0  0  0  0  0  0
   -5.1723   -1.4920   -2.0722 H   0  0  0  0  0  0  0  0  0  0  0  0
   -6.2199   -4.3049    0.7607 H   0  0  0  0  0  0  0  0  0  0  0  0
   -5.4139   -3.7448   -1.3637 H   0  0  0  0  0  0  0  0  0  0  0  0
   -6.9692   -2.8532   -1.0491 H   0  0  0  0  0  0  0  0  0  0  0  0
   -3.4887   -4.9932    1.3870 H   0  0  0  0  0  0  0  0  0  0  0  0
   -3.8869   -4.4843   -0.2289 H   0  0  0  0  0  0  0  0  0  0  0  0
   -3.0417   -0.2241   -1.7175 H   0  0  0  0  0  0  0  0  0  0  0  0
   -2.9923    1.6001    2.0134 H   0  0  0  0  0  0  0  0  0  0  0  0
   -0.9690    1.3508    1.0446 H   0  0  0  0  0  0  0  0  0  0  0  0
   -2.1148   -0.6235    1.1822 H   0  0  0  0  0  0  0  0  0  0  0  0
   -4.0207    4.6524    1.7129 H   0  0  0  0  0  0  0  0  0  0  0  0
   -4.4336    4.6064   -0.0096 H   0  0  0  0  0  0  0  0  0  0  0  0
   -5.0412    3.2639    1.1008 H   0  0  0  0  0  0  0  0  0  0  0  0
   -0.8222    3.3864    0.8789 H   0  0  0  0  0  0  0  0  0  0  0  0
   -1.6386    4.9532    1.0645 H   0  0  0  0  0  0  0  0  0  0  0  0
   -1.7462    3.6613    2.3739 H   0  0  0  0  0  0  0  0  0  0  0  0
   -1.8727    2.4652   -1.1677 H   0  0  0  0  0  0  0  0  0  0  0  0
   -2.0256    4.2300   -1.1700 H   0  0  0  0  0  0  0  0  0  0  0  0
   -3.4775    3.1405   -1.5307 H   0  0  0  0  0  0  0  0  0  0  0  0
   -0.8551   -1.9355   -0.3303 H   0  0  0  0  0  0  0  0  0  0  0  0
    2.1631   -1.9016    0.7976 H   0  0  0  0  0  0  0  0  0  0  0  0
    0.8092    0.5101    0.5182 H   0  0  0  0  0  0  0  0  0  0  0  0
    0.7314   -3.1318   -0.7844 H   0  0  0  0  0  0  0  0  0  0  0  0
    2.2750   -2.6692   -1.5386 H   0  0  0  0  0  0  0  0  0  0  0  0
   -1.1717   -0.4852   -2.4839 H   0  0  0  0  0  0  0  0  0  0  0  0
    0.0906    0.5432   -1.7795 H   0  0  0  0  0  0  0  0  0  0  0  0
    1.4203   -1.0440   -2.9366 H   0  0  0  0  0  0  0  0  0  0  0  0
    0.1399   -2.2683   -2.9120 H   0  0  0  0  0  0  0  0  0  0  0  0
    2.9427   -0.6357   -1.5572 H   0  0  0  0  0  0  0  0  0  0  0  0
    5.1047   -0.7033    1.0519 H   0  0  0  0  0  0  0  0  0  0  0  0
    6.9828    0.0697    2.5146 H   0  0  0  0  0  0  0  0  0  0  0  0
    7.7908    1.6051    2.0530 H   0  0  0  0  0  0  0  0  0  0  0  0
    5.2131    1.4658    2.2095 H   0  0  0  0  0  0  0  0  0  0  0  0
    7.6307   -1.0810    0.6447 H   0  0  0  0  0  0  0  0  0  0  0  0
    8.8804    0.2460    0.5227 H   0  0  0  0  0  0  0  0  0  0  0  0
    5.2897    0.7418   -1.6205 H   0  0  0  0  0  0  0  0  0  0  0  0
    7.7545   -0.2307   -1.5610 H   0  0  0  0  0  0  0  0  0  0  0  0
    7.4358    1.4524   -1.0748 H   0  0  0  0  0  0  0  0  0  0  0  0
    2.6892    2.1709   -1.2800 H   0  0  0  0  0  0  0  0  0  0  0  0
    3.0361    2.4168    1.4388 H   0  0  0  0  0  0  0  0  0  0  0  0
   -6.8379   -3.0805   -0.7611 H   0  0  0  0  0  0  0  0  0  0  0  0
   -3.1173   -2.7686   -0.6606 H   0  0  0  0  0  0  0  0  0  0  0  0
   -5.6539   -1.2427   -0.9069 H   0  0  0  0  0  0  0  0  0  0  0  0
   -3.2085   -2.3885    1.6084 H   0  0  0  0  0  0  0  0  0  0  0  0
   -4.1324   -0.8706    1.4611 H   0  0  0  0  0  0  0  0  0  0  0  0
   -4.3874   -4.1964    0.4307 H   0  0  0  0  0  0  0  0  0  0  0  0
   -5.1881   -3.0663    2.4272 H   0  0  0  0  0  0  0  0  0  0  0  0
   -6.2193   -2.0619    1.2942 H   0  0  0  0  0  0  0  0  0  0  0  0
   -5.6719   -5.2781   -1.4360 H   0  0  0  0  0  0  0  0  0  0  0  0
   -4.8262   -4.1679   -2.4866 H   0  0  0  0  0  0  0  0  0  0  0  0
   -3.0082   -0.6795   -1.9954 H   0  0  0  0  0  0  0  0  0  0  0  0
   -2.9595    2.6257   -1.1755 H   0  0  0  0  0  0  0  0  0  0  0  0
   -1.0825    1.5220    0.3294 H   0  0  0  0  0  0  0  0  0  0  0  0
   -2.2234   -0.3755    0.9660 H   0  0  0  0  0  0  0  0  0  0  0  0
   -4.6310    4.1752    1.6175 H   0  0  0  0  0  0  0  0  0  0  0  0
   -4.3119    4.2840   -0.1201 H   0  0  0  0  0  0  0  0  0  0  0  0
   -5.3000    2.8956    0.4702 H   0  0  0  0  0  0  0  0  0  0  0  0
   -2.2531    1.5405    2.4061 H   0  0  0  0  0  0  0  0  0  0  0  0
   -4.0945    1.3839    2.2767 H   0  0  0  0  0  0  0  0  0  0  0  0
   -3.3288    2.8024    3.0210 H   0  0  0  0  0  0  0  0  0  0  0  0
   -1.2574    3.5931    0.2238 H   0  0  0  0  0  0  0  0  0  0  0  0
   -1.5571    3.7696    1.9836 H   0  0  0  0  0  0  0  0  0  0  0  0
   -2.4216    4.8261    0.8264 H   0  0  0  0  0  0  0  0  0  0  0  0
   -0.9685   -2.0492   -0.2514 H   0  0  0  0  0  0  0  0  0  0  0  0
    1.3820    1.3422    0.2831 H   0  0  0  0  0  0  0  0  0  0  0  0
    1.0249   -1.5297    0.6513 H   0  0  0  0  0  0  0  0  0  0  0  0
    2.2488    1.0415   -2.0786 H   0  0  0  0  0  0  0  0  0  0  0  0
    0.5336    1.4415   -1.9155 H   0  0  0  0  0  0  0  0  0  0  0  0
   -0.8474   -1.8423   -2.5249 H   0  0  0  0  0  0  0  0  0  0  0  0
   -1.1172   -0.0916   -2.4016 H   0  0  0  0  0  0  0  0  0  0  0  0
    0.9409   -0.5401   -3.4594 H   0  0  0  0  0  0  0  0  0  0  0  0
    1.5398   -1.4476   -1.9636 H   0  0  0  0  0  0  0  0  0  0  0  0
    2.8048   -0.9378    0.5950 H   0  0  0  0  0  0  0  0  0  0  0  0
    4.9598    0.8365    1.6347 H   0  0  0  0  0  0  0  0  0  0  0  0
    7.5594    1.1859    1.9058 H   0  0  0  0  0  0  0  0  0  0  0  0
    8.4671    1.7652    0.4130 H   0  0  0  0  0  0  0  0  0  0  0  0
    6.0837    2.4442    0.2611 H   0  0  0  0  0  0  0  0  0  0  0  0
    9.0440   -0.5720    0.8506 H   0  0  0  0  0  0  0  0  0  0  0  0
    8.1725   -0.3340   -0.6966 H   0  0  0  0  0  0  0  0  0  0  0  0
    5.3695   -1.3540   -0.4527 H   0  0  0  0  0  0  0  0  0  0  0  0
    7.2300   -1.5067    1.9836 H   0  0  0  0  0  0  0  0  0  0  0  0
    7.2823   -2.2955    0.3894 H   0  0  0  0  0  0  0  0  0  0  0  0
    4.5969    1.6923   -2.4192 H   0  0  0  0  0  0  0  0  0  0  0  0
    4.2052    2.9628   -0.3493 H   0  0  0  0  0  0  0  0  0  0  0  0
   -6.3466   -3.5803   -2.0230 H   0  0  0  0  0  0  0  0  0  0  0  0
   -3.2176   -2.7200   -0.7635 H   0  0  0  0  0  0  0  0  0  0  0  0
   -4.9014   -1.6908   -2.3789 H   0  0  0  0  0  0  0  0  0  0  0  0
   -3.7597   -2.6162    1.4967 H   0  0  0  0  0  0  0  0  0  0  0  0
   -4.5675   -0.9685    1.2914 H   0  0  0  0  0  0  0  0  0  0  0  0
   -5.2748   -4.5671    0.3544 H   0  0  0  0  0  0  0  0  0  0  0  0
   -6.4629   -1.8542    0.2816 H   0  0  0  0  0  0  0  0  0  0  0  0
   -6.1964   -2.8153    1.8232 H   0  0  0  0  0  0  0  0  0  0  0  0
   -3.8573   -4.6970   -1.0907 H   0  0  0  0  0  0  0  0  0  0  0  0
   -3.7852   -3.7180   -2.4950 H   0  0  0  0  0  0  0  0  0  0  0  0
   -2.8659   -0.5277   -1.8256 H   0  0  0  0  0  0  0  0  0  0  0  0
   -3.6207    1.2758    1.9131 H   0  0  0  0  0  0  0  0  0  0  0  0
   -1.4687    0.9359    1.6493 H   0  0  0  0  0  0  0  0  0  0  0  0
   -2.2441   -1.1640    1.0465 H   0  0  0  0  0  0  0  0  0  0  0  0
   -4.2311    4.7123    1.4671 H   0  0  0  0  0  0  0  0  0  0  0  0
   -4.6972    3.9769   -0.0846 H   0  0  0  0  0  0  0  0  0  0  0  0
   -5.0599    3.1180    1.5162 H   0  0  0  0  0  0  0  0  0  0  0  0
   -2.2154    4.4997    2.2040 H   0  0  0  0  0  0  0  0  0  0  0  0
   -1.1877    2.9781    1.9592 H   0  0  0  0  0  0  0  0  0  0  0  0
   -2.6616    2.9192    2.9351 H   0  0  0  0  0  0  0  0  0  0  0  0
   -2.4301    2.7869   -1.2524 H   0  0  0  0  0  0  0  0  0  0  0  0
   -1.2206    3.6445   -0.1456 H   0  0  0  0  0  0  0  0  0  0  0  0
   -2.7016    4.4696   -0.6699 H   0  0  0  0  0  0  0  0  0  0  0  0
   -1.0289   -1.9851   -0.7373 H   0  0  0  0  0  0  0  0  0  0  0  0
    1.4329    0.8787    1.1883 H   0  0  0  0  0  0  0  0  0  0  0  0
    0.9016   -1.8318    0.3875 H   0  0  0  0  0  0  0  0  0  0  0  0
    2.0123    1.7566   -1.0871 H   0  0  0  0  0  0  0  0  0  0  0  0
    0.2234    1.8007   -0.6554 H   0  0  0  0  0  0  0  0  0  0  0  0
   -1.0092   -0.7820   -2.6300 H   0  0  0  0  0  0  0  0  0  0  0  0
   -1.2911    0.7475   -1.7721 H   0  0  0  0  0  0  0  0  0  0  0  0
    0.7427    0.8471   -2.9907 H   0  0  0  0  0  0  0  0  0  0  0  0
    1.4091   -0.5892   -2.0456 H   0  0  0  0  0  0  0  0  0  0  0  0
    2.6226   -1.3848   -0.0091 H   0  0  0  0  0  0  0  0  0  0  0  0
    5.1705   -0.1057    1.7914 H   0  0  0  0  0  0  0  0  0  0  0  0
    7.7437    0.3845    1.9164 H   0  0  0  0  0  0  0  0  0  0  0  0
    8.4631    1.3717    0.5619 H   0  0  0  0  0  0  0  0  0  0  0  0
    6.0442    1.9741    0.9039 H   0  0  0  0  0  0  0  0  0  0  0  0
    9.0762   -0.9980    0.3735 H   0  0  0  0  0  0  0  0  0  0  0  0
    8.1496   -0.3753   -1.0317 H   0  0  0  0  0  0  0  0  0  0  0  0
    5.0409   -2.1156    0.6392 H   0  0  0  0  0  0  0  0  0  0  0  0
    7.3122   -2.1909    1.2835 H   0  0  0  0  0  0  0  0  0  0  0  0
    7.3150   -2.5656   -0.4672 H   0  0  0  0  0  0  0  0  0  0  0  0
    4.3652    2.3096   -1.2831 H   0  0  0  0  0  0  0  0  0  0  0  0
    3.4251    2.6643    0.6164 H   0  0  0  0  0  0  0  0  0  0  0  0
  1  3  1  0
  2  3  1  0
  2  4  1  0
  1  5  1  0
  4  6  1  0
  5  6  1  0
  1  7  1  0
  2  8  1  0
  8  9  1  0
  9 10  1  0
 10 11  1  0
  8 12  1  0
 11 12  1  0
 10 13  1  0
 13 14  1  0
 13 15  1  0
 13 16  1  0
 12 17  1  0
 17 19  1  0
 18 19  1  0
 18 20  1  0
 17 21  1  0
 20 22  1  0
 21 22  1  0
 19 23  1  0
 18 24  1  0
 24 25  1  0
 25 26  1  0
 26 28  1  0
 27 28  1  0
 27 29  1  0
 26 30  1  0
 29 31  1  0
 30 31  1  0
 30 32  1  0
 28 33  1  0
 25 34  1  0
 25 35  1  0
 36 38  1  0
 37 38  1  0
 37 39  1  0
 36 40  1  0
 39 41  1  0
 40 41  1  0
 36 42  1  0
 37 43  1  0
 43 44  1  0
 44 45  1  0
 45 46  1  0
 43 47  1  0
 46 47  1  0
 45 48  1  0
 48 49  1  0
 48 50  1  0
 48 51  1  0
 47 52  1  0
 52 54  1  0
 53 54  1  0
 53 55  1  0
 52 56  1  0
 55 57  1  0
 56 57  1  0
 54 58  1  0
 53 59  1  0
 59 60  1  0
 60 61  1  0
 61 63  1  0
 62 63  1  0
 62 64  1  0
 61 65  1  0
 64 66  1  0
 65 66  1  0
 65 67  1  0
 63 68  1  0
 60 69  1  0
 60 70  1  0
 71 73  1  0
 72 73  1  0
 72 74  1  0
 71 75  1  0
 74 76  1  0
 75 76  1  0
 71 77  1  0
 72 78  1  0
 78 79  1  0
 79 80  1  0
 80 81  1  0
 78 82  1  0
 81 82  1  0
 80 83  1  0
 83 84  1  0
 83 85  1  0
 83 86  1  0
 82 87  1  0
 87 89  1  0
 88 89  1  0
 88 90  1  0
 87 91  1  0
 90 92  1  0
 91 92  1  0
 89 93  1  0
 88 94  1  0
 94 95  1  0
 95 96  1  0
 96 98  1  0
 97 98  1  0
 97 99  1  0
 96100  1  0
 99101  1  0
100101  1  0
100102  1  0
 98103  1  0
 95104  1  0
 95105  1  0
106108  1  0
107108  1  0
107109  1  0
106110  1  0
109111  1  0
110111  1  0
106112  1  0
107113  1  0
113114  1  0
114115  1  0
115116  1  0
113117  1  0
116117  1  0
115118  1  0
118119  1  0
118120  1  0
118121  1  0
117122  1  0
122124  1  0
123124  1  0
123125  1  0
122126  1  0
125127  1  0
126127  1  0
124128  1  0
123129  1  0
129130  1  0
130131  1  0
131133  1  0
132133  1  0
132134  1  0
131135  1  0
134136  1  0
135136  1  0
135137  1  0
133138  1  0
130139  1  0
130140  1  0
  1141  1  0
  2142  1  1
  3143  1  0
  4144  1  0
  4145  1  0
  5146  1  0
  6147  1  0
  6148  1  0
  7149  1  0
  7150  1  0
  8151  1  0
 10152  1  1
 11153  1  0
 12154  1  0
 14155  1  0
 14156  1  0
 14157  1  0
 15158  1  0
 15159  1  0
 15160  1  0
 16161  1  0
 16162  1  0
 16163  1  0
 17164  1  6
 18165  1  1
 19166  1  0
 20167  1  0
 20168  1  0
 21169  1  0
 21170  1  0
 22171  1  0
 22172  1  0
 24173  1  0
 26174  1  0
 27175  1  0
 27176  1  0
 28177  1  0
 29178  1  0
 29179  1  0
 30180  1  0
 31181  1  0
 31182  1  0
 34183  1  0
 35184  1  0
 36185  1  0
 37186  1  0
 38187  1  0
 39188  1  0
 39189  1  0
 40190  1  0
 41191  1  0
 41192  1  0
 42193  1  0
 42194  1  0
 43195  1  0
 45196  1  1
 46197  1  0
 47198  1  1
 49199  1  0
 49200  1  0
 49201  1  0
 50202  1  0
 50203  1  0
 50204  1  0
 51205  1  0
 51206  1  0
 51207  1  0
 52208  1  6
 53209  1  0
 54210  1  0
 55211  1  0
 55212  1  0
 56213  1  0
 56214  1  0
 57215  1  0
 57216  1  0
 59217  1  0
 61218  1  0
 62219  1  0
 62220  1  0
 63221  1  0
 64222  1  0
 64223  1  0
 65224  1  0
 66225  1  0
 66226  1  0
 69227  1  0
 70228  1  0
 71229  1  0
 72230  1  1
 73231  1  0
 74232  1  0
 74233  1  0
 75234  1  0
 76235  1  0
 76236  1  0
 77237  1  0
 77238  1  0
 78239  1  6
 80240  1  0
 81241  1  0
 82242  1  0
 84243  1  0
 84244  1  0
 84245  1  0
 85246  1  0
 85247  1  0
 85248  1  0
 86249  1  0
 86250  1  0
 86251  1  0
 87252  1  1
 88253  1  1
 89254  1  0
 90255  1  0
 90256  1  0
 91257  1  0
 91258  1  0
 92259  1  0
 92260  1  0
 94261  1  0
 96262  1  0
 97263  1  0
 97264  1  0
 98265  1  0
 99266  1  0
 99267  1  0
100268  1  0
101269  1  0
101270  1  0
104271  1  0
105272  1  0
106273  1  0
107274  1  6
108275  1  0
109276  1  0
109277  1  0
110278  1  0
111279  1  0
111280  1  0
112281  1  0
112282  1  0
113283  1  6
115284  1  1
116285  1  0
117286  1  1
119287  1  0
119288  1  0
119289  1  0
120290  1  0
120291  1  0
120292  1  0
121293  1  0
121294  1  0
121295  1  0
122296  1  6
123297  1  1
124298  1  0
125299  1  0
125300  1  0
126301  1  0
126302  1  0
127303  1  0
127304  1  0
129305  1  0
131306  1  0
132307  1  0
132308  1  0
133309  1  0
134310  1  0
134311  1  0
135312  1  1
136313  1  0
136314  1  0
139315  1  0
140316  1  0
M  END
>  <PDBID>  (1) 
5HIE

>  <PDB ID>  (1) 
5HIE

>  <Generic Name>  (1) 
Dabrafenib

>  <Brand Name>  (1) 
Tafinlar

>  <DrugBank ID>  (1) 
DB08912

>  <ATC Codes>  (1) 
L01XE23

>  <Ligand ID>  (1) 
P06

>  <Target Name>  (1) 
RAF proto-oncogene serine/threonine-protein kinase

>  <UniProt ID>  (1) 
P04049

>  <PDB ID.1>  (1) 
5HIE

>  <Seq. Identity>  (1) 
77%

$$$$
