PDB_DB01606_07
     RDKit          3D

 42 44  0  0  0  0  0  0  0  0999 V2000
   -0.2182   -1.3707    0.7519 S   0  0  0  0  0  0  0  0  0  0  0  0
    0.0718    0.4918    0.2796 C   0  0  1  0  0  0  0  0  0  0  0  0
   -1.3582    0.6321   -0.2213 C   0  0  2  0  0  0  0  0  0  0  0  0
   -1.8968   -1.0254    1.2989 C   0  0  2  0  0  0  0  0  0  0  0  0
   -2.9752   -1.4541    0.3940 C   0  0  0  0  0  0  0  0  0  0  0  0
   -3.5167   -0.0464    0.6808 C   0  0  2  0  0  0  0  0  0  0  0  0
   -1.6159    1.9873   -0.8009 C   0  0  0  0  0  0  0  0  0  0  0  0
   -2.1335    0.3368    0.9412 N   0  0  0  0  0  0  0  0  0  0  0  0
    0.3092    1.1611    1.5792 C   0  0  0  0  0  0  0  0  0  0  0  0
    1.0575    0.5982   -0.7537 C   0  0  0  0  0  0  0  0  0  0  0  0
    4.2724   -1.0185   -0.3528 C   0  0  0  0  0  0  0  0  0  0  0  0
    2.7527   -1.1969   -0.6578 C   0  0  0  0  0  0  0  0  0  0  0  0
    2.3362    0.1262   -0.6107 N   0  0  0  0  0  0  0  0  0  0  0  0
    3.3208    0.7829   -1.3746 N   0  0  0  0  0  0  0  0  0  0  0  0
    4.5003    0.3235   -0.7886 N   0  0  0  0  0  0  0  0  0  0  0  0
    0.8781   -1.8427    1.8992 O   0  0  0  0  0  0  0  0  0  0  0  0
   -0.1463   -2.3229   -0.7876 O   0  0  0  0  0  0  0  0  0  0  0  0
   -4.2371    0.0395    1.8589 O   0  0  0  0  0  0  0  0  0  0  0  0
   -0.8292    2.2002   -1.9428 O   0  0  0  0  0  0  0  0  0  0  0  0
   -2.9438    2.2052   -1.0386 O   0  0  0  0  0  0  0  0  0  0  0  0
   -1.5581   -0.1091   -1.0153 H   0  0  0  0  0  0  0  0  0  0  0  0
   -2.0030   -1.2791    2.3634 H   0  0  0  0  0  0  0  0  0  0  0  0
   -2.7894   -1.6615   -0.6517 H   0  0  0  0  0  0  0  0  0  0  0  0
   -3.6758   -2.1667    0.9132 H   0  0  0  0  0  0  0  0  0  0  0  0
   -4.0141    0.4171   -0.1589 H   0  0  0  0  0  0  0  0  0  0  0  0
   -1.2523    2.7446   -0.0527 H   0  0  0  0  0  0  0  0  0  0  0  0
   -0.5879    1.7560    1.8465 H   0  0  0  0  0  0  0  0  0  0  0  0
    0.4546    0.4399    2.4372 H   0  0  0  0  0  0  0  0  0  0  0  0
    1.1614    1.8580    1.5125 H   0  0  0  0  0  0  0  0  0  0  0  0
    0.6112    0.3206   -1.7964 H   0  0  0  0  0  0  0  0  0  0  0  0
    1.1760    1.7424   -0.9512 H   0  0  0  0  0  0  0  0  0  0  0  0
    4.4364   -1.1016    0.7409 H   0  0  0  0  0  0  0  0  0  0  0  0
    4.8431   -1.7857   -0.8899 H   0  0  0  0  0  0  0  0  0  0  0  0
    2.7072   -1.6484   -1.7033 H   0  0  0  0  0  0  0  0  0  0  0  0
    2.4191   -1.9528    0.0183 H   0  0  0  0  0  0  0  0  0  0  0  0
    3.3099    0.3758   -2.3547 H   0  0  0  0  0  0  0  0  0  0  0  0
    5.3128    0.3663   -1.4382 H   0  0  0  0  0  0  0  0  0  0  0  0
    1.0063   -2.8188    1.8691 H   0  0  0  0  0  0  0  0  0  0  0  0
   -0.9461   -2.8991   -0.7484 H   0  0  0  0  0  0  0  0  0  0  0  0
   -4.0093    0.8433    2.3685 H   0  0  0  0  0  0  0  0  0  0  0  0
   -0.8792    3.1292   -2.2649 H   0  0  0  0  0  0  0  0  0  0  0  0
   -3.3506    2.8226   -0.3982 H   0  0  0  0  0  0  0  0  0  0  0  0
  1  2  1  0
  2  3  1  0
  1  4  1  0
  4  5  1  0
  5  6  1  0
  3  7  1  0
  3  8  1  0
  4  8  1  0
  6  8  1  0
  2  9  1  1
  2 10  1  0
 11 12  1  0
 10 13  1  0
 12 13  1  0
 13 14  1  0
 11 15  1  0
 14 15  1  0
  1 16  1  0
  1 17  1  0
  6 18  1  0
  7 19  1  0
  7 20  1  0
  3 21  1  6
  4 22  1  1
  5 23  1  0
  5 24  1  0
  6 25  1  6
  7 26  1  0
  9 27  1  0
  9 28  1  0
  9 29  1  0
 10 30  1  0
 10 31  1  0
 11 32  1  0
 11 33  1  0
 12 34  1  0
 12 35  1  0
 14 36  1  0
 15 37  1  0
 16 38  1  0
 17 39  1  0
 18 40  1  0
 19 41  1  0
 20 42  1  0
M  END
>  <PDBID>  (1) 
1VM1

>  <PDB ID>  (1) 
1VM1

>  <Generic Name>  (1) 
Tazobactam

>  <Brand Name>  (1) 
Jamp-pip/taz#Mylan-piperacillin and Tazobactam for Injection#Piperacillin / Tazobactam Powder for Injection#Piperacillin Sodium/tazobactam Sodium Powder for Injection#Piperacillin and Tazobactam#Piperacillin and Tazobactam for Injection#Piperacillin, Tazobactam#Piperacillin/tazobactam for Injection#Tazocin#Tazocin Pws IV 2g Piperacillin-.25g Tazobac.#Tazocin Pws IV 3g Piperacillin-.375g Tazobac#Tazocin Pws IV 4g Piperacillin-.5g Tazobac.#Vpi-piperacillin and Tazobactam for Injection#Zerbaxa#Zosyn#Zosyn In Galaxy Containers#Zosyn Pharmacy Bulk Package

>  <DrugBank ID>  (1) 
DB01606

>  <ATC Codes>  (1) 
J01CG02

>  <Ligand ID>  (1) 
TAZ

>  <Target Name>  (1) 
Beta-lactamase TEM

>  <UniProt ID>  (1) 
P62594

>  <PDB ID.1>  (1) 
1VM1

>  <Seq. Identity>  (1) 
66%

$$$$
