PDB_DB01199_07
     RDKit          3D

550580  0  0  0  0  0  0  0  0999 V2000
    3.5042   -2.3524    1.0446 N   0  0  0  0  0  0  0  0  0  0  0  0
    4.4712   -1.6862    1.8430 C   0  0  0  0  0  0  0  0  0  0  0  0
    5.0227   -0.4013    1.3706 C   0  0  0  0  0  0  0  0  0  0  0  0
    5.4720   -0.5430   -0.0566 C   0  0  0  0  0  0  0  0  0  0  0  0
    4.1896   -0.9074   -0.8379 C   0  0  0  0  0  0  0  0  0  0  0  0
    3.7759   -2.2926   -0.3757 C   0  0  2  0  0  0  0  0  0  0  0  0
    5.9663    0.7193   -0.6797 C   0  0  0  0  0  0  0  0  0  0  0  0
    5.0161    1.8304   -0.3625 C   0  0  0  0  0  0  0  0  0  0  0  0
    3.5853    1.5656   -0.7596 C   0  0  1  0  0  0  0  0  0  0  0  0
    3.1672    0.1545   -0.6882 C   0  0  0  0  0  0  0  0  0  0  0  0
    2.7700    2.3750    0.0281 O   0  0  0  0  0  0  0  0  0  0  0  0
    1.6911    2.9480   -0.6397 C   0  0  2  0  0  0  0  0  0  0  0  0
    1.2157    4.0916    0.2316 C   0  0  0  0  0  0  0  0  0  0  0  0
    0.0720    4.8539   -0.3478 C   0  0  0  0  0  0  0  0  0  0  0  0
   -0.7994    3.9069   -1.1416 C   0  0  0  0  0  0  0  0  0  0  0  0
   -0.7509    2.5445   -0.4602 C   0  0  2  0  0  0  0  0  0  0  0  0
    0.5792    1.9537   -0.8807 C   0  0  0  0  0  0  0  0  0  0  0  0
   -1.9496    1.6881   -0.7853 C   0  0  0  0  0  0  0  0  0  0  0  0
   -2.4820    0.8696    0.3350 C   0  0  1  0  0  0  0  0  0  0  0  0
   -3.0461    1.6842    1.4050 N   0  0  0  0  0  0  0  0  0  0  0  0
   -4.2390    1.0863    2.0248 C   0  0  0  0  0  0  0  0  0  0  0  0
   -5.3872    0.9453    1.0858 C   0  0  0  0  0  0  0  0  0  0  0  0
   -4.8531    0.3713   -0.2024 C   0  0  0  0  0  0  0  0  0  0  0  0
   -3.4403   -0.2146    0.0496 C   0  0  1  0  0  0  0  0  0  0  0  0
   -5.7339   -0.6943   -0.7452 C   0  0  0  0  0  0  0  0  0  0  0  0
   -5.5073   -2.0486   -0.1718 C   0  0  0  0  0  0  0  0  0  0  0  0
   -4.1024   -2.5336   -0.2843 C   0  0  2  0  0  0  0  0  0  0  0  0
   -3.2544   -1.3354   -0.8240 C   0  0  2  0  0  0  0  0  0  0  0  0
   -2.0896   -1.9051   -1.1555 O   0  0  0  0  0  0  0  0  0  0  0  0
   -1.1431   -2.2590   -0.2908 C   0  0  0  0  0  0  0  0  0  0  0  0
    0.0685   -1.4897   -0.8563 C   0  0  0  0  0  0  0  0  0  0  0  0
    0.6671   -2.3826   -1.9137 C   0  0  0  0  0  0  0  0  0  0  0  0
    1.5622   -3.4072   -1.1916 C   0  0  0  0  0  0  0  0  0  0  0  0
    0.8517   -3.7399    0.0497 C   0  0  0  0  0  0  0  0  0  0  0  0
   -0.6694   -3.6899   -0.2542 C   0  0  0  0  0  0  0  0  0  0  0  0
    2.9780   -3.1082   -1.2642 C   0  0  0  0  0  0  0  0  0  0  0  0
    5.4963    2.9656   -1.0486 O   0  0  0  0  0  0  0  0  0  0  0  0
    5.8983    3.9676   -0.1882 C   0  0  0  0  0  0  0  0  0  0  0  0
    2.3358    4.9318    0.4570 O   0  0  0  0  0  0  0  0  0  0  0  0
   -6.3098   -2.9474   -0.9129 O   0  0  0  0  0  0  0  0  0  0  0  0
   -7.2297   -3.5817   -0.0876 C   0  0  0  0  0  0  0  0  0  0  0  0
   -3.9363   -3.5710   -1.1817 O   0  0  0  0  0  0  0  0  0  0  0  0
    3.6712   -3.7798    1.4030 C   0  0  0  0  0  0  0  0  0  0  0  0
   -3.4613    3.0000    1.0349 C   0  0  0  0  0  0  0  0  0  0  0  0
   -2.0976    1.8512    2.5188 C   0  0  0  0  0  0  0  0  0  0  0  0
    4.7669   -3.2923    0.0383 N   0  0  0  0  0  0  0  0  0  0  0  0
    6.1530   -2.8386    0.2899 C   0  0  0  0  0  0  0  0  0  0  0  0
    6.0912   -1.4128    0.8829 C   0  0  0  0  0  0  0  0  0  0  0  0
    5.5617   -0.5815   -0.2166 C   0  0  0  0  0  0  0  0  0  0  0  0
    4.1040   -1.0422   -0.4642 C   0  0  2  0  0  0  0  0  0  0  0  0
    4.1656   -2.4343   -0.9442 C   0  0  2  0  0  0  0  0  0  0  0  0
    5.6756    0.8840   -0.1360 C   0  0  0  0  0  0  0  0  0  0  0  0
    4.4061    1.6174    0.2689 C   0  0  0  0  0  0  0  0  0  0  0  0
    3.1945    1.2017   -0.4753 C   0  0  0  0  0  0  0  0  0  0  0  0
    3.6187    0.0179   -1.3754 C   0  0  0  0  0  0  0  0  0  0  0  0
    2.6106    2.0905   -1.3113 O   0  0  0  0  0  0  0  0  0  0  0  0
    1.4368    2.6983   -0.9394 C   0  0  0  0  0  0  0  0  0  0  0  0
    1.5063    3.4330    0.3543 C   0  0  0  0  0  0  0  0  0  0  0  0
    0.1241    3.9464    0.7242 C   0  0  0  0  0  0  0  0  0  0  0  0
   -0.7607    4.0384   -0.5145 C   0  0  0  0  0  0  0  0  0  0  0  0
   -1.0164    2.7401   -1.1577 C   0  0  0  0  0  0  0  0  0  0  0  0
    0.2055    1.8547   -0.9664 C   0  0  0  0  0  0  0  0  0  0  0  0
   -2.3253    2.0905   -1.0567 C   0  0  0  0  0  0  0  0  0  0  0  0
   -2.8728    1.5616    0.1944 C   0  0  1  0  0  0  0  0  0  0  0  0
   -3.7925    2.4462    0.8986 N   0  0  0  0  0  0  0  0  0  0  0  0
   -4.9121    1.7414    1.5325 C   0  0  0  0  0  0  0  0  0  0  0  0
   -5.7681    1.0216    0.5444 C   0  0  0  0  0  0  0  0  0  0  0  0
   -4.9116    0.3020   -0.4593 C   0  0  0  0  0  0  0  0  0  0  0  0
   -3.5151    0.2255    0.1792 C   0  0  1  0  0  0  0  0  0  0  0  0
   -5.4785   -1.1085   -0.6613 C   0  0  0  0  0  0  0  0  0  0  0  0
   -4.9874   -1.9114    0.5165 C   0  0  0  0  0  0  0  0  0  0  0  0
   -3.4866   -2.1677    0.3059 C   0  0  0  0  0  0  0  0  0  0  0  0
   -2.8501   -0.9492   -0.3969 C   0  0  2  0  0  0  0  0  0  0  0  0
   -1.4949   -1.0846   -0.2046 O   0  0  0  0  0  0  0  0  0  0  0  0
   -0.9926   -2.1511   -0.9278 C   0  0  0  0  0  0  0  0  0  0  0  0
    0.1310   -1.6983   -1.8859 C   0  0  0  0  0  0  0  0  0  0  0  0
    0.7062   -3.0230   -2.3664 C   0  0  0  0  0  0  0  0  0  0  0  0
    1.7843   -3.4355   -1.3247 C   0  0  0  0  0  0  0  0  0  0  0  0
    1.1705   -3.1054   -0.0261 C   0  0  0  0  0  0  0  0  0  0  0  0
   -0.3653   -3.2302   -0.1186 C   0  0  0  0  0  0  0  0  0  0  0  0
    3.0777   -2.9798   -1.7508 C   0  0  0  0  0  0  0  0  0  0  0  0
    4.3490    1.4586    1.6517 O   0  0  0  0  0  0  0  0  0  0  0  0
    4.6102    2.6686    2.2698 C   0  0  0  0  0  0  0  0  0  0  0  0
    2.2861    4.5681    0.1396 O   0  0  0  0  0  0  0  0  0  0  0  0
   -5.6692   -3.1390    0.4702 O   0  0  0  0  0  0  0  0  0  0  0  0
   -6.4085   -3.3326    1.6422 C   0  0  0  0  0  0  0  0  0  0  0  0
   -3.4023   -3.3310   -0.3865 O   0  0  0  0  0  0  0  0  0  0  0  0
    4.1668   -3.4667    1.2780 C   0  0  0  0  0  0  0  0  0  0  0  0
   -4.4674    3.4055    0.0577 C   0  0  0  0  0  0  0  0  0  0  0  0
   -3.1585    3.1507    2.0020 C   0  0  0  0  0  0  0  0  0  0  0  0
    3.7450   -2.3117    0.9421 N   0  0  0  0  0  0  0  0  0  0  0  0
    5.0192   -1.9135    1.5141 C   0  0  0  0  0  0  0  0  0  0  0  0
    5.8259   -0.9277    0.8166 C   0  0  0  0  0  0  0  0  0  0  0  0
    5.4287   -0.4547   -0.5336 C   0  0  0  0  0  0  0  0  0  0  0  0
    4.0101   -0.9033   -0.9238 C   0  0  0  0  0  0  0  0  0  0  0  0
    3.8541   -2.3494   -0.4695 C   0  0  2  0  0  0  0  0  0  0  0  0
    5.5781    1.0321   -0.7418 C   0  0  0  0  0  0  0  0  0  0  0  0
    4.6444    1.8499    0.1032 C   0  0  0  0  0  0  0  0  0  0  0  0
    3.3854    1.1151    0.4909 C   0  0  0  0  0  0  0  0  0  0  0  0
    2.9773    0.0310   -0.4445 C   0  0  0  0  0  0  0  0  0  0  0  0
    2.3548    1.9504    0.8172 O   0  0  0  0  0  0  0  0  0  0  0  0
    1.6899    2.5836   -0.2008 C   0  0  0  0  0  0  0  0  0  0  0  0
    1.6164    4.0551    0.0398 C   0  0  0  0  0  0  0  0  0  0  0  0
    0.3144    4.7256   -0.1559 C   0  0  0  0  0  0  0  0  0  0  0  0
   -0.7019    3.9343   -0.9467 C   0  0  0  0  0  0  0  0  0  0  0  0
   -0.8458    2.6353   -0.1790 C   0  0  2  0  0  0  0  0  0  0  0  0
    0.4297    1.8798   -0.4644 C   0  0  0  0  0  0  0  0  0  0  0  0
   -2.0400    1.8181   -0.6098 C   0  0  0  0  0  0  0  0  0  0  0  0
   -2.6958    1.1079    0.5302 C   0  0  1  0  0  0  0  0  0  0  0  0
   -3.4542    1.9797    1.3963 N   0  0  0  0  0  0  0  0  0  0  0  0
   -4.7336    1.4074    1.8111 C   0  0  0  0  0  0  0  0  0  0  0  0
   -5.6246    1.0429    0.6693 C   0  0  0  0  0  0  0  0  0  0  0  0
   -4.8774    0.3049   -0.4040 C   0  0  0  0  0  0  0  0  0  0  0  0
   -3.5307   -0.0670    0.2030 C   0  0  1  0  0  0  0  0  0  0  0  0
   -5.6035   -0.9906   -0.6883 C   0  0  0  0  0  0  0  0  0  0  0  0
   -5.1240   -2.1152    0.1882 C   0  0  0  0  0  0  0  0  0  0  0  0
   -3.6723   -2.4550   -0.1779 C   0  0  0  0  0  0  0  0  0  0  0  0
   -2.9509   -1.1643   -0.5984 C   0  0  2  0  0  0  0  0  0  0  0  0
   -1.6121   -1.3740   -0.4528 O   0  0  0  0  0  0  0  0  0  0  0  0
   -1.1673   -2.2529   -1.4410 C   0  0  0  0  0  0  0  0  0  0  0  0
   -0.0246   -1.5654   -2.1454 C   0  0  0  0  0  0  0  0  0  0  0  0
    1.0689   -2.4914   -2.6040 C   0  0  0  0  0  0  0  0  0  0  0  0
    1.6610   -3.3328   -1.4808 C   0  0  0  0  0  0  0  0  0  0  0  0
    0.7597   -3.3498   -0.2748 C   0  0  0  0  0  0  0  0  0  0  0  0
   -0.6599   -3.5440   -0.8459 C   0  0  0  0  0  0  0  0  0  0  0  0
    3.0958   -3.2568   -1.2883 C   0  0  0  0  0  0  0  0  0  0  0  0
    5.3582    2.2841    1.2144 O   0  0  0  0  0  0  0  0  0  0  0  0
    5.4886    3.6636    1.1733 C   0  0  0  0  0  0  0  0  0  0  0  0
    2.5656    4.7802   -0.7250 O   0  0  0  0  0  0  0  0  0  0  0  0
   -5.9409   -3.2238   -0.1209 O   0  0  0  0  0  0  0  0  0  0  0  0
   -6.6168   -3.6929    1.0021 C   0  0  0  0  0  0  0  0  0  0  0  0
   -3.7345   -3.3984   -1.1624 O   0  0  0  0  0  0  0  0  0  0  0  0
    3.3563   -3.4973    1.6086 C   0  0  0  0  0  0  0  0  0  0  0  0
   -3.7957    3.2548    0.8044 C   0  0  0  0  0  0  0  0  0  0  0  0
   -2.7358    2.2685    2.6276 C   0  0  0  0  0  0  0  0  0  0  0  0
    3.6872   -2.7901    0.6141 N   0  0  0  0  0  0  0  0  0  0  0  0
    4.4700   -2.2620    1.6721 C   0  0  0  0  0  0  0  0  0  0  0  0
    4.9645   -0.8733    1.5599 C   0  0  0  0  0  0  0  0  0  0  0  0
    5.4492   -0.6060    0.1658 C   0  0  0  0  0  0  0  0  0  0  0  0
    4.3637   -0.8942   -0.8618 C   0  0  0  0  0  0  0  0  0  0  0  0
    4.0080   -2.3645   -0.7094 C   0  0  2  0  0  0  0  0  0  0  0  0
    5.9019    0.7867   -0.0776 C   0  0  0  0  0  0  0  0  0  0  0  0
    4.8239    1.8198    0.0921 C   0  0  1  0  0  0  0  0  0  0  0  0
    3.5129    1.4636   -0.5184 C   0  0  1  0  0  0  0  0  0  0  0  0
    3.2515    0.0544   -0.8317 C   0  0  0  0  0  0  0  0  0  0  0  0
    2.5030    1.9840    0.3308 O   0  0  0  0  0  0  0  0  0  0  0  0
    1.4415    2.5025   -0.3607 C   0  0  2  0  0  0  0  0  0  0  0  0
    1.4233    4.0286   -0.1948 C   0  0  0  0  0  0  0  0  0  0  0  0
   -0.0124    4.4565   -0.4223 C   0  0  0  0  0  0  0  0  0  0  0  0
   -0.6779    3.5851   -1.4786 C   0  0  0  0  0  0  0  0  0  0  0  0
   -0.8634    2.1616   -0.9801 C   0  0  0  0  0  0  0  0  0  0  0  0
    0.0893    2.0016    0.1774 C   0  0  0  0  0  0  0  0  0  0  0  0
   -2.2462    1.7490   -0.7810 C   0  0  0  0  0  0  0  0  0  0  0  0
   -2.6875    1.2148    0.5331 C   0  0  1  0  0  0  0  0  0  0  0  0
   -3.3779    2.1212    1.3911 N   0  0  0  0  0  0  0  0  0  0  0  0
   -4.6192    1.5918    1.9507 C   0  0  0  0  0  0  0  0  0  0  0  0
   -5.5828    1.1141    0.9172 C   0  0  0  0  0  0  0  0  0  0  0  0
   -4.9131    0.2714   -0.1171 C   0  0  0  0  0  0  0  0  0  0  0  0
   -3.5192   -0.0438    0.4165 C   0  0  1  0  0  0  0  0  0  0  0  0
   -5.6644   -1.0185   -0.2960 C   0  0  0  0  0  0  0  0  0  0  0  0
   -5.0594   -2.1536    0.4708 C   0  0  0  0  0  0  0  0  0  0  0  0
   -3.6489   -2.4215   -0.0133 C   0  0  0  0  0  0  0  0  0  0  0  0
   -2.9448   -1.1166   -0.4150 C   0  0  2  0  0  0  0  0  0  0  0  0
   -1.5921   -1.2966   -0.3067 O   0  0  0  0  0  0  0  0  0  0  0  0
   -1.0942   -2.0840   -1.3399 C   0  0  0  0  0  0  0  0  0  0  0  0
   -0.0086   -1.3502   -2.1172 C   0  0  0  0  0  0  0  0  0  0  0  0
    0.9737   -2.2727   -2.7385 C   0  0  0  0  0  0  0  0  0  0  0  0
    1.7552   -3.1303   -1.7358 C   0  0  0  0  0  0  0  0  0  0  0  0
    1.0115   -3.1214   -0.4493 C   0  0  0  0  0  0  0  0  0  0  0  0
   -0.4756   -3.3315   -0.8140 C   0  0  0  0  0  0  0  0  0  0  0  0
    3.1907   -2.9113   -1.7947 C   0  0  0  0  0  0  0  0  0  0  0  0
    4.6844    2.0516    1.4590 O   0  0  0  0  0  0  0  0  0  0  0  0
    5.1014    3.3268    1.8112 C   0  0  0  0  0  0  0  0  0  0  0  0
    2.3187    4.6530   -1.0275 O   0  0  0  0  0  0  0  0  0  0  0  0
   -5.8828   -3.2776    0.2371 O   0  0  0  0  0  0  0  0  0  0  0  0
   -6.4666   -3.6946    1.4255 C   0  0  0  0  0  0  0  0  0  0  0  0
   -3.7116   -3.3212   -1.0411 O   0  0  0  0  0  0  0  0  0  0  0  0
    4.0210   -4.2375    0.6526 C   0  0  0  0  0  0  0  0  0  0  0  0
   -3.7566    3.3735    0.7813 C   0  0  0  0  0  0  0  0  0  0  0  0
   -2.5739    2.4829    2.5719 C   0  0  0  0  0  0  0  0  0  0  0  0
    3.7465   -2.7908    0.5650 N   0  0  0  0  0  0  0  0  0  0  0  0
    4.5379   -2.1942    1.5850 C   0  0  0  0  0  0  0  0  0  0  0  0
    4.9367   -0.7800    1.3920 C   0  0  0  0  0  0  0  0  0  0  0  0
    5.5119   -0.5784    0.0054 C   0  0  0  0  0  0  0  0  0  0  0  0
    4.3919   -0.9140   -0.9514 C   0  0  0  0  0  0  0  0  0  0  0  0
    4.0492   -2.3749   -0.7595 C   0  0  2  0  0  0  0  0  0  0  0  0
    5.9877    0.8142   -0.2235 C   0  0  0  0  0  0  0  0  0  0  0  0
    4.8862    1.7395    0.2447 C   0  0  0  0  0  0  0  0  0  0  0  0
    3.5670    1.4131   -0.3558 C   0  0  1  0  0  0  0  0  0  0  0  0
    3.2799    0.0330   -0.7165 C   0  0  0  0  0  0  0  0  0  0  0  0
    2.5608    1.8670    0.5330 O   0  0  0  0  0  0  0  0  0  0  0  0
    1.4960    2.4335   -0.1029 C   0  0  0  0  0  0  0  0  0  0  0  0
    1.4628    3.9501    0.1331 C   0  0  0  0  0  0  0  0  0  0  0  0
    0.0320    4.3798   -0.1140 C   0  0  0  0  0  0  0  0  0  0  0  0
   -0.5976    3.5579   -1.2286 C   0  0  0  0  0  0  0  0  0  0  0  0
   -0.7784    2.0961   -0.7950 C   0  0  0  0  0  0  0  0  0  0  0  0
    0.1341    1.8956    0.3766 C   0  0  0  0  0  0  0  0  0  0  0  0
   -2.1700    1.6769   -0.6954 C   0  0  0  0  0  0  0  0  0  0  0  0
   -2.7132    1.1446    0.5733 C   0  0  1  0  0  0  0  0  0  0  0  0
   -3.4325    2.0696    1.3893 N   0  0  0  0  0  0  0  0  0  0  0  0
   -4.7087    1.5669    1.8948 C   0  0  0  0  0  0  0  0  0  0  0  0
   -5.6542    1.1475    0.8196 C   0  0  0  0  0  0  0  0  0  0  0  0
   -4.9314    0.3244   -0.2454 C   0  0  0  0  0  0  0  0  0  0  0  0
   -3.6078   -0.0695    0.3746 C   0  0  0  0  0  0  0  0  0  0  0  0
   -5.7264   -0.9099   -0.5362 C   0  0  0  0  0  0  0  0  0  0  0  0
   -5.2437   -2.1096    0.2452 C   0  0  0  0  0  0  0  0  0  0  0  0
   -3.8134   -2.4434   -0.0318 C   0  0  0  0  0  0  0  0  0  0  0  0
   -3.0154   -1.1822   -0.4004 C   0  0  2  0  0  0  0  0  0  0  0  0
   -1.6609   -1.3801   -0.1487 O   0  0  0  0  0  0  0  0  0  0  0  0
   -1.0753   -2.1550   -1.1475 C   0  0  0  0  0  0  0  0  0  0  0  0
    0.0118   -1.3533   -1.8758 C   0  0  0  0  0  0  0  0  0  0  0  0
    0.8955   -2.3118   -2.5914 C   0  0  0  0  0  0  0  0  0  0  0  0
    1.7552   -3.1708   -1.6520 C   0  0  0  0  0  0  0  0  0  0  0  0
    1.0846   -3.1654   -0.3375 C   0  0  0  0  0  0  0  0  0  0  0  0
   -0.4165   -3.3841   -0.6210 C   0  0  0  0  0  0  0  0  0  0  0  0
    3.1704   -2.9295   -1.8212 C   0  0  0  0  0  0  0  0  0  0  0  0
    5.2755    3.0324   -0.1241 O   0  0  0  0  0  0  0  0  0  0  0  0
    5.5000    3.8606    0.9501 C   0  0  0  0  0  0  0  0  0  0  0  0
    2.3534    4.5532   -0.7373 O   0  0  0  0  0  0  0  0  0  0  0  0
   -6.0862   -3.1739   -0.0577 O   0  0  0  0  0  0  0  0  0  0  0  0
   -6.8367   -3.5793    1.0320 C   0  0  0  0  0  0  0  0  0  0  0  0
   -3.7375   -3.4094   -0.9965 O   0  0  0  0  0  0  0  0  0  0  0  0
    4.1374   -4.2242    0.6321 C   0  0  0  0  0  0  0  0  0  0  0  0
   -3.7569    3.3285    0.7557 C   0  0  0  0  0  0  0  0  0  0  0  0
   -2.6681    2.4220    2.5977 C   0  0  0  0  0  0  0  0  0  0  0  0
    4.0082   -1.5664    2.8693 H   0  0  0  0  0  0  0  0  0  0  0  0
    5.3628   -2.3498    2.0593 H   0  0  0  0  0  0  0  0  0  0  0  0
    5.8984   -0.1526    2.0140 H   0  0  0  0  0  0  0  0  0  0  0  0
    4.2921    0.4056    1.5450 H   0  0  0  0  0  0  0  0  0  0  0  0
    6.1538   -1.3878   -0.1326 H   0  0  0  0  0  0  0  0  0  0  0  0
    4.5019   -0.9879   -1.8903 H   0  0  0  0  0  0  0  0  0  0  0  0
    4.8323   -2.7795   -0.3658 H   0  0  0  0  0  0  0  0  0  0  0  0
    5.9271    0.5747   -1.7975 H   0  0  0  0  0  0  0  0  0  0  0  0
    6.9643    1.0225   -0.3514 H   0  0  0  0  0  0  0  0  0  0  0  0
    5.1009    2.0825    0.7210 H   0  0  0  0  0  0  0  0  0  0  0  0
    3.4830    1.9853   -1.8027 H   0  0  0  0  0  0  0  0  0  0  0  0
    2.7394   -0.0182    0.3347 H   0  0  0  0  0  0  0  0  0  0  0  0
    2.4003    0.0070   -1.4708 H   0  0  0  0  0  0  0  0  0  0  0  0
    2.0192    3.4085   -1.6037 H   0  0  0  0  0  0  0  0  0  0  0  0
    1.0014    3.6841    1.2634 H   0  0  0  0  0  0  0  0  0  0  0  0
    0.4858    5.6691   -0.9740 H   0  0  0  0  0  0  0  0  0  0  0  0
   -0.4923    5.3030    0.5224 H   0  0  0  0  0  0  0  0  0  0  0  0
   -0.3602    3.8589   -2.1611 H   0  0  0  0  0  0  0  0  0  0  0  0
   -1.8230    4.3067   -1.1358 H   0  0  0  0  0  0  0  0  0  0  0  0
   -0.6580    2.7230    0.6109 H   0  0  0  0  0  0  0  0  0  0  0  0
    0.5958    1.5508   -1.8899 H   0  0  0  0  0  0  0  0  0  0  0  0
    0.7771    1.1407   -0.1206 H   0  0  0  0  0  0  0  0  0  0  0  0
   -1.7905    1.1655   -1.7281 H   0  0  0  0  0  0  0  0  0  0  0  0
   -2.7545    2.4496   -1.0406 H   0  0  0  0  0  0  0  0  0  0  0  0
   -1.5779    0.3888    0.8195 H   0  0  0  0  0  0  0  0  0  0  0  0
   -4.0339    0.2709    2.7066 H   0  0  0  0  0  0  0  0  0  0  0  0
   -4.5704    1.9296    2.7360 H   0  0  0  0  0  0  0  0  0  0  0  0
   -6.1111    0.2522    1.5089 H   0  0  0  0  0  0  0  0  0  0  0  0
   -5.8885    1.9146    0.9061 H   0  0  0  0  0  0  0  0  0  0  0  0
   -4.7212    1.1179   -1.0124 H   0  0  0  0  0  0  0  0  0  0  0  0
   -3.6109   -0.6732    1.0997 H   0  0  0  0  0  0  0  0  0  0  0  0
   -5.7458   -0.7794   -1.8593 H   0  0  0  0  0  0  0  0  0  0  0  0
   -6.7860   -0.4129   -0.4895 H   0  0  0  0  0  0  0  0  0  0  0  0
   -5.8305   -2.0863    0.9021 H   0  0  0  0  0  0  0  0  0  0  0  0
   -3.6926   -2.7895    0.7296 H   0  0  0  0  0  0  0  0  0  0  0  0
   -3.7725   -1.1397   -1.8163 H   0  0  0  0  0  0  0  0  0  0  0  0
   -1.3052   -1.9845    0.7725 H   0  0  0  0  0  0  0  0  0  0  0  0
    0.7532   -1.2068   -0.0665 H   0  0  0  0  0  0  0  0  0  0  0  0
   -0.2722   -0.5837   -1.3850 H   0  0  0  0  0  0  0  0  0  0  0  0
    1.2679   -1.8124   -2.6574 H   0  0  0  0  0  0  0  0  0  0  0  0
   -0.1489   -2.8349   -2.4920 H   0  0  0  0  0  0  0  0  0  0  0  0
    1.3814   -4.3272   -1.8509 H   0  0  0  0  0  0  0  0  0  0  0  0
    1.0207   -4.8013    0.3220 H   0  0  0  0  0  0  0  0  0  0  0  0
    0.9494   -3.0296    0.8844 H   0  0  0  0  0  0  0  0  0  0  0  0
   -1.1270   -4.2383    0.6060 H   0  0  0  0  0  0  0  0  0  0  0  0
   -0.8244   -4.1728   -1.2061 H   0  0  0  0  0  0  0  0  0  0  0  0
    3.1215   -2.6388   -2.3055 H   0  0  0  0  0  0  0  0  0  0  0  0
    3.5165   -4.1027   -1.4543 H   0  0  0  0  0  0  0  0  0  0  0  0
    6.2555    4.8094   -0.8160 H   0  0  0  0  0  0  0  0  0  0  0  0
    6.6956    3.5839    0.4831 H   0  0  0  0  0  0  0  0  0  0  0  0
    5.0127    4.3220    0.3680 H   0  0  0  0  0  0  0  0  0  0  0  0
    2.1451    5.5465    1.2092 H   0  0  0  0  0  0  0  0  0  0  0  0
   -6.6493   -4.1371    0.6855 H   0  0  0  0  0  0  0  0  0  0  0  0
   -7.8189   -4.2724   -0.7228 H   0  0  0  0  0  0  0  0  0  0  0  0
   -7.8860   -2.8052    0.3518 H   0  0  0  0  0  0  0  0  0  0  0  0
   -4.5883   -4.2851   -1.0218 H   0  0  0  0  0  0  0  0  0  0  0  0
    2.8838   -3.9688    2.1699 H   0  0  0  0  0  0  0  0  0  0  0  0
    4.6492   -3.9686    1.8864 H   0  0  0  0  0  0  0  0  0  0  0  0
    3.6126   -4.4398    0.5399 H   0  0  0  0  0  0  0  0  0  0  0  0
   -2.6728    3.7754    1.0283 H   0  0  0  0  0  0  0  0  0  0  0  0
   -4.1068    3.3452    1.9222 H   0  0  0  0  0  0  0  0  0  0  0  0
   -4.1768    3.0723    0.2018 H   0  0  0  0  0  0  0  0  0  0  0  0
   -2.5230    1.5160    3.4916 H   0  0  0  0  0  0  0  0  0  0  0  0
   -1.2018    1.2001    2.3731 H   0  0  0  0  0  0  0  0  0  0  0  0
   -1.8330    2.9172    2.6832 H   0  0  0  0  0  0  0  0  0  0  0  0
    6.5433   -3.4983    1.0809 H   0  0  0  0  0  0  0  0  0  0  0  0
    6.7328   -2.8168   -0.6320 H   0  0  0  0  0  0  0  0  0  0  0  0
    7.1078   -1.1828    1.2086 H   0  0  0  0  0  0  0  0  0  0  0  0
    5.3724   -1.4136    1.7314 H   0  0  0  0  0  0  0  0  0  0  0  0
    6.0941   -0.9108   -1.1607 H   0  0  0  0  0  0  0  0  0  0  0  0
    3.6262   -0.9176    0.5345 H   0  0  0  0  0  0  0  0  0  0  0  0
    5.0335   -2.3947   -1.6995 H   0  0  0  0  0  0  0  0  0  0  0  0
    6.0082    1.3393   -1.0892 H   0  0  0  0  0  0  0  0  0  0  0  0
    6.4581    1.1400    0.6101 H   0  0  0  0  0  0  0  0  0  0  0  0
    4.5896    2.6935    0.0731 H   0  0  0  0  0  0  0  0  0  0  0  0
    2.4734    0.7221    0.2494 H   0  0  0  0  0  0  0  0  0  0  0  0
    2.8115   -0.1756   -2.0472 H   0  0  0  0  0  0  0  0  0  0  0  0
    4.4599    0.4233   -2.0203 H   0  0  0  0  0  0  0  0  0  0  0  0
    1.2806    3.4791   -1.7493 H   0  0  0  0  0  0  0  0  0  0  0  0
    1.8225    2.7944    1.1743 H   0  0  0  0  0  0  0  0  0  0  0  0
    0.1824    4.9883    1.1249 H   0  0  0  0  0  0  0  0  0  0  0  0
   -0.3274    3.3448    1.5359 H   0  0  0  0  0  0  0  0  0  0  0  0
   -0.1619    4.7440   -1.1861 H   0  0  0  0  0  0  0  0  0  0  0  0
   -1.6106    4.6657   -0.2368 H   0  0  0  0  0  0  0  0  0  0  0  0
   -0.9333    2.9717   -2.2869 H   0  0  0  0  0  0  0  0  0  0  0  0
    0.2250    1.1177   -1.8129 H   0  0  0  0  0  0  0  0  0  0  0  0
    0.0747    1.3056   -0.0314 H   0  0  0  0  0  0  0  0  0  0  0  0
   -2.2980    1.2220   -1.7904 H   0  0  0  0  0  0  0  0  0  0  0  0
   -3.0658    2.7829   -1.5714 H   0  0  0  0  0  0  0  0  0  0  0  0
   -1.9994    1.4593    0.9134 H   0  0  0  0  0  0  0  0  0  0  0  0
   -4.6597    1.2221    2.4504 H   0  0  0  0  0  0  0  0  0  0  0  0
   -5.5730    2.5956    1.8979 H   0  0  0  0  0  0  0  0  0  0  0  0
   -6.3633    0.2704    1.1157 H   0  0  0  0  0  0  0  0  0  0  0  0
   -6.5129    1.6793    0.0517 H   0  0  0  0  0  0  0  0  0  0  0  0
   -4.8563    0.7365   -1.4502 H   0  0  0  0  0  0  0  0  0  0  0  0
   -3.6833   -0.0351    1.2749 H   0  0  0  0  0  0  0  0  0  0  0  0
   -5.0939   -1.5725   -1.5878 H   0  0  0  0  0  0  0  0  0  0  0  0
   -6.5657   -1.0903   -0.7182 H   0  0  0  0  0  0  0  0  0  0  0  0
   -5.1902   -1.3857    1.4592 H   0  0  0  0  0  0  0  0  0  0  0  0
   -3.0474   -2.1976    1.3240 H   0  0  0  0  0  0  0  0  0  0  0  0
   -3.1453   -1.0367   -1.4659 H   0  0  0  0  0  0  0  0  0  0  0  0
   -1.7612   -2.4706   -1.6547 H   0  0  0  0  0  0  0  0  0  0  0  0
    0.8774   -1.1141   -1.3149 H   0  0  0  0  0  0  0  0  0  0  0  0
   -0.2710   -1.1531   -2.7332 H   0  0  0  0  0  0  0  0  0  0  0  0
    1.2517   -2.8470   -3.3210 H   0  0  0  0  0  0  0  0  0  0  0  0
   -0.0699   -3.7714   -2.4861 H   0  0  0  0  0  0  0  0  0  0  0  0
    1.7203   -4.5724   -1.3915 H   0  0  0  0  0  0  0  0  0  0  0  0
    1.3935   -3.9286    0.7217 H   0  0  0  0  0  0  0  0  0  0  0  0
    1.3742   -2.1209    0.3861 H   0  0  0  0  0  0  0  0  0  0  0  0
   -0.5701   -4.2149   -0.5668 H   0  0  0  0  0  0  0  0  0  0  0  0
   -0.7114   -3.1986    0.9562 H   0  0  0  0  0  0  0  0  0  0  0  0
    2.9227   -2.2035   -2.5756 H   0  0  0  0  0  0  0  0  0  0  0  0
    3.5537   -3.8180   -2.3686 H   0  0  0  0  0  0  0  0  0  0  0  0
    4.5703    2.5769    3.3890 H   0  0  0  0  0  0  0  0  0  0  0  0
    5.6174    3.0441    1.9734 H   0  0  0  0  0  0  0  0  0  0  0  0
    3.9146    3.4870    2.0280 H   0  0  0  0  0  0  0  0  0  0  0  0
    2.1014    5.1868    0.8790 H   0  0  0  0  0  0  0  0  0  0  0  0
   -5.6569   -3.3213    2.4743 H   0  0  0  0  0  0  0  0  0  0  0  0
   -6.9108   -4.2991    1.5987 H   0  0  0  0  0  0  0  0  0  0  0  0
   -7.1146   -2.5012    1.7380 H   0  0  0  0  0  0  0  0  0  0  0  0
   -4.1508   -3.5437   -0.9711 H   0  0  0  0  0  0  0  0  0  0  0  0
    3.4896   -2.7069    1.6550 H   0  0  0  0  0  0  0  0  0  0  0  0
    4.9459   -3.6013    2.0860 H   0  0  0  0  0  0  0  0  0  0  0  0
    3.6468   -4.4716    1.2891 H   0  0  0  0  0  0  0  0  0  0  0  0
   -3.8687    4.2254   -0.3204 H   0  0  0  0  0  0  0  0  0  0  0  0
   -5.2028    3.9094    0.7661 H   0  0  0  0  0  0  0  0  0  0  0  0
   -5.1359    2.9600   -0.7040 H   0  0  0  0  0  0  0  0  0  0  0  0
   -3.8643    3.3107    2.8580 H   0  0  0  0  0  0  0  0  0  0  0  0
   -2.3553    2.5028    2.4457 H   0  0  0  0  0  0  0  0  0  0  0  0
   -2.8103    4.1388    1.7145 H   0  0  0  0  0  0  0  0  0  0  0  0
    4.7771   -1.5890    2.5695 H   0  0  0  0  0  0  0  0  0  0  0  0
    5.5832   -2.8821    1.6697 H   0  0  0  0  0  0  0  0  0  0  0  0
    6.9012   -1.2948    0.7903 H   0  0  0  0  0  0  0  0  0  0  0  0
    5.9362   -0.0045    1.4655 H   0  0  0  0  0  0  0  0  0  0  0  0
    6.1422   -0.9211   -1.2802 H   0  0  0  0  0  0  0  0  0  0  0  0
    4.0482   -0.9717   -2.0524 H   0  0  0  0  0  0  0  0  0  0  0  0
    4.9323   -2.7393   -0.6230 H   0  0  0  0  0  0  0  0  0  0  0  0
    5.3707    1.2135   -1.8338 H   0  0  0  0  0  0  0  0  0  0  0  0
    6.6312    1.2957   -0.5761 H   0  0  0  0  0  0  0  0  0  0  0  0
    4.3849    2.7426   -0.4980 H   0  0  0  0  0  0  0  0  0  0  0  0
    3.6294    0.6041    1.4736 H   0  0  0  0  0  0  0  0  0  0  0  0
    2.1930   -0.5613    0.0822 H   0  0  0  0  0  0  0  0  0  0  0  0
    2.4522    0.4394   -1.3614 H   0  0  0  0  0  0  0  0  0  0  0  0
    2.3591    2.4607   -1.1085 H   0  0  0  0  0  0  0  0  0  0  0  0
    1.9384    4.2556    1.1062 H   0  0  0  0  0  0  0  0  0  0  0  0
    0.3976    5.7178   -0.6598 H   0  0  0  0  0  0  0  0  0  0  0  0
   -0.1854    4.9571    0.8295 H   0  0  0  0  0  0  0  0  0  0  0  0
   -0.2665    3.6567   -1.9458 H   0  0  0  0  0  0  0  0  0  0  0  0
   -1.6184    4.5120   -1.0435 H   0  0  0  0  0  0  0  0  0  0  0  0
   -0.8811    2.8326    0.9109 H   0  0  0  0  0  0  0  0  0  0  0  0
    0.3468    1.5805   -1.5469 H   0  0  0  0  0  0  0  0  0  0  0  0
    0.3414    0.9368    0.1130 H   0  0  0  0  0  0  0  0  0  0  0  0
   -1.6667    1.0610   -1.3506 H   0  0  0  0  0  0  0  0  0  0  0  0
   -2.7011    2.4844   -1.1955 H   0  0  0  0  0  0  0  0  0  0  0  0
   -1.8436    0.7167    1.1676 H   0  0  0  0  0  0  0  0  0  0  0  0
   -4.6428    0.6550    2.6075 H   0  0  0  0  0  0  0  0  0  0  0  0
   -5.2530    2.2776    2.3246 H   0  0  0  0  0  0  0  0  0  0  0  0
   -6.4455    0.4148    1.0888 H   0  0  0  0  0  0  0  0  0  0  0  0
   -6.1474    1.9455    0.2512 H   0  0  0  0  0  0  0  0  0  0  0  0
   -4.7876    0.8462   -1.3474 H   0  0  0  0  0  0  0  0  0  0  0  0
   -3.8044   -0.5211    1.2069 H   0  0  0  0  0  0  0  0  0  0  0  0
   -5.4179   -1.3222   -1.7506 H   0  0  0  0  0  0  0  0  0  0  0  0
   -6.6818   -0.8708   -0.5841 H   0  0  0  0  0  0  0  0  0  0  0  0
   -5.2583   -1.9331    1.2588 H   0  0  0  0  0  0  0  0  0  0  0  0
   -3.2199   -2.8127    0.7796 H   0  0  0  0  0  0  0  0  0  0  0  0
   -3.2218   -1.0184   -1.6711 H   0  0  0  0  0  0  0  0  0  0  0  0
   -1.9212   -2.4818   -2.2162 H   0  0  0  0  0  0  0  0  0  0  0  0
    0.4367   -0.7840   -1.5234 H   0  0  0  0  0  0  0  0  0  0  0  0
   -0.4153   -1.0664   -3.0464 H   0  0  0  0  0  0  0  0  0  0  0  0
    1.8424   -1.8644   -3.0923 H   0  0  0  0  0  0  0  0  0  0  0  0
    0.6316   -3.0877   -3.4318 H   0  0  0  0  0  0  0  0  0  0  0  0
    1.4659   -4.3955   -1.8790 H   0  0  0  0  0  0  0  0  0  0  0  0
    0.9213   -4.3117    0.2967 H   0  0  0  0  0  0  0  0  0  0  0  0
    0.7765   -2.4641    0.3463 H   0  0  0  0  0  0  0  0  0  0  0  0
   -0.5702   -4.3080   -1.6444 H   0  0  0  0  0  0  0  0  0  0  0  0
   -1.2750   -3.9476   -0.0427 H   0  0  0  0  0  0  0  0  0  0  0  0
    3.5289   -3.1614   -2.3405 H   0  0  0  0  0  0  0  0  0  0  0  0
    3.4679   -4.3089   -1.0273 H   0  0  0  0  0  0  0  0  0  0  0  0
    4.5141    4.1926    1.1737 H   0  0  0  0  0  0  0  0  0  0  0  0
    6.1529    4.0180    1.9916 H   0  0  0  0  0  0  0  0  0  0  0  0
    5.9993    3.9995    0.2269 H   0  0  0  0  0  0  0  0  0  0  0  0
    2.9046    5.5626   -0.2205 H   0  0  0  0  0  0  0  0  0  0  0  0
   -5.9074   -4.0048    1.7729 H   0  0  0  0  0  0  0  0  0  0  0  0
   -7.3334   -4.4604    0.6835 H   0  0  0  0  0  0  0  0  0  0  0  0
   -7.2261   -2.8353    1.3803 H   0  0  0  0  0  0  0  0  0  0  0  0
   -4.5392   -3.9327   -1.2228 H   0  0  0  0  0  0  0  0  0  0  0  0
    2.3762   -3.2895    2.1316 H   0  0  0  0  0  0  0  0  0  0  0  0
    4.0408   -3.8043    2.4508 H   0  0  0  0  0  0  0  0  0  0  0  0
    3.2161   -4.3852    0.9951 H   0  0  0  0  0  0  0  0  0  0  0  0
   -2.9716    3.9961    0.8548 H   0  0  0  0  0  0  0  0  0  0  0  0
   -4.5731    3.6992    1.5006 H   0  0  0  0  0  0  0  0  0  0  0  0
   -4.2941    3.1953   -0.1605 H   0  0  0  0  0  0  0  0  0  0  0  0
   -2.4280    3.3274    2.6716 H   0  0  0  0  0  0  0  0  0  0  0  0
   -3.3532    2.0953    3.5399 H   0  0  0  0  0  0  0  0  0  0  0  0
   -1.8750    1.5712    2.6922 H   0  0  0  0  0  0  0  0  0  0  0  0
    3.8247   -2.3051    2.6021 H   0  0  0  0  0  0  0  0  0  0  0  0
    5.3581   -2.8991    1.9663 H   0  0  0  0  0  0  0  0  0  0  0  0
    5.8265   -0.7214    2.2421 H   0  0  0  0  0  0  0  0  0  0  0  0
    4.1755   -0.1837    1.8958 H   0  0  0  0  0  0  0  0  0  0  0  0
    6.2946   -1.2905   -0.0412 H   0  0  0  0  0  0  0  0  0  0  0  0
    4.8830   -0.8143   -1.8435 H   0  0  0  0  0  0  0  0  0  0  0  0
    5.0586   -2.8124   -0.8433 H   0  0  0  0  0  0  0  0  0  0  0  0
    6.2707    0.8517   -1.1210 H   0  0  0  0  0  0  0  0  0  0  0  0
    6.7410    1.0364    0.5922 H   0  0  0  0  0  0  0  0  0  0  0  0
    5.2489    2.7697   -0.3343 H   0  0  0  0  0  0  0  0  0  0  0  0
    3.4163    2.1062   -1.4474 H   0  0  0  0  0  0  0  0  0  0  0  0
    2.4897   -0.3243   -0.1178 H   0  0  0  0  0  0  0  0  0  0  0  0
    2.7407    0.0064   -1.8374 H   0  0  0  0  0  0  0  0  0  0  0  0
    1.5314    2.3192   -1.4503 H   0  0  0  0  0  0  0  0  0  0  0  0
    1.6861    4.1971    0.8806 H   0  0  0  0  0  0  0  0  0  0  0  0
    0.0367    5.4821   -0.8675 H   0  0  0  0  0  0  0  0  0  0  0  0
   -0.5935    4.5405    0.4988 H   0  0  0  0  0  0  0  0  0  0  0  0
   -0.0283    3.6512   -2.3757 H   0  0  0  0  0  0  0  0  0  0  0  0
   -1.6396    4.0597   -1.7468 H   0  0  0  0  0  0  0  0  0  0  0  0
   -0.4187    1.5154   -1.7981 H   0  0  0  0  0  0  0  0  0  0  0  0
    0.1827    0.9256    0.4614 H   0  0  0  0  0  0  0  0  0  0  0  0
   -0.1263    2.6304    1.0387 H   0  0  0  0  0  0  0  0  0  0  0  0
   -2.5530    0.9787   -1.5506 H   0  0  0  0  0  0  0  0  0  0  0  0
   -2.9162    2.6218   -1.0443 H   0  0  0  0  0  0  0  0  0  0  0  0
   -1.7593    0.8894    1.0857 H   0  0  0  0  0  0  0  0  0  0  0  0
   -4.4456    0.8877    2.7835 H   0  0  0  0  0  0  0  0  0  0  0  0
   -5.1044    2.4869    2.4473 H   0  0  0  0  0  0  0  0  0  0  0  0
   -6.3768    0.5426    1.4147 H   0  0  0  0  0  0  0  0  0  0  0  0
   -6.0642    2.0036    0.4183 H   0  0  0  0  0  0  0  0  0  0  0  0
   -4.8579    0.7542   -1.1155 H   0  0  0  0  0  0  0  0  0  0  0  0
   -3.6581   -0.4256    1.4485 H   0  0  0  0  0  0  0  0  0  0  0  0
   -5.6784   -1.3393   -1.3788 H   0  0  0  0  0  0  0  0  0  0  0  0
   -6.7183   -0.9074    0.0397 H   0  0  0  0  0  0  0  0  0  0  0  0
   -5.0999   -1.9051    1.5410 H   0  0  0  0  0  0  0  0  0  0  0  0
   -3.0929   -2.8130    0.8886 H   0  0  0  0  0  0  0  0  0  0  0  0
   -3.1960   -0.9637   -1.5023 H   0  0  0  0  0  0  0  0  0  0  0  0
   -1.9036   -2.2634   -2.0767 H   0  0  0  0  0  0  0  0  0  0  0  0
    0.5086   -0.6903   -1.3964 H   0  0  0  0  0  0  0  0  0  0  0  0
   -0.4537   -0.7482   -2.9354 H   0  0  0  0  0  0  0  0  0  0  0  0
    1.7431   -1.6426   -3.2570 H   0  0  0  0  0  0  0  0  0  0  0  0
    0.4780   -2.8386   -3.5237 H   0  0  0  0  0  0  0  0  0  0  0  0
    1.5377   -4.1885   -2.1153 H   0  0  0  0  0  0  0  0  0  0  0  0
    1.2176   -4.0855    0.1091 H   0  0  0  0  0  0  0  0  0  0  0  0
    1.1286   -2.2495    0.1881 H   0  0  0  0  0  0  0  0  0  0  0  0
   -0.4686   -4.0903   -1.6240 H   0  0  0  0  0  0  0  0  0  0  0  0
   -1.0098   -3.7737    0.0457 H   0  0  0  0  0  0  0  0  0  0  0  0
    3.3713   -2.2001   -2.6719 H   0  0  0  0  0  0  0  0  0  0  0  0
    3.7033   -3.8395   -2.2099 H   0  0  0  0  0  0  0  0  0  0  0  0
    4.4846    4.0918    1.2598 H   0  0  0  0  0  0  0  0  0  0  0  0
    6.1488    3.5170    1.4780 H   0  0  0  0  0  0  0  0  0  0  0  0
    5.0523    3.5247    2.8792 H   0  0  0  0  0  0  0  0  0  0  0  0
    2.7153    5.4216   -0.5076 H   0  0  0  0  0  0  0  0  0  0  0  0
   -5.6732   -3.9618    2.1331 H   0  0  0  0  0  0  0  0  0  0  0  0
   -7.1444   -4.5310    1.1758 H   0  0  0  0  0  0  0  0  0  0  0  0
   -7.0602   -2.8598    1.8453 H   0  0  0  0  0  0  0  0  0  0  0  0
   -4.5976   -3.6322   -1.2923 H   0  0  0  0  0  0  0  0  0  0  0  0
    3.3355   -4.6469    1.4441 H   0  0  0  0  0  0  0  0  0  0  0  0
    5.0525   -4.4024    0.9716 H   0  0  0  0  0  0  0  0  0  0  0  0
    3.7386   -4.7266   -0.2830 H   0  0  0  0  0  0  0  0  0  0  0  0
   -2.9280    3.9973    0.4536 H   0  0  0  0  0  0  0  0  0  0  0  0
   -4.2619    3.9594    1.6093 H   0  0  0  0  0  0  0  0  0  0  0  0
   -4.5296    3.2793    0.0025 H   0  0  0  0  0  0  0  0  0  0  0  0
   -3.2538    2.7732    3.4111 H   0  0  0  0  0  0  0  0  0  0  0  0
   -1.9544    1.6345    2.9066 H   0  0  0  0  0  0  0  0  0  0  0  0
   -1.9826    3.3990    2.3431 H   0  0  0  0  0  0  0  0  0  0  0  0
    3.9713   -2.2487    2.5617 H   0  0  0  0  0  0  0  0  0  0  0  0
    5.4866   -2.7663    1.8099 H   0  0  0  0  0  0  0  0  0  0  0  0
    5.7571   -0.5478    2.1051 H   0  0  0  0  0  0  0  0  0  0  0  0
    4.1069   -0.1134    1.6335 H   0  0  0  0  0  0  0  0  0  0  0  0
    6.3297   -1.3320   -0.1089 H   0  0  0  0  0  0  0  0  0  0  0  0
    4.8244   -0.8431   -1.9820 H   0  0  0  0  0  0  0  0  0  0  0  0
    5.0752   -2.8526   -0.9498 H   0  0  0  0  0  0  0  0  0  0  0  0
    6.0923    0.9756   -1.3238 H   0  0  0  0  0  0  0  0  0  0  0  0
    6.9089    1.0676    0.2989 H   0  0  0  0  0  0  0  0  0  0  0  0
    4.8675    1.7494    1.3613 H   0  0  0  0  0  0  0  0  0  0  0  0
    3.4365    2.0949   -1.2497 H   0  0  0  0  0  0  0  0  0  0  0  0
    2.5971   -0.4259    0.0285 H   0  0  0  0  0  0  0  0  0  0  0  0
    2.6813    0.0547   -1.6820 H   0  0  0  0  0  0  0  0  0  0  0  0
    1.6163    2.2951   -1.1892 H   0  0  0  0  0  0  0  0  0  0  0  0
    1.7274    4.1251    1.2096 H   0  0  0  0  0  0  0  0  0  0  0  0
    0.0861    5.4183   -0.5064 H   0  0  0  0  0  0  0  0  0  0  0  0
   -0.5724    4.4042    0.8028 H   0  0  0  0  0  0  0  0  0  0  0  0
    0.0648    3.6694   -2.0981 H   0  0  0  0  0  0  0  0  0  0  0  0
   -1.5530    4.0318   -1.4889 H   0  0  0  0  0  0  0  0  0  0  0  0
   -0.2863    1.5117   -1.6343 H   0  0  0  0  0  0  0  0  0  0  0  0
    0.2539    0.8184    0.6633 H   0  0  0  0  0  0  0  0  0  0  0  0
   -0.1016    2.4775    1.2659 H   0  0  0  0  0  0  0  0  0  0  0  0
   -2.4300    0.9156   -1.4932 H   0  0  0  0  0  0  0  0  0  0  0  0
   -2.8177    2.5546   -0.9976 H   0  0  0  0  0  0  0  0  0  0  0  0
   -1.8583    0.7576    1.1832 H   0  0  0  0  0  0  0  0  0  0  0  0
   -4.5947    0.8597    2.7306 H   0  0  0  0  0  0  0  0  0  0  0  0
   -5.1827    2.4759    2.3806 H   0  0  0  0  0  0  0  0  0  0  0  0
   -6.4402    0.5191    1.2887 H   0  0  0  0  0  0  0  0  0  0  0  0
   -6.0834    2.0376    0.3270 H   0  0  0  0  0  0  0  0  0  0  0  0
   -4.8168    0.8820   -1.1864 H   0  0  0  0  0  0  0  0  0  0  0  0
   -3.8288   -0.4537    1.3924 H   0  0  0  0  0  0  0  0  0  0  0  0
   -5.7776   -1.1547   -1.6309 H   0  0  0  0  0  0  0  0  0  0  0  0
   -6.7815   -0.7282   -0.2227 H   0  0  0  0  0  0  0  0  0  0  0  0
   -5.4156   -1.8657    1.3345 H   0  0  0  0  0  0  0  0  0  0  0  0
   -3.3636   -2.7715    0.9500 H   0  0  0  0  0  0  0  0  0  0  0  0
   -3.2009   -1.0322   -1.4864 H   0  0  0  0  0  0  0  0  0  0  0  0
   -1.8438   -2.3488   -1.9215 H   0  0  0  0  0  0  0  0  0  0  0  0
    0.5287   -0.7246   -1.1478 H   0  0  0  0  0  0  0  0  0  0  0  0
   -0.4646   -0.7147   -2.6689 H   0  0  0  0  0  0  0  0  0  0  0  0
    1.6192   -1.7087   -3.2095 H   0  0  0  0  0  0  0  0  0  0  0  0
    0.2865   -2.8875   -3.2868 H   0  0  0  0  0  0  0  0  0  0  0  0
    1.5283   -4.2285   -2.0301 H   0  0  0  0  0  0  0  0  0  0  0  0
    1.3185   -4.0674    0.3047 H   0  0  0  0  0  0  0  0  0  0  0  0
    1.1462   -2.2964    0.2910 H   0  0  0  0  0  0  0  0  0  0  0  0
   -0.4601   -4.1813   -1.3840 H   0  0  0  0  0  0  0  0  0  0  0  0
   -0.8807   -3.7460    0.3196 H   0  0  0  0  0  0  0  0  0  0  0  0
    3.2986   -2.2069   -2.6942 H   0  0  0  0  0  0  0  0  0  0  0  0
    3.6791   -3.8485   -2.2513 H   0  0  0  0  0  0  0  0  0  0  0  0
    4.5706    3.9497    1.5489 H   0  0  0  0  0  0  0  0  0  0  0  0
    6.3777    3.5859    1.5652 H   0  0  0  0  0  0  0  0  0  0  0  0
    5.7039    4.8733    0.5490 H   0  0  0  0  0  0  0  0  0  0  0  0
    2.9738    5.1394   -0.2407 H   0  0  0  0  0  0  0  0  0  0  0  0
   -6.1232   -3.8957    1.8348 H   0  0  0  0  0  0  0  0  0  0  0  0
   -7.4363   -4.4523    0.7126 H   0  0  0  0  0  0  0  0  0  0  0  0
   -7.5382   -2.8143    1.3997 H   0  0  0  0  0  0  0  0  0  0  0  0
   -4.6247   -3.6947   -1.3448 H   0  0  0  0  0  0  0  0  0  0  0  0
    3.5490   -4.6680    1.4607 H   0  0  0  0  0  0  0  0  0  0  0  0
    5.1969   -4.3195    0.8752 H   0  0  0  0  0  0  0  0  0  0  0  0
    3.8463   -4.7423   -0.2916 H   0  0  0  0  0  0  0  0  0  0  0  0
   -2.9020    3.9435    0.4883 H   0  0  0  0  0  0  0  0  0  0  0  0
   -4.3055    3.9152    1.5561 H   0  0  0  0  0  0  0  0  0  0  0  0
   -4.4862    3.2427   -0.0635 H   0  0  0  0  0  0  0  0  0  0  0  0
   -3.3742    2.7347    3.3902 H   0  0  0  0  0  0  0  0  0  0  0  0
   -2.0607    1.5509    2.9181 H   0  0  0  0  0  0  0  0  0  0  0  0
   -2.0353    3.3285    2.3916 H   0  0  0  0  0  0  0  0  0  0  0  0
  1  2  1  0
  2  3  1  0
  3  4  1  0
  4  5  1  0
  1  6  1  0
  5  6  1  0
  4  7  1  0
  7  8  1  0
  8  9  1  0
  5 10  1  0
  9 10  1  0
  9 11  1  0
 11 12  1  0
 12 13  1  0
 13 14  1  0
 14 15  1  0
 15 16  1  0
 12 17  1  0
 16 17  1  0
 16 18  1  0
 18 19  1  0
 19 20  1  0
 20 21  1  0
 21 22  1  0
 22 23  1  0
 19 24  1  0
 23 24  1  0
 23 25  1  0
 25 26  1  0
 26 27  1  0
 24 28  1  0
 27 28  1  0
 28 29  1  0
 29 30  1  0
 30 31  1  0
 31 32  1  0
 32 33  1  0
 33 34  1  0
 30 35  1  0
 34 35  1  0
  6 36  1  0
 33 36  1  0
  8 37  1  0
 37 38  1  0
 13 39  1  0
 26 40  1  0
 40 41  1  0
 27 42  1  0
  1 43  1  0
 20 44  1  0
 20 45  1  0
 46 47  1  0
 47 48  1  0
 48 49  1  0
 49 50  1  0
 46 51  1  0
 50 51  1  0
 49 52  1  0
 52 53  1  0
 53 54  1  0
 50 55  1  0
 54 55  1  0
 54 56  1  0
 56 57  1  0
 57 58  1  0
 58 59  1  0
 59 60  1  0
 60 61  1  0
 57 62  1  0
 61 62  1  0
 61 63  1  0
 63 64  1  0
 64 65  1  0
 65 66  1  0
 66 67  1  0
 67 68  1  0
 64 69  1  0
 68 69  1  0
 68 70  1  0
 70 71  1  0
 71 72  1  0
 69 73  1  0
 72 73  1  0
 73 74  1  0
 74 75  1  0
 75 76  1  0
 76 77  1  0
 77 78  1  0
 78 79  1  0
 75 80  1  0
 79 80  1  0
 51 81  1  0
 78 81  1  0
 53 82  1  0
 82 83  1  0
 58 84  1  0
 71 85  1  0
 85 86  1  0
 72 87  1  0
 46 88  1  0
 65 89  1  0
 65 90  1  0
 91 92  1  0
 92 93  1  0
 93 94  1  0
 94 95  1  0
 91 96  1  0
 95 96  1  0
 94 97  1  0
 97 98  1  0
 98 99  1  0
 95100  1  0
 99100  1  0
 99101  1  0
101102  1  0
102103  1  0
103104  1  0
104105  1  0
105106  1  0
102107  1  0
106107  1  0
106108  1  0
108109  1  0
109110  1  0
110111  1  0
111112  1  0
112113  1  0
109114  1  0
113114  1  0
113115  1  0
115116  1  0
116117  1  0
114118  1  0
117118  1  0
118119  1  0
119120  1  0
120121  1  0
121122  1  0
122123  1  0
123124  1  0
120125  1  0
124125  1  0
 96126  1  0
123126  1  0
 98127  1  0
127128  1  0
103129  1  0
116130  1  0
130131  1  0
117132  1  0
 91133  1  0
110134  1  0
110135  1  0
136137  1  0
137138  1  0
138139  1  0
139140  1  0
136141  1  0
140141  1  0
139142  1  0
142143  1  0
143144  1  0
140145  1  0
144145  1  0
144146  1  0
146147  1  0
147148  1  0
148149  1  0
149150  1  0
150151  1  0
147152  1  0
151152  1  0
151153  1  0
153154  1  0
154155  1  0
155156  1  0
156157  1  0
157158  1  0
154159  1  0
158159  1  0
158160  1  0
160161  1  0
161162  1  0
159163  1  0
162163  1  0
163164  1  0
164165  1  0
165166  1  0
166167  1  0
167168  1  0
168169  1  0
165170  1  0
169170  1  0
141171  1  0
168171  1  0
143172  1  0
172173  1  0
148174  1  0
161175  1  0
175176  1  0
162177  1  0
136178  1  0
155179  1  0
155180  1  0
181182  1  0
182183  1  0
183184  1  0
184185  1  0
181186  1  0
185186  1  0
184187  1  0
187188  1  0
188189  1  0
185190  1  0
189190  1  0
189191  1  0
191192  1  0
192193  1  0
193194  1  0
194195  1  0
195196  1  0
192197  1  0
196197  1  0
196198  1  0
198199  1  0
199200  1  0
200201  1  0
201202  1  0
202203  1  0
199204  1  0
203204  1  0
203205  1  0
205206  1  0
206207  1  0
204208  1  0
207208  1  0
208209  1  0
209210  1  0
210211  1  0
211212  1  0
212213  1  0
213214  1  0
210215  1  0
214215  1  0
186216  1  0
213216  1  0
188217  1  0
217218  1  0
193219  1  0
206220  1  0
220221  1  0
207222  1  0
181223  1  0
200224  1  0
200225  1  0
  2226  1  0
  2227  1  0
  3228  1  0
  3229  1  0
  4230  1  0
  5231  1  0
  6232  1  1
  7233  1  0
  7234  1  0
  8235  1  0
  9236  1  6
 10237  1  0
 10238  1  0
 12239  1  6
 13240  1  0
 14241  1  0
 14242  1  0
 15243  1  0
 15244  1  0
 16245  1  1
 17246  1  0
 17247  1  0
 18248  1  0
 18249  1  0
 19250  1  1
 21251  1  0
 21252  1  0
 22253  1  0
 22254  1  0
 23255  1  0
 24256  1  1
 25257  1  0
 25258  1  0
 26259  1  0
 27260  1  1
 28261  1  6
 30262  1  0
 31263  1  0
 31264  1  0
 32265  1  0
 32266  1  0
 33267  1  0
 34268  1  0
 34269  1  0
 35270  1  0
 35271  1  0
 36272  1  0
 36273  1  0
 38274  1  0
 38275  1  0
 38276  1  0
 39277  1  0
 41278  1  0
 41279  1  0
 41280  1  0
 42281  1  0
 43282  1  0
 43283  1  0
 43284  1  0
 44285  1  0
 44286  1  0
 44287  1  0
 45288  1  0
 45289  1  0
 45290  1  0
 47291  1  0
 47292  1  0
 48293  1  0
 48294  1  0
 49295  1  0
 50296  1  1
 51297  1  6
 52298  1  0
 52299  1  0
 53300  1  0
 54301  1  0
 55302  1  0
 55303  1  0
 57304  1  0
 58305  1  0
 59306  1  0
 59307  1  0
 60308  1  0
 60309  1  0
 61310  1  0
 62311  1  0
 62312  1  0
 63313  1  0
 63314  1  0
 64315  1  1
 66316  1  0
 66317  1  0
 67318  1  0
 67319  1  0
 68320  1  0
 69321  1  1
 70322  1  0
 70323  1  0
 71324  1  0
 72325  1  0
 73326  1  6
 75327  1  0
 76328  1  0
 76329  1  0
 77330  1  0
 77331  1  0
 78332  1  0
 79333  1  0
 79334  1  0
 80335  1  0
 80336  1  0
 81337  1  0
 81338  1  0
 83339  1  0
 83340  1  0
 83341  1  0
 84342  1  0
 86343  1  0
 86344  1  0
 86345  1  0
 87346  1  0
 88347  1  0
 88348  1  0
 88349  1  0
 89350  1  0
 89351  1  0
 89352  1  0
 90353  1  0
 90354  1  0
 90355  1  0
 92356  1  0
 92357  1  0
 93358  1  0
 93359  1  0
 94360  1  0
 95361  1  0
 96362  1  1
 97363  1  0
 97364  1  0
 98365  1  0
 99366  1  0
100367  1  0
100368  1  0
102369  1  0
103370  1  0
104371  1  0
104372  1  0
105373  1  0
105374  1  0
106375  1  1
107376  1  0
107377  1  0
108378  1  0
108379  1  0
109380  1  1
111381  1  0
111382  1  0
112383  1  0
112384  1  0
113385  1  0
114386  1  1
115387  1  0
115388  1  0
116389  1  0
117390  1  0
118391  1  6
120392  1  0
121393  1  0
121394  1  0
122395  1  0
122396  1  0
123397  1  0
124398  1  0
124399  1  0
125400  1  0
125401  1  0
126402  1  0
126403  1  0
128404  1  0
128405  1  0
128406  1  0
129407  1  0
131408  1  0
131409  1  0
131410  1  0
132411  1  0
133412  1  0
133413  1  0
133414  1  0
134415  1  0
134416  1  0
134417  1  0
135418  1  0
135419  1  0
135420  1  0
137421  1  0
137422  1  0
138423  1  0
138424  1  0
139425  1  0
140426  1  0
141427  1  6
142428  1  0
142429  1  0
143430  1  6
144431  1  6
145432  1  0
145433  1  0
147434  1  6
148435  1  0
149436  1  0
149437  1  0
150438  1  0
150439  1  0
151440  1  0
152441  1  0
152442  1  0
153443  1  0
153444  1  0
154445  1  1
156446  1  0
156447  1  0
157448  1  0
157449  1  0
158450  1  0
159451  1  1
160452  1  0
160453  1  0
161454  1  0
162455  1  0
163456  1  6
165457  1  0
166458  1  0
166459  1  0
167460  1  0
167461  1  0
168462  1  0
169463  1  0
169464  1  0
170465  1  0
170466  1  0
171467  1  0
171468  1  0
173469  1  0
173470  1  0
173471  1  0
174472  1  0
176473  1  0
176474  1  0
176475  1  0
177476  1  0
178477  1  0
178478  1  0
178479  1  0
179480  1  0
179481  1  0
179482  1  0
180483  1  0
180484  1  0
180485  1  0
182486  1  0
182487  1  0
183488  1  0
183489  1  0
184490  1  0
185491  1  0
186492  1  6
187493  1  0
187494  1  0
188495  1  0
189496  1  6
190497  1  0
190498  1  0
192499  1  0
193500  1  0
194501  1  0
194502  1  0
195503  1  0
195504  1  0
196505  1  0
197506  1  0
197507  1  0
198508  1  0
198509  1  0
199510  1  1
201511  1  0
201512  1  0
202513  1  0
202514  1  0
203515  1  0
204516  1  0
205517  1  0
205518  1  0
206519  1  0
207520  1  0
208521  1  6
210522  1  0
211523  1  0
211524  1  0
212525  1  0
212526  1  0
213527  1  0
214528  1  0
214529  1  0
215530  1  0
215531  1  0
216532  1  0
216533  1  0
218534  1  0
218535  1  0
218536  1  0
219537  1  0
221538  1  0
221539  1  0
221540  1  0
222541  1  0
223542  1  0
223543  1  0
223544  1  0
224545  1  0
224546  1  0
224547  1  0
225548  1  0
225549  1  0
225550  1  0
M  CHG  5  20   1  65   1 110   1 155   1 200   1
M  END
>  <PDBID>  (1) 
2XYT

>  <PDB ID>  (1) 
2XYT

>  <Generic Name>  (1) 
Tubocurarine

>  <Brand Name>  (1) 
Tubocurarine Chloride Inj 3mg/ml#Tubocurarine Chloride Inj 3mg/ml USP#Tubarine

>  <DrugBank ID>  (1) 
DB01199

>  <ATC Codes>  (1) 
M03AA02

>  <Ligand ID>  (1) 
TC9,TUB

>  <Target Name>  (1) 
Neuronal acetylcholine receptor subunit alpha-2

>  <UniProt ID>  (1) 
Q15822

>  <PDB ID.1>  (1) 
2XYT

>  <Seq. Identity>  (1) 
31%

$$$$
