PDB_DB00396_03
     RDKit          3D

118124  0  0  0  0  0  0  0  0999 V2000
    2.8005   -1.6712    0.4602 C   0  0  0  0  0  0  0  0  0  0  0  0
    4.2448   -1.6174    0.7440 C   0  0  0  0  0  0  0  0  0  0  0  0
    4.8569   -0.3184    1.0496 C   0  0  0  0  0  0  0  0  0  0  0  0
    6.1799   -0.3251    0.5419 O   0  0  0  0  0  0  0  0  0  0  0  0
    4.1819    0.8919    0.5112 C   0  0  0  0  0  0  0  0  0  0  0  0
    2.9420    0.6321   -0.2665 C   0  0  2  0  0  0  0  0  0  0  0  0
    2.2033    1.9336   -0.5079 C   0  0  0  0  0  0  0  0  0  0  0  0
    1.0313    1.5891   -1.3991 C   0  0  0  0  0  0  0  0  0  0  0  0
    0.0704    0.7485   -0.5315 C   0  0  2  0  0  0  0  0  0  0  0  0
    0.7800   -0.5640   -0.3151 C   0  0  1  0  0  0  0  0  0  0  0  0
    2.0638   -0.3690    0.4557 C   0  0  1  0  0  0  0  0  0  0  0  0
   -0.0562   -1.6358    0.2775 C   0  0  0  0  0  0  0  0  0  0  0  0
   -1.4534   -1.7075   -0.2493 C   0  0  0  0  0  0  0  0  0  0  0  0
   -2.1050   -0.3346   -0.3339 C   0  0  1  0  0  0  0  0  0  0  0  0
   -1.1923    0.4737   -1.2703 C   0  0  1  0  0  0  0  0  0  0  0  0
   -2.0361    1.6584   -1.5641 C   0  0  0  0  0  0  0  0  0  0  0  0
   -3.4320    1.0760   -1.6769 C   0  0  0  0  0  0  0  0  0  0  0  0
   -3.3481   -0.3393   -1.1278 C   0  0  2  0  0  0  0  0  0  0  0  0
   -2.1455    0.2818    1.0160 C   0  0  0  0  0  0  0  0  0  0  0  0
    1.7818    0.0318    1.8671 C   0  0  0  0  0  0  0  0  0  0  0  0
   -4.6111   -0.7800   -0.4928 C   0  0  0  0  0  0  0  0  0  0  0  0
   -5.5990   -0.6936   -1.5284 O   0  0  0  0  0  0  0  0  0  0  0  0
   -5.1491    0.1216    0.5894 C   0  0  0  0  0  0  0  0  0  0  0  0
    2.8005   -1.6712    0.4602 C   0  0  0  0  0  0  0  0  0  0  0  0
    4.2448   -1.6174    0.7440 C   0  0  0  0  0  0  0  0  0  0  0  0
    4.8569   -0.3184    1.0496 C   0  0  0  0  0  0  0  0  0  0  0  0
    6.1799   -0.3251    0.5419 O   0  0  0  0  0  0  0  0  0  0  0  0
    4.1819    0.8919    0.5112 C   0  0  0  0  0  0  0  0  0  0  0  0
    2.9420    0.6321   -0.2665 C   0  0  2  0  0  0  0  0  0  0  0  0
    2.2033    1.9336   -0.5079 C   0  0  0  0  0  0  0  0  0  0  0  0
    1.0313    1.5891   -1.3991 C   0  0  0  0  0  0  0  0  0  0  0  0
    0.0704    0.7485   -0.5315 C   0  0  2  0  0  0  0  0  0  0  0  0
    0.7800   -0.5640   -0.3151 C   0  0  1  0  0  0  0  0  0  0  0  0
    2.0638   -0.3690    0.4557 C   0  0  1  0  0  0  0  0  0  0  0  0
   -0.0562   -1.6358    0.2775 C   0  0  0  0  0  0  0  0  0  0  0  0
   -1.4534   -1.7075   -0.2493 C   0  0  0  0  0  0  0  0  0  0  0  0
   -2.1050   -0.3346   -0.3339 C   0  0  1  0  0  0  0  0  0  0  0  0
   -1.1923    0.4737   -1.2703 C   0  0  1  0  0  0  0  0  0  0  0  0
   -2.0361    1.6584   -1.5641 C   0  0  0  0  0  0  0  0  0  0  0  0
   -3.4320    1.0760   -1.6769 C   0  0  0  0  0  0  0  0  0  0  0  0
   -3.3481   -0.3393   -1.1278 C   0  0  2  0  0  0  0  0  0  0  0  0
   -2.1455    0.2818    1.0160 C   0  0  0  0  0  0  0  0  0  0  0  0
    1.7818    0.0318    1.8671 C   0  0  0  0  0  0  0  0  0  0  0  0
   -4.6111   -0.7800   -0.4928 C   0  0  0  0  0  0  0  0  0  0  0  0
   -5.5990   -0.6936   -1.5284 O   0  0  0  0  0  0  0  0  0  0  0  0
   -5.1491    0.1216    0.5894 C   0  0  0  0  0  0  0  0  0  0  0  0
    2.5849   -2.1574   -0.5377 H   0  0  0  0  0  0  0  0  0  0  0  0
    2.2476   -2.3387    1.1866 H   0  0  0  0  0  0  0  0  0  0  0  0
    4.7915   -2.1170   -0.1102 H   0  0  0  0  0  0  0  0  0  0  0  0
    4.4568   -2.3111    1.6126 H   0  0  0  0  0  0  0  0  0  0  0  0
    5.0076   -0.1958    2.1632 H   0  0  0  0  0  0  0  0  0  0  0  0
    6.4320    0.5779    0.2204 H   0  0  0  0  0  0  0  0  0  0  0  0
    3.9153    1.6072    1.3438 H   0  0  0  0  0  0  0  0  0  0  0  0
    4.8613    1.5087   -0.1490 H   0  0  0  0  0  0  0  0  0  0  0  0
    3.2155    0.1882   -1.2433 H   0  0  0  0  0  0  0  0  0  0  0  0
    1.7805    2.2792    0.4547 H   0  0  0  0  0  0  0  0  0  0  0  0
    2.9089    2.6381   -0.9635 H   0  0  0  0  0  0  0  0  0  0  0  0
    0.4991    2.4785   -1.7684 H   0  0  0  0  0  0  0  0  0  0  0  0
    1.3949    0.9185   -2.1987 H   0  0  0  0  0  0  0  0  0  0  0  0
   -0.0725    1.3521    0.3704 H   0  0  0  0  0  0  0  0  0  0  0  0
    1.1094   -0.8795   -1.3567 H   0  0  0  0  0  0  0  0  0  0  0  0
    0.4309   -2.6179   -0.0050 H   0  0  0  0  0  0  0  0  0  0  0  0
   -0.0938   -1.6586    1.3779 H   0  0  0  0  0  0  0  0  0  0  0  0
   -2.0549   -2.3187    0.4439 H   0  0  0  0  0  0  0  0  0  0  0  0
   -1.5263   -2.1549   -1.2616 H   0  0  0  0  0  0  0  0  0  0  0  0
   -0.9652   -0.1256   -2.1724 H   0  0  0  0  0  0  0  0  0  0  0  0
   -1.9600    2.4295   -0.7914 H   0  0  0  0  0  0  0  0  0  0  0  0
   -1.7237    2.0726   -2.5491 H   0  0  0  0  0  0  0  0  0  0  0  0
   -3.7560    1.0776   -2.7434 H   0  0  0  0  0  0  0  0  0  0  0  0
   -4.1299    1.7018   -1.1221 H   0  0  0  0  0  0  0  0  0  0  0  0
   -3.1430   -0.9765   -2.0429 H   0  0  0  0  0  0  0  0  0  0  0  0
   -2.8471   -0.2912    1.6613 H   0  0  0  0  0  0  0  0  0  0  0  0
   -2.2700    1.3667    1.0535 H   0  0  0  0  0  0  0  0  0  0  0  0
   -1.1407    0.0769    1.5071 H   0  0  0  0  0  0  0  0  0  0  0  0
    1.4034   -0.8341    2.4466 H   0  0  0  0  0  0  0  0  0  0  0  0
    1.0556    0.8513    1.9866 H   0  0  0  0  0  0  0  0  0  0  0  0
    2.6934    0.3715    2.4093 H   0  0  0  0  0  0  0  0  0  0  0  0
   -4.6237   -1.8171   -0.1627 H   0  0  0  0  0  0  0  0  0  0  0  0
   -6.4993   -0.7848   -1.1267 H   0  0  0  0  0  0  0  0  0  0  0  0
   -4.5927    1.0375    0.7613 H   0  0  0  0  0  0  0  0  0  0  0  0
   -5.1853   -0.4586    1.5359 H   0  0  0  0  0  0  0  0  0  0  0  0
   -6.2134    0.4214    0.4149 H   0  0  0  0  0  0  0  0  0  0  0  0
    2.5849   -2.1574   -0.5377 H   0  0  0  0  0  0  0  0  0  0  0  0
    2.2476   -2.3387    1.1866 H   0  0  0  0  0  0  0  0  0  0  0  0
    4.7915   -2.1170   -0.1102 H   0  0  0  0  0  0  0  0  0  0  0  0
    4.4568   -2.3111    1.6126 H   0  0  0  0  0  0  0  0  0  0  0  0
    5.0076   -0.1958    2.1632 H   0  0  0  0  0  0  0  0  0  0  0  0
    6.4320    0.5779    0.2204 H   0  0  0  0  0  0  0  0  0  0  0  0
    3.9153    1.6072    1.3438 H   0  0  0  0  0  0  0  0  0  0  0  0
    4.8613    1.5087   -0.1490 H   0  0  0  0  0  0  0  0  0  0  0  0
    3.2155    0.1882   -1.2433 H   0  0  0  0  0  0  0  0  0  0  0  0
    1.7805    2.2792    0.4547 H   0  0  0  0  0  0  0  0  0  0  0  0
    2.9089    2.6381   -0.9635 H   0  0  0  0  0  0  0  0  0  0  0  0
    0.4991    2.4785   -1.7684 H   0  0  0  0  0  0  0  0  0  0  0  0
    1.3949    0.9185   -2.1987 H   0  0  0  0  0  0  0  0  0  0  0  0
   -0.0725    1.3521    0.3704 H   0  0  0  0  0  0  0  0  0  0  0  0
    1.1094   -0.8795   -1.3567 H   0  0  0  0  0  0  0  0  0  0  0  0
    0.4309   -2.6179   -0.0050 H   0  0  0  0  0  0  0  0  0  0  0  0
   -0.0938   -1.6586    1.3779 H   0  0  0  0  0  0  0  0  0  0  0  0
   -2.0549   -2.3187    0.4439 H   0  0  0  0  0  0  0  0  0  0  0  0
   -1.5263   -2.1549   -1.2616 H   0  0  0  0  0  0  0  0  0  0  0  0
   -0.9652   -0.1256   -2.1724 H   0  0  0  0  0  0  0  0  0  0  0  0
   -1.9600    2.4295   -0.7914 H   0  0  0  0  0  0  0  0  0  0  0  0
   -1.7237    2.0726   -2.5491 H   0  0  0  0  0  0  0  0  0  0  0  0
   -3.7560    1.0776   -2.7434 H   0  0  0  0  0  0  0  0  0  0  0  0
   -4.1299    1.7018   -1.1221 H   0  0  0  0  0  0  0  0  0  0  0  0
   -3.1430   -0.9765   -2.0429 H   0  0  0  0  0  0  0  0  0  0  0  0
   -2.8471   -0.2912    1.6613 H   0  0  0  0  0  0  0  0  0  0  0  0
   -2.2700    1.3667    1.0535 H   0  0  0  0  0  0  0  0  0  0  0  0
   -1.1407    0.0769    1.5071 H   0  0  0  0  0  0  0  0  0  0  0  0
    1.4034   -0.8341    2.4466 H   0  0  0  0  0  0  0  0  0  0  0  0
    1.0556    0.8513    1.9866 H   0  0  0  0  0  0  0  0  0  0  0  0
    2.6934    0.3715    2.4093 H   0  0  0  0  0  0  0  0  0  0  0  0
   -4.6237   -1.8171   -0.1627 H   0  0  0  0  0  0  0  0  0  0  0  0
   -6.4993   -0.7848   -1.1267 H   0  0  0  0  0  0  0  0  0  0  0  0
   -4.5927    1.0375    0.7613 H   0  0  0  0  0  0  0  0  0  0  0  0
   -5.1853   -0.4586    1.5359 H   0  0  0  0  0  0  0  0  0  0  0  0
   -6.2134    0.4214    0.4149 H   0  0  0  0  0  0  0  0  0  0  0  0
  1  2  1  0
  2  3  1  0
  3  4  1  0
  3  5  1  0
  5  6  1  0
  6  7  1  0
  7  8  1  0
  8  9  1  0
  9 10  1  0
  1 11  1  0
  6 11  1  0
 10 11  1  0
 10 12  1  0
 12 13  1  0
 13 14  1  0
  9 15  1  0
 14 15  1  0
 15 16  1  0
 16 17  1  0
 14 18  1  0
 17 18  1  0
 14 19  1  1
 11 20  1  1
 18 21  1  0
 21 22  1  0
 21 23  1  0
 24 25  1  0
 25 26  1  0
 26 27  1  0
 26 28  1  0
 28 29  1  0
 29 30  1  0
 30 31  1  0
 31 32  1  0
 32 33  1  0
 24 34  1  0
 29 34  1  0
 33 34  1  0
 33 35  1  0
 35 36  1  0
 36 37  1  0
 32 38  1  0
 37 38  1  0
 38 39  1  0
 39 40  1  0
 37 41  1  0
 40 41  1  0
 37 42  1  1
 34 43  1  1
 41 44  1  0
 44 45  1  0
 44 46  1  0
  1 47  1  0
  1 48  1  0
  2 49  1  0
  2 50  1  0
  3 51  1  0
  4 52  1  0
  5 53  1  0
  5 54  1  0
  6 55  1  6
  7 56  1  0
  7 57  1  0
  8 58  1  0
  8 59  1  0
  9 60  1  1
 10 61  1  6
 12 62  1  0
 12 63  1  0
 13 64  1  0
 13 65  1  0
 15 66  1  6
 16 67  1  0
 16 68  1  0
 17 69  1  0
 17 70  1  0
 18 71  1  6
 19 72  1  0
 19 73  1  0
 19 74  1  0
 20 75  1  0
 20 76  1  0
 20 77  1  0
 21 78  1  0
 22 79  1  0
 23 80  1  0
 23 81  1  0
 23 82  1  0
 24 83  1  0
 24 84  1  0
 25 85  1  0
 25 86  1  0
 26 87  1  0
 27 88  1  0
 28 89  1  0
 28 90  1  0
 29 91  1  6
 30 92  1  0
 30 93  1  0
 31 94  1  0
 31 95  1  0
 32 96  1  1
 33 97  1  6
 35 98  1  0
 35 99  1  0
 36100  1  0
 36101  1  0
 38102  1  6
 39103  1  0
 39104  1  0
 40105  1  0
 40106  1  0
 41107  1  6
 42108  1  0
 42109  1  0
 42110  1  0
 43111  1  0
 43112  1  0
 43113  1  0
 44114  1  0
 45115  1  0
 46116  1  0
 46117  1  0
 46118  1  0
M  END
>  <PDBID>  (1) 
4FN9

>  <PDB ID>  (1) 
4FN9

>  <Generic Name>  (1) 
Progesterone

>  <Brand Name>  (1) 
Act Progesterone Injection#Crinone#Endometrin#Estrogel Propak#Gesterol In Oil-liq Im 50mg/ml#PMS-progesterone Inj 50mg/ml USP#Prochieve#Progesterone#Progesterone Inj 50mg/ml USP#Progesterone Injection USP#Prometrium#Teva-progesterone#Agolutin#Cyclogest#Gesterol#Gestone#Progestasert#Progestogel#Qi Ning#Relantan#Susten#Utrogestan#Utrogestran#Utrovin#Vasclor

>  <DrugBank ID>  (1) 
DB00396

>  <ATC Codes>  (1) 
G03DA04#G03FA04

>  <Ligand ID>  (1) 
STR

>  <Target Name>  (1) 
Estrogen receptor

>  <UniProt ID>  (1) 
P03372

>  <PDB ID.1>  (1) 
4FN9

>  <Seq. Identity>  (1) 
32%

$$$$
