PDB_DB00373_06
     RDKit          3D

 49 50  0  0  0  0  0  0  0  0999 V2000
   -4.9530   -0.0143    1.5623 C   0  0  0  0  0  0  0  0  0  0  0  0
   -5.5259   -0.2663    0.1870 C   0  0  0  0  0  0  0  0  0  0  0  0
   -5.6458    0.9325   -0.5044 O   0  0  0  0  0  0  0  0  0  0  0  0
   -4.3632    1.4962   -0.6695 C   0  0  0  0  0  0  0  0  0  0  0  0
   -3.9331    1.9879    0.6998 C   0  0  0  0  0  0  0  0  0  0  0  0
   -3.9146    0.9207    1.6263 N   0  0  0  0  0  0  0  0  0  0  0  0
   -2.6668    0.5261    2.1603 C   0  0  0  0  0  0  0  0  0  0  0  0
   -2.8819    0.1425    3.5298 N   0  0  0  0  0  0  0  0  0  0  0  0
   -2.6397   -1.5833    3.5977 S   0  0  0  0  0  0  0  0  0  0  0  0
   -2.4591   -1.8313    1.8395 N   0  0  0  0  0  0  0  0  0  0  0  0
   -1.9150   -0.5354    1.4584 C   0  0  0  0  0  0  0  0  0  0  0  0
   -0.5701   -0.5230    1.5620 O   0  0  0  0  0  0  0  0  0  0  0  0
    0.1635   -0.4239    0.4121 C   0  0  0  0  0  0  0  0  0  0  0  0
    1.6528   -0.4213    0.6631 C   0  0  1  0  0  0  0  0  0  0  0  0
    2.1108   -1.5563    1.2921 O   0  0  0  0  0  0  0  0  0  0  0  0
    2.4278   -0.2638   -0.6485 C   0  0  0  0  0  0  0  0  0  0  0  0
    3.8254   -0.1395   -0.3984 N   0  0  0  0  0  0  0  0  0  0  0  0
    4.6686   -0.0047   -1.5372 C   0  0  0  0  0  0  0  0  0  0  0  0
    4.3617    1.2607   -2.2958 C   0  0  0  0  0  0  0  0  0  0  0  0
    4.5401   -1.1609   -2.5082 C   0  0  0  0  0  0  0  0  0  0  0  0
    6.1244    0.0132   -1.0568 C   0  0  0  0  0  0  0  0  0  0  0  0
   -4.6783   -1.0087    1.9710 H   0  0  0  0  0  0  0  0  0  0  0  0
   -5.7926    0.3342    2.2338 H   0  0  0  0  0  0  0  0  0  0  0  0
   -6.5626   -0.6520    0.3433 H   0  0  0  0  0  0  0  0  0  0  0  0
   -4.9197   -1.0254   -0.3170 H   0  0  0  0  0  0  0  0  0  0  0  0
   -4.5125    2.3544   -1.3783 H   0  0  0  0  0  0  0  0  0  0  0  0
   -3.6902    0.7323   -1.0686 H   0  0  0  0  0  0  0  0  0  0  0  0
   -4.6963    2.7271    1.0240 H   0  0  0  0  0  0  0  0  0  0  0  0
   -2.9707    2.5254    0.6662 H   0  0  0  0  0  0  0  0  0  0  0  0
   -2.0181    1.4502    2.1588 H   0  0  0  0  0  0  0  0  0  0  0  0
   -2.3727    0.6885    4.2247 H   0  0  0  0  0  0  0  0  0  0  0  0
   -1.7432   -2.5669    1.6472 H   0  0  0  0  0  0  0  0  0  0  0  0
   -2.1625   -0.4534    0.3566 H   0  0  0  0  0  0  0  0  0  0  0  0
   -0.0588    0.4421   -0.2197 H   0  0  0  0  0  0  0  0  0  0  0  0
   -0.0566   -1.3272   -0.2068 H   0  0  0  0  0  0  0  0  0  0  0  0
    1.9659    0.4522    1.2870 H   0  0  0  0  0  0  0  0  0  0  0  0
    1.5408   -2.3502    1.1494 H   0  0  0  0  0  0  0  0  0  0  0  0
    2.2376   -1.2112   -1.2292 H   0  0  0  0  0  0  0  0  0  0  0  0
    1.9773    0.5378   -1.2322 H   0  0  0  0  0  0  0  0  0  0  0  0
    4.1813   -0.7059    0.3821 H   0  0  0  0  0  0  0  0  0  0  0  0
    5.2204    1.9573   -2.1490 H   0  0  0  0  0  0  0  0  0  0  0  0
    3.4190    1.7392   -1.9674 H   0  0  0  0  0  0  0  0  0  0  0  0
    4.2449    1.0833   -3.4031 H   0  0  0  0  0  0  0  0  0  0  0  0
    3.8930   -0.8675   -3.3848 H   0  0  0  0  0  0  0  0  0  0  0  0
    4.1853   -2.0895   -2.0419 H   0  0  0  0  0  0  0  0  0  0  0  0
    5.5453   -1.3555   -2.9283 H   0  0  0  0  0  0  0  0  0  0  0  0
    6.1768    0.6720   -0.1669 H   0  0  0  0  0  0  0  0  0  0  0  0
    6.4416   -0.9956   -0.7535 H   0  0  0  0  0  0  0  0  0  0  0  0
    6.7985    0.3569   -1.8480 H   0  0  0  0  0  0  0  0  0  0  0  0
  1  2  1  0
  2  3  1  0
  3  4  1  0
  4  5  1  0
  1  6  1  0
  5  6  1  0
  6  7  1  0
  7  8  1  0
  8  9  1  0
  9 10  1  0
  7 11  1  0
 10 11  1  0
 11 12  1  0
 12 13  1  0
 13 14  1  0
 14 15  1  0
 14 16  1  0
 16 17  1  0
 18 17  1  0
 18 19  1  0
 18 20  1  0
 18 21  1  0
  1 22  1  0
  1 23  1  0
  2 24  1  0
  2 25  1  0
  4 26  1  0
  4 27  1  0
  5 28  1  0
  5 29  1  0
  7 30  1  0
  8 31  1  0
 10 32  1  0
 11 33  1  0
 13 34  1  0
 13 35  1  0
 14 36  1  1
 15 37  1  0
 16 38  1  0
 16 39  1  0
 17 40  1  0
 19 41  1  0
 19 42  1  0
 19 43  1  0
 20 44  1  0
 20 45  1  0
 20 46  1  0
 21 47  1  0
 21 48  1  0
 21 49  1  0
M  END
>  <PDBID>  (1) 
3D4S

>  <PDB ID>  (1) 
3D4S

>  <Generic Name>  (1) 
Timolol

>  <Brand Name>  (1) 
Act Dorzotimolol#Act Latanoprost/timolol#Apo-brimonidine-timop#Apo-dorzo-timop#Apo-latanoprost-timop#Apo-timol Tablets 10mg#Apo-timol Tablets 20mg#Apo-timol Tablets 5mg#Apo-timop Gel#Apo-timop Liq 0.5%#Apo-timop Oph Soln 0.25%#Apo-travoprost-timop#Azarga#Beta-tim - 0.25% Liq#Beta-tim - 0.5% Liq#Betimol#Blocadren Tab 10mg#Blocadren Tab 20mg#Blocadren Tab 5mg#Combigan#Cosopt#Cosopt PF#Dom-timolol#Dorzolamide HCl /timolol Maleate#Dorzolamide HCl and Timolol Maleate#Dorzolamide Hydrochloride and Timolol Maleate#Dorzolamide Hydrochloride and Timolol Maleate Ophthalmic Solution#Dorzolamide Hydrochloride-timolol Maleate#Dorzolamide Hydrochloride-timolol Maleate Ophthalmic Solution Sterile Ophthalmic Solution#Duotrav Pq#Gd-latanoprost/timolol#Istalol#Jamp-dorzolamide/timolol#Jamp-latanoprost/timolol#Jamp-timolol#Med Timolol Liq Oph 0.25%#Med Timolol Liq Oph 0.5%#Med-dorzolamide-timolol#Med-latanoprost-timolol#Mint-dorzolamide/timolol#Mint-latanoprost/timolol#Mylan-dorzolamide/timolol#Mylan-latanoprost/timolol#Mylan-timolol#Novo-timol Liq 0.25%#Novo-timol Liq 0.5%#Nu-timolol Tab 10mg#Nu-timolol Tab 20mg#Nu-timolol Tab 5mg#Odan-timolol#PMS-dorzolamide-timolol#PMS-latanoprost-timolol#PMS-timolol#Ratio-timolol Maleate 0.25%#Ratio-timolol Maleate 0.5%#Rhoxal-timolol 0.25%#Rhoxal-timolol 0.5%#Riva-dorzolamide/timolol#Riva-latanoprost/timolol#Sandoz Dorzolamide/timolol#Sandoz Latanoprost/timolol#Sandoz Timolol#Sandoz Travoprost / Timolol Pq#T-LO  - Liq Oph 0.25%#T-LO - Liq Oph 0.5%#Teva-dorzotimol#Teva-latanoprost/timolol#Teva-timolol#Timolide Tab#Timolol Gfs#Timolol Maleate#Timolol Maleate-EX#Timolol Solution - 0.25%#Timolol Solution - 0.5%#Timolol-10 Tab 10mg#Timolol-20 Tab 20mg#Timolol-5 Tab 5mg#Timoptic#Timoptic-XE#Timpilo 2#Timpilo 4#Van-dorzolamide-timolol#Xalacom#Blocadren#Proflax#Tenopt#Timacar Depot#Timacor#Timoptol

>  <DrugBank ID>  (1) 
DB00373

>  <ATC Codes>  (1) 
S01ED51#S01ED01#C07DA06#C07BA06#C07AA06

>  <Ligand ID>  (1) 
TIM

>  <Target Name>  (1) 
Beta-1 adrenergic receptor

>  <UniProt ID>  (1) 
P08588

>  <PDB ID.1>  (1) 
3D4S

>  <Seq. Identity>  (1) 
67%

$$$$
