PDB_DB01764_07
     RDKit          3D

354360  0  0  0  0  0  0  0  0999 V2000
    1.7367   -2.0275    1.8820 O   0  0  0  0  0  0  0  0  0  0  0  0
    0.6437   -1.4833    1.1696 C   0  0  0  0  0  0  0  0  0  0  0  0
    0.9560   -1.1547   -0.1635 N   0  0  0  0  0  0  0  0  0  0  0  0
    1.7880   -2.0746   -0.8622 C   0  0  0  0  0  0  0  0  0  0  0  0
    3.1840   -1.6400   -0.4585 C   0  0  0  0  0  0  0  0  0  0  0  0
    3.0713   -0.1738   -0.1756 C   0  0  1  0  0  0  0  0  0  0  0  0
    4.0867    0.7220   -1.2386 S   0  0  0  0  0  0  0  0  0  0  0  0
    3.3969   -0.1859   -2.8254 O   0  0  0  0  0  0  0  0  0  0  0  0
    4.0743    1.9799   -1.5523 O   0  0  0  0  0  0  0  0  0  0  0  0
    5.6599   -0.1261   -1.2234 C   0  0  0  0  0  0  0  0  0  0  0  0
    6.1817   -0.1388    0.2043 C   0  0  0  0  0  0  0  0  0  0  0  0
    7.4414   -0.7902    0.3469 N   0  0  0  0  0  0  0  0  0  0  0  0
    8.5523   -0.1263   -0.2600 C   0  0  0  0  0  0  0  0  0  0  0  0
    8.8839    1.1671    0.4395 C   0  0  0  0  0  0  0  0  0  0  0  0
    7.3954   -2.1976    0.1135 C   0  0  0  0  0  0  0  0  0  0  0  0
    8.7241   -2.8747    0.2691 C   0  0  0  0  0  0  0  0  0  0  0  0
    1.5906    0.0806   -0.4327 C   0  0  2  0  0  0  0  0  0  0  0  0
   -0.4707   -2.4785    1.2970 C   0  0  2  0  0  0  0  0  0  0  0  0
    0.0387   -3.8860    1.5487 C   0  0  0  0  0  0  0  0  0  0  0  0
   -0.3961   -4.6588    0.4914 O   0  0  0  0  0  0  0  0  0  0  0  0
   -1.3094   -2.5904    0.1547 N   0  0  0  0  0  0  0  0  0  0  0  0
   -1.4573   -3.9837   -0.1038 C   0  0  0  0  0  0  0  0  0  0  0  0
   -2.7188   -4.5000    0.5702 C   0  0  0  0  0  0  0  0  0  0  0  0
   -3.9269   -4.2726   -0.3093 C   0  0  1  0  0  0  0  0  0  0  0  0
   -3.9358   -5.2261   -1.3086 O   0  0  0  0  0  0  0  0  0  0  0  0
   -5.1864   -4.3912    0.5040 C   0  0  0  0  0  0  0  0  0  0  0  0
   -6.3045   -3.5296   -0.0539 C   0  0  2  0  0  0  0  0  0  0  0  0
   -6.6755   -4.1058   -1.2793 O   0  0  0  0  0  0  0  0  0  0  0  0
   -5.7899   -2.1478   -0.2877 C   0  0  0  0  0  0  0  0  0  0  0  0
   -6.8116   -1.0665   -0.0757 C   0  0  2  0  0  0  0  0  0  0  0  0
   -8.2043   -1.4646   -0.4510 C   0  0  0  0  0  0  0  0  0  0  0  0
   -6.4157    0.1062   -0.9482 C   0  0  0  0  0  0  0  0  0  0  0  0
   -6.3651    1.4072   -0.1501 C   0  0  0  0  0  0  0  0  0  0  0  0
   -5.7162    2.4290   -1.0889 C   0  0  0  0  0  0  0  0  0  0  0  0
   -5.3128    3.6200   -0.4089 N   0  0  0  0  0  0  0  0  0  0  0  0
   -4.0141    3.5600    0.1912 C   0  0  2  0  0  0  0  0  0  0  0  0
   -3.8501    4.6034    1.0915 O   0  0  0  0  0  0  0  0  0  0  0  0
   -2.8867    3.5567   -0.8357 C   0  0  0  0  0  0  0  0  0  0  0  0
   -1.7178    2.7135   -0.3032 C   0  0  0  0  0  0  0  0  0  0  0  0
   -0.8004    3.5292    0.5424 C   0  0  1  0  0  0  0  0  0  0  0  0
   -0.9521    3.1694    1.9772 C   0  0  0  0  0  0  0  0  0  0  0  0
    0.6054    3.5386    0.0069 C   0  0  1  0  0  0  0  0  0  0  0  0
    1.5106    4.4072    0.8548 C   0  0  0  0  0  0  0  0  0  0  0  0
    0.9089    5.8195    0.8061 C   0  0  0  0  0  0  0  0  0  0  0  0
    2.8513    4.5171    0.1682 C   0  0  0  0  0  0  0  0  0  0  0  0
    1.1272    2.3666   -0.4015 O   0  0  0  0  0  0  0  0  0  0  0  0
    1.0709    1.2562    0.3576 C   0  0  0  0  0  0  0  0  0  0  0  0
    1.7647    1.2746    1.5527 O   0  0  0  0  0  0  0  0  0  0  0  0
    1.7367   -2.0275    1.8820 O   0  0  0  0  0  0  0  0  0  0  0  0
    0.6437   -1.4833    1.1696 C   0  0  0  0  0  0  0  0  0  0  0  0
    0.9560   -1.1547   -0.1635 N   0  0  0  0  0  0  0  0  0  0  0  0
    1.7880   -2.0746   -0.8622 C   0  0  0  0  0  0  0  0  0  0  0  0
    3.1840   -1.6400   -0.4585 C   0  0  0  0  0  0  0  0  0  0  0  0
    3.0713   -0.1738   -0.1756 C   0  0  1  0  0  0  0  0  0  0  0  0
    4.0867    0.7220   -1.2386 S   0  0  0  0  0  0  0  0  0  0  0  0
    3.3969   -0.1859   -2.8254 O   0  0  0  0  0  0  0  0  0  0  0  0
    4.0743    1.9799   -1.5523 O   0  0  0  0  0  0  0  0  0  0  0  0
    5.6599   -0.1261   -1.2234 C   0  0  0  0  0  0  0  0  0  0  0  0
    6.1817   -0.1388    0.2043 C   0  0  0  0  0  0  0  0  0  0  0  0
    7.4414   -0.7902    0.3469 N   0  0  0  0  0  0  0  0  0  0  0  0
    8.5523   -0.1263   -0.2600 C   0  0  0  0  0  0  0  0  0  0  0  0
    8.8839    1.1671    0.4395 C   0  0  0  0  0  0  0  0  0  0  0  0
    7.3954   -2.1976    0.1135 C   0  0  0  0  0  0  0  0  0  0  0  0
    8.7241   -2.8747    0.2691 C   0  0  0  0  0  0  0  0  0  0  0  0
    1.5906    0.0806   -0.4327 C   0  0  2  0  0  0  0  0  0  0  0  0
   -0.4707   -2.4785    1.2970 C   0  0  2  0  0  0  0  0  0  0  0  0
    0.0387   -3.8860    1.5487 C   0  0  0  0  0  0  0  0  0  0  0  0
   -0.3961   -4.6588    0.4914 O   0  0  0  0  0  0  0  0  0  0  0  0
   -1.3094   -2.5904    0.1547 N   0  0  0  0  0  0  0  0  0  0  0  0
   -1.4573   -3.9837   -0.1038 C   0  0  0  0  0  0  0  0  0  0  0  0
   -2.7188   -4.5000    0.5702 C   0  0  0  0  0  0  0  0  0  0  0  0
   -3.9269   -4.2726   -0.3093 C   0  0  1  0  0  0  0  0  0  0  0  0
   -3.9358   -5.2261   -1.3086 O   0  0  0  0  0  0  0  0  0  0  0  0
   -5.1864   -4.3912    0.5040 C   0  0  0  0  0  0  0  0  0  0  0  0
   -6.3045   -3.5296   -0.0539 C   0  0  2  0  0  0  0  0  0  0  0  0
   -6.6755   -4.1058   -1.2793 O   0  0  0  0  0  0  0  0  0  0  0  0
   -5.7899   -2.1478   -0.2877 C   0  0  0  0  0  0  0  0  0  0  0  0
   -6.8116   -1.0665   -0.0757 C   0  0  2  0  0  0  0  0  0  0  0  0
   -8.2043   -1.4646   -0.4510 C   0  0  0  0  0  0  0  0  0  0  0  0
   -6.4157    0.1062   -0.9482 C   0  0  0  0  0  0  0  0  0  0  0  0
   -6.3651    1.4072   -0.1501 C   0  0  0  0  0  0  0  0  0  0  0  0
   -5.7162    2.4290   -1.0889 C   0  0  0  0  0  0  0  0  0  0  0  0
   -5.3128    3.6200   -0.4089 N   0  0  0  0  0  0  0  0  0  0  0  0
   -4.0141    3.5600    0.1912 C   0  0  2  0  0  0  0  0  0  0  0  0
   -3.8501    4.6034    1.0915 O   0  0  0  0  0  0  0  0  0  0  0  0
   -2.8867    3.5567   -0.8357 C   0  0  0  0  0  0  0  0  0  0  0  0
   -1.7178    2.7135   -0.3032 C   0  0  0  0  0  0  0  0  0  0  0  0
   -0.8004    3.5292    0.5424 C   0  0  1  0  0  0  0  0  0  0  0  0
   -0.9521    3.1694    1.9772 C   0  0  0  0  0  0  0  0  0  0  0  0
    0.6054    3.5386    0.0069 C   0  0  1  0  0  0  0  0  0  0  0  0
    1.5106    4.4072    0.8548 C   0  0  0  0  0  0  0  0  0  0  0  0
    0.9089    5.8195    0.8061 C   0  0  0  0  0  0  0  0  0  0  0  0
    2.8513    4.5171    0.1682 C   0  0  0  0  0  0  0  0  0  0  0  0
    1.1272    2.3666   -0.4015 O   0  0  0  0  0  0  0  0  0  0  0  0
    1.0709    1.2562    0.3576 C   0  0  0  0  0  0  0  0  0  0  0  0
    1.7647    1.2746    1.5527 O   0  0  0  0  0  0  0  0  0  0  0  0
    0.7301   -1.3106    1.2323 O   0  0  0  0  0  0  0  0  0  0  0  0
    0.2470   -1.3192   -0.0667 C   0  0  1  0  0  0  0  0  0  0  0  0
    1.0159   -0.6190   -1.0250 N   0  0  0  0  0  0  0  0  0  0  0  0
    1.9853   -1.4043   -1.7502 C   0  0  0  0  0  0  0  0  0  0  0  0
    3.2676   -1.3362   -0.9932 C   0  0  0  0  0  0  0  0  0  0  0  0
    3.0561   -0.1804   -0.0359 C   0  0  1  0  0  0  0  0  0  0  0  0
    4.4666    0.8113   -0.0292 S   0  0  0  0  0  0  0  0  0  0  0  0
    4.6957    1.3714   -1.5165 O   0  0  0  0  0  0  0  0  0  0  0  0
    4.4793    1.7842    1.1112 O   0  0  0  0  0  0  0  0  0  0  0  0
    5.8006   -0.4228    0.1662 C   0  0  0  0  0  0  0  0  0  0  0  0
    7.1041    0.3339    0.2041 C   0  0  0  0  0  0  0  0  0  0  0  0
    8.2543   -0.5219    0.3479 N   0  0  0  0  0  0  0  0  0  0  0  0
    8.4842   -1.3265   -0.8429 C   0  0  0  0  0  0  0  0  0  0  0  0
    8.9058   -0.3668   -1.9465 C   0  0  0  0  0  0  0  0  0  0  0  0
    8.1142   -1.4091    1.4898 C   0  0  0  0  0  0  0  0  0  0  0  0
    9.3516   -2.2696    1.6209 C   0  0  0  0  0  0  0  0  0  0  0  0
    1.8140    0.4763   -0.5470 C   0  0  2  0  0  0  0  0  0  0  0  0
    0.0261   -2.7826   -0.4135 C   0  0  2  0  0  0  0  0  0  0  0  0
   -0.7473   -2.9943   -1.6708 C   0  0  0  0  0  0  0  0  0  0  0  0
   -2.0099   -3.4870   -1.2720 O   0  0  0  0  0  0  0  0  0  0  0  0
   -0.8952   -3.2944    0.6157 N   0  0  0  0  0  0  0  0  0  0  0  0
   -1.6154   -4.2962   -0.1814 C   0  0  1  0  0  0  0  0  0  0  0  0
   -2.8060   -4.8344    0.5650 C   0  0  0  0  0  0  0  0  0  0  0  0
   -4.0461   -4.4537   -0.2182 C   0  0  1  0  0  0  0  0  0  0  0  0
   -4.1073   -5.2867   -1.3210 O   0  0  0  0  0  0  0  0  0  0  0  0
   -5.2920   -4.4785    0.6260 C   0  0  0  0  0  0  0  0  0  0  0  0
   -6.3279   -3.5350    0.0124 C   0  0  2  0  0  0  0  0  0  0  0  0
   -6.7389   -4.1481   -1.1757 O   0  0  0  0  0  0  0  0  0  0  0  0
   -5.7291   -2.1883   -0.2292 C   0  0  0  0  0  0  0  0  0  0  0  0
   -6.7090   -1.0490   -0.0687 C   0  0  2  0  0  0  0  0  0  0  0  0
   -8.0720   -1.3747   -0.6275 C   0  0  0  0  0  0  0  0  0  0  0  0
   -6.1525    0.1201   -0.8578 C   0  0  0  0  0  0  0  0  0  0  0  0
   -6.4045    1.4447   -0.1826 C   0  0  0  0  0  0  0  0  0  0  0  0
   -5.7533    2.5086   -1.0551 C   0  0  0  0  0  0  0  0  0  0  0  0
   -5.4668    3.7100   -0.3058 N   0  0  0  0  0  0  0  0  0  0  0  0
   -4.2812    3.5907    0.4991 C   0  0  2  0  0  0  0  0  0  0  0  0
   -4.2385    4.7106    1.3570 O   0  0  0  0  0  0  0  0  0  0  0  0
   -3.0299    3.5058   -0.3280 C   0  0  0  0  0  0  0  0  0  0  0  0
   -1.9735    2.6060    0.3291 C   0  0  0  0  0  0  0  0  0  0  0  0
   -1.0077    3.4072    1.1759 C   0  0  1  0  0  0  0  0  0  0  0  0
   -0.8836    2.8252    2.5229 C   0  0  0  0  0  0  0  0  0  0  0  0
    0.2667    3.5949    0.3983 C   0  0  1  0  0  0  0  0  0  0  0  0
    1.2545    4.4908    1.1103 C   0  0  0  0  0  0  0  0  0  0  0  0
    0.5317    5.8330    1.2759 C   0  0  0  0  0  0  0  0  0  0  0  0
    2.4047    4.7250    0.1657 C   0  0  0  0  0  0  0  0  0  0  0  0
    0.7835    2.5163   -0.2123 O   0  0  0  0  0  0  0  0  0  0  0  0
    1.1204    1.3874    0.4376 C   0  0  0  0  0  0  0  0  0  0  0  0
    1.9078    1.4931    1.5436 O   0  0  0  0  0  0  0  0  0  0  0  0
    1.4174   -2.0983    2.8262 H   0  0  0  0  0  0  0  0  0  0  0  0
    0.3596   -0.5806    1.7286 H   0  0  0  0  0  0  0  0  0  0  0  0
    1.5863   -3.1226   -0.7241 H   0  0  0  0  0  0  0  0  0  0  0  0
    1.6736   -1.8432   -1.9622 H   0  0  0  0  0  0  0  0  0  0  0  0
    3.5620   -2.2234    0.4068 H   0  0  0  0  0  0  0  0  0  0  0  0
    3.8278   -1.9137   -1.3107 H   0  0  0  0  0  0  0  0  0  0  0  0
    3.3407    0.1123    0.8604 H   0  0  0  0  0  0  0  0  0  0  0  0
    4.2173    0.0285   -3.3482 H   0  0  0  0  0  0  0  0  0  0  0  0
    4.5336    2.8771   -1.5154 H   0  0  0  0  0  0  0  0  0  0  0  0
    5.5967   -1.1448   -1.5791 H   0  0  0  0  0  0  0  0  0  0  0  0
    6.4060    0.4911   -1.7837 H   0  0  0  0  0  0  0  0  0  0  0  0
    5.4590   -0.6679    0.8849 H   0  0  0  0  0  0  0  0  0  0  0  0
    6.2328    0.8982    0.5856 H   0  0  0  0  0  0  0  0  0  0  0  0
    9.4403   -0.7982   -0.1390 H   0  0  0  0  0  0  0  0  0  0  0  0
    8.4390    0.0086   -1.3586 H   0  0  0  0  0  0  0  0  0  0  0  0
    9.6432    1.6820   -0.2184 H   0  0  0  0  0  0  0  0  0  0  0  0
    8.0367    1.8574    0.5240 H   0  0  0  0  0  0  0  0  0  0  0  0
    9.3158    0.9332    1.4239 H   0  0  0  0  0  0  0  0  0  0  0  0
    6.9650   -2.4795   -0.8791 H   0  0  0  0  0  0  0  0  0  0  0  0
    6.6784   -2.6316    0.8645 H   0  0  0  0  0  0  0  0  0  0  0  0
    8.5990   -3.9521    0.5623 H   0  0  0  0  0  0  0  0  0  0  0  0
    9.3159   -2.8193   -0.6672 H   0  0  0  0  0  0  0  0  0  0  0  0
    9.2520   -2.3822    1.1293 H   0  0  0  0  0  0  0  0  0  0  0  0
    1.5236    0.2622   -1.5241 H   0  0  0  0  0  0  0  0  0  0  0  0
   -1.1080   -2.2147    2.1664 H   0  0  0  0  0  0  0  0  0  0  0  0
   -0.4175   -4.3341    2.4758 H   0  0  0  0  0  0  0  0  0  0  0  0
    1.1293   -3.9121    1.7109 H   0  0  0  0  0  0  0  0  0  0  0  0
   -1.0501   -2.0101   -0.6629 H   0  0  0  0  0  0  0  0  0  0  0  0
   -1.4963   -4.2325   -1.1893 H   0  0  0  0  0  0  0  0  0  0  0  0
   -2.8934   -3.9695    1.5212 H   0  0  0  0  0  0  0  0  0  0  0  0
   -2.6206   -5.5851    0.7734 H   0  0  0  0  0  0  0  0  0  0  0  0
   -3.8141   -3.2811   -0.7731 H   0  0  0  0  0  0  0  0  0  0  0  0
   -3.9938   -6.1519   -0.9577 H   0  0  0  0  0  0  0  0  0  0  0  0
   -5.0145   -4.1192    1.5833 H   0  0  0  0  0  0  0  0  0  0  0  0
   -5.5591   -5.4466    0.4401 H   0  0  0  0  0  0  0  0  0  0  0  0
   -7.1276   -3.5725    0.6855 H   0  0  0  0  0  0  0  0  0  0  0  0
   -6.1119   -3.6644   -1.9789 H   0  0  0  0  0  0  0  0  0  0  0  0
   -5.4149   -2.0804   -1.3291 H   0  0  0  0  0  0  0  0  0  0  0  0
   -4.9524   -1.9609    0.4261 H   0  0  0  0  0  0  0  0  0  0  0  0
   -6.7817   -0.7597    0.9972 H   0  0  0  0  0  0  0  0  0  0  0  0
   -8.3709   -2.5360   -0.5538 H   0  0  0  0  0  0  0  0  0  0  0  0
   -8.5248   -1.0049   -1.4285 H   0  0  0  0  0  0  0  0  0  0  0  0
   -8.9218   -1.0477    0.2981 H   0  0  0  0  0  0  0  0  0  0  0  0
   -5.4101   -0.0205   -1.3991 H   0  0  0  0  0  0  0  0  0  0  0  0
   -7.1443    0.2738   -1.7720 H   0  0  0  0  0  0  0  0  0  0  0  0
   -7.4312    1.6783    0.0486 H   0  0  0  0  0  0  0  0  0  0  0  0
   -5.7771    1.2562    0.7584 H   0  0  0  0  0  0  0  0  0  0  0  0
   -4.9161    1.9194   -1.6460 H   0  0  0  0  0  0  0  0  0  0  0  0
   -6.5063    2.7058   -1.8281 H   0  0  0  0  0  0  0  0  0  0  0  0
   -5.9981    3.8233    0.3485 H   0  0  0  0  0  0  0  0  0  0  0  0
   -3.9335    2.5976    0.7535 H   0  0  0  0  0  0  0  0  0  0  0  0
   -4.0821    5.4522    0.6285 H   0  0  0  0  0  0  0  0  0  0  0  0
   -2.5725    4.5998   -1.0303 H   0  0  0  0  0  0  0  0  0  0  0  0
   -3.2493    3.0923   -1.7596 H   0  0  0  0  0  0  0  0  0  0  0  0
   -1.1766    2.3046   -1.1622 H   0  0  0  0  0  0  0  0  0  0  0  0
   -2.2367    1.9018    0.2885 H   0  0  0  0  0  0  0  0  0  0  0  0
   -1.1544    4.6030    0.4552 H   0  0  0  0  0  0  0  0  0  0  0  0
   -0.0431    3.0714    2.5586 H   0  0  0  0  0  0  0  0  0  0  0  0
   -1.5371    2.2119    2.1121 H   0  0  0  0  0  0  0  0  0  0  0  0
   -1.5880    3.9159    2.5433 H   0  0  0  0  0  0  0  0  0  0  0  0
    0.5240    4.1504   -0.9528 H   0  0  0  0  0  0  0  0  0  0  0  0
    1.5657    4.1303    1.8961 H   0  0  0  0  0  0  0  0  0  0  0  0
    0.4617    5.9416   -0.1917 H   0  0  0  0  0  0  0  0  0  0  0  0
    0.1437    5.9649    1.5660 H   0  0  0  0  0  0  0  0  0  0  0  0
    1.7174    6.5791    0.8877 H   0  0  0  0  0  0  0  0  0  0  0  0
    3.5507    3.7295    0.4950 H   0  0  0  0  0  0  0  0  0  0  0  0
    3.2606    5.5203    0.3714 H   0  0  0  0  0  0  0  0  0  0  0  0
    2.6516    4.4497   -0.9376 H   0  0  0  0  0  0  0  0  0  0  0  0
   -0.0120    1.1017    0.6453 H   0  0  0  0  0  0  0  0  0  0  0  0
    2.4889    1.9067    1.6231 H   0  0  0  0  0  0  0  0  0  0  0  0
    1.4174   -2.0983    2.8262 H   0  0  0  0  0  0  0  0  0  0  0  0
    0.3596   -0.5806    1.7286 H   0  0  0  0  0  0  0  0  0  0  0  0
    1.5863   -3.1226   -0.7241 H   0  0  0  0  0  0  0  0  0  0  0  0
    1.6736   -1.8432   -1.9622 H   0  0  0  0  0  0  0  0  0  0  0  0
    3.5620   -2.2234    0.4068 H   0  0  0  0  0  0  0  0  0  0  0  0
    3.8278   -1.9137   -1.3107 H   0  0  0  0  0  0  0  0  0  0  0  0
    3.3407    0.1123    0.8604 H   0  0  0  0  0  0  0  0  0  0  0  0
    4.2173    0.0285   -3.3482 H   0  0  0  0  0  0  0  0  0  0  0  0
    4.5336    2.8771   -1.5154 H   0  0  0  0  0  0  0  0  0  0  0  0
    5.5967   -1.1448   -1.5791 H   0  0  0  0  0  0  0  0  0  0  0  0
    6.4060    0.4911   -1.7837 H   0  0  0  0  0  0  0  0  0  0  0  0
    5.4590   -0.6679    0.8849 H   0  0  0  0  0  0  0  0  0  0  0  0
    6.2328    0.8982    0.5856 H   0  0  0  0  0  0  0  0  0  0  0  0
    9.4403   -0.7982   -0.1390 H   0  0  0  0  0  0  0  0  0  0  0  0
    8.4390    0.0086   -1.3586 H   0  0  0  0  0  0  0  0  0  0  0  0
    9.6432    1.6820   -0.2184 H   0  0  0  0  0  0  0  0  0  0  0  0
    8.0367    1.8574    0.5240 H   0  0  0  0  0  0  0  0  0  0  0  0
    9.3158    0.9332    1.4239 H   0  0  0  0  0  0  0  0  0  0  0  0
    6.9650   -2.4795   -0.8791 H   0  0  0  0  0  0  0  0  0  0  0  0
    6.6784   -2.6316    0.8645 H   0  0  0  0  0  0  0  0  0  0  0  0
    8.5990   -3.9521    0.5623 H   0  0  0  0  0  0  0  0  0  0  0  0
    9.3159   -2.8193   -0.6672 H   0  0  0  0  0  0  0  0  0  0  0  0
    9.2520   -2.3822    1.1293 H   0  0  0  0  0  0  0  0  0  0  0  0
    1.5236    0.2622   -1.5241 H   0  0  0  0  0  0  0  0  0  0  0  0
   -1.1080   -2.2147    2.1664 H   0  0  0  0  0  0  0  0  0  0  0  0
   -0.4175   -4.3341    2.4758 H   0  0  0  0  0  0  0  0  0  0  0  0
    1.1293   -3.9121    1.7109 H   0  0  0  0  0  0  0  0  0  0  0  0
   -1.0501   -2.0101   -0.6629 H   0  0  0  0  0  0  0  0  0  0  0  0
   -1.4963   -4.2325   -1.1893 H   0  0  0  0  0  0  0  0  0  0  0  0
   -2.8934   -3.9695    1.5212 H   0  0  0  0  0  0  0  0  0  0  0  0
   -2.6206   -5.5851    0.7734 H   0  0  0  0  0  0  0  0  0  0  0  0
   -3.8141   -3.2811   -0.7731 H   0  0  0  0  0  0  0  0  0  0  0  0
   -3.9938   -6.1519   -0.9577 H   0  0  0  0  0  0  0  0  0  0  0  0
   -5.0145   -4.1192    1.5833 H   0  0  0  0  0  0  0  0  0  0  0  0
   -5.5591   -5.4466    0.4401 H   0  0  0  0  0  0  0  0  0  0  0  0
   -7.1276   -3.5725    0.6855 H   0  0  0  0  0  0  0  0  0  0  0  0
   -6.1119   -3.6644   -1.9789 H   0  0  0  0  0  0  0  0  0  0  0  0
   -5.4149   -2.0804   -1.3291 H   0  0  0  0  0  0  0  0  0  0  0  0
   -4.9524   -1.9609    0.4261 H   0  0  0  0  0  0  0  0  0  0  0  0
   -6.7817   -0.7597    0.9972 H   0  0  0  0  0  0  0  0  0  0  0  0
   -8.3709   -2.5360   -0.5538 H   0  0  0  0  0  0  0  0  0  0  0  0
   -8.5248   -1.0049   -1.4285 H   0  0  0  0  0  0  0  0  0  0  0  0
   -8.9218   -1.0477    0.2981 H   0  0  0  0  0  0  0  0  0  0  0  0
   -5.4101   -0.0205   -1.3991 H   0  0  0  0  0  0  0  0  0  0  0  0
   -7.1443    0.2738   -1.7720 H   0  0  0  0  0  0  0  0  0  0  0  0
   -7.4312    1.6783    0.0486 H   0  0  0  0  0  0  0  0  0  0  0  0
   -5.7771    1.2562    0.7584 H   0  0  0  0  0  0  0  0  0  0  0  0
   -4.9161    1.9194   -1.6460 H   0  0  0  0  0  0  0  0  0  0  0  0
   -6.5063    2.7058   -1.8281 H   0  0  0  0  0  0  0  0  0  0  0  0
   -5.9981    3.8233    0.3485 H   0  0  0  0  0  0  0  0  0  0  0  0
   -3.9335    2.5976    0.7535 H   0  0  0  0  0  0  0  0  0  0  0  0
   -4.0821    5.4522    0.6285 H   0  0  0  0  0  0  0  0  0  0  0  0
   -2.5725    4.5998   -1.0303 H   0  0  0  0  0  0  0  0  0  0  0  0
   -3.2493    3.0923   -1.7596 H   0  0  0  0  0  0  0  0  0  0  0  0
   -1.1766    2.3046   -1.1622 H   0  0  0  0  0  0  0  0  0  0  0  0
   -2.2367    1.9018    0.2885 H   0  0  0  0  0  0  0  0  0  0  0  0
   -1.1544    4.6030    0.4552 H   0  0  0  0  0  0  0  0  0  0  0  0
   -0.0431    3.0714    2.5586 H   0  0  0  0  0  0  0  0  0  0  0  0
   -1.5371    2.2119    2.1121 H   0  0  0  0  0  0  0  0  0  0  0  0
   -1.5880    3.9159    2.5433 H   0  0  0  0  0  0  0  0  0  0  0  0
    0.5240    4.1504   -0.9528 H   0  0  0  0  0  0  0  0  0  0  0  0
    1.5657    4.1303    1.8961 H   0  0  0  0  0  0  0  0  0  0  0  0
    0.4617    5.9416   -0.1917 H   0  0  0  0  0  0  0  0  0  0  0  0
    0.1437    5.9649    1.5660 H   0  0  0  0  0  0  0  0  0  0  0  0
    1.7174    6.5791    0.8877 H   0  0  0  0  0  0  0  0  0  0  0  0
    3.5507    3.7295    0.4950 H   0  0  0  0  0  0  0  0  0  0  0  0
    3.2606    5.5203    0.3714 H   0  0  0  0  0  0  0  0  0  0  0  0
    2.6516    4.4497   -0.9376 H   0  0  0  0  0  0  0  0  0  0  0  0
   -0.0120    1.1017    0.6453 H   0  0  0  0  0  0  0  0  0  0  0  0
    2.4889    1.9067    1.6231 H   0  0  0  0  0  0  0  0  0  0  0  0
    0.5942   -2.1352    1.7291 H   0  0  0  0  0  0  0  0  0  0  0  0
   -0.7910   -0.8687   -0.0795 H   0  0  0  0  0  0  0  0  0  0  0  0
    1.6436   -2.4342   -1.9628 H   0  0  0  0  0  0  0  0  0  0  0  0
    2.1293   -0.9125   -2.7478 H   0  0  0  0  0  0  0  0  0  0  0  0
    3.5144   -2.2576   -0.4271 H   0  0  0  0  0  0  0  0  0  0  0  0
    4.0933   -1.1626   -1.7153 H   0  0  0  0  0  0  0  0  0  0  0  0
    2.9065   -0.5703    1.0021 H   0  0  0  0  0  0  0  0  0  0  0  0
    5.2056    0.7260   -2.0868 H   0  0  0  0  0  0  0  0  0  0  0  0
    5.1478    2.4982    1.1732 H   0  0  0  0  0  0  0  0  0  0  0  0
    5.6195   -0.9367    1.1284 H   0  0  0  0  0  0  0  0  0  0  0  0
    5.8255   -1.0651   -0.7109 H   0  0  0  0  0  0  0  0  0  0  0  0
    7.0998    0.9874    1.1265 H   0  0  0  0  0  0  0  0  0  0  0  0
    7.2305    0.9832   -0.6714 H   0  0  0  0  0  0  0  0  0  0  0  0
    9.2730   -2.0481   -0.5953 H   0  0  0  0  0  0  0  0  0  0  0  0
    7.6196   -1.8835   -1.1909 H   0  0  0  0  0  0  0  0  0  0  0  0
    9.5095   -0.9217   -2.6629 H   0  0  0  0  0  0  0  0  0  0  0  0
    7.9977    0.0498   -2.4319 H   0  0  0  0  0  0  0  0  0  0  0  0
    9.4314    0.4971   -1.4796 H   0  0  0  0  0  0  0  0  0  0  0  0
    7.2630   -2.1103    1.2845 H   0  0  0  0  0  0  0  0  0  0  0  0
    7.8833   -0.8947    2.4216 H   0  0  0  0  0  0  0  0  0  0  0  0
    9.4861   -2.5549    2.7018 H   0  0  0  0  0  0  0  0  0  0  0  0
    9.2169   -3.2204    1.0643 H   0  0  0  0  0  0  0  0  0  0  0  0
   10.2484   -1.7476    1.2468 H   0  0  0  0  0  0  0  0  0  0  0  0
    2.1308    1.0457   -1.4719 H   0  0  0  0  0  0  0  0  0  0  0  0
    0.9337   -3.3899   -0.3120 H   0  0  0  0  0  0  0  0  0  0  0  0
   -0.2722   -3.8569   -2.2091 H   0  0  0  0  0  0  0  0  0  0  0  0
   -0.8327   -2.0940   -2.2937 H   0  0  0  0  0  0  0  0  0  0  0  0
   -1.5957   -2.5173    0.7630 H   0  0  0  0  0  0  0  0  0  0  0  0
   -0.8840   -5.0589   -0.4825 H   0  0  0  0  0  0  0  0  0  0  0  0
   -2.8503   -4.4027    1.5886 H   0  0  0  0  0  0  0  0  0  0  0  0
   -2.7811   -5.9415    0.6748 H   0  0  0  0  0  0  0  0  0  0  0  0
   -3.8309   -3.4228   -0.6276 H   0  0  0  0  0  0  0  0  0  0  0  0
   -4.4413   -6.1625   -1.0713 H   0  0  0  0  0  0  0  0  0  0  0  0
   -5.1235   -4.2729    1.6840 H   0  0  0  0  0  0  0  0  0  0  0  0
   -5.7347   -5.5052    0.5454 H   0  0  0  0  0  0  0  0  0  0  0  0
   -7.1756   -3.5255    0.7456 H   0  0  0  0  0  0  0  0  0  0  0  0
   -6.2734   -3.7301   -1.9407 H   0  0  0  0  0  0  0  0  0  0  0  0
   -5.3528   -2.1398   -1.2657 H   0  0  0  0  0  0  0  0  0  0  0  0
   -4.9225   -2.0283    0.5216 H   0  0  0  0  0  0  0  0  0  0  0  0
   -6.7716   -0.7239    0.9907 H   0  0  0  0  0  0  0  0  0  0  0  0
   -8.2734   -2.4459   -0.7170 H   0  0  0  0  0  0  0  0  0  0  0  0
   -8.2446   -0.9123   -1.6172 H   0  0  0  0  0  0  0  0  0  0  0  0
   -8.8494   -0.9703    0.0765 H   0  0  0  0  0  0  0  0  0  0  0  0
   -5.0505   -0.0159   -1.0542 H   0  0  0  0  0  0  0  0  0  0  0  0
   -6.6236    0.1873   -1.8717 H   0  0  0  0  0  0  0  0  0  0  0  0
   -7.5127    1.5961   -0.1765 H   0  0  0  0  0  0  0  0  0  0  0  0
   -5.9977    1.4493    0.8474 H   0  0  0  0  0  0  0  0  0  0  0  0
   -4.8570    2.0528   -1.5152 H   0  0  0  0  0  0  0  0  0  0  0  0
   -6.4770    2.7519   -1.8725 H   0  0  0  0  0  0  0  0  0  0  0  0
   -6.2791    3.8937    0.3233 H   0  0  0  0  0  0  0  0  0  0  0  0
   -4.3635    2.6586    1.0940 H   0  0  0  0  0  0  0  0  0  0  0  0
   -3.9784    5.4907    0.7822 H   0  0  0  0  0  0  0  0  0  0  0  0
   -2.5695    4.5251   -0.3225 H   0  0  0  0  0  0  0  0  0  0  0  0
   -3.2075    3.2391   -1.3726 H   0  0  0  0  0  0  0  0  0  0  0  0
   -1.4715    2.0861   -0.5138 H   0  0  0  0  0  0  0  0  0  0  0  0
   -2.5398    1.9163    0.9920 H   0  0  0  0  0  0  0  0  0  0  0  0
   -1.5110    4.4144    1.3066 H   0  0  0  0  0  0  0  0  0  0  0  0
    0.0931    2.9321    3.0121 H   0  0  0  0  0  0  0  0  0  0  0  0
   -1.1547    1.7499    2.5502 H   0  0  0  0  0  0  0  0  0  0  0  0
   -1.6109    3.2968    3.2510 H   0  0  0  0  0  0  0  0  0  0  0  0
   -0.0633    4.2656   -0.4685 H   0  0  0  0  0  0  0  0  0  0  0  0
    1.5418    4.1619    2.0956 H   0  0  0  0  0  0  0  0  0  0  0  0
   -0.0363    6.0249    0.3628 H   0  0  0  0  0  0  0  0  0  0  0  0
   -0.1781    5.7279    2.1210 H   0  0  0  0  0  0  0  0  0  0  0  0
    1.2798    6.6398    1.4999 H   0  0  0  0  0  0  0  0  0  0  0  0
    3.3227    4.1920    0.4978 H   0  0  0  0  0  0  0  0  0  0  0  0
    2.6526    5.8051    0.1880 H   0  0  0  0  0  0  0  0  0  0  0  0
    2.1201    4.4532   -0.8799 H   0  0  0  0  0  0  0  0  0  0  0  0
    0.1646    0.8815    0.7563 H   0  0  0  0  0  0  0  0  0  0  0  0
    1.5244    1.1038    2.3682 H   0  0  0  0  0  0  0  0  0  0  0  0
  1  2  1  0
  2  3  1  0
  3  4  1  0
  4  5  1  0
  5  6  1  0
  6  7  1  0
  7  8  1  0
  7  9  1  0
  7 10  1  0
 10 11  1  0
 11 12  1  0
 12 13  1  0
 13 14  1  0
 12 15  1  0
 15 16  1  0
  3 17  1  0
  6 17  1  0
  2 18  1  0
 18 19  1  0
 19 20  1  0
 18 21  1  0
 20 22  1  0
 21 22  1  0
 22 23  1  0
 23 24  1  0
 24 25  1  0
 24 26  1  0
 26 27  1  0
 27 28  1  0
 27 29  1  0
 29 30  1  0
 30 31  1  0
 30 32  1  0
 32 33  1  0
 33 34  1  0
 34 35  1  0
 35 36  1  0
 36 37  1  0
 36 38  1  0
 38 39  1  0
 39 40  1  0
 40 41  1  0
 40 42  1  0
 42 43  1  0
 43 44  1  0
 43 45  1  0
 42 46  1  0
 17 47  1  0
 46 47  1  0
 47 48  1  0
 49 50  1  0
 50 51  1  0
 51 52  1  0
 52 53  1  0
 53 54  1  0
 54 55  1  0
 55 56  1  0
 55 57  1  0
 55 58  1  0
 58 59  1  0
 59 60  1  0
 60 61  1  0
 61 62  1  0
 60 63  1  0
 63 64  1  0
 51 65  1  0
 54 65  1  0
 50 66  1  0
 66 67  1  0
 67 68  1  0
 66 69  1  0
 68 70  1  0
 69 70  1  0
 70 71  1  0
 71 72  1  0
 72 73  1  0
 72 74  1  0
 74 75  1  0
 75 76  1  0
 75 77  1  0
 77 78  1  0
 78 79  1  0
 78 80  1  0
 80 81  1  0
 81 82  1  0
 82 83  1  0
 83 84  1  0
 84 85  1  0
 84 86  1  0
 86 87  1  0
 87 88  1  0
 88 89  1  0
 88 90  1  0
 90 91  1  0
 91 92  1  0
 91 93  1  0
 90 94  1  0
 65 95  1  0
 94 95  1  0
 95 96  1  0
 97 98  1  0
 98 99  1  0
 99100  1  0
100101  1  0
101102  1  0
102103  1  0
103104  1  0
103105  1  0
103106  1  0
106107  1  0
107108  1  0
108109  1  0
109110  1  0
108111  1  0
111112  1  0
 99113  1  0
102113  1  0
 98114  1  0
114115  1  0
115116  1  0
114117  1  0
116118  1  0
117118  1  0
118119  1  0
119120  1  0
120121  1  0
120122  1  0
122123  1  0
123124  1  0
123125  1  0
125126  1  0
126127  1  0
126128  1  0
128129  1  0
129130  1  0
130131  1  0
131132  1  0
132133  1  0
132134  1  0
134135  1  0
135136  1  0
136137  1  0
136138  1  0
138139  1  0
139140  1  0
139141  1  0
138142  1  0
113143  1  0
142143  1  0
143144  1  0
  1145  1  0
  2146  1  0
  4147  1  0
  4148  1  0
  5149  1  0
  5150  1  0
  6151  1  1
  8152  1  0
  9153  1  0
 10154  1  0
 10155  1  0
 11156  1  0
 11157  1  0
 13158  1  0
 13159  1  0
 14160  1  0
 14161  1  0
 14162  1  0
 15163  1  0
 15164  1  0
 16165  1  0
 16166  1  0
 16167  1  0
 17168  1  6
 18169  1  1
 19170  1  0
 19171  1  0
 21172  1  0
 22173  1  0
 23174  1  0
 23175  1  0
 24176  1  6
 25177  1  0
 26178  1  0
 26179  1  0
 27180  1  1
 28181  1  0
 29182  1  0
 29183  1  0
 30184  1  1
 31185  1  0
 31186  1  0
 31187  1  0
 32188  1  0
 32189  1  0
 33190  1  0
 33191  1  0
 34192  1  0
 34193  1  0
 35194  1  0
 36195  1  1
 37196  1  0
 38197  1  0
 38198  1  0
 39199  1  0
 39200  1  0
 40201  1  1
 41202  1  0
 41203  1  0
 41204  1  0
 42205  1  6
 43206  1  0
 44207  1  0
 44208  1  0
 44209  1  0
 45210  1  0
 45211  1  0
 45212  1  0
 47213  1  0
 48214  1  0
 49215  1  0
 50216  1  0
 52217  1  0
 52218  1  0
 53219  1  0
 53220  1  0
 54221  1  1
 56222  1  0
 57223  1  0
 58224  1  0
 58225  1  0
 59226  1  0
 59227  1  0
 61228  1  0
 61229  1  0
 62230  1  0
 62231  1  0
 62232  1  0
 63233  1  0
 63234  1  0
 64235  1  0
 64236  1  0
 64237  1  0
 65238  1  6
 66239  1  1
 67240  1  0
 67241  1  0
 69242  1  0
 70243  1  0
 71244  1  0
 71245  1  0
 72246  1  6
 73247  1  0
 74248  1  0
 74249  1  0
 75250  1  1
 76251  1  0
 77252  1  0
 77253  1  0
 78254  1  1
 79255  1  0
 79256  1  0
 79257  1  0
 80258  1  0
 80259  1  0
 81260  1  0
 81261  1  0
 82262  1  0
 82263  1  0
 83264  1  0
 84265  1  1
 85266  1  0
 86267  1  0
 86268  1  0
 87269  1  0
 87270  1  0
 88271  1  1
 89272  1  0
 89273  1  0
 89274  1  0
 90275  1  6
 91276  1  0
 92277  1  0
 92278  1  0
 92279  1  0
 93280  1  0
 93281  1  0
 93282  1  0
 95283  1  0
 96284  1  0
 97285  1  0
 98286  1  1
100287  1  0
100288  1  0
101289  1  0
101290  1  0
102291  1  1
104292  1  0
105293  1  0
106294  1  0
106295  1  0
107296  1  0
107297  1  0
109298  1  0
109299  1  0
110300  1  0
110301  1  0
110302  1  0
111303  1  0
111304  1  0
112305  1  0
112306  1  0
112307  1  0
113308  1  6
114309  1  6
115310  1  0
115311  1  0
117312  1  0
118313  1  6
119314  1  0
119315  1  0
120316  1  6
121317  1  0
122318  1  0
122319  1  0
123320  1  1
124321  1  0
125322  1  0
125323  1  0
126324  1  1
127325  1  0
127326  1  0
127327  1  0
128328  1  0
128329  1  0
129330  1  0
129331  1  0
130332  1  0
130333  1  0
131334  1  0
132335  1  1
133336  1  0
134337  1  0
134338  1  0
135339  1  0
135340  1  0
136341  1  1
137342  1  0
137343  1  0
137344  1  0
138345  1  6
139346  1  0
140347  1  0
140348  1  0
140349  1  0
141350  1  0
141351  1  0
141352  1  0
143353  1  0
144354  1  0
M  END
>  <PDBID>  (1) 
1MRL

>  <PDB ID>  (1) 
1MRL

>  <Generic Name>  (1) 
Dalfopristin

>  <Brand Name>  (1) 
Synercid

>  <DrugBank ID>  (1) 
DB01764

>  <ATC Codes>  (1) 
nan

>  <Ligand ID>  (1) 
DOL

>  <Target Name>  (1) 
Streptogramin A acetyltransferase

>  <UniProt ID>  (1) 
P50870

>  <PDB ID.1>  (1) 
1MRL

>  <Seq. Identity>  (1) 
100%

$$$$
