PDB_DB00293_06
     RDKit          3D

296304  0  0  0  0  0  0  0  0999 V2000
    6.7588   -0.3532    0.9531 N   0  0  0  0  0  0  0  0  0  0  0  0
    7.3613    0.7761    0.3128 C   0  0  0  0  0  0  0  0  0  0  0  0
    7.8381    1.7315    1.4009 C   0  0  0  0  0  0  0  0  0  0  0  0
    6.4448    1.4799   -0.5496 N   0  0  0  0  0  0  0  0  0  0  0  0
    5.9494    0.6070   -1.5933 C   0  0  0  0  0  0  0  0  0  0  0  0
    5.1851    1.3042   -2.5061 O   0  0  0  0  0  0  0  0  0  0  0  0
    5.1989   -0.5345   -0.9404 C   0  0  0  0  0  0  0  0  0  0  0  0
    3.9830   -0.0404   -0.1895 C   0  0  0  0  0  0  0  0  0  0  0  0
    3.2981   -1.2122    0.4609 C   0  0  0  0  0  0  0  0  0  0  0  0
    4.2275   -1.9153    1.4346 C   0  0  0  0  0  0  0  0  0  0  0  0
    5.4624   -2.3854    0.6931 C   0  0  0  0  0  0  0  0  0  0  0  0
    6.1483   -1.2226   -0.0060 C   0  0  0  0  0  0  0  0  0  0  0  0
    2.0826   -0.7517    1.2291 C   0  0  0  0  0  0  0  0  0  0  0  0
    1.1670   -0.1310    0.3319 N   0  0  0  0  0  0  0  0  0  0  0  0
   -2.6932    0.2795    0.3654 C   0  0  0  0  0  0  0  0  0  0  0  0
   -1.1732    1.1679   -0.1838 S   0  0  0  0  0  0  0  0  0  0  0  0
   -0.0111    0.3911    0.9897 C   0  0  0  0  0  0  0  0  0  0  0  0
   -0.8602   -0.6112    1.6737 C   0  0  0  0  0  0  0  0  0  0  0  0
   -2.0321   -0.9949    0.8372 C   0  0  0  0  0  0  0  0  0  0  0  0
   -3.5546    0.1219   -0.8471 C   0  0  0  0  0  0  0  0  0  0  0  0
   -2.7350   -0.6492   -1.7498 O   0  0  0  0  0  0  0  0  0  0  0  0
   -4.7370   -0.5530   -0.7218 N   0  0  0  0  0  0  0  0  0  0  0  0
   -5.8376   -0.2770    0.0442 C   0  0  1  0  0  0  0  0  0  0  0  0
   -6.6852    0.9326   -0.1779 C   0  0  0  0  0  0  0  0  0  0  0  0
   -6.0590    2.2649   -0.0405 C   0  0  0  0  0  0  0  0  0  0  0  0
   -7.0753    3.3923   -0.2567 C   0  0  0  0  0  0  0  0  0  0  0  0
   -8.1083    3.3265    0.6625 O   0  0  0  0  0  0  0  0  0  0  0  0
   -7.5130    3.4020   -1.5631 O   0  0  0  0  0  0  0  0  0  0  0  0
   -6.8072   -1.4828   -0.1681 C   0  0  0  0  0  0  0  0  0  0  0  0
   -7.9571   -1.3123    0.5578 O   0  0  0  0  0  0  0  0  0  0  0  0
   -6.1074   -2.6462    0.1627 O   0  0  0  0  0  0  0  0  0  0  0  0
    0.8286   -0.9741   -0.7979 C   0  0  0  0  0  0  0  0  0  0  0  0
    6.7588   -0.3532    0.9531 N   0  0  0  0  0  0  0  0  0  0  0  0
    7.3613    0.7761    0.3128 C   0  0  0  0  0  0  0  0  0  0  0  0
    7.8381    1.7315    1.4009 C   0  0  0  0  0  0  0  0  0  0  0  0
    6.4448    1.4799   -0.5496 N   0  0  0  0  0  0  0  0  0  0  0  0
    5.9494    0.6070   -1.5933 C   0  0  0  0  0  0  0  0  0  0  0  0
    5.1851    1.3042   -2.5061 O   0  0  0  0  0  0  0  0  0  0  0  0
    5.1989   -0.5345   -0.9404 C   0  0  0  0  0  0  0  0  0  0  0  0
    3.9830   -0.0404   -0.1895 C   0  0  0  0  0  0  0  0  0  0  0  0
    3.2981   -1.2122    0.4609 C   0  0  0  0  0  0  0  0  0  0  0  0
    4.2275   -1.9153    1.4346 C   0  0  0  0  0  0  0  0  0  0  0  0
    5.4624   -2.3854    0.6931 C   0  0  0  0  0  0  0  0  0  0  0  0
    6.1483   -1.2226   -0.0060 C   0  0  0  0  0  0  0  0  0  0  0  0
    2.0826   -0.7517    1.2291 C   0  0  0  0  0  0  0  0  0  0  0  0
    1.1670   -0.1310    0.3319 N   0  0  0  0  0  0  0  0  0  0  0  0
   -2.6932    0.2795    0.3654 C   0  0  0  0  0  0  0  0  0  0  0  0
   -1.1732    1.1679   -0.1838 S   0  0  0  0  0  0  0  0  0  0  0  0
   -0.0111    0.3911    0.9897 C   0  0  0  0  0  0  0  0  0  0  0  0
   -0.8602   -0.6112    1.6737 C   0  0  0  0  0  0  0  0  0  0  0  0
   -2.0321   -0.9949    0.8372 C   0  0  0  0  0  0  0  0  0  0  0  0
   -3.5546    0.1219   -0.8471 C   0  0  0  0  0  0  0  0  0  0  0  0
   -2.7350   -0.6492   -1.7498 O   0  0  0  0  0  0  0  0  0  0  0  0
   -4.7370   -0.5530   -0.7218 N   0  0  0  0  0  0  0  0  0  0  0  0
   -5.8376   -0.2770    0.0442 C   0  0  1  0  0  0  0  0  0  0  0  0
   -6.6852    0.9326   -0.1779 C   0  0  0  0  0  0  0  0  0  0  0  0
   -6.0590    2.2649   -0.0405 C   0  0  0  0  0  0  0  0  0  0  0  0
   -7.0753    3.3923   -0.2567 C   0  0  0  0  0  0  0  0  0  0  0  0
   -8.1083    3.3265    0.6625 O   0  0  0  0  0  0  0  0  0  0  0  0
   -7.5130    3.4020   -1.5631 O   0  0  0  0  0  0  0  0  0  0  0  0
   -6.8072   -1.4828   -0.1681 C   0  0  0  0  0  0  0  0  0  0  0  0
   -7.9571   -1.3123    0.5578 O   0  0  0  0  0  0  0  0  0  0  0  0
   -6.1074   -2.6462    0.1627 O   0  0  0  0  0  0  0  0  0  0  0  0
    0.8286   -0.9741   -0.7979 C   0  0  0  0  0  0  0  0  0  0  0  0
    6.7588   -0.3532    0.9531 N   0  0  0  0  0  0  0  0  0  0  0  0
    7.3613    0.7761    0.3128 C   0  0  0  0  0  0  0  0  0  0  0  0
    7.8381    1.7315    1.4009 C   0  0  0  0  0  0  0  0  0  0  0  0
    6.4448    1.4799   -0.5496 N   0  0  0  0  0  0  0  0  0  0  0  0
    5.9494    0.6070   -1.5933 C   0  0  0  0  0  0  0  0  0  0  0  0
    5.1851    1.3042   -2.5061 O   0  0  0  0  0  0  0  0  0  0  0  0
    5.1989   -0.5345   -0.9404 C   0  0  0  0  0  0  0  0  0  0  0  0
    3.9830   -0.0404   -0.1895 C   0  0  0  0  0  0  0  0  0  0  0  0
    3.2981   -1.2122    0.4609 C   0  0  0  0  0  0  0  0  0  0  0  0
    4.2275   -1.9153    1.4346 C   0  0  0  0  0  0  0  0  0  0  0  0
    5.4624   -2.3854    0.6931 C   0  0  0  0  0  0  0  0  0  0  0  0
    6.1483   -1.2226   -0.0060 C   0  0  0  0  0  0  0  0  0  0  0  0
    2.0826   -0.7517    1.2291 C   0  0  0  0  0  0  0  0  0  0  0  0
    1.1670   -0.1310    0.3319 N   0  0  0  0  0  0  0  0  0  0  0  0
   -2.6932    0.2795    0.3654 C   0  0  0  0  0  0  0  0  0  0  0  0
   -1.1732    1.1679   -0.1838 S   0  0  0  0  0  0  0  0  0  0  0  0
   -0.0111    0.3911    0.9897 C   0  0  0  0  0  0  0  0  0  0  0  0
   -0.8602   -0.6112    1.6737 C   0  0  0  0  0  0  0  0  0  0  0  0
   -2.0321   -0.9949    0.8372 C   0  0  0  0  0  0  0  0  0  0  0  0
   -3.5546    0.1219   -0.8471 C   0  0  0  0  0  0  0  0  0  0  0  0
   -2.7350   -0.6492   -1.7498 O   0  0  0  0  0  0  0  0  0  0  0  0
   -4.7370   -0.5530   -0.7218 N   0  0  0  0  0  0  0  0  0  0  0  0
   -5.8376   -0.2770    0.0442 C   0  0  1  0  0  0  0  0  0  0  0  0
   -6.6852    0.9326   -0.1779 C   0  0  0  0  0  0  0  0  0  0  0  0
   -6.0590    2.2649   -0.0405 C   0  0  0  0  0  0  0  0  0  0  0  0
   -7.0753    3.3923   -0.2567 C   0  0  0  0  0  0  0  0  0  0  0  0
   -8.1083    3.3265    0.6625 O   0  0  0  0  0  0  0  0  0  0  0  0
   -7.5130    3.4020   -1.5631 O   0  0  0  0  0  0  0  0  0  0  0  0
   -6.8072   -1.4828   -0.1681 C   0  0  0  0  0  0  0  0  0  0  0  0
   -7.9571   -1.3123    0.5578 O   0  0  0  0  0  0  0  0  0  0  0  0
   -6.1074   -2.6462    0.1627 O   0  0  0  0  0  0  0  0  0  0  0  0
    0.8286   -0.9741   -0.7979 C   0  0  0  0  0  0  0  0  0  0  0  0
    6.7588   -0.3532    0.9531 N   0  0  0  0  0  0  0  0  0  0  0  0
    7.3613    0.7761    0.3128 C   0  0  0  0  0  0  0  0  0  0  0  0
    7.8381    1.7315    1.4009 C   0  0  0  0  0  0  0  0  0  0  0  0
    6.4448    1.4799   -0.5496 N   0  0  0  0  0  0  0  0  0  0  0  0
    5.9494    0.6070   -1.5933 C   0  0  0  0  0  0  0  0  0  0  0  0
    5.1851    1.3042   -2.5061 O   0  0  0  0  0  0  0  0  0  0  0  0
    5.1989   -0.5345   -0.9404 C   0  0  0  0  0  0  0  0  0  0  0  0
    3.9830   -0.0404   -0.1895 C   0  0  0  0  0  0  0  0  0  0  0  0
    3.2981   -1.2122    0.4609 C   0  0  0  0  0  0  0  0  0  0  0  0
    4.2275   -1.9153    1.4346 C   0  0  0  0  0  0  0  0  0  0  0  0
    5.4624   -2.3854    0.6931 C   0  0  0  0  0  0  0  0  0  0  0  0
    6.1483   -1.2226   -0.0060 C   0  0  0  0  0  0  0  0  0  0  0  0
    2.0826   -0.7517    1.2291 C   0  0  0  0  0  0  0  0  0  0  0  0
    1.1670   -0.1310    0.3319 N   0  0  0  0  0  0  0  0  0  0  0  0
   -2.6932    0.2795    0.3654 C   0  0  0  0  0  0  0  0  0  0  0  0
   -1.1732    1.1679   -0.1838 S   0  0  0  0  0  0  0  0  0  0  0  0
   -0.0111    0.3911    0.9897 C   0  0  0  0  0  0  0  0  0  0  0  0
   -0.8602   -0.6112    1.6737 C   0  0  0  0  0  0  0  0  0  0  0  0
   -2.0321   -0.9949    0.8372 C   0  0  0  0  0  0  0  0  0  0  0  0
   -3.5546    0.1219   -0.8471 C   0  0  0  0  0  0  0  0  0  0  0  0
   -2.7350   -0.6492   -1.7498 O   0  0  0  0  0  0  0  0  0  0  0  0
   -4.7370   -0.5530   -0.7218 N   0  0  0  0  0  0  0  0  0  0  0  0
   -5.8376   -0.2770    0.0442 C   0  0  1  0  0  0  0  0  0  0  0  0
   -6.6852    0.9326   -0.1779 C   0  0  0  0  0  0  0  0  0  0  0  0
   -6.0590    2.2649   -0.0405 C   0  0  0  0  0  0  0  0  0  0  0  0
   -7.0753    3.3923   -0.2567 C   0  0  0  0  0  0  0  0  0  0  0  0
   -8.1083    3.3265    0.6625 O   0  0  0  0  0  0  0  0  0  0  0  0
   -7.5130    3.4020   -1.5631 O   0  0  0  0  0  0  0  0  0  0  0  0
   -6.8072   -1.4828   -0.1681 C   0  0  0  0  0  0  0  0  0  0  0  0
   -7.9571   -1.3123    0.5578 O   0  0  0  0  0  0  0  0  0  0  0  0
   -6.1074   -2.6462    0.1627 O   0  0  0  0  0  0  0  0  0  0  0  0
    0.8286   -0.9741   -0.7979 C   0  0  0  0  0  0  0  0  0  0  0  0
    6.1424   -0.0559    1.7327 H   0  0  0  0  0  0  0  0  0  0  0  0
    8.2437    0.4717   -0.2923 H   0  0  0  0  0  0  0  0  0  0  0  0
    7.4733    2.7649    1.2337 H   0  0  0  0  0  0  0  0  0  0  0  0
    7.4326    1.4257    2.4080 H   0  0  0  0  0  0  0  0  0  0  0  0
    8.9420    1.7051    1.4851 H   0  0  0  0  0  0  0  0  0  0  0  0
    5.6993    1.9713   -0.0323 H   0  0  0  0  0  0  0  0  0  0  0  0
    6.8415    0.1576   -2.0783 H   0  0  0  0  0  0  0  0  0  0  0  0
    5.7409    1.4934   -3.3099 H   0  0  0  0  0  0  0  0  0  0  0  0
    4.8930   -1.2396   -1.7155 H   0  0  0  0  0  0  0  0  0  0  0  0
    3.3228    0.4777   -0.8838 H   0  0  0  0  0  0  0  0  0  0  0  0
    4.2799    0.6515    0.6300 H   0  0  0  0  0  0  0  0  0  0  0  0
    3.0154   -1.9654   -0.3210 H   0  0  0  0  0  0  0  0  0  0  0  0
    4.5329   -1.2573    2.2520 H   0  0  0  0  0  0  0  0  0  0  0  0
    3.6998   -2.8064    1.8100 H   0  0  0  0  0  0  0  0  0  0  0  0
    6.1467   -2.8178    1.4459 H   0  0  0  0  0  0  0  0  0  0  0  0
    5.1930   -3.1253   -0.0701 H   0  0  0  0  0  0  0  0  0  0  0  0
    6.9649   -1.6698   -0.6225 H   0  0  0  0  0  0  0  0  0  0  0  0
    1.6678   -1.6548    1.7261 H   0  0  0  0  0  0  0  0  0  0  0  0
    2.4163    0.0001    1.9745 H   0  0  0  0  0  0  0  0  0  0  0  0
   -3.0941    0.8472    1.1904 H   0  0  0  0  0  0  0  0  0  0  0  0
    0.3074    1.1903    1.7121 H   0  0  0  0  0  0  0  0  0  0  0  0
   -0.3362   -1.5524    1.9452 H   0  0  0  0  0  0  0  0  0  0  0  0
   -1.2406   -0.1420    2.6318 H   0  0  0  0  0  0  0  0  0  0  0  0
   -1.7546   -1.6695    0.0335 H   0  0  0  0  0  0  0  0  0  0  0  0
   -2.7732   -1.4864    1.5239 H   0  0  0  0  0  0  0  0  0  0  0  0
   -3.5967    1.0935   -1.3705 H   0  0  0  0  0  0  0  0  0  0  0  0
   -2.9799   -1.5855   -1.5775 H   0  0  0  0  0  0  0  0  0  0  0  0
   -4.9813   -1.0969   -1.5793 H   0  0  0  0  0  0  0  0  0  0  0  0
   -5.6525   -0.3828    1.1712 H   0  0  0  0  0  0  0  0  0  0  0  0
   -7.1856    0.8936   -1.2023 H   0  0  0  0  0  0  0  0  0  0  0  0
   -7.5844    0.9372    0.5100 H   0  0  0  0  0  0  0  0  0  0  0  0
   -5.5607    2.4275    0.9351 H   0  0  0  0  0  0  0  0  0  0  0  0
   -5.3134    2.4158   -0.8454 H   0  0  0  0  0  0  0  0  0  0  0  0
   -6.5201    4.3316   -0.0761 H   0  0  0  0  0  0  0  0  0  0  0  0
   -8.4683    4.2528    0.7786 H   0  0  0  0  0  0  0  0  0  0  0  0
   -8.1298    2.6372   -1.6920 H   0  0  0  0  0  0  0  0  0  0  0  0
   -7.0681   -1.5322   -1.2426 H   0  0  0  0  0  0  0  0  0  0  0  0
   -8.2166   -2.2090    0.9141 H   0  0  0  0  0  0  0  0  0  0  0  0
   -6.6749   -3.3795    0.4685 H   0  0  0  0  0  0  0  0  0  0  0  0
   -0.0391   -0.5934   -1.3601 H   0  0  0  0  0  0  0  0  0  0  0  0
    0.5822   -1.9742   -0.3864 H   0  0  0  0  0  0  0  0  0  0  0  0
    1.6450   -1.0801   -1.5256 H   0  0  0  0  0  0  0  0  0  0  0  0
    6.1424   -0.0559    1.7327 H   0  0  0  0  0  0  0  0  0  0  0  0
    8.2437    0.4717   -0.2923 H   0  0  0  0  0  0  0  0  0  0  0  0
    7.4733    2.7649    1.2337 H   0  0  0  0  0  0  0  0  0  0  0  0
    7.4326    1.4257    2.4080 H   0  0  0  0  0  0  0  0  0  0  0  0
    8.9420    1.7051    1.4851 H   0  0  0  0  0  0  0  0  0  0  0  0
    5.6993    1.9713   -0.0323 H   0  0  0  0  0  0  0  0  0  0  0  0
    6.8415    0.1576   -2.0783 H   0  0  0  0  0  0  0  0  0  0  0  0
    5.7409    1.4934   -3.3099 H   0  0  0  0  0  0  0  0  0  0  0  0
    4.8930   -1.2396   -1.7155 H   0  0  0  0  0  0  0  0  0  0  0  0
    3.3228    0.4777   -0.8838 H   0  0  0  0  0  0  0  0  0  0  0  0
    4.2799    0.6515    0.6300 H   0  0  0  0  0  0  0  0  0  0  0  0
    3.0154   -1.9654   -0.3210 H   0  0  0  0  0  0  0  0  0  0  0  0
    4.5329   -1.2573    2.2520 H   0  0  0  0  0  0  0  0  0  0  0  0
    3.6998   -2.8064    1.8100 H   0  0  0  0  0  0  0  0  0  0  0  0
    6.1467   -2.8178    1.4459 H   0  0  0  0  0  0  0  0  0  0  0  0
    5.1930   -3.1253   -0.0701 H   0  0  0  0  0  0  0  0  0  0  0  0
    6.9649   -1.6698   -0.6225 H   0  0  0  0  0  0  0  0  0  0  0  0
    1.6678   -1.6548    1.7261 H   0  0  0  0  0  0  0  0  0  0  0  0
    2.4163    0.0001    1.9745 H   0  0  0  0  0  0  0  0  0  0  0  0
   -3.0941    0.8472    1.1904 H   0  0  0  0  0  0  0  0  0  0  0  0
    0.3074    1.1903    1.7121 H   0  0  0  0  0  0  0  0  0  0  0  0
   -0.3362   -1.5524    1.9452 H   0  0  0  0  0  0  0  0  0  0  0  0
   -1.2406   -0.1420    2.6318 H   0  0  0  0  0  0  0  0  0  0  0  0
   -1.7546   -1.6695    0.0335 H   0  0  0  0  0  0  0  0  0  0  0  0
   -2.7732   -1.4864    1.5239 H   0  0  0  0  0  0  0  0  0  0  0  0
   -3.5967    1.0935   -1.3705 H   0  0  0  0  0  0  0  0  0  0  0  0
   -2.9799   -1.5855   -1.5775 H   0  0  0  0  0  0  0  0  0  0  0  0
   -4.9813   -1.0969   -1.5793 H   0  0  0  0  0  0  0  0  0  0  0  0
   -5.6525   -0.3828    1.1712 H   0  0  0  0  0  0  0  0  0  0  0  0
   -7.1856    0.8936   -1.2023 H   0  0  0  0  0  0  0  0  0  0  0  0
   -7.5844    0.9372    0.5100 H   0  0  0  0  0  0  0  0  0  0  0  0
   -5.5607    2.4275    0.9351 H   0  0  0  0  0  0  0  0  0  0  0  0
   -5.3134    2.4158   -0.8454 H   0  0  0  0  0  0  0  0  0  0  0  0
   -6.5201    4.3316   -0.0761 H   0  0  0  0  0  0  0  0  0  0  0  0
   -8.4683    4.2528    0.7786 H   0  0  0  0  0  0  0  0  0  0  0  0
   -8.1298    2.6372   -1.6920 H   0  0  0  0  0  0  0  0  0  0  0  0
   -7.0681   -1.5322   -1.2426 H   0  0  0  0  0  0  0  0  0  0  0  0
   -8.2166   -2.2090    0.9141 H   0  0  0  0  0  0  0  0  0  0  0  0
   -6.6749   -3.3795    0.4685 H   0  0  0  0  0  0  0  0  0  0  0  0
   -0.0391   -0.5934   -1.3601 H   0  0  0  0  0  0  0  0  0  0  0  0
    0.5822   -1.9742   -0.3864 H   0  0  0  0  0  0  0  0  0  0  0  0
    1.6450   -1.0801   -1.5256 H   0  0  0  0  0  0  0  0  0  0  0  0
    6.1424   -0.0559    1.7327 H   0  0  0  0  0  0  0  0  0  0  0  0
    8.2437    0.4717   -0.2923 H   0  0  0  0  0  0  0  0  0  0  0  0
    7.4733    2.7649    1.2337 H   0  0  0  0  0  0  0  0  0  0  0  0
    7.4326    1.4257    2.4080 H   0  0  0  0  0  0  0  0  0  0  0  0
    8.9420    1.7051    1.4851 H   0  0  0  0  0  0  0  0  0  0  0  0
    5.6993    1.9713   -0.0323 H   0  0  0  0  0  0  0  0  0  0  0  0
    6.8415    0.1576   -2.0783 H   0  0  0  0  0  0  0  0  0  0  0  0
    5.7409    1.4934   -3.3099 H   0  0  0  0  0  0  0  0  0  0  0  0
    4.8930   -1.2396   -1.7155 H   0  0  0  0  0  0  0  0  0  0  0  0
    3.3228    0.4777   -0.8838 H   0  0  0  0  0  0  0  0  0  0  0  0
    4.2799    0.6515    0.6300 H   0  0  0  0  0  0  0  0  0  0  0  0
    3.0154   -1.9654   -0.3210 H   0  0  0  0  0  0  0  0  0  0  0  0
    4.5329   -1.2573    2.2520 H   0  0  0  0  0  0  0  0  0  0  0  0
    3.6998   -2.8064    1.8100 H   0  0  0  0  0  0  0  0  0  0  0  0
    6.1467   -2.8178    1.4459 H   0  0  0  0  0  0  0  0  0  0  0  0
    5.1930   -3.1253   -0.0701 H   0  0  0  0  0  0  0  0  0  0  0  0
    6.9649   -1.6698   -0.6225 H   0  0  0  0  0  0  0  0  0  0  0  0
    1.6678   -1.6548    1.7261 H   0  0  0  0  0  0  0  0  0  0  0  0
    2.4163    0.0001    1.9745 H   0  0  0  0  0  0  0  0  0  0  0  0
   -3.0941    0.8472    1.1904 H   0  0  0  0  0  0  0  0  0  0  0  0
    0.3074    1.1903    1.7121 H   0  0  0  0  0  0  0  0  0  0  0  0
   -0.3362   -1.5524    1.9452 H   0  0  0  0  0  0  0  0  0  0  0  0
   -1.2406   -0.1420    2.6318 H   0  0  0  0  0  0  0  0  0  0  0  0
   -1.7546   -1.6695    0.0335 H   0  0  0  0  0  0  0  0  0  0  0  0
   -2.7732   -1.4864    1.5239 H   0  0  0  0  0  0  0  0  0  0  0  0
   -3.5967    1.0935   -1.3705 H   0  0  0  0  0  0  0  0  0  0  0  0
   -2.9799   -1.5855   -1.5775 H   0  0  0  0  0  0  0  0  0  0  0  0
   -4.9813   -1.0969   -1.5793 H   0  0  0  0  0  0  0  0  0  0  0  0
   -5.6525   -0.3828    1.1712 H   0  0  0  0  0  0  0  0  0  0  0  0
   -7.1856    0.8936   -1.2023 H   0  0  0  0  0  0  0  0  0  0  0  0
   -7.5844    0.9372    0.5100 H   0  0  0  0  0  0  0  0  0  0  0  0
   -5.5607    2.4275    0.9351 H   0  0  0  0  0  0  0  0  0  0  0  0
   -5.3134    2.4158   -0.8454 H   0  0  0  0  0  0  0  0  0  0  0  0
   -6.5201    4.3316   -0.0761 H   0  0  0  0  0  0  0  0  0  0  0  0
   -8.4683    4.2528    0.7786 H   0  0  0  0  0  0  0  0  0  0  0  0
   -8.1298    2.6372   -1.6920 H   0  0  0  0  0  0  0  0  0  0  0  0
   -7.0681   -1.5322   -1.2426 H   0  0  0  0  0  0  0  0  0  0  0  0
   -8.2166   -2.2090    0.9141 H   0  0  0  0  0  0  0  0  0  0  0  0
   -6.6749   -3.3795    0.4685 H   0  0  0  0  0  0  0  0  0  0  0  0
   -0.0391   -0.5934   -1.3601 H   0  0  0  0  0  0  0  0  0  0  0  0
    0.5822   -1.9742   -0.3864 H   0  0  0  0  0  0  0  0  0  0  0  0
    1.6450   -1.0801   -1.5256 H   0  0  0  0  0  0  0  0  0  0  0  0
    6.1424   -0.0559    1.7327 H   0  0  0  0  0  0  0  0  0  0  0  0
    8.2437    0.4717   -0.2923 H   0  0  0  0  0  0  0  0  0  0  0  0
    7.4733    2.7649    1.2337 H   0  0  0  0  0  0  0  0  0  0  0  0
    7.4326    1.4257    2.4080 H   0  0  0  0  0  0  0  0  0  0  0  0
    8.9420    1.7051    1.4851 H   0  0  0  0  0  0  0  0  0  0  0  0
    5.6993    1.9713   -0.0323 H   0  0  0  0  0  0  0  0  0  0  0  0
    6.8415    0.1576   -2.0783 H   0  0  0  0  0  0  0  0  0  0  0  0
    5.7409    1.4934   -3.3099 H   0  0  0  0  0  0  0  0  0  0  0  0
    4.8930   -1.2396   -1.7155 H   0  0  0  0  0  0  0  0  0  0  0  0
    3.3228    0.4777   -0.8838 H   0  0  0  0  0  0  0  0  0  0  0  0
    4.2799    0.6515    0.6300 H   0  0  0  0  0  0  0  0  0  0  0  0
    3.0154   -1.9654   -0.3210 H   0  0  0  0  0  0  0  0  0  0  0  0
    4.5329   -1.2573    2.2520 H   0  0  0  0  0  0  0  0  0  0  0  0
    3.6998   -2.8064    1.8100 H   0  0  0  0  0  0  0  0  0  0  0  0
    6.1467   -2.8178    1.4459 H   0  0  0  0  0  0  0  0  0  0  0  0
    5.1930   -3.1253   -0.0701 H   0  0  0  0  0  0  0  0  0  0  0  0
    6.9649   -1.6698   -0.6225 H   0  0  0  0  0  0  0  0  0  0  0  0
    1.6678   -1.6548    1.7261 H   0  0  0  0  0  0  0  0  0  0  0  0
    2.4163    0.0001    1.9745 H   0  0  0  0  0  0  0  0  0  0  0  0
   -3.0941    0.8472    1.1904 H   0  0  0  0  0  0  0  0  0  0  0  0
    0.3074    1.1903    1.7121 H   0  0  0  0  0  0  0  0  0  0  0  0
   -0.3362   -1.5524    1.9452 H   0  0  0  0  0  0  0  0  0  0  0  0
   -1.2406   -0.1420    2.6318 H   0  0  0  0  0  0  0  0  0  0  0  0
   -1.7546   -1.6695    0.0335 H   0  0  0  0  0  0  0  0  0  0  0  0
   -2.7732   -1.4864    1.5239 H   0  0  0  0  0  0  0  0  0  0  0  0
   -3.5967    1.0935   -1.3705 H   0  0  0  0  0  0  0  0  0  0  0  0
   -2.9799   -1.5855   -1.5775 H   0  0  0  0  0  0  0  0  0  0  0  0
   -4.9813   -1.0969   -1.5793 H   0  0  0  0  0  0  0  0  0  0  0  0
   -5.6525   -0.3828    1.1712 H   0  0  0  0  0  0  0  0  0  0  0  0
   -7.1856    0.8936   -1.2023 H   0  0  0  0  0  0  0  0  0  0  0  0
   -7.5844    0.9372    0.5100 H   0  0  0  0  0  0  0  0  0  0  0  0
   -5.5607    2.4275    0.9351 H   0  0  0  0  0  0  0  0  0  0  0  0
   -5.3134    2.4158   -0.8454 H   0  0  0  0  0  0  0  0  0  0  0  0
   -6.5201    4.3316   -0.0761 H   0  0  0  0  0  0  0  0  0  0  0  0
   -8.4683    4.2528    0.7786 H   0  0  0  0  0  0  0  0  0  0  0  0
   -8.1298    2.6372   -1.6920 H   0  0  0  0  0  0  0  0  0  0  0  0
   -7.0681   -1.5322   -1.2426 H   0  0  0  0  0  0  0  0  0  0  0  0
   -8.2166   -2.2090    0.9141 H   0  0  0  0  0  0  0  0  0  0  0  0
   -6.6749   -3.3795    0.4685 H   0  0  0  0  0  0  0  0  0  0  0  0
   -0.0391   -0.5934   -1.3601 H   0  0  0  0  0  0  0  0  0  0  0  0
    0.5822   -1.9742   -0.3864 H   0  0  0  0  0  0  0  0  0  0  0  0
    1.6450   -1.0801   -1.5256 H   0  0  0  0  0  0  0  0  0  0  0  0
  1  2  1  0
  2  3  1  0
  2  4  1  0
  4  5  1  0
  5  6  1  0
  5  7  1  0
  7  8  1  0
  8  9  1  0
  9 10  1  0
 10 11  1  0
  1 12  1  0
  7 12  1  0
 11 12  1  0
  9 13  1  0
 13 14  1  0
 15 16  1  0
 14 17  1  0
 16 17  1  0
 17 18  1  0
 15 19  1  0
 18 19  1  0
 15 20  1  0
 20 21  1  0
 20 22  1  0
 22 23  1  0
 23 24  1  0
 24 25  1  0
 25 26  1  0
 26 27  1  0
 26 28  1  0
 23 29  1  0
 29 30  1  0
 29 31  1  0
 14 32  1  0
 33 34  1  0
 34 35  1  0
 34 36  1  0
 36 37  1  0
 37 38  1  0
 37 39  1  0
 39 40  1  0
 40 41  1  0
 41 42  1  0
 42 43  1  0
 33 44  1  0
 39 44  1  0
 43 44  1  0
 41 45  1  0
 45 46  1  0
 47 48  1  0
 46 49  1  0
 48 49  1  0
 49 50  1  0
 47 51  1  0
 50 51  1  0
 47 52  1  0
 52 53  1  0
 52 54  1  0
 54 55  1  0
 55 56  1  0
 56 57  1  0
 57 58  1  0
 58 59  1  0
 58 60  1  0
 55 61  1  0
 61 62  1  0
 61 63  1  0
 46 64  1  0
 65 66  1  0
 66 67  1  0
 66 68  1  0
 68 69  1  0
 69 70  1  0
 69 71  1  0
 71 72  1  0
 72 73  1  0
 73 74  1  0
 74 75  1  0
 65 76  1  0
 71 76  1  0
 75 76  1  0
 73 77  1  0
 77 78  1  0
 79 80  1  0
 78 81  1  0
 80 81  1  0
 81 82  1  0
 79 83  1  0
 82 83  1  0
 79 84  1  0
 84 85  1  0
 84 86  1  0
 86 87  1  0
 87 88  1  0
 88 89  1  0
 89 90  1  0
 90 91  1  0
 90 92  1  0
 87 93  1  0
 93 94  1  0
 93 95  1  0
 78 96  1  0
 97 98  1  0
 98 99  1  0
 98100  1  0
100101  1  0
101102  1  0
101103  1  0
103104  1  0
104105  1  0
105106  1  0
106107  1  0
 97108  1  0
103108  1  0
107108  1  0
105109  1  0
109110  1  0
111112  1  0
110113  1  0
112113  1  0
113114  1  0
111115  1  0
114115  1  0
111116  1  0
116117  1  0
116118  1  0
118119  1  0
119120  1  0
120121  1  0
121122  1  0
122123  1  0
122124  1  0
119125  1  0
125126  1  0
125127  1  0
110128  1  0
  1129  1  0
  2130  1  0
  3131  1  0
  3132  1  0
  3133  1  0
  4134  1  0
  5135  1  0
  6136  1  0
  7137  1  0
  8138  1  0
  8139  1  0
  9140  1  0
 10141  1  0
 10142  1  0
 11143  1  0
 11144  1  0
 12145  1  0
 13146  1  0
 13147  1  0
 15148  1  0
 17149  1  0
 18150  1  0
 18151  1  0
 19152  1  0
 19153  1  0
 20154  1  0
 21155  1  0
 22156  1  0
 23157  1  1
 24158  1  0
 24159  1  0
 25160  1  0
 25161  1  0
 26162  1  0
 27163  1  0
 28164  1  0
 29165  1  0
 30166  1  0
 31167  1  0
 32168  1  0
 32169  1  0
 32170  1  0
 33171  1  0
 34172  1  0
 35173  1  0
 35174  1  0
 35175  1  0
 36176  1  0
 37177  1  0
 38178  1  0
 39179  1  0
 40180  1  0
 40181  1  0
 41182  1  0
 42183  1  0
 42184  1  0
 43185  1  0
 43186  1  0
 44187  1  0
 45188  1  0
 45189  1  0
 47190  1  0
 49191  1  0
 50192  1  0
 50193  1  0
 51194  1  0
 51195  1  0
 52196  1  0
 53197  1  0
 54198  1  0
 55199  1  1
 56200  1  0
 56201  1  0
 57202  1  0
 57203  1  0
 58204  1  0
 59205  1  0
 60206  1  0
 61207  1  0
 62208  1  0
 63209  1  0
 64210  1  0
 64211  1  0
 64212  1  0
 65213  1  0
 66214  1  0
 67215  1  0
 67216  1  0
 67217  1  0
 68218  1  0
 69219  1  0
 70220  1  0
 71221  1  0
 72222  1  0
 72223  1  0
 73224  1  0
 74225  1  0
 74226  1  0
 75227  1  0
 75228  1  0
 76229  1  0
 77230  1  0
 77231  1  0
 79232  1  0
 81233  1  0
 82234  1  0
 82235  1  0
 83236  1  0
 83237  1  0
 84238  1  0
 85239  1  0
 86240  1  0
 87241  1  1
 88242  1  0
 88243  1  0
 89244  1  0
 89245  1  0
 90246  1  0
 91247  1  0
 92248  1  0
 93249  1  0
 94250  1  0
 95251  1  0
 96252  1  0
 96253  1  0
 96254  1  0
 97255  1  0
 98256  1  0
 99257  1  0
 99258  1  0
 99259  1  0
100260  1  0
101261  1  0
102262  1  0
103263  1  0
104264  1  0
104265  1  0
105266  1  0
106267  1  0
106268  1  0
107269  1  0
107270  1  0
108271  1  0
109272  1  0
109273  1  0
111274  1  0
113275  1  0
114276  1  0
114277  1  0
115278  1  0
115279  1  0
116280  1  0
117281  1  0
118282  1  0
119283  1  1
120284  1  0
120285  1  0
121286  1  0
121287  1  0
122288  1  0
123289  1  0
124290  1  0
125291  1  0
126292  1  0
127293  1  0
128294  1  0
128295  1  0
128296  1  0
M  END
>  <PDBID>  (1) 
1HVY

>  <PDB ID>  (1) 
1HVY

>  <Generic Name>  (1) 
Raltitrexed

>  <Brand Name>  (1) 
Tomudex

>  <DrugBank ID>  (1) 
DB00293

>  <ATC Codes>  (1) 
L01BA03

>  <Ligand ID>  (1) 
D16

>  <Target Name>  (1) 
Thymidylate synthase

>  <UniProt ID>  (1) 
P04818

>  <PDB ID.1>  (1) 
1HVY

>  <Seq. Identity>  (1) 
100%

$$$$
