PDB_DB06603_03
     RDKit          3D

134138  0  0  0  0  0  0  0  0999 V2000
    8.3704    0.3801    1.7397 O   0  0  0  0  0  0  0  0  0  0  0  0
    8.0990    0.3328    0.3811 C   0  0  0  0  0  0  0  0  0  0  0  0
    9.1497   -0.4489   -0.3004 N   0  0  0  0  0  0  0  0  0  0  0  0
    9.1422   -1.6990    0.2588 O   0  0  0  0  0  0  0  0  0  0  0  0
    6.7823   -0.3740    0.2185 C   0  0  0  0  0  0  0  0  0  0  0  0
    5.6715    0.3658    0.9467 C   0  0  0  0  0  0  0  0  0  0  0  0
    4.3422   -0.3479    0.7213 C   0  0  0  0  0  0  0  0  0  0  0  0
    3.2644    0.3879    1.4523 C   0  0  0  0  0  0  0  0  0  0  0  0
    1.8647   -0.0727    1.0150 C   0  0  0  0  0  0  0  0  0  0  0  0
    4.1132   -0.3141   -0.7841 C   0  0  0  0  0  0  0  0  0  0  0  0
    2.7208   -0.5287   -1.1787 C   0  0  0  0  0  0  0  0  0  0  0  0
    1.7172    0.3905   -0.4028 C   0  0  0  0  0  0  0  0  0  0  0  0
    0.4428    0.2247   -1.0951 C   0  0  0  0  0  0  0  0  0  0  0  0
   -0.7118    0.8502   -0.4890 N   0  0  0  0  0  0  0  0  0  0  0  0
   -1.7420    0.9756   -1.4764 C   0  0  0  0  0  0  0  0  0  0  0  0
   -3.1288    1.1928   -1.1513 C   0  0  0  0  0  0  0  0  0  0  0  0
   -3.9849    0.1664   -0.5350 C   0  0  0  0  0  0  0  0  0  0  0  0
   -5.4357    0.7347   -0.3955 C   0  0  0  0  0  0  0  0  0  0  0  0
   -5.7678    0.6902    1.0413 C   0  0  0  0  0  0  0  0  0  0  0  0
   -4.4436    0.7678    1.6513 N   0  0  0  0  0  0  0  0  0  0  0  0
   -3.7510   -0.2369    0.8533 C   0  0  0  0  0  0  0  0  0  0  0  0
   -2.3969   -0.5881    1.3351 C   0  0  0  0  0  0  0  0  0  0  0  0
   -6.4911   -0.4804    1.5425 C   0  0  0  0  0  0  0  0  0  0  0  0
   -7.0434   -1.4187    0.5094 C   0  0  0  0  0  0  0  0  0  0  0  0
   -7.5390   -0.6181   -0.6606 C   0  0  0  0  0  0  0  0  0  0  0  0
   -6.3489    0.0120   -1.3090 C   0  0  0  0  0  0  0  0  0  0  0  0
    8.3704    0.3801    1.7397 O   0  0  0  0  0  0  0  0  0  0  0  0
    8.0990    0.3328    0.3811 C   0  0  0  0  0  0  0  0  0  0  0  0
    9.1497   -0.4489   -0.3004 N   0  0  0  0  0  0  0  0  0  0  0  0
    9.1422   -1.6990    0.2588 O   0  0  0  0  0  0  0  0  0  0  0  0
    6.7823   -0.3740    0.2185 C   0  0  0  0  0  0  0  0  0  0  0  0
    5.6715    0.3658    0.9467 C   0  0  0  0  0  0  0  0  0  0  0  0
    4.3422   -0.3479    0.7213 C   0  0  0  0  0  0  0  0  0  0  0  0
    3.2644    0.3879    1.4523 C   0  0  0  0  0  0  0  0  0  0  0  0
    1.8647   -0.0727    1.0150 C   0  0  0  0  0  0  0  0  0  0  0  0
    4.1132   -0.3141   -0.7841 C   0  0  0  0  0  0  0  0  0  0  0  0
    2.7208   -0.5287   -1.1787 C   0  0  0  0  0  0  0  0  0  0  0  0
    1.7172    0.3905   -0.4028 C   0  0  0  0  0  0  0  0  0  0  0  0
    0.4428    0.2247   -1.0951 C   0  0  0  0  0  0  0  0  0  0  0  0
   -0.7118    0.8502   -0.4890 N   0  0  0  0  0  0  0  0  0  0  0  0
   -1.7420    0.9756   -1.4764 C   0  0  0  0  0  0  0  0  0  0  0  0
   -3.1288    1.1928   -1.1513 C   0  0  0  0  0  0  0  0  0  0  0  0
   -3.9849    0.1664   -0.5350 C   0  0  0  0  0  0  0  0  0  0  0  0
   -5.4357    0.7347   -0.3955 C   0  0  0  0  0  0  0  0  0  0  0  0
   -5.7678    0.6902    1.0413 C   0  0  0  0  0  0  0  0  0  0  0  0
   -4.4436    0.7678    1.6513 N   0  0  0  0  0  0  0  0  0  0  0  0
   -3.7510   -0.2369    0.8533 C   0  0  0  0  0  0  0  0  0  0  0  0
   -2.3969   -0.5881    1.3351 C   0  0  0  0  0  0  0  0  0  0  0  0
   -6.4911   -0.4804    1.5425 C   0  0  0  0  0  0  0  0  0  0  0  0
   -7.0434   -1.4187    0.5094 C   0  0  0  0  0  0  0  0  0  0  0  0
   -7.5390   -0.6181   -0.6606 C   0  0  0  0  0  0  0  0  0  0  0  0
   -6.3489    0.0120   -1.3090 C   0  0  0  0  0  0  0  0  0  0  0  0
    8.7097    1.2858    1.9767 H   0  0  0  0  0  0  0  0  0  0  0  0
    8.0564    1.3607   -0.0894 H   0  0  0  0  0  0  0  0  0  0  0  0
    8.8618   -0.5159   -1.2984 H   0  0  0  0  0  0  0  0  0  0  0  0
    8.5721   -2.2825   -0.3342 H   0  0  0  0  0  0  0  0  0  0  0  0
    6.9277   -1.3931    0.6266 H   0  0  0  0  0  0  0  0  0  0  0  0
    6.5817   -0.4905   -0.8548 H   0  0  0  0  0  0  0  0  0  0  0  0
    5.8932    0.4777    2.0155 H   0  0  0  0  0  0  0  0  0  0  0  0
    5.5687    1.3655    0.4931 H   0  0  0  0  0  0  0  0  0  0  0  0
    4.4640   -1.3739    1.0919 H   0  0  0  0  0  0  0  0  0  0  0  0
    3.3201    1.4705    1.2534 H   0  0  0  0  0  0  0  0  0  0  0  0
    3.3470    0.1947    2.5274 H   0  0  0  0  0  0  0  0  0  0  0  0
    1.1748    0.4364    1.7219 H   0  0  0  0  0  0  0  0  0  0  0  0
    1.8237   -1.1723    1.0665 H   0  0  0  0  0  0  0  0  0  0  0  0
    4.5163    0.5979   -1.2465 H   0  0  0  0  0  0  0  0  0  0  0  0
    4.7093   -1.1781   -1.1805 H   0  0  0  0  0  0  0  0  0  0  0  0
    2.5744   -0.2724   -2.2238 H   0  0  0  0  0  0  0  0  0  0  0  0
    2.3542   -1.5773   -1.0097 H   0  0  0  0  0  0  0  0  0  0  0  0
    2.1442    1.4088   -0.5111 H   0  0  0  0  0  0  0  0  0  0  0  0
    0.2056   -0.8564   -1.2899 H   0  0  0  0  0  0  0  0  0  0  0  0
    0.5458    0.7404   -2.1051 H   0  0  0  0  0  0  0  0  0  0  0  0
   -0.4180    1.8110   -0.1334 H   0  0  0  0  0  0  0  0  0  0  0  0
   -1.3463    1.8026   -2.1823 H   0  0  0  0  0  0  0  0  0  0  0  0
   -1.6795    0.0100   -2.1001 H   0  0  0  0  0  0  0  0  0  0  0  0
   -3.2259    2.1866   -0.5628 H   0  0  0  0  0  0  0  0  0  0  0  0
   -3.6780    1.5312   -2.1175 H   0  0  0  0  0  0  0  0  0  0  0  0
   -4.0780   -0.7459   -1.2195 H   0  0  0  0  0  0  0  0  0  0  0  0
   -5.3641    1.7797   -0.7441 H   0  0  0  0  0  0  0  0  0  0  0  0
   -6.2600    1.6549    1.3472 H   0  0  0  0  0  0  0  0  0  0  0  0
   -4.0280    1.7178    1.5043 H   0  0  0  0  0  0  0  0  0  0  0  0
   -4.4303   -1.1643    1.0291 H   0  0  0  0  0  0  0  0  0  0  0  0
   -1.8148    0.1914    1.8186 H   0  0  0  0  0  0  0  0  0  0  0  0
   -1.8860   -1.2333    0.6055 H   0  0  0  0  0  0  0  0  0  0  0  0
   -2.5831   -1.3423    2.2041 H   0  0  0  0  0  0  0  0  0  0  0  0
   -5.9604   -1.0872    2.3047 H   0  0  0  0  0  0  0  0  0  0  0  0
   -7.4057   -0.1087    2.1034 H   0  0  0  0  0  0  0  0  0  0  0  0
   -6.3648   -2.1847    0.1383 H   0  0  0  0  0  0  0  0  0  0  0  0
   -7.9500   -1.9481    0.9392 H   0  0  0  0  0  0  0  0  0  0  0  0
   -8.3134    0.1164   -0.3909 H   0  0  0  0  0  0  0  0  0  0  0  0
   -7.9810   -1.3586   -1.3910 H   0  0  0  0  0  0  0  0  0  0  0  0
   -6.6971    0.6316   -2.1820 H   0  0  0  0  0  0  0  0  0  0  0  0
   -5.7821   -0.8303   -1.8075 H   0  0  0  0  0  0  0  0  0  0  0  0
    8.7097    1.2858    1.9767 H   0  0  0  0  0  0  0  0  0  0  0  0
    8.0564    1.3607   -0.0894 H   0  0  0  0  0  0  0  0  0  0  0  0
    8.8618   -0.5159   -1.2984 H   0  0  0  0  0  0  0  0  0  0  0  0
    8.5721   -2.2825   -0.3342 H   0  0  0  0  0  0  0  0  0  0  0  0
    6.9277   -1.3931    0.6266 H   0  0  0  0  0  0  0  0  0  0  0  0
    6.5817   -0.4905   -0.8548 H   0  0  0  0  0  0  0  0  0  0  0  0
    5.8932    0.4777    2.0155 H   0  0  0  0  0  0  0  0  0  0  0  0
    5.5687    1.3655    0.4931 H   0  0  0  0  0  0  0  0  0  0  0  0
    4.4640   -1.3739    1.0919 H   0  0  0  0  0  0  0  0  0  0  0  0
    3.3201    1.4705    1.2534 H   0  0  0  0  0  0  0  0  0  0  0  0
    3.3470    0.1947    2.5274 H   0  0  0  0  0  0  0  0  0  0  0  0
    1.1748    0.4364    1.7219 H   0  0  0  0  0  0  0  0  0  0  0  0
    1.8237   -1.1723    1.0665 H   0  0  0  0  0  0  0  0  0  0  0  0
    4.5163    0.5979   -1.2465 H   0  0  0  0  0  0  0  0  0  0  0  0
    4.7093   -1.1781   -1.1805 H   0  0  0  0  0  0  0  0  0  0  0  0
    2.5744   -0.2724   -2.2238 H   0  0  0  0  0  0  0  0  0  0  0  0
    2.3542   -1.5773   -1.0097 H   0  0  0  0  0  0  0  0  0  0  0  0
    2.1442    1.4088   -0.5111 H   0  0  0  0  0  0  0  0  0  0  0  0
    0.2056   -0.8564   -1.2899 H   0  0  0  0  0  0  0  0  0  0  0  0
    0.5458    0.7404   -2.1051 H   0  0  0  0  0  0  0  0  0  0  0  0
   -0.4180    1.8110   -0.1334 H   0  0  0  0  0  0  0  0  0  0  0  0
   -1.3463    1.8026   -2.1823 H   0  0  0  0  0  0  0  0  0  0  0  0
   -1.6795    0.0100   -2.1001 H   0  0  0  0  0  0  0  0  0  0  0  0
   -3.2259    2.1866   -0.5628 H   0  0  0  0  0  0  0  0  0  0  0  0
   -3.6780    1.5312   -2.1175 H   0  0  0  0  0  0  0  0  0  0  0  0
   -4.0780   -0.7459   -1.2195 H   0  0  0  0  0  0  0  0  0  0  0  0
   -5.3641    1.7797   -0.7441 H   0  0  0  0  0  0  0  0  0  0  0  0
   -6.2600    1.6549    1.3472 H   0  0  0  0  0  0  0  0  0  0  0  0
   -4.0280    1.7178    1.5043 H   0  0  0  0  0  0  0  0  0  0  0  0
   -4.4303   -1.1643    1.0291 H   0  0  0  0  0  0  0  0  0  0  0  0
   -1.8148    0.1914    1.8186 H   0  0  0  0  0  0  0  0  0  0  0  0
   -1.8860   -1.2333    0.6055 H   0  0  0  0  0  0  0  0  0  0  0  0
   -2.5831   -1.3423    2.2041 H   0  0  0  0  0  0  0  0  0  0  0  0
   -5.9604   -1.0872    2.3047 H   0  0  0  0  0  0  0  0  0  0  0  0
   -7.4057   -0.1087    2.1034 H   0  0  0  0  0  0  0  0  0  0  0  0
   -6.3648   -2.1847    0.1383 H   0  0  0  0  0  0  0  0  0  0  0  0
   -7.9500   -1.9481    0.9392 H   0  0  0  0  0  0  0  0  0  0  0  0
   -8.3134    0.1164   -0.3909 H   0  0  0  0  0  0  0  0  0  0  0  0
   -7.9810   -1.3586   -1.3910 H   0  0  0  0  0  0  0  0  0  0  0  0
   -6.6971    0.6316   -2.1820 H   0  0  0  0  0  0  0  0  0  0  0  0
   -5.7821   -0.8303   -1.8075 H   0  0  0  0  0  0  0  0  0  0  0  0
  1  2  1  0
  2  3  1  0
  4  3  1  0
  2  5  1  0
  5  6  1  0
  6  7  1  0
  7  8  1  0
  8  9  1  0
  7 10  1  0
 10 11  1  0
  9 12  1  0
 11 12  1  0
 12 13  1  0
 13 14  1  0
 14 15  1  0
 15 16  1  0
 16 17  1  0
 17 18  1  0
 18 19  1  0
 19 20  1  0
 17 21  1  0
 20 21  1  0
 21 22  1  0
 19 23  1  0
 23 24  1  0
 24 25  1  0
 18 26  1  0
 25 26  1  0
 27 28  1  0
 28 29  1  0
 30 29  1  0
 28 31  1  0
 31 32  1  0
 32 33  1  0
 33 34  1  0
 34 35  1  0
 33 36  1  0
 36 37  1  0
 35 38  1  0
 37 38  1  0
 38 39  1  0
 39 40  1  0
 40 41  1  0
 41 42  1  0
 42 43  1  0
 43 44  1  0
 44 45  1  0
 45 46  1  0
 43 47  1  0
 46 47  1  0
 47 48  1  0
 45 49  1  0
 49 50  1  0
 50 51  1  0
 44 52  1  0
 51 52  1  0
  1 53  1  0
  2 54  1  0
  3 55  1  0
  4 56  1  0
  5 57  1  0
  5 58  1  0
  6 59  1  0
  6 60  1  0
  7 61  1  0
  8 62  1  0
  8 63  1  0
  9 64  1  0
  9 65  1  0
 10 66  1  0
 10 67  1  0
 11 68  1  0
 11 69  1  0
 12 70  1  0
 13 71  1  0
 13 72  1  0
 14 73  1  0
 15 74  1  0
 15 75  1  0
 16 76  1  0
 16 77  1  0
 17 78  1  0
 18 79  1  0
 19 80  1  0
 20 81  1  0
 21 82  1  0
 22 83  1  0
 22 84  1  0
 22 85  1  0
 23 86  1  0
 23 87  1  0
 24 88  1  0
 24 89  1  0
 25 90  1  0
 25 91  1  0
 26 92  1  0
 26 93  1  0
 27 94  1  0
 28 95  1  0
 29 96  1  0
 30 97  1  0
 31 98  1  0
 31 99  1  0
 32100  1  0
 32101  1  0
 33102  1  0
 34103  1  0
 34104  1  0
 35105  1  0
 35106  1  0
 36107  1  0
 36108  1  0
 37109  1  0
 37110  1  0
 38111  1  0
 39112  1  0
 39113  1  0
 40114  1  0
 41115  1  0
 41116  1  0
 42117  1  0
 42118  1  0
 43119  1  0
 44120  1  0
 45121  1  0
 46122  1  0
 47123  1  0
 48124  1  0
 48125  1  0
 48126  1  0
 49127  1  0
 49128  1  0
 50129  1  0
 50130  1  0
 51131  1  0
 51132  1  0
 52133  1  0
 52134  1  0
M  END
>  <PDBID>  (1) 
5EF8

>  <PDB ID>  (1) 
5EF8

>  <Generic Name>  (1) 
Panobinostat

>  <Brand Name>  (1) 
Farydak

>  <DrugBank ID>  (1) 
DB06603

>  <ATC Codes>  (1) 
L01XX42

>  <Ligand ID>  (1) 
LBH

>  <Target Name>  (1) 
Histone deacetylase 9

>  <UniProt ID>  (1) 
Q9UKV0

>  <PDB ID.1>  (1) 
5EF8

>  <Seq. Identity>  (1) 
46%

$$$$
