PDB_DB00456_06
     RDKit          3D

 56 58  0  0  0  0  0  0  0  0999 V2000
   -0.0955    0.7967   -0.5544 S   0  0  0  0  0  0  0  0  0  0  0  0
   -1.8427    0.7052   -0.9533 C   0  0  0  0  0  0  0  0  0  0  0  0
   -2.5048   -0.1332    0.1074 C   0  0  0  0  0  0  0  0  0  0  0  0
   -3.9946   -0.0567    0.0175 C   0  0  0  0  0  0  0  0  0  0  0  0
   -4.3234    1.3056    0.2057 O   0  0  0  0  0  0  0  0  0  0  0  0
   -5.7022    1.4871    0.1206 C   0  0  0  0  0  0  0  0  0  0  0  0
   -6.0951    2.4542   -0.7767 O   0  0  0  0  0  0  0  0  0  0  0  0
   -6.2008    1.8967    1.4976 C   0  0  0  0  0  0  0  0  0  0  0  0
   -1.9934   -1.5100    0.2843 C   0  0  0  0  0  0  0  0  0  0  0  0
   -2.7245   -2.5795   -0.5277 C   0  0  0  0  0  0  0  0  0  0  0  0
   -2.3790   -2.6290   -1.8448 O   0  0  0  0  0  0  0  0  0  0  0  0
   -4.1036   -2.5007   -0.4099 O   0  0  0  0  0  0  0  0  0  0  0  0
   -0.6224   -1.7049    0.2982 N   0  0  0  0  0  0  0  0  0  0  0  0
    0.2748   -0.6014    0.5273 C   0  0  1  0  0  0  0  0  0  0  0  0
    1.3304   -1.4820   -0.0985 C   0  0  1  0  0  0  0  0  0  0  0  0
    0.1295   -2.1187   -0.8524 C   0  0  0  0  0  0  0  0  0  0  0  0
   -0.0564   -1.4652   -2.0360 O   0  0  0  0  0  0  0  0  0  0  0  0
    2.3703   -0.9867   -0.8615 N   0  0  0  0  0  0  0  0  0  0  0  0
    3.3424   -0.2176   -0.1925 C   0  0  2  0  0  0  0  0  0  0  0  0
    3.8386   -1.0540    0.8706 O   0  0  0  0  0  0  0  0  0  0  0  0
    2.9866    1.0606    0.4342 C   0  0  0  0  0  0  0  0  0  0  0  0
    4.2004    1.7010    1.0920 C   0  0  0  0  0  0  0  0  0  0  0  0
    5.2808    2.0350    0.1253 C   0  0  0  0  0  0  0  0  0  0  0  0
    6.6279    1.7234    0.6997 C   0  0  0  0  0  0  0  0  0  0  0  0
    6.5776    0.3101    1.2392 C   0  0  0  0  0  0  0  0  0  0  0  0
    5.0045    0.4581    2.1813 S   0  0  0  0  0  0  0  0  0  0  0  0
   -2.3048    1.7206   -0.8556 H   0  0  0  0  0  0  0  0  0  0  0  0
   -2.0255    0.3986   -1.9774 H   0  0  0  0  0  0  0  0  0  0  0  0
   -2.2521    0.4128    1.0777 H   0  0  0  0  0  0  0  0  0  0  0  0
   -4.4038   -0.3381   -0.9753 H   0  0  0  0  0  0  0  0  0  0  0  0
   -4.4490   -0.5910    0.8649 H   0  0  0  0  0  0  0  0  0  0  0  0
   -6.2019    0.4961   -0.0831 H   0  0  0  0  0  0  0  0  0  0  0  0
   -5.8896    2.1987   -1.7156 H   0  0  0  0  0  0  0  0  0  0  0  0
   -5.9657    1.1175    2.2633 H   0  0  0  0  0  0  0  0  0  0  0  0
   -7.3218    1.9928    1.4453 H   0  0  0  0  0  0  0  0  0  0  0  0
   -5.7578    2.8600    1.7459 H   0  0  0  0  0  0  0  0  0  0  0  0
   -2.3286   -1.7961    1.3470 H   0  0  0  0  0  0  0  0  0  0  0  0
   -2.4603   -3.5724   -0.0340 H   0  0  0  0  0  0  0  0  0  0  0  0
   -3.1497   -2.8089   -2.4089 H   0  0  0  0  0  0  0  0  0  0  0  0
   -4.4733   -3.3988   -0.5906 H   0  0  0  0  0  0  0  0  0  0  0  0
    0.3583   -0.4002    1.5930 H   0  0  0  0  0  0  0  0  0  0  0  0
    1.6726   -2.2183    0.7165 H   0  0  0  0  0  0  0  0  0  0  0  0
    0.3262   -3.2067   -0.9208 H   0  0  0  0  0  0  0  0  0  0  0  0
    0.4792   -1.7944   -2.7715 H   0  0  0  0  0  0  0  0  0  0  0  0
    2.2445   -0.7863   -1.8563 H   0  0  0  0  0  0  0  0  0  0  0  0
    4.2120   -0.0780   -0.8907 H   0  0  0  0  0  0  0  0  0  0  0  0
    3.1162   -1.0896    1.5539 H   0  0  0  0  0  0  0  0  0  0  0  0
    2.6027    1.7958   -0.3451 H   0  0  0  0  0  0  0  0  0  0  0  0
    2.2334    0.9788    1.2505 H   0  0  0  0  0  0  0  0  0  0  0  0
    3.8846    2.5811    1.7062 H   0  0  0  0  0  0  0  0  0  0  0  0
    5.1527    1.5091   -0.8263 H   0  0  0  0  0  0  0  0  0  0  0  0
    5.3058    3.1622   -0.0666 H   0  0  0  0  0  0  0  0  0  0  0  0
    7.3630    1.8346   -0.1129 H   0  0  0  0  0  0  0  0  0  0  0  0
    6.8277    2.4031    1.5574 H   0  0  0  0  0  0  0  0  0  0  0  0
    6.4590   -0.3783    0.3915 H   0  0  0  0  0  0  0  0  0  0  0  0
    7.4206    0.1013    1.8910 H   0  0  0  0  0  0  0  0  0  0  0  0
  1  2  1  0
  2  3  1  0
  3  4  1  0
  4  5  1  0
  5  6  1  0
  6  7  1  0
  6  8  1  0
  3  9  1  0
  9 10  1  0
 10 11  1  0
 10 12  1  0
  9 13  1  0
  1 14  1  0
 13 14  1  0
 14 15  1  0
 13 16  1  0
 15 16  1  0
 16 17  1  0
 15 18  1  0
 18 19  1  0
 19 20  1  0
 19 21  1  0
 21 22  1  0
 22 23  1  0
 23 24  1  0
 24 25  1  0
 22 26  1  0
 25 26  1  0
  2 27  1  0
  2 28  1  0
  3 29  1  0
  4 30  1  0
  4 31  1  0
  6 32  1  0
  7 33  1  0
  8 34  1  0
  8 35  1  0
  8 36  1  0
  9 37  1  0
 10 38  1  0
 11 39  1  0
 12 40  1  0
 14 41  1  1
 15 42  1  1
 16 43  1  0
 17 44  1  0
 18 45  1  0
 19 46  1  6
 20 47  1  0
 21 48  1  0
 21 49  1  0
 22 50  1  0
 23 51  1  0
 23 52  1  0
 24 53  1  0
 24 54  1  0
 25 55  1  0
 25 56  1  0
M  END
>  <PDBID>  (1) 
1KVL

>  <PDB ID>  (1) 
1KVL

>  <Generic Name>  (1) 
Cefalotin

>  <Brand Name>  (1) 
Ceporacin#Keflin Add-vantage Inj 1gm/vial#Keflin Neutral Inj 1gm#Keflin Neutral Inj 2gm/vial#Coaxin#Keflin

>  <DrugBank ID>  (1) 
DB00456

>  <ATC Codes>  (1) 
J01DB03

>  <Ligand ID>  (1) 
CLS

>  <Target Name>  (1) 
Beta-lactamase

>  <UniProt ID>  (1) 
P00811

>  <PDB ID.1>  (1) 
1KVL

>  <Seq. Identity>  (1) 
100%

$$$$
