PDB_DB00481_07
     RDKit          3D

166174  0  0  0  0  0  0  0  0999 V2000
   -2.3958   -2.1018   -0.9843 C   0  0  0  0  0  0  0  0  0  0  0  0
   -3.6146   -2.9668   -0.9886 C   0  0  0  0  0  0  0  0  0  0  0  0
   -3.7964   -3.8399    0.2031 C   0  0  0  0  0  0  0  0  0  0  0  0
   -5.1156   -3.6835    0.6750 O   0  0  0  0  0  0  0  0  0  0  0  0
   -2.8150   -3.5069    1.3276 C   0  0  0  0  0  0  0  0  0  0  0  0
   -2.8147   -2.0273    1.4663 C   0  0  0  0  0  0  0  0  0  0  0  0
   -4.4085   -1.2881    0.9269 S   0  0  0  0  0  0  0  0  0  0  0  0
   -3.6738    0.3621    0.4274 C   0  0  1  0  0  0  0  0  0  0  0  0
   -4.1404    1.2476    1.5228 C   0  0  0  0  0  0  0  0  0  0  0  0
   -3.9213    2.6962    1.4932 C   0  0  0  0  0  0  0  0  0  0  0  0
   -4.6364    3.4175    0.3884 C   0  0  0  0  0  0  0  0  0  0  0  0
   -5.8869    2.7458   -0.0903 C   0  0  0  0  0  0  0  0  0  0  0  0
   -6.8256    3.7851   -0.3263 O   0  0  0  0  0  0  0  0  0  0  0  0
   -6.4988    1.7769    0.8241 C   0  0  0  0  0  0  0  0  0  0  0  0
   -5.6395    1.0720    1.7944 C   0  0  0  0  0  0  0  0  0  0  0  0
   -2.0040   -1.4613    0.2806 C   0  0  0  0  0  0  0  0  0  0  0  0
   -2.2149    0.0217    0.3883 C   0  0  0  0  0  0  0  0  0  0  0  0
   -1.5319    0.7897   -0.6795 C   0  0  0  0  0  0  0  0  0  0  0  0
   -1.6759    2.1483   -0.4338 O   0  0  0  0  0  0  0  0  0  0  0  0
   -0.1079    0.5605   -0.9712 C   0  0  0  0  0  0  0  0  0  0  0  0
    0.8690    0.7714    0.1466 C   0  0  0  0  0  0  0  0  0  0  0  0
    2.0103   -0.2216    0.1596 C   0  0  0  0  0  0  0  0  0  0  0  0
    2.5915   -0.5580   -1.1570 C   0  0  0  0  0  0  0  0  0  0  0  0
    1.6829   -0.2386   -2.3496 C   0  0  0  0  0  0  0  0  0  0  0  0
    0.2643   -0.6087   -1.8399 C   0  0  0  0  0  0  0  0  0  0  0  0
    3.8833   -0.1119   -1.3505 O   0  0  0  0  0  0  0  0  0  0  0  0
    4.7934   -1.0987   -1.5879 C   0  0  0  0  0  0  0  0  0  0  0  0
    6.1641   -0.5022   -1.7611 C   0  0  0  0  0  0  0  0  0  0  0  0
    6.6748    0.2087   -0.6421 N   0  0  0  0  0  0  0  0  0  0  0  0
    6.0390    1.4377   -0.3081 C   0  0  0  0  0  0  0  0  0  0  0  0
    6.8179    2.0918    0.8250 C   0  0  0  0  0  0  0  0  0  0  0  0
    8.1879    1.5123    0.9272 C   0  0  0  0  0  0  0  0  0  0  0  0
    8.0695    0.0441    1.2805 C   0  0  0  0  0  0  0  0  0  0  0  0
    6.9124   -0.6157    0.5314 C   0  0  0  0  0  0  0  0  0  0  0  0
   -2.5920   -2.4437   -1.5905 C   0  0  0  0  0  0  0  0  0  0  0  0
   -3.9040   -3.1841   -1.4374 C   0  0  0  0  0  0  0  0  0  0  0  0
   -4.0425   -3.9389   -0.1618 C   0  0  0  0  0  0  0  0  0  0  0  0
   -5.3928   -3.8336    0.2415 O   0  0  0  0  0  0  0  0  0  0  0  0
   -3.2021   -3.4220    0.9538 C   0  0  0  0  0  0  0  0  0  0  0  0
   -3.0017   -1.9537    0.8095 C   0  0  0  0  0  0  0  0  0  0  0  0
   -4.5602   -1.0746    0.3748 S   0  0  0  0  0  0  0  0  0  0  0  0
   -3.8450    0.0813   -0.8501 C   0  0  1  0  0  0  0  0  0  0  0  0
   -4.2697    1.4863   -0.6921 C   0  0  0  0  0  0  0  0  0  0  0  0
   -5.7273    1.7638   -0.8458 C   0  0  0  0  0  0  0  0  0  0  0  0
   -6.5059    1.3385    0.3335 C   0  0  0  0  0  0  0  0  0  0  0  0
   -5.9837    1.9002    1.6000 C   0  0  0  0  0  0  0  0  0  0  0  0
   -6.5221    3.1674    1.8478 O   0  0  0  0  0  0  0  0  0  0  0  0
   -4.4995    1.9157    1.7687 C   0  0  0  0  0  0  0  0  0  0  0  0
   -3.7599    2.2261    0.4992 C   0  0  0  0  0  0  0  0  0  0  0  0
   -2.1765   -1.6188   -0.4470 C   0  0  0  0  0  0  0  0  0  0  0  0
   -2.3823   -0.1376   -0.5441 C   0  0  1  0  0  0  0  0  0  0  0  0
   -1.5309    0.5989   -1.4803 C   0  0  2  0  0  0  0  0  0  0  0  0
   -1.7941    0.1728   -2.8040 O   0  0  0  0  0  0  0  0  0  0  0  0
   -0.0502    0.5665   -1.2032 C   0  0  0  0  0  0  0  0  0  0  0  0
    0.3093    1.1493    0.1343 C   0  0  0  0  0  0  0  0  0  0  0  0
    1.7076    0.6938    0.5070 C   0  0  0  0  0  0  0  0  0  0  0  0
    2.5515    0.7133   -0.7284 C   0  0  0  0  0  0  0  0  0  0  0  0
    2.0926    1.7439   -1.7382 C   0  0  0  0  0  0  0  0  0  0  0  0
    0.7143    1.3877   -2.2505 C   0  0  0  0  0  0  0  0  0  0  0  0
    3.8967    0.8346   -0.4795 O   0  0  0  0  0  0  0  0  0  0  0  0
    4.6012   -0.2815   -0.9145 C   0  0  0  0  0  0  0  0  0  0  0  0
    6.0674   -0.2084   -0.6645 C   0  0  0  0  0  0  0  0  0  0  0  0
    6.4656   -0.0793    0.6731 N   0  0  0  0  0  0  0  0  0  0  0  0
    6.1896    1.1115    1.3708 C   0  0  0  0  0  0  0  0  0  0  0  0
    7.1071    1.1723    2.5838 C   0  0  0  0  0  0  0  0  0  0  0  0
    8.5346    0.9370    2.1557 C   0  0  0  0  0  0  0  0  0  0  0  0
    8.6387   -0.4611    1.6037 C   0  0  0  0  0  0  0  0  0  0  0  0
    7.2742   -1.0604    1.2701 C   0  0  0  0  0  0  0  0  0  0  0  0
   -1.5508   -2.7889   -1.2959 H   0  0  0  0  0  0  0  0  0  0  0  0
   -2.5147   -1.4001   -1.8467 H   0  0  0  0  0  0  0  0  0  0  0  0
   -3.4885   -3.6842   -1.8643 H   0  0  0  0  0  0  0  0  0  0  0  0
   -4.5555   -2.4189   -1.2890 H   0  0  0  0  0  0  0  0  0  0  0  0
   -3.6948   -4.9312    0.0039 H   0  0  0  0  0  0  0  0  0  0  0  0
   -5.7559   -3.5241   -0.0491 H   0  0  0  0  0  0  0  0  0  0  0  0
   -1.8103   -3.8344    0.9476 H   0  0  0  0  0  0  0  0  0  0  0  0
   -3.1218   -4.0660    2.2277 H   0  0  0  0  0  0  0  0  0  0  0  0
   -2.4760   -1.6353    2.4157 H   0  0  0  0  0  0  0  0  0  0  0  0
   -4.0834    0.6390   -0.5573 H   0  0  0  0  0  0  0  0  0  0  0  0
   -3.6765    0.8692    2.4976 H   0  0  0  0  0  0  0  0  0  0  0  0
   -4.4693    3.0756    2.4491 H   0  0  0  0  0  0  0  0  0  0  0  0
   -2.9332    3.1096    1.6262 H   0  0  0  0  0  0  0  0  0  0  0  0
   -4.8502    4.4623    0.7696 H   0  0  0  0  0  0  0  0  0  0  0  0
   -3.9260    3.5871   -0.4402 H   0  0  0  0  0  0  0  0  0  0  0  0
   -5.6811    2.3633   -1.1355 H   0  0  0  0  0  0  0  0  0  0  0  0
   -7.6647    3.3931   -0.7162 H   0  0  0  0  0  0  0  0  0  0  0  0
   -7.3400    2.2635    1.4027 H   0  0  0  0  0  0  0  0  0  0  0  0
   -7.0255    0.9851    0.2125 H   0  0  0  0  0  0  0  0  0  0  0  0
   -5.8036   -0.0275    1.8306 H   0  0  0  0  0  0  0  0  0  0  0  0
   -5.8151    1.4319    2.8299 H   0  0  0  0  0  0  0  0  0  0  0  0
   -0.9737   -1.6715    0.5656 H   0  0  0  0  0  0  0  0  0  0  0  0
   -1.8335    0.2934    1.4220 H   0  0  0  0  0  0  0  0  0  0  0  0
   -2.1082    0.6036   -1.6243 H   0  0  0  0  0  0  0  0  0  0  0  0
   -0.8192    2.6369   -0.3803 H   0  0  0  0  0  0  0  0  0  0  0  0
    0.1610    1.4411   -1.6893 H   0  0  0  0  0  0  0  0  0  0  0  0
    0.3719    0.6696    1.1579 H   0  0  0  0  0  0  0  0  0  0  0  0
    1.3307    1.7801    0.1763 H   0  0  0  0  0  0  0  0  0  0  0  0
    1.6455   -1.1342    0.7123 H   0  0  0  0  0  0  0  0  0  0  0  0
    2.8067    0.2010    0.8112 H   0  0  0  0  0  0  0  0  0  0  0  0
    2.6713   -1.6896   -1.2160 H   0  0  0  0  0  0  0  0  0  0  0  0
    1.6555    0.8234   -2.5920 H   0  0  0  0  0  0  0  0  0  0  0  0
    1.9391   -0.8137   -3.2344 H   0  0  0  0  0  0  0  0  0  0  0  0
    0.4248   -1.5545   -1.3320 H   0  0  0  0  0  0  0  0  0  0  0  0
   -0.4272   -0.6535   -2.7161 H   0  0  0  0  0  0  0  0  0  0  0  0
    4.7511   -1.8345   -0.7544 H   0  0  0  0  0  0  0  0  0  0  0  0
    4.5785   -1.6261   -2.5661 H   0  0  0  0  0  0  0  0  0  0  0  0
    6.0516    0.2638   -2.5907 H   0  0  0  0  0  0  0  0  0  0  0  0
    6.8824   -1.2509   -2.1680 H   0  0  0  0  0  0  0  0  0  0  0  0
    4.9856    1.3847   -0.0200 H   0  0  0  0  0  0  0  0  0  0  0  0
    6.1369    2.1414   -1.1800 H   0  0  0  0  0  0  0  0  0  0  0  0
    6.7927    3.2012    0.7387 H   0  0  0  0  0  0  0  0  0  0  0  0
    6.2976    1.8734    1.7935 H   0  0  0  0  0  0  0  0  0  0  0  0
    8.7184    1.9988    1.7876 H   0  0  0  0  0  0  0  0  0  0  0  0
    8.8043    1.6778    0.0193 H   0  0  0  0  0  0  0  0  0  0  0  0
    7.8743   -0.0244    2.3685 H   0  0  0  0  0  0  0  0  0  0  0  0
    9.0319   -0.4448    1.0132 H   0  0  0  0  0  0  0  0  0  0  0  0
    5.9935   -0.6225    1.1543 H   0  0  0  0  0  0  0  0  0  0  0  0
    7.2513   -1.5997    0.2064 H   0  0  0  0  0  0  0  0  0  0  0  0
   -1.8165   -3.2609   -1.7151 H   0  0  0  0  0  0  0  0  0  0  0  0
   -2.6364   -1.9673   -2.5770 H   0  0  0  0  0  0  0  0  0  0  0  0
   -3.8959   -3.9568   -2.2649 H   0  0  0  0  0  0  0  0  0  0  0  0
   -4.7854   -2.5464   -1.6871 H   0  0  0  0  0  0  0  0  0  0  0  0
   -3.8630   -5.0475   -0.2825 H   0  0  0  0  0  0  0  0  0  0  0  0
   -5.9409   -4.0222   -0.5549 H   0  0  0  0  0  0  0  0  0  0  0  0
   -2.1821   -3.8910    0.9143 H   0  0  0  0  0  0  0  0  0  0  0  0
   -3.6999   -3.6301    1.9104 H   0  0  0  0  0  0  0  0  0  0  0  0
   -2.5307   -1.4620    1.6837 H   0  0  0  0  0  0  0  0  0  0  0  0
   -4.0914   -0.2479   -1.8851 H   0  0  0  0  0  0  0  0  0  0  0  0
   -3.7934    2.0326   -1.5804 H   0  0  0  0  0  0  0  0  0  0  0  0
   -5.8104    2.8759   -1.0372 H   0  0  0  0  0  0  0  0  0  0  0  0
   -6.1442    1.3164   -1.7848 H   0  0  0  0  0  0  0  0  0  0  0  0
   -7.5426    1.8186    0.1994 H   0  0  0  0  0  0  0  0  0  0  0  0
   -6.6563    0.2380    0.3182 H   0  0  0  0  0  0  0  0  0  0  0  0
   -6.3883    1.2544    2.4361 H   0  0  0  0  0  0  0  0  0  0  0  0
   -7.2465    3.4030    1.2123 H   0  0  0  0  0  0  0  0  0  0  0  0
   -4.2592    2.7388    2.4894 H   0  0  0  0  0  0  0  0  0  0  0  0
   -4.1417    0.9846    2.2707 H   0  0  0  0  0  0  0  0  0  0  0  0
   -2.6860    2.1565    0.6861 H   0  0  0  0  0  0  0  0  0  0  0  0
   -3.9445    3.3224    0.2840 H   0  0  0  0  0  0  0  0  0  0  0  0
   -1.1237   -1.7798   -0.1354 H   0  0  0  0  0  0  0  0  0  0  0  0
   -2.2719    0.2193    0.5251 H   0  0  0  0  0  0  0  0  0  0  0  0
   -1.8147    1.6702   -1.4845 H   0  0  0  0  0  0  0  0  0  0  0  0
   -1.0154   -0.2812   -3.2020 H   0  0  0  0  0  0  0  0  0  0  0  0
    0.3726   -0.4519   -1.2500 H   0  0  0  0  0  0  0  0  0  0  0  0
    0.2308    2.2584    0.1313 H   0  0  0  0  0  0  0  0  0  0  0  0
   -0.4103    0.7895    0.8922 H   0  0  0  0  0  0  0  0  0  0  0  0
    1.6124   -0.3027    0.9789 H   0  0  0  0  0  0  0  0  0  0  0  0
    2.1362    1.3570    1.2956 H   0  0  0  0  0  0  0  0  0  0  0  0
    2.3940   -0.2859   -1.2329 H   0  0  0  0  0  0  0  0  0  0  0  0
    2.0685    2.7555   -1.3400 H   0  0  0  0  0  0  0  0  0  0  0  0
    2.7788    1.7224   -2.5909 H   0  0  0  0  0  0  0  0  0  0  0  0
    0.8274    0.7503   -3.1687 H   0  0  0  0  0  0  0  0  0  0  0  0
    0.1983    2.3382   -2.4864 H   0  0  0  0  0  0  0  0  0  0  0  0
    4.1213   -1.1619   -0.4343 H   0  0  0  0  0  0  0  0  0  0  0  0
    4.4484   -0.3490   -2.0173 H   0  0  0  0  0  0  0  0  0  0  0  0
    6.4435    0.6934   -1.2325 H   0  0  0  0  0  0  0  0  0  0  0  0
    6.5397   -1.0829   -1.1479 H   0  0  0  0  0  0  0  0  0  0  0  0
    5.1313    1.1475    1.6529 H   0  0  0  0  0  0  0  0  0  0  0  0
    6.4722    1.9756    0.7014 H   0  0  0  0  0  0  0  0  0  0  0  0
    6.9821    2.1614    3.0888 H   0  0  0  0  0  0  0  0  0  0  0  0
    6.8046    0.3636    3.2621 H   0  0  0  0  0  0  0  0  0  0  0  0
    9.1642    1.0241    3.0584 H   0  0  0  0  0  0  0  0  0  0  0  0
    8.8664    1.6861    1.4026 H   0  0  0  0  0  0  0  0  0  0  0  0
    9.1826   -1.0803    2.3344 H   0  0  0  0  0  0  0  0  0  0  0  0
    9.2687   -0.4083    0.6681 H   0  0  0  0  0  0  0  0  0  0  0  0
    6.8457   -1.4004    2.2426 H   0  0  0  0  0  0  0  0  0  0  0  0
    7.3935   -1.9025    0.5576 H   0  0  0  0  0  0  0  0  0  0  0  0
  1  2  1  0
  2  3  1  0
  3  4  1  0
  3  5  1  0
  5  6  1  0
  6  7  1  0
  7  8  1  0
  8  9  1  0
  9 10  1  0
 10 11  1  0
 11 12  1  0
 12 13  1  0
 12 14  1  0
  9 15  1  0
 14 15  1  0
  1 16  1  0
  6 16  1  0
  8 17  1  0
 16 17  1  0
 17 18  1  0
 18 19  1  0
 18 20  1  0
 20 21  1  0
 21 22  1  0
 22 23  1  0
 23 24  1  0
 20 25  1  0
 24 25  1  0
 23 26  1  0
 26 27  1  0
 27 28  1  0
 28 29  1  0
 29 30  1  0
 30 31  1  0
 31 32  1  0
 32 33  1  0
 29 34  1  0
 33 34  1  0
 35 36  1  0
 36 37  1  0
 37 38  1  0
 37 39  1  0
 39 40  1  0
 40 41  1  0
 41 42  1  0
 42 43  1  0
 43 44  1  0
 44 45  1  0
 45 46  1  0
 46 47  1  0
 46 48  1  0
 43 49  1  0
 48 49  1  0
 35 50  1  0
 40 50  1  0
 42 51  1  0
 50 51  1  0
 51 52  1  0
 52 53  1  0
 52 54  1  0
 54 55  1  0
 55 56  1  0
 56 57  1  0
 57 58  1  0
 54 59  1  0
 58 59  1  0
 57 60  1  0
 60 61  1  0
 61 62  1  0
 62 63  1  0
 63 64  1  0
 64 65  1  0
 65 66  1  0
 66 67  1  0
 63 68  1  0
 67 68  1  0
  1 69  1  0
  1 70  1  0
  2 71  1  0
  2 72  1  0
  3 73  1  0
  4 74  1  0
  5 75  1  0
  5 76  1  0
  6 77  1  0
  8 78  1  6
  9 79  1  0
 10 80  1  0
 10 81  1  0
 11 82  1  0
 11 83  1  0
 12 84  1  0
 13 85  1  0
 14 86  1  0
 14 87  1  0
 15 88  1  0
 15 89  1  0
 16 90  1  0
 17 91  1  0
 18 92  1  0
 19 93  1  0
 20 94  1  0
 21 95  1  0
 21 96  1  0
 22 97  1  0
 22 98  1  0
 23 99  1  0
 24100  1  0
 24101  1  0
 25102  1  0
 25103  1  0
 27104  1  0
 27105  1  0
 28106  1  0
 28107  1  0
 30108  1  0
 30109  1  0
 31110  1  0
 31111  1  0
 32112  1  0
 32113  1  0
 33114  1  0
 33115  1  0
 34116  1  0
 34117  1  0
 35118  1  0
 35119  1  0
 36120  1  0
 36121  1  0
 37122  1  0
 38123  1  0
 39124  1  0
 39125  1  0
 40126  1  0
 42127  1  6
 43128  1  0
 44129  1  0
 44130  1  0
 45131  1  0
 45132  1  0
 46133  1  0
 47134  1  0
 48135  1  0
 48136  1  0
 49137  1  0
 49138  1  0
 50139  1  0
 51140  1  1
 52141  1  6
 53142  1  0
 54143  1  0
 55144  1  0
 55145  1  0
 56146  1  0
 56147  1  0
 57148  1  0
 58149  1  0
 58150  1  0
 59151  1  0
 59152  1  0
 61153  1  0
 61154  1  0
 62155  1  0
 62156  1  0
 64157  1  0
 64158  1  0
 65159  1  0
 65160  1  0
 66161  1  0
 66162  1  0
 67163  1  0
 67164  1  0
 68165  1  0
 68166  1  0
M  END
>  <PDBID>  (1) 
2QXS

>  <PDB ID>  (1) 
2QXS

>  <Generic Name>  (1) 
Raloxifene

>  <Brand Name>  (1) 
Act Raloxifene#Apo-raloxifene#Evista#Evista (60mg)#PMS-raloxifene#Raloxifene#Raloxifene Hydrochloride#Teva-raloxifene#Keoxifene

>  <DrugBank ID>  (1) 
DB00481

>  <ATC Codes>  (1) 
G03XC01

>  <Ligand ID>  (1) 
RAL

>  <Target Name>  (1) 
Estrogen receptor

>  <UniProt ID>  (1) 
P03372

>  <PDB ID.1>  (1) 
2QXS

>  <Seq. Identity>  (1) 
93%

$$$$
