PDB_DB01132_04
     RDKit          3D

122126  0  0  0  0  0  0  0  0999 V2000
   -5.1110   -1.1707    2.6803 O   0  0  0  0  0  0  0  0  0  0  0  0
   -5.2067   -0.9199    1.3114 C   0  0  1  0  0  0  0  0  0  0  0  0
   -6.4930   -1.3306    0.7881 N   0  0  0  0  0  0  0  0  0  0  0  0
   -5.0096    0.5166    0.9698 C   0  0  2  0  0  0  0  0  0  0  0  0
   -6.7264    1.1378    1.2257 S   0  0  0  0  0  0  0  0  0  0  0  0
   -7.4993   -0.5126    1.4826 C   0  0  0  0  0  0  0  0  0  0  0  0
   -7.5300   -0.7774    2.8284 O   0  0  0  0  0  0  0  0  0  0  0  0
   -4.5317    0.8109   -0.4010 C   0  0  0  0  0  0  0  0  0  0  0  0
    4.8795    0.7602    0.5001 C   0  0  0  0  0  0  0  0  0  0  0  0
   -3.1906    0.1676   -0.6335 C   0  0  0  0  0  0  0  0  0  0  0  0
   -2.2389    0.7370    0.3953 C   0  0  0  0  0  0  0  0  0  0  0  0
   -0.7973    0.5282    0.0801 C   0  0  0  0  0  0  0  0  0  0  0  0
   -0.4594    0.8598   -1.3311 C   0  0  0  0  0  0  0  0  0  0  0  0
   -1.6668    1.5900   -1.9089 C   0  0  0  0  0  0  0  0  0  0  0  0
   -2.7713    0.5631   -2.0422 C   0  0  0  0  0  0  0  0  0  0  0  0
    0.7078    1.5392   -1.5391 O   0  0  0  0  0  0  0  0  0  0  0  0
    1.6379    0.9570   -2.3485 C   0  0  0  0  0  0  0  0  0  0  0  0
    2.1429   -0.3504   -1.8112 C   0  0  0  0  0  0  0  0  0  0  0  0
    7.2215    0.1490    2.0163 C   0  0  0  0  0  0  0  0  0  0  0  0
    6.2571   -0.9493    1.6212 C   0  0  0  0  0  0  0  0  0  0  0  0
    5.6236   -0.5545    0.3287 C   0  0  0  0  0  0  0  0  0  0  0  0
    4.6926   -1.6106   -0.2388 C   0  0  0  0  0  0  0  0  0  0  0  0
    3.3131   -1.3186    0.1066 N   0  0  0  0  0  0  0  0  0  0  0  0
    3.9474    0.8562   -0.7171 C   0  0  0  0  0  0  0  0  0  0  0  0
    2.8063   -0.1043   -0.4716 C   0  0  0  0  0  0  0  0  0  0  0  0
   -4.6104   -1.1297    2.2015 O   0  0  0  0  0  0  0  0  0  0  0  0
   -5.5838   -0.6728    1.3093 C   0  0  0  0  0  0  0  0  0  0  0  0
   -6.7683   -0.4505    2.1316 N   0  0  0  0  0  0  0  0  0  0  0  0
   -5.1701    0.6400    0.7308 C   0  0  2  0  0  0  0  0  0  0  0  0
   -6.8331    1.3598    0.3889 S   0  0  0  0  0  0  0  0  0  0  0  0
   -7.8074    0.0437    1.2282 C   0  0  0  0  0  0  0  0  0  0  0  0
   -8.2245   -0.9205    0.3356 O   0  0  0  0  0  0  0  0  0  0  0  0
   -4.4463    0.5827   -0.5475 C   0  0  0  0  0  0  0  0  0  0  0  0
    4.8415    1.0723    0.4630 C   0  0  0  0  0  0  0  0  0  0  0  0
   -3.1447   -0.1737   -0.5629 C   0  0  0  0  0  0  0  0  0  0  0  0
   -2.1707    0.4138    0.3807 C   0  0  0  0  0  0  0  0  0  0  0  0
   -0.7584    0.4730   -0.0348 C   0  0  0  0  0  0  0  0  0  0  0  0
   -0.4430    0.4979   -1.4770 C   0  0  0  0  0  0  0  0  0  0  0  0
   -1.6782    0.9655   -2.2267 C   0  0  0  0  0  0  0  0  0  0  0  0
   -2.6865   -0.1740   -2.0076 C   0  0  0  0  0  0  0  0  0  0  0  0
    0.6831    1.1898   -1.8299 O   0  0  0  0  0  0  0  0  0  0  0  0
    1.6578    0.4986   -2.4868 C   0  0  0  0  0  0  0  0  0  0  0  0
    2.2509   -0.6427   -1.7126 C   0  0  0  0  0  0  0  0  0  0  0  0
    7.1123    0.8070    2.3333 C   0  0  0  0  0  0  0  0  0  0  0  0
    6.2452   -0.3668    1.9722 C   0  0  0  0  0  0  0  0  0  0  0  0
    5.6872   -0.1894    0.5798 C   0  0  0  0  0  0  0  0  0  0  0  0
    4.9022   -1.3984    0.1190 C   0  0  0  0  0  0  0  0  0  0  0  0
    3.4778   -1.2116    0.3154 N   0  0  0  0  0  0  0  0  0  0  0  0
    3.9620    0.8778   -0.7563 C   0  0  0  0  0  0  0  0  0  0  0  0
    2.9098   -0.1364   -0.4336 C   0  0  0  0  0  0  0  0  0  0  0  0
   -5.0275   -0.2956    3.1223 H   0  0  0  0  0  0  0  0  0  0  0  0
   -4.4461   -1.5283    0.8264 H   0  0  0  0  0  0  0  0  0  0  0  0
   -6.5392   -1.0278   -0.2079 H   0  0  0  0  0  0  0  0  0  0  0  0
   -4.3493    1.0324    1.7008 H   0  0  0  0  0  0  0  0  0  0  0  0
   -8.4490   -0.5950    0.9591 H   0  0  0  0  0  0  0  0  0  0  0  0
   -8.4572   -0.8400    3.1720 H   0  0  0  0  0  0  0  0  0  0  0  0
   -4.4487    1.9081   -0.5495 H   0  0  0  0  0  0  0  0  0  0  0  0
   -5.2542    0.4761   -1.1884 H   0  0  0  0  0  0  0  0  0  0  0  0
    4.2225    0.7148    1.3918 H   0  0  0  0  0  0  0  0  0  0  0  0
    5.5338    1.6313    0.4866 H   0  0  0  0  0  0  0  0  0  0  0  0
   -3.1981   -0.9178   -0.5663 H   0  0  0  0  0  0  0  0  0  0  0  0
   -2.4450    0.1482    1.3383 H   0  0  0  0  0  0  0  0  0  0  0  0
   -2.4821    1.7800    0.6689 H   0  0  0  0  0  0  0  0  0  0  0  0
   -0.2180    1.2423    0.7332 H   0  0  0  0  0  0  0  0  0  0  0  0
   -0.4344   -0.4944    0.3311 H   0  0  0  0  0  0  0  0  0  0  0  0
   -0.3957   -0.1120   -1.9044 H   0  0  0  0  0  0  0  0  0  0  0  0
   -2.0408    2.3779   -1.2249 H   0  0  0  0  0  0  0  0  0  0  0  0
   -1.3861    2.0100   -2.9005 H   0  0  0  0  0  0  0  0  0  0  0  0
   -3.6210    0.9584   -2.6366 H   0  0  0  0  0  0  0  0  0  0  0  0
   -2.3451   -0.3043   -2.5587 H   0  0  0  0  0  0  0  0  0  0  0  0
    2.4661    1.7025   -2.4848 H   0  0  0  0  0  0  0  0  0  0  0  0
    1.2733    0.7778   -3.3882 H   0  0  0  0  0  0  0  0  0  0  0  0
    1.3561   -1.1104   -1.7744 H   0  0  0  0  0  0  0  0  0  0  0  0
    2.9212   -0.7770   -2.5111 H   0  0  0  0  0  0  0  0  0  0  0  0
    6.9160    0.6683    2.9536 H   0  0  0  0  0  0  0  0  0  0  0  0
    8.2247   -0.3113    2.1410 H   0  0  0  0  0  0  0  0  0  0  0  0
    7.3332    0.9079    1.2149 H   0  0  0  0  0  0  0  0  0  0  0  0
    6.7644   -1.9278    1.5657 H   0  0  0  0  0  0  0  0  0  0  0  0
    5.5262   -1.0343    2.4579 H   0  0  0  0  0  0  0  0  0  0  0  0
    6.4178   -0.3811   -0.4200 H   0  0  0  0  0  0  0  0  0  0  0  0
    4.9583   -2.5757    0.1875 H   0  0  0  0  0  0  0  0  0  0  0  0
    4.8176   -1.6458   -1.3358 H   0  0  0  0  0  0  0  0  0  0  0  0
    2.7383   -2.1210   -0.2584 H   0  0  0  0  0  0  0  0  0  0  0  0
    4.4829    0.5593   -1.6379 H   0  0  0  0  0  0  0  0  0  0  0  0
    3.5444    1.8964   -0.7916 H   0  0  0  0  0  0  0  0  0  0  0  0
    2.0432    0.3424    0.1965 H   0  0  0  0  0  0  0  0  0  0  0  0
   -4.6260   -0.4881    2.9647 H   0  0  0  0  0  0  0  0  0  0  0  0
   -5.8308   -1.4340    0.5426 H   0  0  0  0  0  0  0  0  0  0  0  0
   -6.5603    0.3624    2.7800 H   0  0  0  0  0  0  0  0  0  0  0  0
   -4.7271    1.2606    1.5117 H   0  0  0  0  0  0  0  0  0  0  0  0
   -8.5979    0.5129    1.8126 H   0  0  0  0  0  0  0  0  0  0  0  0
   -8.0255   -1.8314    0.6705 H   0  0  0  0  0  0  0  0  0  0  0  0
   -5.1316    0.2512   -1.3712 H   0  0  0  0  0  0  0  0  0  0  0  0
   -4.1858    1.6456   -0.8327 H   0  0  0  0  0  0  0  0  0  0  0  0
    4.2019    1.1317    1.3520 H   0  0  0  0  0  0  0  0  0  0  0  0
    5.4433    1.9827    0.3492 H   0  0  0  0  0  0  0  0  0  0  0  0
   -3.3278   -1.2557   -0.3109 H   0  0  0  0  0  0  0  0  0  0  0  0
   -2.2108   -0.1552    1.3402 H   0  0  0  0  0  0  0  0  0  0  0  0
   -2.5356    1.4466    0.6593 H   0  0  0  0  0  0  0  0  0  0  0  0
   -0.2945    1.3910    0.4338 H   0  0  0  0  0  0  0  0  0  0  0  0
   -0.1669   -0.3761    0.4229 H   0  0  0  0  0  0  0  0  0  0  0  0
   -0.2995   -0.5703   -1.8194 H   0  0  0  0  0  0  0  0  0  0  0  0
   -2.1417    1.8510   -1.7378 H   0  0  0  0  0  0  0  0  0  0  0  0
   -1.5236    1.0760   -3.2983 H   0  0  0  0  0  0  0  0  0  0  0  0
   -3.4999   -0.0009   -2.7202 H   0  0  0  0  0  0  0  0  0  0  0  0
   -2.1782   -1.1174   -2.2943 H   0  0  0  0  0  0  0  0  0  0  0  0
    2.4758    1.2429   -2.7146 H   0  0  0  0  0  0  0  0  0  0  0  0
    1.3507    0.1235   -3.4872 H   0  0  0  0  0  0  0  0  0  0  0  0
    1.5207   -1.4091   -1.4624 H   0  0  0  0  0  0  0  0  0  0  0  0
    3.0519   -1.1346   -2.3088 H   0  0  0  0  0  0  0  0  0  0  0  0
    6.7703    1.2935    3.2724 H   0  0  0  0  0  0  0  0  0  0  0  0
    8.1782    0.4726    2.4090 H   0  0  0  0  0  0  0  0  0  0  0  0
    7.0593    1.5738    1.5258 H   0  0  0  0  0  0  0  0  0  0  0  0
    6.8249   -1.3089    1.9757 H   0  0  0  0  0  0  0  0  0  0  0  0
    5.4472   -0.4556    2.7404 H   0  0  0  0  0  0  0  0  0  0  0  0
    6.5449   -0.0641   -0.1085 H   0  0  0  0  0  0  0  0  0  0  0  0
    5.2286   -2.2581    0.7169 H   0  0  0  0  0  0  0  0  0  0  0  0
    5.1355   -1.5781   -0.9363 H   0  0  0  0  0  0  0  0  0  0  0  0
    3.0230   -2.1143    0.0523 H   0  0  0  0  0  0  0  0  0  0  0  0
    4.5678    0.5054   -1.6265 H   0  0  0  0  0  0  0  0  0  0  0  0
    3.5332    1.8506   -1.0866 H   0  0  0  0  0  0  0  0  0  0  0  0
    2.1017    0.3309    0.1700 H   0  0  0  0  0  0  0  0  0  0  0  0
  1  2  1  0
  2  3  1  0
  2  4  1  0
  4  5  1  0
  3  6  1  0
  5  6  1  0
  6  7  1  0
  4  8  1  0
  8 10  1  0
 10 11  1  0
 11 12  1  0
 12 13  1  0
 13 14  1  0
 10 15  1  0
 14 15  1  0
 13 16  1  0
 16 17  1  0
 17 18  1  0
 19 20  1  0
  9 21  1  0
 20 21  1  0
 21 22  1  0
 22 23  1  0
  9 24  1  0
 18 25  1  0
 23 25  1  0
 24 25  1  0
 26 27  1  0
 27 28  1  0
 27 29  1  0
 29 30  1  0
 28 31  1  0
 30 31  1  0
 31 32  1  0
 29 33  1  0
 33 35  1  0
 35 36  1  0
 36 37  1  0
 37 38  1  0
 38 39  1  0
 35 40  1  0
 39 40  1  0
 38 41  1  0
 41 42  1  0
 42 43  1  0
 44 45  1  0
 34 46  1  0
 45 46  1  0
 46 47  1  0
 47 48  1  0
 34 49  1  0
 43 50  1  0
 48 50  1  0
 49 50  1  0
  1 51  1  0
  2 52  1  6
  3 53  1  0
  4 54  1  1
  6 55  1  0
  7 56  1  0
  8 57  1  0
  8 58  1  0
  9 59  1  0
  9 60  1  0
 10 61  1  0
 11 62  1  0
 11 63  1  0
 12 64  1  0
 12 65  1  0
 13 66  1  0
 14 67  1  0
 14 68  1  0
 15 69  1  0
 15 70  1  0
 17 71  1  0
 17 72  1  0
 18 73  1  0
 18 74  1  0
 19 75  1  0
 19 76  1  0
 19 77  1  0
 20 78  1  0
 20 79  1  0
 21 80  1  0
 22 81  1  0
 22 82  1  0
 23 83  1  0
 24 84  1  0
 24 85  1  0
 25 86  1  0
 26 87  1  0
 27 88  1  0
 28 89  1  0
 29 90  1  1
 31 91  1  0
 32 92  1  0
 33 93  1  0
 33 94  1  0
 34 95  1  0
 34 96  1  0
 35 97  1  0
 36 98  1  0
 36 99  1  0
 37100  1  0
 37101  1  0
 38102  1  0
 39103  1  0
 39104  1  0
 40105  1  0
 40106  1  0
 42107  1  0
 42108  1  0
 43109  1  0
 43110  1  0
 44111  1  0
 44112  1  0
 44113  1  0
 45114  1  0
 45115  1  0
 46116  1  0
 47117  1  0
 47118  1  0
 48119  1  0
 49120  1  0
 49121  1  0
 50122  1  0
M  END
>  <PDBID>  (1) 
2XKW

>  <PDB ID>  (1) 
2XKW

>  <Generic Name>  (1) 
Pioglitazone

>  <Brand Name>  (1) 
Accel Pioglitazone#Ach-pioglitazone#Act Pioglitazone#Actoplus Met#Actoplus Met XR#Actos#Actos (15mg)#Actos (30mg)#Actos (45mg)#Ag-pioglitazone#Alogliptin and Pioglitazone#Apo-pioglitazone#Auro-pioglitazone#Ava-pioglitazone#Dom-pioglitazone#Duetact#Jamp-pioglitazone#Mint-pioglitazone#Mylan-pioglitazone#Oseni#PHL-pioglitazone#PMS-pioglitazone#Pioglitazole and Metformin Hydrochloride#Pioglitazone#Pioglitazone HCl#Pioglitazone HCl and Metformin HCl#Pioglitazone Hydrochloride#Pioglitazone Hydrochloride and Glimepiride#Pioglitazone Hydrochloride and Metformin Hydrochloride#Pioglitazone and Glimepiride#Pioglitazone and Metformin#Pioglitazone and Metformin Hydrochloride#Pioglitazone and Metformin Hydrocholride#Pioglitazonehydrochloride#Pro-pioglitazone#Ran-pioglitazone#Ratio-pioglitazone#Sandoz Pioglitazone#Teva-pioglitazone#Torrent-pioglitazone#Van-pioglitazone#Zym-pioglitazone#Actost#Glustin

>  <DrugBank ID>  (1) 
DB01132

>  <ATC Codes>  (1) 
A10BD12#A10BD09#A10BG03#A10BD06#A10BD05

>  <Ligand ID>  (1) 
8N6,P1B

>  <Target Name>  (1) 
Peroxisome proliferator-activated receptor gamma

>  <UniProt ID>  (1) 
P37231

>  <PDB ID.1>  (1) 
2XKW

>  <Seq. Identity>  (1) 
95%

$$$$
