PDB_DB08881_05
     RDKit          3D

 75 78  0  0  0  0  0  0  0  0999 V2000
   -7.5806    2.0128    0.0831 C   0  0  0  0  0  0  0  0  0  0  0  0
   -0.1497   -1.9326   -1.0311 C   0  0  0  0  0  0  0  0  0  0  0  0
    0.0305   -0.3612    0.8602 C   0  0  0  0  0  0  0  0  0  0  0  0
    2.2688    0.6712    0.2840 C   0  0  0  0  0  0  0  0  0  0  0  0
    3.6258    0.8071    0.9539 C   0  0  0  0  0  0  0  0  0  0  0  0
    3.7897   -0.0128    2.1868 C   0  0  0  0  0  0  0  0  0  0  0  0
    2.2388   -1.6318    1.0790 C   0  0  0  0  0  0  0  0  0  0  0  0
   -4.2276   -0.4906    0.2565 C   0  0  0  0  0  0  0  0  0  0  0  0
   -4.3641   -1.5556   -0.7898 C   0  0  0  0  0  0  0  0  0  0  0  0
   -3.4453   -2.6690   -0.5928 N   0  0  0  0  0  0  0  0  0  0  0  0
   -2.8774    0.2357    0.1115 C   0  0  0  0  0  0  0  0  0  0  0  0
   -1.0407   -2.8185   -0.2582 N   0  0  0  0  0  0  0  0  0  0  0  0
   -0.5268   -0.5794   -0.4872 C   0  0  0  0  0  0  0  0  0  0  0  0
   -2.0068   -0.7028   -0.6010 C   0  0  0  0  0  0  0  0  0  0  0  0
   -2.2362   -2.0959   -0.0301 C   0  0  0  0  0  0  0  0  0  0  0  0
   -5.3651    0.4864    0.2244 C   0  0  0  0  0  0  0  0  0  0  0  0
    1.4893   -0.3581    1.0686 C   0  0  0  0  0  0  0  0  0  0  0  0
    3.4062   -1.4507    2.0759 C   0  0  0  0  0  0  0  0  0  0  0  0
    1.5130   -2.6900    1.5157 F   0  0  0  0  0  0  0  0  0  0  0  0
    1.6055    1.8476    0.1395 F   0  0  0  0  0  0  0  0  0  0  0  0
    4.7004    0.7005    0.0051 N   0  0  0  0  0  0  0  0  0  0  0  0
    6.1580    0.8812    0.6304 S   0  0  0  0  0  0  0  0  0  0  0  0
    6.0193    1.9576    1.9338 O   0  0  0  0  0  0  0  0  0  0  0  0
    6.8369   -0.4492    1.2490 O   0  0  0  0  0  0  0  0  0  0  0  0
    7.2855    1.5789   -0.4186 C   0  0  0  0  0  0  0  0  0  0  0  0
    7.4618    0.7366   -1.6632 C   0  0  0  0  0  0  0  0  0  0  0  0
    8.4786    1.3661   -2.6130 C   0  0  0  0  0  0  0  0  0  0  0  0
   -5.5304    1.2179   -1.0703 C   0  0  0  0  0  0  0  0  0  0  0  0
   -6.9873    1.6635   -1.2668 C   0  0  0  0  0  0  0  0  0  0  0  0
   -7.7593    0.7422    0.8595 C   0  0  0  0  0  0  0  0  0  0  0  0
   -6.6511   -0.2598    0.4997 C   0  0  0  0  0  0  0  0  0  0  0  0
   -9.1230    2.8615   -0.1986 Cl  0  0  0  0  0  0  0  0  0  0  0  0
   -0.4787   -1.3205    1.7823 O   0  0  0  0  0  0  0  0  0  0  0  0
   -6.8767    2.7109    0.5847 H   0  0  0  0  0  0  0  0  0  0  0  0
    0.8809   -2.2103   -1.0195 H   0  0  0  0  0  0  0  0  0  0  0  0
   -0.5796   -1.9442   -2.0890 H   0  0  0  0  0  0  0  0  0  0  0  0
   -0.3530    0.6122    1.3221 H   0  0  0  0  0  0  0  0  0  0  0  0
    2.4592    0.2242   -0.7296 H   0  0  0  0  0  0  0  0  0  0  0  0
    3.6510    1.8870    1.3045 H   0  0  0  0  0  0  0  0  0  0  0  0
    4.8930   -0.0020    2.4322 H   0  0  0  0  0  0  0  0  0  0  0  0
    3.3359    0.4718    3.0974 H   0  0  0  0  0  0  0  0  0  0  0  0
    2.7810   -1.7833    0.1129 H   0  0  0  0  0  0  0  0  0  0  0  0
   -4.2489   -0.9752    1.2459 H   0  0  0  0  0  0  0  0  0  0  0  0
   -5.3983   -1.9640   -0.8154 H   0  0  0  0  0  0  0  0  0  0  0  0
   -4.1767   -1.1829   -1.8281 H   0  0  0  0  0  0  0  0  0  0  0  0
   -3.2703   -3.1856   -1.4595 H   0  0  0  0  0  0  0  0  0  0  0  0
   -3.1014    1.1097   -0.5526 H   0  0  0  0  0  0  0  0  0  0  0  0
   -2.5175    0.6317    1.0539 H   0  0  0  0  0  0  0  0  0  0  0  0
   -1.1371   -3.7411   -0.6907 H   0  0  0  0  0  0  0  0  0  0  0  0
   -0.1510    0.2318   -1.2011 H   0  0  0  0  0  0  0  0  0  0  0  0
   -2.2217   -0.7052   -1.7123 H   0  0  0  0  0  0  0  0  0  0  0  0
   -2.4929   -1.9425    1.0591 H   0  0  0  0  0  0  0  0  0  0  0  0
   -5.2352    1.1956    1.0706 H   0  0  0  0  0  0  0  0  0  0  0  0
    1.6029    0.0402    2.1605 H   0  0  0  0  0  0  0  0  0  0  0  0
    4.2825   -2.0439    1.7698 H   0  0  0  0  0  0  0  0  0  0  0  0
    3.0942   -1.8044    3.0764 H   0  0  0  0  0  0  0  0  0  0  0  0
    4.5910   -0.0740   -0.6700 H   0  0  0  0  0  0  0  0  0  0  0  0
    5.4848    2.7337    1.5878 H   0  0  0  0  0  0  0  0  0  0  0  0
    7.2571   -0.2616    2.1243 H   0  0  0  0  0  0  0  0  0  0  0  0
    8.2948    1.6007    0.0810 H   0  0  0  0  0  0  0  0  0  0  0  0
    7.0595    2.6153   -0.7242 H   0  0  0  0  0  0  0  0  0  0  0  0
    7.8395   -0.2876   -1.3829 H   0  0  0  0  0  0  0  0  0  0  0  0
    6.4947    0.5651   -2.1854 H   0  0  0  0  0  0  0  0  0  0  0  0
    9.1828    0.5880   -2.9685 H   0  0  0  0  0  0  0  0  0  0  0  0
    9.0823    2.1137   -2.0495 H   0  0  0  0  0  0  0  0  0  0  0  0
    7.9645    1.8903   -3.4371 H   0  0  0  0  0  0  0  0  0  0  0  0
   -5.2607    0.6463   -1.9577 H   0  0  0  0  0  0  0  0  0  0  0  0
   -4.9017    2.1419   -1.0608 H   0  0  0  0  0  0  0  0  0  0  0  0
   -7.6001    0.8640   -1.7135 H   0  0  0  0  0  0  0  0  0  0  0  0
   -6.9514    2.5413   -1.9435 H   0  0  0  0  0  0  0  0  0  0  0  0
   -7.7428    0.8681    1.9517 H   0  0  0  0  0  0  0  0  0  0  0  0
   -8.7309    0.2784    0.5736 H   0  0  0  0  0  0  0  0  0  0  0  0
   -6.5410   -0.9612    1.3296 H   0  0  0  0  0  0  0  0  0  0  0  0
   -7.0183   -0.8342   -0.3835 H   0  0  0  0  0  0  0  0  0  0  0  0
   -0.2823   -1.0469    2.7089 H   0  0  0  0  0  0  0  0  0  0  0  0
  4  5  1  0
  5  6  1  0
  8  9  1  0
  9 10  1  0
  8 11  1  0
  2 12  1  0
  2 13  1  0
  3 13  1  0
 11 14  1  0
 13 14  1  0
 10 15  1  0
 12 15  1  0
 14 15  1  0
  8 16  1  0
  3 17  1  0
  4 17  1  0
  7 17  1  0
  6 18  1  0
  7 18  1  0
  7 19  1  0
  4 20  1  0
  5 21  1  0
 21 22  1  0
 22 23  1  0
 22 24  1  0
 22 25  1  0
 25 26  1  0
 26 27  1  0
 16 28  1  0
  1 29  1  0
 28 29  1  0
  1 30  1  0
 16 31  1  0
 30 31  1  0
  1 32  1  0
  3 33  1  0
  1 34  1  0
  2 35  1  0
  2 36  1  0
  3 37  1  0
  4 38  1  0
  5 39  1  0
  6 40  1  0
  6 41  1  0
  7 42  1  0
  8 43  1  0
  9 44  1  0
  9 45  1  0
 10 46  1  0
 11 47  1  0
 11 48  1  0
 12 49  1  0
 13 50  1  0
 14 51  1  0
 15 52  1  0
 16 53  1  0
 17 54  1  0
 18 55  1  0
 18 56  1  0
 21 57  1  0
 23 58  1  0
 24 59  1  0
 25 60  1  0
 25 61  1  0
 26 62  1  0
 26 63  1  0
 27 64  1  0
 27 65  1  0
 27 66  1  0
 28 67  1  0
 28 68  1  0
 29 69  1  0
 29 70  1  0
 30 71  1  0
 30 72  1  0
 31 73  1  0
 31 74  1  0
 33 75  1  0
M  END
>  <PDBID>  (1) 
3OG7

>  <PDB ID>  (1) 
3OG7

>  <Generic Name>  (1) 
Vemurafenib

>  <Brand Name>  (1) 
Zelboraf

>  <DrugBank ID>  (1) 
DB08881

>  <ATC Codes>  (1) 
L01XE15

>  <Ligand ID>  (1) 
32

>  <Target Name>  (1) 
Serine/threonine-protein kinase B-raf

>  <UniProt ID>  (1) 
P15056

>  <PDB ID.1>  (1) 
3OG7

>  <Seq. Identity>  (1) 
94%

$$$$
