PDB_DB00428_05
     RDKit          3D

 37 37  0  0  0  0  0  0  0  0999 V2000
   -0.1920   -1.2466    1.4635 O   0  0  0  0  0  0  0  0  0  0  0  0
   -0.8547   -0.9877    0.2402 C   0  0  1  0  0  0  0  0  0  0  0  0
   -2.3000   -0.8046    0.5781 C   0  0  2  0  0  0  0  0  0  0  0  0
   -2.9788   -2.0286    0.4087 O   0  0  0  0  0  0  0  0  0  0  0  0
   -3.0178    0.2249   -0.2028 C   0  0  1  0  0  0  0  0  0  0  0  0
   -4.1969    0.7738    0.5917 C   0  0  0  0  0  0  0  0  0  0  0  0
   -3.7678    1.4613    1.7226 O   0  0  0  0  0  0  0  0  0  0  0  0
   -2.2368    1.3048   -0.5827 O   0  0  0  0  0  0  0  0  0  0  0  0
   -1.2039    0.8287   -1.3405 C   0  0  1  0  0  0  0  0  0  0  0  0
   -0.5499    1.8367   -2.0093 O   0  0  0  0  0  0  0  0  0  0  0  0
   -0.1901    0.1865   -0.3780 C   0  0  2  0  0  0  0  0  0  0  0  0
    0.9637   -0.0679   -1.1459 N   0  0  0  0  0  0  0  0  0  0  0  0
    2.1000   -0.6260   -0.5265 C   0  0  0  0  0  0  0  0  0  0  0  0
    1.9296   -1.8667    0.0451 O   0  0  0  0  0  0  0  0  0  0  0  0
    2.7381    0.2443    0.4510 N   0  0  0  0  0  0  0  0  0  0  0  0
    3.8800   -0.4787    0.9797 C   0  0  0  0  0  0  0  0  0  0  0  0
    3.2137    1.4201   -0.1167 N   0  0  0  0  0  0  0  0  0  0  0  0
    4.0619    1.2025   -1.1236 O   0  0  0  0  0  0  0  0  0  0  0  0
   -0.8053   -1.3509    2.2120 H   0  0  0  0  0  0  0  0  0  0  0  0
   -0.7675   -1.8457   -0.4522 H   0  0  0  0  0  0  0  0  0  0  0  0
   -2.4409   -0.5589    1.6706 H   0  0  0  0  0  0  0  0  0  0  0  0
   -2.8861   -2.3872   -0.4968 H   0  0  0  0  0  0  0  0  0  0  0  0
   -3.4318   -0.2100   -1.1440 H   0  0  0  0  0  0  0  0  0  0  0  0
   -4.8292    1.4482   -0.0010 H   0  0  0  0  0  0  0  0  0  0  0  0
   -4.8213   -0.0816    0.9783 H   0  0  0  0  0  0  0  0  0  0  0  0
   -3.7623    2.4527    1.5831 H   0  0  0  0  0  0  0  0  0  0  0  0
   -1.4923    0.0166   -2.0379 H   0  0  0  0  0  0  0  0  0  0  0  0
   -0.2498    1.4802   -2.8881 H   0  0  0  0  0  0  0  0  0  0  0  0
   -0.0469    0.9536    0.4222 H   0  0  0  0  0  0  0  0  0  0  0  0
    1.2329    0.7737   -1.6808 H   0  0  0  0  0  0  0  0  0  0  0  0
    2.8774   -0.7632   -1.3368 H   0  0  0  0  0  0  0  0  0  0  0  0
    2.6763   -2.4700   -0.1344 H   0  0  0  0  0  0  0  0  0  0  0  0
    4.4159   -1.0539    0.1721 H   0  0  0  0  0  0  0  0  0  0  0  0
    4.6153    0.1994    1.4600 H   0  0  0  0  0  0  0  0  0  0  0  0
    3.5846   -1.2460    1.7347 H   0  0  0  0  0  0  0  0  0  0  0  0
    3.7174    1.9412    0.6268 H   0  0  0  0  0  0  0  0  0  0  0  0
    5.0154    1.3251   -0.8907 H   0  0  0  0  0  0  0  0  0  0  0  0
  1  2  1  0
  2  3  1  0
  3  4  1  0
  3  5  1  0
  5  6  1  0
  6  7  1  0
  5  8  1  0
  8  9  1  0
  9 10  1  0
  2 11  1  0
  9 11  1  0
 11 12  1  0
 12 13  1  0
 13 14  1  0
 13 15  1  0
 15 16  1  0
 15 17  1  0
 17 18  1  0
  1 19  1  0
  2 20  1  6
  3 21  1  1
  4 22  1  0
  5 23  1  6
  6 24  1  0
  6 25  1  0
  7 26  1  0
  9 27  1  6
 10 28  1  0
 11 29  1  1
 12 30  1  0
 13 31  1  0
 14 32  1  0
 16 33  1  0
 16 34  1  0
 16 35  1  0
 17 36  1  0
 18 37  1  0
M  END
>  <PDBID>  (1) 
2W4X

>  <PDB ID>  (1) 
2W4X

>  <Generic Name>  (1) 
Streptozocin

>  <Brand Name>  (1) 
Zanosar#Zanosar Sterile Powder

>  <DrugBank ID>  (1) 
DB00428

>  <ATC Codes>  (1) 
L01AD04

>  <Ligand ID>  (1) 
STZ

>  <Target Name>  (1) 
O-GlcNAcase BT_4395

>  <UniProt ID>  (1) 
Q89ZI2

>  <PDB ID.1>  (1) 
2W4X

>  <Seq. Identity>  (1) 
100%

$$$$
