PDB_DB04787_02
     RDKit          3D

104108  0  0  0  0  0  0  0  0999 V2000
    2.1721    2.1610    1.3591 C   0  0  0  0  0  0  0  0  0  0  0  0
    2.8186    1.1774    0.4109 C   0  0  0  0  0  0  0  0  0  0  0  0
    1.9112    0.1127   -0.0718 C   0  0  2  0  0  0  0  0  0  0  0  0
    0.5323    0.1348    0.5736 C   0  0  0  0  0  0  0  0  0  0  0  0
   -0.3464   -0.6237   -0.3990 C   0  0  1  0  0  0  0  0  0  0  0  0
    0.3383   -1.8342   -0.9127 C   0  0  0  0  0  0  0  0  0  0  0  0
    1.5144   -2.2942   -0.1251 C   0  0  0  0  0  0  0  0  0  0  0  0
    2.4688   -1.2481    0.2915 C   0  0  0  0  0  0  0  0  0  0  0  0
    3.7991   -1.3836   -0.2167 N   0  0  0  0  0  0  0  0  0  0  0  0
    4.6013   -0.2985    0.3179 C   0  0  0  0  0  0  0  0  0  0  0  0
    5.8278   -1.0789    1.4414 S   0  0  0  0  0  0  0  0  0  0  0  0
    3.8911    0.5947    1.0713 O   0  0  0  0  0  0  0  0  0  0  0  0
   -1.7238   -0.8715    0.1475 C   0  0  2  0  0  0  0  0  0  0  0  0
   -2.6064   -1.6291   -0.7876 C   0  0  0  0  0  0  0  0  0  0  0  0
   -4.0255   -1.2132   -0.3795 C   0  0  0  0  0  0  0  0  0  0  0  0
   -3.8000   -0.0933    0.5790 C   0  0  0  0  0  0  0  0  0  0  0  0
   -2.4634    0.3736    0.3141 N   0  0  0  0  0  0  0  0  0  0  0  0
   -2.3755    1.2105   -0.8579 C   0  0  0  0  0  0  0  0  0  0  0  0
   -4.8520    0.9615    0.5398 C   0  0  0  0  0  0  0  0  0  0  0  0
   -4.5495    2.0024    1.4982 N   0  0  0  0  0  0  0  0  0  0  0  0
    3.2844    1.9944   -0.7914 C   0  0  0  0  0  0  0  0  0  0  0  0
    1.4424   -1.3214    3.5295 C   0  0  0  0  0  0  0  0  0  0  0  0
    2.1117   -1.7100    2.2244 C   0  0  0  0  0  0  0  0  0  0  0  0
    1.2611   -1.3627    1.0437 C   0  0  0  0  0  0  0  0  0  0  0  0
    0.9151    0.1045    0.9636 C   0  0  0  0  0  0  0  0  0  0  0  0
    0.1207    0.2564   -0.3384 C   0  0  1  0  0  0  0  0  0  0  0  0
   -1.1966   -0.4127   -0.1073 C   0  0  0  0  0  0  0  0  0  0  0  0
   -0.9454   -1.9027   -0.0228 C   0  0  0  0  0  0  0  0  0  0  0  0
    0.0703   -2.2570    1.0292 C   0  0  0  0  0  0  0  0  0  0  0  0
    0.5668   -3.6066    0.7425 N   0  0  0  0  0  0  0  0  0  0  0  0
    1.9631   -3.7409    1.1200 C   0  0  0  0  0  0  0  0  0  0  0  0
    2.2054   -5.5305    1.4618 S   0  0  0  0  0  0  0  0  0  0  0  0
    2.3003   -3.0724    2.2578 O   0  0  0  0  0  0  0  0  0  0  0  0
   -0.0085    1.7051   -0.7379 C   0  0  2  0  0  0  0  0  0  0  0  0
   -0.7077    2.5344    0.2869 C   0  0  0  0  0  0  0  0  0  0  0  0
   -2.0060    2.9969   -0.3371 C   0  0  0  0  0  0  0  0  0  0  0  0
   -1.7519    2.8072   -1.8151 C   0  0  0  0  0  0  0  0  0  0  0  0
   -0.7914    1.7503   -1.9451 N   0  0  0  0  0  0  0  0  0  0  0  0
   -0.0076    1.8145   -3.1434 C   0  0  0  0  0  0  0  0  0  0  0  0
   -3.0441    2.3248   -2.4425 C   0  0  0  0  0  0  0  0  0  0  0  0
   -4.1020    3.2969   -2.2448 N   0  0  0  0  0  0  0  0  0  0  0  0
    3.4183   -0.9443    2.1614 C   0  0  0  0  0  0  0  0  0  0  0  0
    2.9964    2.7778    1.8046 H   0  0  0  0  0  0  0  0  0  0  0  0
    1.6222    1.6857    2.1726 H   0  0  0  0  0  0  0  0  0  0  0  0
    1.5539    2.8977    0.7798 H   0  0  0  0  0  0  0  0  0  0  0  0
    1.8184    0.1113   -1.1931 H   0  0  0  0  0  0  0  0  0  0  0  0
    0.5324   -0.4706    1.5177 H   0  0  0  0  0  0  0  0  0  0  0  0
    0.1842    1.1259    0.8330 H   0  0  0  0  0  0  0  0  0  0  0  0
   -0.4769    0.0839   -1.2712 H   0  0  0  0  0  0  0  0  0  0  0  0
   -0.3780   -2.7063   -0.9720 H   0  0  0  0  0  0  0  0  0  0  0  0
    0.6856   -1.7121   -1.9813 H   0  0  0  0  0  0  0  0  0  0  0  0
    2.0739   -3.0374   -0.7653 H   0  0  0  0  0  0  0  0  0  0  0  0
    1.1526   -2.9087    0.7435 H   0  0  0  0  0  0  0  0  0  0  0  0
    2.5395   -1.2603    1.4088 H   0  0  0  0  0  0  0  0  0  0  0  0
    3.8374   -1.4433   -1.2517 H   0  0  0  0  0  0  0  0  0  0  0  0
    5.2261    0.1877   -0.4836 H   0  0  0  0  0  0  0  0  0  0  0  0
    6.3268   -2.2256    0.7754 H   0  0  0  0  0  0  0  0  0  0  0  0
   -1.7211   -1.3776    1.1175 H   0  0  0  0  0  0  0  0  0  0  0  0
   -2.5056   -1.3614   -1.8514 H   0  0  0  0  0  0  0  0  0  0  0  0
   -2.5385   -2.7407   -0.6317 H   0  0  0  0  0  0  0  0  0  0  0  0
   -4.6310   -0.9139   -1.2488 H   0  0  0  0  0  0  0  0  0  0  0  0
   -4.5495   -2.0601    0.1277 H   0  0  0  0  0  0  0  0  0  0  0  0
   -3.7919   -0.5243    1.6043 H   0  0  0  0  0  0  0  0  0  0  0  0
   -2.3551    0.6668   -1.8081 H   0  0  0  0  0  0  0  0  0  0  0  0
   -3.2161    1.9328   -0.9267 H   0  0  0  0  0  0  0  0  0  0  0  0
   -1.4615    1.8354   -0.7525 H   0  0  0  0  0  0  0  0  0  0  0  0
   -5.8032    0.4818    0.9185 H   0  0  0  0  0  0  0  0  0  0  0  0
   -5.1038    1.3341   -0.4614 H   0  0  0  0  0  0  0  0  0  0  0  0
   -4.8243    2.9502    1.1827 H   0  0  0  0  0  0  0  0  0  0  0  0
   -3.5725    1.9434    1.8571 H   0  0  0  0  0  0  0  0  0  0  0  0
    2.3436    2.2153   -1.3749 H   0  0  0  0  0  0  0  0  0  0  0  0
    3.9132    1.3968   -1.4763 H   0  0  0  0  0  0  0  0  0  0  0  0
    3.7061    2.9609   -0.5076 H   0  0  0  0  0  0  0  0  0  0  0  0
    2.2502   -1.3948    4.3114 H   0  0  0  0  0  0  0  0  0  0  0  0
    1.0650   -0.3033    3.5451 H   0  0  0  0  0  0  0  0  0  0  0  0
    0.6841   -2.0905    3.8464 H   0  0  0  0  0  0  0  0  0  0  0  0
    1.8635   -1.5909    0.1272 H   0  0  0  0  0  0  0  0  0  0  0  0
    0.2981    0.4508    1.8117 H   0  0  0  0  0  0  0  0  0  0  0  0
    1.8626    0.6592    0.8876 H   0  0  0  0  0  0  0  0  0  0  0  0
    0.6688   -0.3172   -1.1134 H   0  0  0  0  0  0  0  0  0  0  0  0
   -1.9302   -0.2355   -0.9025 H   0  0  0  0  0  0  0  0  0  0  0  0
   -1.5635   -0.0860    0.8992 H   0  0  0  0  0  0  0  0  0  0  0  0
   -1.9029   -2.3899    0.2297 H   0  0  0  0  0  0  0  0  0  0  0  0
   -0.5867   -2.2196   -1.0341 H   0  0  0  0  0  0  0  0  0  0  0  0
   -0.4526   -2.3209    2.0046 H   0  0  0  0  0  0  0  0  0  0  0  0
    0.5274   -3.7839   -0.2886 H   0  0  0  0  0  0  0  0  0  0  0  0
    2.6364   -3.5273    0.2485 H   0  0  0  0  0  0  0  0  0  0  0  0
    2.4075   -6.2522    0.2944 H   0  0  0  0  0  0  0  0  0  0  0  0
    1.0088    2.1000   -0.9158 H   0  0  0  0  0  0  0  0  0  0  0  0
   -0.8487    2.0577    1.2589 H   0  0  0  0  0  0  0  0  0  0  0  0
   -0.1133    3.4731    0.4799 H   0  0  0  0  0  0  0  0  0  0  0  0
   -2.8791    2.4427    0.0216 H   0  0  0  0  0  0  0  0  0  0  0  0
   -2.1919    4.0787   -0.1703 H   0  0  0  0  0  0  0  0  0  0  0  0
   -1.4383    3.7419   -2.3109 H   0  0  0  0  0  0  0  0  0  0  0  0
    0.4756    0.8208   -3.2795 H   0  0  0  0  0  0  0  0  0  0  0  0
   -0.7012    1.9476   -3.9941 H   0  0  0  0  0  0  0  0  0  0  0  0
    0.8027    2.5656   -3.1116 H   0  0  0  0  0  0  0  0  0  0  0  0
   -2.8469    2.2672   -3.5450 H   0  0  0  0  0  0  0  0  0  0  0  0
   -3.3133    1.3164   -2.1046 H   0  0  0  0  0  0  0  0  0  0  0  0
   -3.8259    4.1588   -2.7669 H   0  0  0  0  0  0  0  0  0  0  0  0
   -4.9851    2.9603   -2.6495 H   0  0  0  0  0  0  0  0  0  0  0  0
    4.2752   -1.5521    2.5370 H   0  0  0  0  0  0  0  0  0  0  0  0
    3.3603   -0.0388    2.7990 H   0  0  0  0  0  0  0  0  0  0  0  0
    3.5793   -0.6676    1.0865 H   0  0  0  0  0  0  0  0  0  0  0  0
  2  1  1  0
  2  3  1  0
  3  4  1  0
  4  5  1  0
  5  6  1  0
  6  7  1  0
  3  8  1  0
  7  8  1  0
  8  9  1  0
  9 10  1  0
 10 11  1  0
  2 12  1  0
 10 12  1  0
  5 13  1  0
 13 14  1  0
 14 15  1  0
 15 16  1  0
 13 17  1  0
 16 17  1  0
 17 18  1  0
 16 19  1  0
 19 20  1  0
  2 21  1  0
 23 22  1  0
 23 24  1  0
 24 25  1  0
 25 26  1  0
 26 27  1  0
 27 28  1  0
 24 29  1  0
 28 29  1  0
 29 30  1  0
 30 31  1  0
 31 32  1  0
 23 33  1  0
 31 33  1  0
 26 34  1  0
 34 35  1  0
 35 36  1  0
 36 37  1  0
 34 38  1  0
 37 38  1  0
 38 39  1  0
 37 40  1  0
 40 41  1  0
 23 42  1  0
  1 43  1  0
  1 44  1  0
  1 45  1  0
  3 46  1  6
  4 47  1  0
  4 48  1  0
  5 49  1  6
  6 50  1  0
  6 51  1  0
  7 52  1  0
  7 53  1  0
  8 54  1  0
  9 55  1  0
 10 56  1  0
 11 57  1  0
 13 58  1  1
 14 59  1  0
 14 60  1  0
 15 61  1  0
 15 62  1  0
 16 63  1  0
 18 64  1  0
 18 65  1  0
 18 66  1  0
 19 67  1  0
 19 68  1  0
 20 69  1  0
 20 70  1  0
 21 71  1  0
 21 72  1  0
 21 73  1  0
 22 74  1  0
 22 75  1  0
 22 76  1  0
 24 77  1  0
 25 78  1  0
 25 79  1  0
 26 80  1  6
 27 81  1  0
 27 82  1  0
 28 83  1  0
 28 84  1  0
 29 85  1  0
 30 86  1  0
 31 87  1  0
 32 88  1  0
 34 89  1  6
 35 90  1  0
 35 91  1  0
 36 92  1  0
 36 93  1  0
 37 94  1  0
 39 95  1  0
 39 96  1  0
 39 97  1  0
 40 98  1  0
 40 99  1  0
 41100  1  0
 41101  1  0
 42102  1  0
 42103  1  0
 42104  1  0
M  END
>  <PDBID>  (1) 
1ZUC

>  <PDB ID>  (1) 
1ZUC

>  <Generic Name>  (1) 
Tanaproget

>  <Brand Name>  (1) 
nan

>  <DrugBank ID>  (1) 
DB04787

>  <ATC Codes>  (1) 
nan

>  <Ligand ID>  (1) 
T98

>  <Target Name>  (1) 
Progesterone receptor

>  <UniProt ID>  (1) 
P06401

>  <PDB ID.1>  (1) 
1ZUC

>  <Seq. Identity>  (1) 
97%

$$$$
