PDB_DB01409_05
     RDKit          3D

116124  0  0  0  0  0  0  0  0999 V2000
    0.8604    0.4793    1.3231 C   0  0  2  0  0  0  0  0  0  0  0  0
    1.4182    0.3135    2.5704 O   0  0  0  0  0  0  0  0  0  0  0  0
    2.6889   -0.8275    0.3776 C   0  0  0  0  0  0  0  0  0  0  0  0
    2.9132    1.5914    0.6055 C   0  0  0  0  0  0  0  0  0  0  0  0
    1.7825   -2.0273    0.1675 C   0  0  0  0  0  0  0  0  0  0  0  0
    2.6928   -3.1900   -0.2020 C   0  0  0  0  0  0  0  0  0  0  0  0
    3.3961   -2.7742   -1.4832 C   0  0  0  0  0  0  0  0  0  0  0  0
    4.0597    1.7006   -0.3754 C   0  0  0  0  0  0  0  0  0  0  0  0
    4.6150    3.0985   -0.2401 C   0  0  0  0  0  0  0  0  0  0  0  0
    3.4889    4.0532   -0.5434 C   0  0  0  0  0  0  0  0  0  0  0  0
   -4.5144   -2.4724   -0.4834 O   0  0  0  0  0  0  0  0  0  0  0  0
   -0.0701   -0.4660    0.9736 O   0  0  0  0  0  0  0  0  0  0  0  0
    1.4121    0.6287   -0.9928 O   0  0  0  0  0  0  0  0  0  0  0  0
    3.8380   -1.0473   -1.0412 S   0  0  0  0  0  0  0  0  0  0  0  0
    2.1067    3.2197    0.3321 S   0  0  0  0  0  0  0  0  0  0  0  0
   -5.3752   -0.1709   -0.2954 C   0  0  0  0  0  0  0  0  0  0  0  0
   -3.6471   -0.8212    1.1920 C   0  0  2  0  0  0  0  0  0  0  0  0
   -2.2826   -0.5443    1.7168 C   0  0  0  0  0  0  0  0  0  0  0  0
   -1.3448    0.0779    0.7348 C   0  0  2  0  0  0  0  0  0  0  0  0
   -1.6853   -0.1458   -0.6921 C   0  0  0  0  0  0  0  0  0  0  0  0
   -3.1287   -0.4380   -0.9595 C   0  0  1  0  0  0  0  0  0  0  0  0
   -3.3000   -1.9576   -0.8568 C   0  0  1  0  0  0  0  0  0  0  0  0
   -3.6051   -2.2023    0.5264 C   0  0  2  0  0  0  0  0  0  0  0  0
   -3.8321    1.4397    0.3776 C   0  0  0  0  0  0  0  0  0  0  0  0
    1.9588    0.4709    0.2575 C   0  0  0  0  0  0  0  0  0  0  0  0
   -4.0140    0.0378    0.0848 N   0  0  0  0  0  0  0  0  0  0  0  0
    0.9596    0.5449   -0.4180 C   0  0  1  0  0  0  0  0  0  0  0  0
    1.4495    0.5080   -1.7201 O   0  0  0  0  0  0  0  0  0  0  0  0
    2.7373   -0.9148    0.6248 C   0  0  0  0  0  0  0  0  0  0  0  0
    3.0040    1.4704    0.7503 C   0  0  0  0  0  0  0  0  0  0  0  0
    1.9303   -2.1557    0.8065 C   0  0  0  0  0  0  0  0  0  0  0  0
    2.9691   -3.2612    0.5852 C   0  0  0  0  0  0  0  0  0  0  0  0
    3.3838   -3.1296   -0.8878 C   0  0  0  0  0  0  0  0  0  0  0  0
    3.8162    1.7181   -0.4969 C   0  0  0  0  0  0  0  0  0  0  0  0
    4.5662    3.0226   -0.2046 C   0  0  0  0  0  0  0  0  0  0  0  0
    3.4715    4.0887   -0.0468 C   0  0  0  0  0  0  0  0  0  0  0  0
   -4.3843   -2.5711    0.1486 O   0  0  0  0  0  0  0  0  0  0  0  0
   -0.0775   -0.3657   -0.2873 O   0  0  0  0  0  0  0  0  0  0  0  0
    1.2786    0.3923    1.8682 O   0  0  0  0  0  0  0  0  0  0  0  0
    3.4903   -1.2951   -1.0078 S   0  0  0  0  0  0  0  0  0  0  0  0
    2.2518    3.1258    0.9388 S   0  0  0  0  0  0  0  0  0  0  0  0
   -5.5092   -0.3412    0.3404 C   0  0  0  0  0  0  0  0  0  0  0  0
   -3.2985   -0.6355    1.2259 C   0  0  2  0  0  0  0  0  0  0  0  0
   -1.9225   -0.0765    1.2239 C   0  0  0  0  0  0  0  0  0  0  0  0
   -1.3288    0.2380   -0.1029 C   0  0  2  0  0  0  0  0  0  0  0  0
   -2.2254    0.0132   -1.2883 C   0  0  0  0  0  0  0  0  0  0  0  0
   -3.5948   -0.4705   -0.9783 C   0  0  1  0  0  0  0  0  0  0  0  0
   -3.5431   -1.9534   -0.7447 C   0  0  1  0  0  0  0  0  0  0  0  0
   -3.2522   -2.0581    0.7379 C   0  0  2  0  0  0  0  0  0  0  0  0
   -4.0487    1.4861    0.3558 C   0  0  0  0  0  0  0  0  0  0  0  0
    2.0109    0.3706    0.6395 C   0  0  0  0  0  0  0  0  0  0  0  0
   -4.1169    0.0623    0.2594 N   0  0  0  0  0  0  0  0  0  0  0  0
    0.3808    1.5005    1.3391 H   0  0  0  0  0  0  0  0  0  0  0  0
    0.8467   -0.1275    3.2269 H   0  0  0  0  0  0  0  0  0  0  0  0
    3.2193   -0.9357    1.3266 H   0  0  0  0  0  0  0  0  0  0  0  0
    3.2580    1.4867    1.6344 H   0  0  0  0  0  0  0  0  0  0  0  0
    1.2971   -2.3422    1.1162 H   0  0  0  0  0  0  0  0  0  0  0  0
    1.0845   -1.8566   -0.6595 H   0  0  0  0  0  0  0  0  0  0  0  0
    2.0578   -4.0678   -0.3219 H   0  0  0  0  0  0  0  0  0  0  0  0
    3.4558   -3.3162    0.5825 H   0  0  0  0  0  0  0  0  0  0  0  0
    4.3189   -3.3506   -1.6209 H   0  0  0  0  0  0  0  0  0  0  0  0
    2.7347   -2.7225   -2.3461 H   0  0  0  0  0  0  0  0  0  0  0  0
    4.8612    1.0256    0.0122 H   0  0  0  0  0  0  0  0  0  0  0  0
    3.7454    1.4719   -1.3958 H   0  0  0  0  0  0  0  0  0  0  0  0
    5.0198    3.2372    0.7596 H   0  0  0  0  0  0  0  0  0  0  0  0
    5.4021    3.2180   -0.9902 H   0  0  0  0  0  0  0  0  0  0  0  0
    3.6836    5.0011    0.0018 H   0  0  0  0  0  0  0  0  0  0  0  0
    3.2892    4.1710   -1.6049 H   0  0  0  0  0  0  0  0  0  0  0  0
    1.5709    1.4909   -1.4181 H   0  0  0  0  0  0  0  0  0  0  0  0
   -5.9399   -0.8419    0.3956 H   0  0  0  0  0  0  0  0  0  0  0  0
   -5.4539   -0.5213   -1.3626 H   0  0  0  0  0  0  0  0  0  0  0  0
   -5.9664    0.7918   -0.2894 H   0  0  0  0  0  0  0  0  0  0  0  0
   -4.4457   -0.7694    1.9405 H   0  0  0  0  0  0  0  0  0  0  0  0
   -1.8790   -1.4987    2.1355 H   0  0  0  0  0  0  0  0  0  0  0  0
   -2.3895    0.1326    2.6071 H   0  0  0  0  0  0  0  0  0  0  0  0
   -1.2283    1.1875    0.9078 H   0  0  0  0  0  0  0  0  0  0  0  0
   -1.4119    0.7661   -1.2996 H   0  0  0  0  0  0  0  0  0  0  0  0
   -1.0909   -0.9696   -1.1468 H   0  0  0  0  0  0  0  0  0  0  0  0
   -3.4632   -0.0725   -1.9438 H   0  0  0  0  0  0  0  0  0  0  0  0
   -2.5941   -2.5726   -1.4547 H   0  0  0  0  0  0  0  0  0  0  0  0
   -3.3243   -3.0710    1.1254 H   0  0  0  0  0  0  0  0  0  0  0  0
   -4.7983    2.0140    0.2640 H   0  0  0  0  0  0  0  0  0  0  0  0
   -3.1376    1.9222   -0.3465 H   0  0  0  0  0  0  0  0  0  0  0  0
   -3.5347    1.5927    1.4323 H   0  0  0  0  0  0  0  0  0  0  0  0
    0.4843    1.5710   -0.3342 H   0  0  0  0  0  0  0  0  0  0  0  0
    1.2408   -0.3724   -2.1563 H   0  0  0  0  0  0  0  0  0  0  0  0
    3.5310   -0.8817    1.3967 H   0  0  0  0  0  0  0  0  0  0  0  0
    3.6513    1.3076    1.6390 H   0  0  0  0  0  0  0  0  0  0  0  0
    1.6404   -2.2308    1.8631 H   0  0  0  0  0  0  0  0  0  0  0  0
    1.1199   -2.2956    0.0961 H   0  0  0  0  0  0  0  0  0  0  0  0
    2.5628   -4.2564    0.7573 H   0  0  0  0  0  0  0  0  0  0  0  0
    3.8167   -3.0811    1.2436 H   0  0  0  0  0  0  0  0  0  0  0  0
    4.3801   -3.5875   -0.9691 H   0  0  0  0  0  0  0  0  0  0  0  0
    2.6245   -3.5335   -1.5549 H   0  0  0  0  0  0  0  0  0  0  0  0
    4.6024    0.9683   -0.6707 H   0  0  0  0  0  0  0  0  0  0  0  0
    3.1700    1.9323   -1.3442 H   0  0  0  0  0  0  0  0  0  0  0  0
    5.1173    2.9296    0.7311 H   0  0  0  0  0  0  0  0  0  0  0  0
    5.1638    3.2419   -1.0938 H   0  0  0  0  0  0  0  0  0  0  0  0
    3.8975    4.9157    0.5554 H   0  0  0  0  0  0  0  0  0  0  0  0
    3.0611    4.3885   -1.0110 H   0  0  0  0  0  0  0  0  0  0  0  0
    1.2606    1.2967    2.2373 H   0  0  0  0  0  0  0  0  0  0  0  0
   -5.6322   -0.9354    1.2554 H   0  0  0  0  0  0  0  0  0  0  0  0
   -5.8537   -0.8939   -0.5478 H   0  0  0  0  0  0  0  0  0  0  0  0
   -6.1768    0.5389    0.4409 H   0  0  0  0  0  0  0  0  0  0  0  0
   -3.7092   -0.5604    2.2472 H   0  0  0  0  0  0  0  0  0  0  0  0
   -1.9394    0.8275    1.9016 H   0  0  0  0  0  0  0  0  0  0  0  0
   -1.2069   -0.7688    1.7630 H   0  0  0  0  0  0  0  0  0  0  0  0
   -1.1226    1.3500   -0.1101 H   0  0  0  0  0  0  0  0  0  0  0  0
   -2.2685    0.8990   -1.9857 H   0  0  0  0  0  0  0  0  0  0  0  0
   -1.7324   -0.7842   -1.9198 H   0  0  0  0  0  0  0  0  0  0  0  0
   -4.2588   -0.1985   -1.8379 H   0  0  0  0  0  0  0  0  0  0  0  0
   -2.9043   -2.5425   -1.4336 H   0  0  0  0  0  0  0  0  0  0  0  0
   -2.4104   -2.7191    1.0118 H   0  0  0  0  0  0  0  0  0  0  0  0
   -3.4190    1.9544   -0.4282 H   0  0  0  0  0  0  0  0  0  0  0  0
   -5.0572    1.9202    0.2699 H   0  0  0  0  0  0  0  0  0  0  0  0
   -3.6504    1.7878    1.3473 H   0  0  0  0  0  0  0  0  0  0  0  0
  1  2  1  0
  3  5  1  0
  5  6  1  0
  6  7  1  0
  4  8  1  0
  8  9  1  0
  9 10  1  0
  1 12  1  0
  3 14  1  0
  7 14  1  0
  4 15  1  0
 10 15  1  0
 17 18  1  0
 12 19  1  0
 18 19  1  0
 19 20  1  0
 20 21  1  0
 11 22  1  0
 21 22  1  0
 11 23  1  0
 17 23  1  0
 22 23  1  0
  1 25  1  0
  3 25  1  0
  4 25  1  0
 25 13  1  0
 26 16  1  0
 17 26  1  0
 21 26  1  0
 24 26  1  0
 27 28  1  0
 29 31  1  0
 31 32  1  0
 32 33  1  0
 30 34  1  0
 34 35  1  0
 35 36  1  0
 27 38  1  0
 29 40  1  0
 33 40  1  0
 30 41  1  0
 36 41  1  0
 43 44  1  0
 38 45  1  0
 44 45  1  0
 45 46  1  0
 46 47  1  0
 37 48  1  0
 47 48  1  0
 37 49  1  0
 43 49  1  0
 48 49  1  0
 27 51  1  0
 29 51  1  0
 30 51  1  0
 51 39  1  0
 52 42  1  0
 43 52  1  0
 47 52  1  0
 50 52  1  0
  1 53  1  1
  2 54  1  0
  3 55  1  0
  4 56  1  0
  5 57  1  0
  5 58  1  0
  6 59  1  0
  6 60  1  0
  7 61  1  0
  7 62  1  0
  8 63  1  0
  8 64  1  0
  9 65  1  0
  9 66  1  0
 10 67  1  0
 10 68  1  0
 13 69  1  0
 16 70  1  0
 16 71  1  0
 16 72  1  0
 17 73  1  1
 18 74  1  0
 18 75  1  0
 19 76  1  1
 20 77  1  0
 20 78  1  0
 21 79  1  6
 22 80  1  6
 23 81  1  1
 24 82  1  0
 24 83  1  0
 24 84  1  0
 27 85  1  1
 28 86  1  0
 29 87  1  0
 30 88  1  0
 31 89  1  0
 31 90  1  0
 32 91  1  0
 32 92  1  0
 33 93  1  0
 33 94  1  0
 34 95  1  0
 34 96  1  0
 35 97  1  0
 35 98  1  0
 36 99  1  0
 36100  1  0
 39101  1  0
 42102  1  0
 42103  1  0
 42104  1  0
 43105  1  1
 44106  1  0
 44107  1  0
 45108  1  1
 46109  1  0
 46110  1  0
 47111  1  6
 48112  1  6
 49113  1  6
 50114  1  0
 50115  1  0
 50116  1  0
M  CHG  2  26   1  52   1
M  END
>  <PDBID>  (1) 
4U15

>  <PDB ID>  (1) 
4U15

>  <Generic Name>  (1) 
Tiotropium

>  <Brand Name>  (1) 
Inspiolto Respimat#Spiriva#Spiriva Respimat#Stiolto Respimat

>  <DrugBank ID>  (1) 
DB01409

>  <ATC Codes>  (1) 
R03AL06#R03BB54#R03BB04

>  <Ligand ID>  (1) 
0HK

>  <Target Name>  (1) 
Muscarinic acetylcholine receptor M3

>  <UniProt ID>  (1) 
P20309

>  <PDB ID.1>  (1) 
4U15

>  <Seq. Identity>  (1) 
98%

$$$$
