PDB_DB00503_09
     RDKit          3D

124127  0  0  0  0  0  0  0  0999 V2000
   -5.0061    3.7731   -0.3410 C   0  0  0  0  0  0  0  0  0  0  0  0
   -4.1220    3.9175   -1.5884 C   0  0  0  0  0  0  0  0  0  0  0  0
   -3.1045    5.3341   -1.0780 S   0  0  0  0  0  0  0  0  0  0  0  0
   -3.9610    5.6869    0.5135 C   0  0  0  0  0  0  0  0  0  0  0  0
   -5.2582    5.0755    0.1774 N   0  0  0  0  0  0  0  0  0  0  0  0
   -3.2845    2.6630   -1.7655 C   0  0  0  0  0  0  0  0  0  0  0  0
   -4.0645    1.5450   -1.9280 O   0  0  0  0  0  0  0  0  0  0  0  0
   -3.3208    0.3553   -2.0701 C   0  0  0  0  0  0  0  0  0  0  0  0
   -3.6497   -0.0836   -3.3824 O   0  0  0  0  0  0  0  0  0  0  0  0
   -3.8477   -0.6736   -1.2007 N   0  0  0  0  0  0  0  0  0  0  0  0
   -3.7800   -0.4300    0.1757 C   0  0  2  0  0  0  0  0  0  0  0  0
   -2.3477   -0.3693    0.6572 C   0  0  2  0  0  0  0  0  0  0  0  0
   -1.5488   -1.5651    0.1822 C   0  0  0  0  0  0  0  0  0  0  0  0
   -0.1622   -1.6498    0.6222 C   0  0  2  0  0  0  0  0  0  0  0  0
   -4.5121   -1.3788    1.0619 C   0  0  0  0  0  0  0  0  0  0  0  0
   -5.9814   -1.4959    0.8750 C   0  0  0  0  0  0  0  0  0  0  0  0
   -6.6488   -0.1615    1.1034 C   0  0  0  0  0  0  0  0  0  0  0  0
   -8.1215   -0.1650    0.8615 C   0  0  0  0  0  0  0  0  0  0  0  0
   -8.6061   -1.1326   -0.1594 C   0  0  0  0  0  0  0  0  0  0  0  0
   -7.4613   -1.3706   -1.1400 C   0  0  0  0  0  0  0  0  0  0  0  0
   -6.4343   -2.1933   -0.3603 C   0  0  0  0  0  0  0  0  0  0  0  0
   -2.2365   -0.1018    1.9959 O   0  0  0  0  0  0  0  0  0  0  0  0
    0.1647   -1.7652    2.0629 C   0  0  0  0  0  0  0  0  0  0  0  0
   -0.2599   -2.9350    2.8358 C   0  0  0  0  0  0  0  0  0  0  0  0
   -1.6998   -3.2771    2.9708 C   0  0  0  0  0  0  0  0  0  0  0  0
   -1.7495   -4.2490    4.1945 C   0  0  0  0  0  0  0  0  0  0  0  0
   -1.1826   -5.5518    3.6933 C   0  0  0  0  0  0  0  0  0  0  0  0
   -0.3283   -5.4174    2.4619 C   0  0  0  0  0  0  0  0  0  0  0  0
    0.5479   -4.1909    2.4936 C   0  0  0  0  0  0  0  0  0  0  0  0
    0.7551   -0.6744   -0.0042 N   0  0  0  0  0  0  0  0  0  0  0  0
    2.9268    0.5844   -1.6141 N   0  0  0  0  0  0  0  0  0  0  0  0
    1.6438    0.2518   -2.0622 C   0  0  2  0  0  0  0  0  0  0  0  0
    0.9115   -0.8822   -1.4126 C   0  0  1  0  0  0  0  0  0  0  0  0
    1.6306   -2.0996   -1.6196 O   0  0  0  0  0  0  0  0  0  0  0  0
    1.6753    0.0719   -3.5813 C   0  0  0  0  0  0  0  0  0  0  0  0
    2.5884   -0.9972   -4.0546 C   0  0  0  0  0  0  0  0  0  0  0  0
    0.2616   -0.0796   -4.0747 C   0  0  0  0  0  0  0  0  0  0  0  0
    2.9961    1.2272   -0.3614 C   0  0  1  0  0  0  0  0  0  0  0  0
    4.3307    1.1025    0.2522 N   0  0  0  0  0  0  0  0  0  0  0  0
    5.2832    1.6594   -0.6402 C   0  0  0  0  0  0  0  0  0  0  0  0
    2.9680    2.6438   -0.6822 O   0  0  0  0  0  0  0  0  0  0  0  0
    6.7101    1.5547   -0.1247 C   0  0  0  0  0  0  0  0  0  0  0  0
    7.0754    0.0778    0.0880 C   0  0  0  0  0  0  0  0  0  0  0  0
    8.9017    0.3019    0.1197 S   0  0  0  0  0  0  0  0  0  0  0  0
    8.9356    1.8407   -0.8715 C   0  0  0  0  0  0  0  0  0  0  0  0
    7.5678    2.0862   -1.1175 N   0  0  0  0  0  0  0  0  0  0  0  0
    9.7207    2.9123   -0.2052 C   0  0  0  0  0  0  0  0  0  0  0  0
   11.1502    2.3717   -0.0425 C   0  0  0  0  0  0  0  0  0  0  0  0
    9.2433    3.2221    1.1918 C   0  0  0  0  0  0  0  0  0  0  0  0
    4.2476    1.7455    1.5270 C   0  0  0  0  0  0  0  0  0  0  0  0
   -5.9740    3.3037   -0.5644 H   0  0  0  0  0  0  0  0  0  0  0  0
   -4.4419    3.1394    0.3694 H   0  0  0  0  0  0  0  0  0  0  0  0
   -4.7025    4.1575   -2.4781 H   0  0  0  0  0  0  0  0  0  0  0  0
   -4.1255    6.7689    0.6286 H   0  0  0  0  0  0  0  0  0  0  0  0
   -3.4626    5.1890    1.3439 H   0  0  0  0  0  0  0  0  0  0  0  0
   -5.6930    5.6890   -0.5478 H   0  0  0  0  0  0  0  0  0  0  0  0
   -2.6375    2.5891   -0.8707 H   0  0  0  0  0  0  0  0  0  0  0  0
   -2.6052    2.8334   -2.6440 H   0  0  0  0  0  0  0  0  0  0  0  0
   -2.2459    0.5197   -1.9997 H   0  0  0  0  0  0  0  0  0  0  0  0
   -4.6336   -0.3064   -3.3404 H   0  0  0  0  0  0  0  0  0  0  0  0
   -3.4626   -1.5756   -1.5358 H   0  0  0  0  0  0  0  0  0  0  0  0
   -4.1765    0.6204    0.3503 H   0  0  0  0  0  0  0  0  0  0  0  0
   -1.9218    0.5469    0.1350 H   0  0  0  0  0  0  0  0  0  0  0  0
   -2.0972   -2.5178    0.3823 H   0  0  0  0  0  0  0  0  0  0  0  0
   -1.5587   -1.4979   -0.9480 H   0  0  0  0  0  0  0  0  0  0  0  0
    0.2351   -2.6393    0.1501 H   0  0  0  0  0  0  0  0  0  0  0  0
   -4.3438   -1.0376    2.1261 H   0  0  0  0  0  0  0  0  0  0  0  0
   -4.0895   -2.4064    1.0456 H   0  0  0  0  0  0  0  0  0  0  0  0
   -6.3332   -2.1396    1.7421 H   0  0  0  0  0  0  0  0  0  0  0  0
   -6.1982    0.6712    0.5523 H   0  0  0  0  0  0  0  0  0  0  0  0
   -6.4959    0.0723    2.1947 H   0  0  0  0  0  0  0  0  0  0  0  0
   -8.7124   -0.3463    1.8008 H   0  0  0  0  0  0  0  0  0  0  0  0
   -8.4414    0.8675    0.5319 H   0  0  0  0  0  0  0  0  0  0  0  0
   -9.4435   -0.7002   -0.7676 H   0  0  0  0  0  0  0  0  0  0  0  0
   -8.8579   -2.1304    0.2577 H   0  0  0  0  0  0  0  0  0  0  0  0
   -7.0666   -0.3886   -1.4184 H   0  0  0  0  0  0  0  0  0  0  0  0
   -7.7672   -1.9976   -1.9921 H   0  0  0  0  0  0  0  0  0  0  0  0
   -6.9644   -3.1722   -0.1533 H   0  0  0  0  0  0  0  0  0  0  0  0
   -5.6054   -2.4830   -1.0381 H   0  0  0  0  0  0  0  0  0  0  0  0
   -2.5593    0.7916    2.1877 H   0  0  0  0  0  0  0  0  0  0  0  0
   -0.1706   -0.8501    2.6505 H   0  0  0  0  0  0  0  0  0  0  0  0
    1.2890   -1.7116    2.1344 H   0  0  0  0  0  0  0  0  0  0  0  0
    0.0778   -2.7148    3.9179 H   0  0  0  0  0  0  0  0  0  0  0  0
   -2.3369   -2.4288    3.1876 H   0  0  0  0  0  0  0  0  0  0  0  0
   -2.0539   -3.9432    2.1456 H   0  0  0  0  0  0  0  0  0  0  0  0
   -2.7973   -4.3693    4.5174 H   0  0  0  0  0  0  0  0  0  0  0  0
   -1.0808   -3.8335    4.9718 H   0  0  0  0  0  0  0  0  0  0  0  0
   -2.0501   -6.2097    3.4589 H   0  0  0  0  0  0  0  0  0  0  0  0
   -0.6202   -6.0714    4.5160 H   0  0  0  0  0  0  0  0  0  0  0  0
   -0.9265   -5.5268    1.5441 H   0  0  0  0  0  0  0  0  0  0  0  0
    0.3729   -6.3048    2.4614 H   0  0  0  0  0  0  0  0  0  0  0  0
    0.9983   -4.0569    1.5025 H   0  0  0  0  0  0  0  0  0  0  0  0
    1.3632   -4.3738    3.2199 H   0  0  0  0  0  0  0  0  0  0  0  0
    1.6960   -1.0122    0.4620 H   0  0  0  0  0  0  0  0  0  0  0  0
    3.6676   -0.1358   -1.7759 H   0  0  0  0  0  0  0  0  0  0  0  0
    0.9342    1.1469   -1.9392 H   0  0  0  0  0  0  0  0  0  0  0  0
   -0.0293   -1.0161   -1.9231 H   0  0  0  0  0  0  0  0  0  0  0  0
    1.0180   -2.8383   -1.8556 H   0  0  0  0  0  0  0  0  0  0  0  0
    2.0402    1.0427   -3.9922 H   0  0  0  0  0  0  0  0  0  0  0  0
    3.3202   -0.6121   -4.8165 H   0  0  0  0  0  0  0  0  0  0  0  0
    3.1623   -1.4152   -3.2224 H   0  0  0  0  0  0  0  0  0  0  0  0
    2.0337   -1.7989   -4.6184 H   0  0  0  0  0  0  0  0  0  0  0  0
   -0.3725    0.5984   -3.4638 H   0  0  0  0  0  0  0  0  0  0  0  0
   -0.0509   -1.1189   -3.9594 H   0  0  0  0  0  0  0  0  0  0  0  0
    0.2075    0.2766   -5.1302 H   0  0  0  0  0  0  0  0  0  0  0  0
    2.1779    1.1124    0.3201 H   0  0  0  0  0  0  0  0  0  0  0  0
    5.2681    1.1079   -1.5997 H   0  0  0  0  0  0  0  0  0  0  0  0
    5.1096    2.7243   -0.9041 H   0  0  0  0  0  0  0  0  0  0  0  0
    3.2055    2.7891   -1.6128 H   0  0  0  0  0  0  0  0  0  0  0  0
    6.8499    2.0669    0.8256 H   0  0  0  0  0  0  0  0  0  0  0  0
    6.7930   -0.2839    1.0769 H   0  0  0  0  0  0  0  0  0  0  0  0
    6.7770   -0.5403   -0.7561 H   0  0  0  0  0  0  0  0  0  0  0  0
    9.4061    1.5430   -1.8635 H   0  0  0  0  0  0  0  0  0  0  0  0
    7.2963    3.0467   -1.3334 H   0  0  0  0  0  0  0  0  0  0  0  0
    9.7772    3.8161   -0.8300 H   0  0  0  0  0  0  0  0  0  0  0  0
   11.7271    2.5116   -0.9732 H   0  0  0  0  0  0  0  0  0  0  0  0
   11.1467    1.2782    0.1555 H   0  0  0  0  0  0  0  0  0  0  0  0
   11.6501    2.8341    0.8403 H   0  0  0  0  0  0  0  0  0  0  0  0
    9.0111    2.3225    1.7767 H   0  0  0  0  0  0  0  0  0  0  0  0
    8.3696    3.8938    1.1101 H   0  0  0  0  0  0  0  0  0  0  0  0
   10.0189    3.8267    1.7452 H   0  0  0  0  0  0  0  0  0  0  0  0
    3.2190    1.6001    1.9227 H   0  0  0  0  0  0  0  0  0  0  0  0
    4.4102    2.8327    1.5022 H   0  0  0  0  0  0  0  0  0  0  0  0
    4.9210    1.2608    2.2927 H   0  0  0  0  0  0  0  0  0  0  0  0
  1  2  1  0
  2  3  1  0
  3  4  1  0
  1  5  1  0
  4  5  1  0
  2  6  1  0
  6  7  1  0
  7  8  1  0
  8  9  1  0
  8 10  1  0
 10 11  1  0
 11 12  1  0
 12 13  1  0
 13 14  1  0
 11 15  1  0
 15 16  1  0
 16 17  1  0
 17 18  1  0
 18 19  1  0
 19 20  1  0
 16 21  1  0
 20 21  1  0
 12 22  1  0
 14 23  1  0
 23 24  1  0
 24 25  1  0
 25 26  1  0
 26 27  1  0
 27 28  1  0
 24 29  1  0
 28 29  1  0
 14 30  1  0
 31 32  1  0
 30 33  1  0
 32 33  1  0
 33 34  1  0
 32 35  1  0
 35 36  1  0
 35 37  1  0
 31 38  1  0
 38 39  1  0
 39 40  1  0
 38 41  1  0
 40 42  1  0
 42 43  1  0
 43 44  1  0
 44 45  1  0
 42 46  1  0
 45 46  1  0
 45 47  1  0
 47 48  1  0
 47 49  1  0
 39 50  1  0
  1 51  1  0
  1 52  1  0
  2 53  1  0
  4 54  1  0
  4 55  1  0
  5 56  1  0
  6 57  1  0
  6 58  1  0
  8 59  1  0
  9 60  1  0
 10 61  1  0
 11 62  1  6
 12 63  1  6
 13 64  1  0
 13 65  1  0
 14 66  1  6
 15 67  1  0
 15 68  1  0
 16 69  1  0
 17 70  1  0
 17 71  1  0
 18 72  1  0
 18 73  1  0
 19 74  1  0
 19 75  1  0
 20 76  1  0
 20 77  1  0
 21 78  1  0
 21 79  1  0
 22 80  1  0
 23 81  1  0
 23 82  1  0
 24 83  1  0
 25 84  1  0
 25 85  1  0
 26 86  1  0
 26 87  1  0
 27 88  1  0
 27 89  1  0
 28 90  1  0
 28 91  1  0
 29 92  1  0
 29 93  1  0
 30 94  1  0
 31 95  1  0
 32 96  1  6
 33 97  1  6
 34 98  1  0
 35 99  1  0
 36100  1  0
 36101  1  0
 36102  1  0
 37103  1  0
 37104  1  0
 37105  1  0
 38106  1  1
 40107  1  0
 40108  1  0
 41109  1  0
 42110  1  0
 43111  1  0
 43112  1  0
 45113  1  0
 46114  1  0
 47115  1  0
 48116  1  0
 48117  1  0
 48118  1  0
 49119  1  0
 49120  1  0
 49121  1  0
 50122  1  0
 50123  1  0
 50124  1  0
M  END
>  <PDBID>  (1) 
1HXW

>  <PDB ID>  (1) 
1HXW

>  <Generic Name>  (1) 
Ritonavir

>  <Brand Name>  (1) 
Holkira Pak#Kaletra#Lopinavir-ritonavir#Norvir#Norvir Sec#Technivie#Viekira Pak#Viekira XR#Busvir#Empetus#Normune

>  <DrugBank ID>  (1) 
DB00503

>  <ATC Codes>  (1) 
J05AX67#J05AR10#J05AE03#J05AX66

>  <Ligand ID>  (1) 
RIT

>  <Target Name>  (1) 
Pol polyprotein

>  <UniProt ID>  (1) 
Q72874

>  <PDB ID.1>  (1) 
1HXW

>  <Seq. Identity>  (1) 
98%

$$$$
