PDB_DB01577_09
     RDKit          3D

 32 32  0  0  0  0  0  0  0  0999 V2000
    2.9425   -0.2261    1.1958 N   0  0  0  0  0  0  0  0  0  0  0  0
    1.6907    0.3280    0.8711 C   0  0  1  0  0  0  0  0  0  0  0  0
    1.7342    1.6859    0.2249 C   0  0  0  0  0  0  0  0  0  0  0  0
    0.9218   -0.5848   -0.0442 C   0  0  0  0  0  0  0  0  0  0  0  0
   -0.4277   -0.0481   -0.4271 C   0  0  0  0  0  0  0  0  0  0  0  0
   -1.1374   -1.0054   -1.3559 C   0  0  0  0  0  0  0  0  0  0  0  0
   -1.3598    0.1357    0.7599 C   0  0  0  0  0  0  0  0  0  0  0  0
   -2.6130   -1.0470   -1.1916 C   0  0  0  0  0  0  0  0  0  0  0  0
   -2.5088    1.0079    0.2532 C   0  0  0  0  0  0  0  0  0  0  0  0
   -3.2623    0.2226   -0.7620 C   0  0  0  0  0  0  0  0  0  0  0  0
    3.8728   -0.5202    0.1889 C   0  0  0  0  0  0  0  0  0  0  0  0
    2.8683   -0.9578    1.9181 H   0  0  0  0  0  0  0  0  0  0  0  0
    1.1075    0.4246    1.8135 H   0  0  0  0  0  0  0  0  0  0  0  0
    1.8093    1.5328   -0.8754 H   0  0  0  0  0  0  0  0  0  0  0  0
    0.7193    2.1455    0.3896 H   0  0  0  0  0  0  0  0  0  0  0  0
    2.4536    2.3845    0.6434 H   0  0  0  0  0  0  0  0  0  0  0  0
    1.5086   -0.6817   -0.9757 H   0  0  0  0  0  0  0  0  0  0  0  0
    0.7668   -1.5981    0.3748 H   0  0  0  0  0  0  0  0  0  0  0  0
   -0.3881    0.9316   -0.9447 H   0  0  0  0  0  0  0  0  0  0  0  0
   -0.7095   -2.0205   -1.1547 H   0  0  0  0  0  0  0  0  0  0  0  0
   -0.8249   -0.7640   -2.3968 H   0  0  0  0  0  0  0  0  0  0  0  0
   -1.8323   -0.8455    1.0290 H   0  0  0  0  0  0  0  0  0  0  0  0
   -0.8879    0.5945    1.6231 H   0  0  0  0  0  0  0  0  0  0  0  0
   -3.0411   -1.3017   -2.2075 H   0  0  0  0  0  0  0  0  0  0  0  0
   -2.9523   -1.8785   -0.5361 H   0  0  0  0  0  0  0  0  0  0  0  0
   -2.0773    1.9297   -0.1885 H   0  0  0  0  0  0  0  0  0  0  0  0
   -3.1220    1.3096    1.1281 H   0  0  0  0  0  0  0  0  0  0  0  0
   -3.5592    0.8869   -1.6242 H   0  0  0  0  0  0  0  0  0  0  0  0
   -4.2511   -0.0508   -0.2912 H   0  0  0  0  0  0  0  0  0  0  0  0
    3.8858    0.0985   -0.6981 H   0  0  0  0  0  0  0  0  0  0  0  0
    4.9059   -0.4970    0.6508 H   0  0  0  0  0  0  0  0  0  0  0  0
    3.7676   -1.5911   -0.1372 H   0  0  0  0  0  0  0  0  0  0  0  0
  1  2  1  0
  2  3  1  0
  2  4  1  0
  4  5  1  0
  5  6  1  0
  5  7  1  0
  6  8  1  0
  7  9  1  0
  8 10  1  0
  9 10  1  0
  1 11  1  0
  1 12  1  0
  2 13  1  1
  3 14  1  0
  3 15  1  0
  3 16  1  0
  4 17  1  0
  4 18  1  0
  5 19  1  0
  6 20  1  0
  6 21  1  0
  7 22  1  0
  7 23  1  0
  8 24  1  0
  8 25  1  0
  9 26  1  0
  9 27  1  0
 10 28  1  0
 10 29  1  0
 11 30  1  0
 11 31  1  0
 11 32  1  0
M  END
>  <PDBID>  (1) 
4XP6

>  <PDB ID>  (1) 
4XP6

>  <Generic Name>  (1) 
Methamphetamine

>  <Brand Name>  (1) 
Desoxyn#Methamphetamine Hydrochloride

>  <DrugBank ID>  (1) 
DB01577

>  <ATC Codes>  (1) 
N06BA03

>  <Ligand ID>  (1) 
B40

>  <Target Name>  (1) 
Sodium-dependent noradrenaline transporter

>  <UniProt ID>  (1) 
P23975

>  <PDB ID.1>  (1) 
4XP6

>  <Seq. Identity>  (1) 
59%

$$$$
