PDB_DB00563_03
     RDKit          3D

 77 79  0  0  0  0  0  0  0  0999 V2000
    6.9448   -1.2929    0.1128 N   0  0  0  0  0  0  0  0  0  0  0  0
    7.9924   -0.2821   -0.1046 C   0  0  0  0  0  0  0  0  0  0  0  0
    9.3078   -0.8422   -0.0665 N   0  0  0  0  0  0  0  0  0  0  0  0
    7.8426    0.8287    0.7997 N   0  0  0  0  0  0  0  0  0  0  0  0
    6.5927    1.5232    0.5492 C   0  0  2  0  0  0  0  0  0  0  0  0
    6.4131    2.4750    1.6342 N   0  0  0  0  0  0  0  0  0  0  0  0
    5.4817    0.5021    0.6501 C   0  0  0  0  0  0  0  0  0  0  0  0
    4.1761    1.0632    0.4479 N   0  0  0  0  0  0  0  0  0  0  0  0
    3.4831    0.5915   -0.7179 C   0  0  0  0  0  0  0  0  0  0  0  0
    3.5021   -0.9066   -0.9054 C   0  0  0  0  0  0  0  0  0  0  0  0
    4.5555   -1.5314   -0.1265 N   0  0  0  0  0  0  0  0  0  0  0  0
    5.7098   -0.6643   -0.2691 C   0  0  0  0  0  0  0  0  0  0  0  0
    2.0942    1.1546   -0.7707 C   0  0  0  0  0  0  0  0  0  0  0  0
    1.2140    0.8733    0.2658 N   0  0  0  0  0  0  0  0  0  0  0  0
    1.4075    1.3917    1.5492 C   0  0  0  0  0  0  0  0  0  0  0  0
   -2.0976   -1.0680   -0.8189 C   0  0  0  0  0  0  0  0  0  0  0  0
   -1.4752   -0.8776    0.5295 C   0  0  0  0  0  0  0  0  0  0  0  0
   -1.1324    0.5385    0.8720 C   0  0  0  0  0  0  0  0  0  0  0  0
   -0.1666    1.0938   -0.1265 C   0  0  0  0  0  0  0  0  0  0  0  0
   -0.5144    0.6256   -1.4909 C   0  0  0  0  0  0  0  0  0  0  0  0
   -2.0100    0.2635   -1.5475 C   0  0  0  0  0  0  0  0  0  0  0  0
   -3.5136   -1.6053   -0.7545 C   0  0  2  0  0  0  0  0  0  0  0  0
   -3.9412   -1.7246   -2.0635 O   0  0  0  0  0  0  0  0  0  0  0  0
   -4.2776   -0.7570    0.0774 N   0  0  0  0  0  0  0  0  0  0  0  0
   -5.6339   -1.0843    0.3298 C   0  0  2  0  0  0  0  0  0  0  0  0
   -5.8002   -2.4186    1.0457 C   0  0  0  0  0  0  0  0  0  0  0  0
   -5.1514   -2.4095    2.2798 O   0  0  0  0  0  0  0  0  0  0  0  0
   -7.1624   -2.5761    1.3151 O   0  0  0  0  0  0  0  0  0  0  0  0
   -6.5577   -0.9884   -0.8577 C   0  0  0  0  0  0  0  0  0  0  0  0
   -6.6496    0.3496   -1.4963 C   0  0  0  0  0  0  0  0  0  0  0  0
   -7.1325    1.4789   -0.6707 C   0  0  0  0  0  0  0  0  0  0  0  0
   -6.3942    1.7917    0.4425 O   0  0  0  0  0  0  0  0  0  0  0  0
   -8.4716    1.3697   -0.3011 O   0  0  0  0  0  0  0  0  0  0  0  0
    7.1742   -2.1522   -0.3966 H   0  0  0  0  0  0  0  0  0  0  0  0
    7.7799    0.1176   -1.1383 H   0  0  0  0  0  0  0  0  0  0  0  0
    9.6270   -1.1195   -1.0392 H   0  0  0  0  0  0  0  0  0  0  0  0
    9.2852   -1.7493    0.4781 H   0  0  0  0  0  0  0  0  0  0  0  0
    7.9104    0.5397    1.7825 H   0  0  0  0  0  0  0  0  0  0  0  0
    6.6019    2.0147   -0.4428 H   0  0  0  0  0  0  0  0  0  0  0  0
    6.3779    3.4533    1.2847 H   0  0  0  0  0  0  0  0  0  0  0  0
    5.6223    2.2425    2.2564 H   0  0  0  0  0  0  0  0  0  0  0  0
    5.5159    0.1102    1.6975 H   0  0  0  0  0  0  0  0  0  0  0  0
    4.2018    2.1098    0.3603 H   0  0  0  0  0  0  0  0  0  0  0  0
    4.0257    1.0240   -1.5901 H   0  0  0  0  0  0  0  0  0  0  0  0
    3.7154   -1.1714   -1.9706 H   0  0  0  0  0  0  0  0  0  0  0  0
    2.5068   -1.3675   -0.6956 H   0  0  0  0  0  0  0  0  0  0  0  0
    4.3081   -1.5651    0.9000 H   0  0  0  0  0  0  0  0  0  0  0  0
    5.7848   -0.3299   -1.3351 H   0  0  0  0  0  0  0  0  0  0  0  0
    2.2169    2.2706   -0.8596 H   0  0  0  0  0  0  0  0  0  0  0  0
    1.6642    0.8517   -1.7483 H   0  0  0  0  0  0  0  0  0  0  0  0
    2.3172    1.9146    1.7930 H   0  0  0  0  0  0  0  0  0  0  0  0
    0.5672    2.0910    1.8401 H   0  0  0  0  0  0  0  0  0  0  0  0
    1.3291    0.5458    2.2941 H   0  0  0  0  0  0  0  0  0  0  0  0
   -1.4883   -1.7720   -1.4310 H   0  0  0  0  0  0  0  0  0  0  0  0
   -0.4959   -1.4408    0.5522 H   0  0  0  0  0  0  0  0  0  0  0  0
   -2.0634   -1.3327    1.3530 H   0  0  0  0  0  0  0  0  0  0  0  0
   -1.9942    1.2157    0.9865 H   0  0  0  0  0  0  0  0  0  0  0  0
   -0.6750    0.4969    1.9025 H   0  0  0  0  0  0  0  0  0  0  0  0
   -0.2937    2.2190   -0.0872 H   0  0  0  0  0  0  0  0  0  0  0  0
   -0.3345    1.4046   -2.2573 H   0  0  0  0  0  0  0  0  0  0  0  0
   -0.0020   -0.2968   -1.8224 H   0  0  0  0  0  0  0  0  0  0  0  0
   -2.2435    0.2060   -2.6149 H   0  0  0  0  0  0  0  0  0  0  0  0
   -2.6328    1.0441   -1.0921 H   0  0  0  0  0  0  0  0  0  0  0  0
   -3.4072   -2.6483   -0.3789 H   0  0  0  0  0  0  0  0  0  0  0  0
   -3.9287   -0.9220   -2.6025 H   0  0  0  0  0  0  0  0  0  0  0  0
   -3.7788   -0.3518    0.8748 H   0  0  0  0  0  0  0  0  0  0  0  0
   -6.0139   -0.3425    1.0832 H   0  0  0  0  0  0  0  0  0  0  0  0
   -5.3941   -3.2619    0.4757 H   0  0  0  0  0  0  0  0  0  0  0  0
   -5.6700   -1.8899    2.9493 H   0  0  0  0  0  0  0  0  0  0  0  0
   -7.3644   -2.2483    2.2325 H   0  0  0  0  0  0  0  0  0  0  0  0
   -7.5753   -1.4073   -0.6038 H   0  0  0  0  0  0  0  0  0  0  0  0
   -6.2149   -1.6937   -1.6744 H   0  0  0  0  0  0  0  0  0  0  0  0
   -5.6000    0.6059   -1.8390 H   0  0  0  0  0  0  0  0  0  0  0  0
   -7.2222    0.2242   -2.4422 H   0  0  0  0  0  0  0  0  0  0  0  0
   -7.0964    2.3984   -1.3287 H   0  0  0  0  0  0  0  0  0  0  0  0
   -6.7913    2.5625    0.8846 H   0  0  0  0  0  0  0  0  0  0  0  0
   -8.8866    0.5146   -0.5682 H   0  0  0  0  0  0  0  0  0  0  0  0
  1  2  1  0
  2  3  1  0
  2  4  1  0
  4  5  1  0
  5  6  1  0
  5  7  1  0
  7  8  1  0
  8  9  1  0
  9 10  1  0
 10 11  1  0
  1 12  1  0
  7 12  1  0
 11 12  1  0
  9 13  1  0
 13 14  1  0
 14 15  1  0
 16 17  1  0
 17 18  1  0
 14 19  1  0
 18 19  1  0
 19 20  1  0
 16 21  1  0
 20 21  1  0
 16 22  1  0
 22 23  1  0
 22 24  1  0
 24 25  1  0
 25 26  1  0
 26 27  1  0
 26 28  1  0
 25 29  1  0
 29 30  1  0
 30 31  1  0
 31 32  1  0
 31 33  1  0
  1 34  1  0
  2 35  1  0
  3 36  1  0
  3 37  1  0
  4 38  1  0
  5 39  1  6
  6 40  1  0
  6 41  1  0
  7 42  1  0
  8 43  1  0
  9 44  1  0
 10 45  1  0
 10 46  1  0
 11 47  1  0
 12 48  1  0
 13 49  1  0
 13 50  1  0
 15 51  1  0
 15 52  1  0
 15 53  1  0
 16 54  1  0
 17 55  1  0
 17 56  1  0
 18 57  1  0
 18 58  1  0
 19 59  1  0
 20 60  1  0
 20 61  1  0
 21 62  1  0
 21 63  1  0
 22 64  1  1
 23 65  1  0
 24 66  1  0
 25 67  1  1
 26 68  1  0
 27 69  1  0
 28 70  1  0
 29 71  1  0
 29 72  1  0
 30 73  1  0
 30 74  1  0
 31 75  1  0
 32 76  1  0
 33 77  1  0
M  END
>  <PDBID>  (1) 
1U72

>  <PDB ID>  (1) 
1U72

>  <Generic Name>  (1) 
Methotrexate

>  <Brand Name>  (1) 
Apo-methotrexate#Jamp-methotrexate#Methotrexate#Methotrexate Dbl Inj 10mg/ml#Methotrexate Dbl Inj 2.5mg/ml#Methotrexate Dbl Inj 25mg/ml#Methotrexate Injection BP#Methotrexate Injection USP#Methotrexate Injection, BP#Methotrexate Injection, USP#Methotrexate PF/sa Injection#Methotrexate Sod Inj 25mg/ml USP#Methotrexate Sodium#Methotrexate Sodium Inj 20mg#Methotrexate Sodium Inj 25.0mg/ml#Methotrexate Sodium Inj 25mg/ml#Methotrexate Sodium Inj 25mg/ml USP#Methotrexate Sodium Injection#Methotrexate Sodium Injection USP#Methotrexate Tab 2.5mg#Methotrexate Tab 2.5mg USP#Methotrexate Tablets, USP#Methotrexate-liq Im IV Iar Int Ivr 25mg/ml#Methotrexate-pws Im IV Iar Int Ivr 20mg/vial#Metoject#Metoject Subcutaneous#Otrexup#Rasuvo#Ratio-methotrexate Sodium#Rheumatrex Dose Pack#Rheumatrex Tab 2.5mg#Rheumatrex-tab 2.5mg#Trexall#Abitrexate#Alltrex#Artrait#Atrexel#Bendatrexat#Carditrex#Dermotrex#Ebetrex#Emtexate#Ledertrexate#Maxtrex#Meisusheng#Mexate#Rheumatrex#Trexan#Zexate

>  <DrugBank ID>  (1) 
DB00563

>  <ATC Codes>  (1) 
L01BA01#L04AX03

>  <Ligand ID>  (1) 
MTX

>  <Target Name>  (1) 
Dihydrofolate reductase

>  <UniProt ID>  (1) 
P00374

>  <PDB ID.1>  (1) 
1U72

>  <Seq. Identity>  (1) 
100%

$$$$
