PDB_DB00328_07
     RDKit          3D

236244  0  0  0  0  0  0  0  0999 V2000
    0.5348    0.7661   -0.4125 C   0  0  0  0  0  0  0  0  0  0  0  0
    1.8676    0.0178   -0.2964 C   0  0  0  0  0  0  0  0  0  0  0  0
    2.9176    0.8655    0.4056 C   0  0  0  0  0  0  0  0  0  0  0  0
    3.0032    2.2509   -0.1982 C   0  0  0  0  0  0  0  0  0  0  0  0
    1.6611    2.9062   -0.2852 C   0  0  0  0  0  0  0  0  0  0  0  0
    0.5778    2.0268    0.3625 C   0  0  0  0  0  0  0  0  0  0  0  0
    5.0151    3.3714   -0.0315 C   0  0  0  0  0  0  0  0  0  0  0  0
    1.6225   -1.1735    0.5764 C   0  0  1  0  0  0  0  0  0  0  0  0
    0.1780   -0.8757    1.0431 C   0  0  0  0  0  0  0  0  0  0  0  0
   -1.4632   -0.4762   -0.7988 C   0  0  0  0  0  0  0  0  0  0  0  0
   -2.8981   -0.2006   -0.4098 C   0  0  0  0  0  0  0  0  0  0  0  0
   -3.1613    1.2160   -0.0677 C   0  0  0  0  0  0  0  0  0  0  0  0
   -4.6325    1.4419    0.1512 C   0  0  0  0  0  0  0  0  0  0  0  0
   -5.4926    0.2369   -0.0232 C   0  0  0  0  0  0  0  0  0  0  0  0
   -4.9729   -0.9964    0.6206 C   0  0  0  0  0  0  0  0  0  0  0  0
   -3.4766   -1.1487    0.5812 C   0  0  0  0  0  0  0  0  0  0  0  0
   -0.4047   -1.9715    1.8120 C   0  0  0  0  0  0  0  0  0  0  0  0
    1.7493   -2.4995   -0.0790 C   0  0  0  0  0  0  0  0  0  0  0  0
    3.1603   -2.6587   -0.6251 C   0  0  0  0  0  0  0  0  0  0  0  0
   -0.4540   -0.1918    0.0498 N   0  0  0  0  0  0  0  0  0  0  0  0
    3.8353    2.9927    0.6113 O   0  0  0  0  0  0  0  0  0  0  0  0
   -1.4805   -1.7244   -1.4252 O   0  0  0  0  0  0  0  0  0  0  0  0
    4.0538   -2.5608    0.4551 O   0  0  0  0  0  0  0  0  0  0  0  0
    3.2403   -3.9590   -1.1586 O   0  0  0  0  0  0  0  0  0  0  0  0
   -7.0671    0.6096    0.7441 Cl  0  0  0  0  0  0  0  0  0  0  0  0
    0.5348    0.7661   -0.4125 C   0  0  0  0  0  0  0  0  0  0  0  0
    1.8676    0.0178   -0.2964 C   0  0  0  0  0  0  0  0  0  0  0  0
    2.9176    0.8655    0.4056 C   0  0  0  0  0  0  0  0  0  0  0  0
    3.0032    2.2509   -0.1982 C   0  0  0  0  0  0  0  0  0  0  0  0
    1.6611    2.9062   -0.2852 C   0  0  0  0  0  0  0  0  0  0  0  0
    0.5778    2.0268    0.3625 C   0  0  0  0  0  0  0  0  0  0  0  0
    5.0151    3.3714   -0.0315 C   0  0  0  0  0  0  0  0  0  0  0  0
    1.6225   -1.1735    0.5764 C   0  0  1  0  0  0  0  0  0  0  0  0
    0.1780   -0.8757    1.0431 C   0  0  0  0  0  0  0  0  0  0  0  0
   -1.4632   -0.4762   -0.7988 C   0  0  0  0  0  0  0  0  0  0  0  0
   -2.8981   -0.2006   -0.4098 C   0  0  0  0  0  0  0  0  0  0  0  0
   -3.1613    1.2160   -0.0677 C   0  0  0  0  0  0  0  0  0  0  0  0
   -4.6325    1.4419    0.1512 C   0  0  0  0  0  0  0  0  0  0  0  0
   -5.4926    0.2369   -0.0232 C   0  0  0  0  0  0  0  0  0  0  0  0
   -4.9729   -0.9964    0.6206 C   0  0  0  0  0  0  0  0  0  0  0  0
   -3.4766   -1.1487    0.5812 C   0  0  0  0  0  0  0  0  0  0  0  0
   -0.4047   -1.9715    1.8120 C   0  0  0  0  0  0  0  0  0  0  0  0
    1.7493   -2.4995   -0.0790 C   0  0  0  0  0  0  0  0  0  0  0  0
    3.1603   -2.6587   -0.6251 C   0  0  0  0  0  0  0  0  0  0  0  0
   -0.4540   -0.1918    0.0498 N   0  0  0  0  0  0  0  0  0  0  0  0
    3.8353    2.9927    0.6113 O   0  0  0  0  0  0  0  0  0  0  0  0
   -1.4805   -1.7244   -1.4252 O   0  0  0  0  0  0  0  0  0  0  0  0
    4.0538   -2.5608    0.4551 O   0  0  0  0  0  0  0  0  0  0  0  0
    3.2403   -3.9590   -1.1586 O   0  0  0  0  0  0  0  0  0  0  0  0
   -7.0671    0.6096    0.7441 Cl  0  0  0  0  0  0  0  0  0  0  0  0
    0.3461    0.5622   -0.4322 C   0  0  0  0  0  0  0  0  0  0  0  0
    1.7133   -0.0864   -0.4551 C   0  0  0  0  0  0  0  0  0  0  0  0
    2.6886    0.7869    0.2513 C   0  0  0  0  0  0  0  0  0  0  0  0
    2.9125    1.9953   -0.6693 C   0  0  0  0  0  0  0  0  0  0  0  0
    1.5906    2.6555   -0.8708 C   0  0  0  0  0  0  0  0  0  0  0  0
    0.4648    2.0033   -0.0767 C   0  0  0  0  0  0  0  0  0  0  0  0
    4.9933    2.8724   -1.1032 C   0  0  0  0  0  0  0  0  0  0  0  0
    1.4760   -1.4363    0.1882 C   0  0  0  0  0  0  0  0  0  0  0  0
    0.3418   -1.1419    1.1484 C   0  0  0  0  0  0  0  0  0  0  0  0
   -1.6959    0.1775    0.8395 C   0  0  0  0  0  0  0  0  0  0  0  0
   -2.7118    0.4327   -0.2857 C   0  0  0  0  0  0  0  0  0  0  0  0
   -3.9891    0.8722    0.3439 C   0  0  0  0  0  0  0  0  0  0  0  0
   -5.1655    0.8872   -0.5682 C   0  0  0  0  0  0  0  0  0  0  0  0
   -5.3370   -0.3840   -1.3565 C   0  0  0  0  0  0  0  0  0  0  0  0
   -4.0253   -0.6520   -2.0618 C   0  0  0  0  0  0  0  0  0  0  0  0
   -2.9562   -0.8562   -1.0408 C   0  0  0  0  0  0  0  0  0  0  0  0
    0.7487   -0.6245    2.4753 C   0  0  0  0  0  0  0  0  0  0  0  0
    2.6840   -2.0578    0.7672 C   0  0  0  0  0  0  0  0  0  0  0  0
    2.4270   -3.4055    1.3745 C   0  0  0  0  0  0  0  0  0  0  0  0
   -0.4543   -0.2407    0.3781 N   0  0  0  0  0  0  0  0  0  0  0  0
    3.9121    2.8172   -0.2282 O   0  0  0  0  0  0  0  0  0  0  0  0
   -2.2562   -0.6071    1.8453 O   0  0  0  0  0  0  0  0  0  0  0  0
    3.5919   -3.9622    1.9178 O   0  0  0  0  0  0  0  0  0  0  0  0
    1.3925   -3.4435    2.2963 O   0  0  0  0  0  0  0  0  0  0  0  0
   -5.7977   -1.7560   -0.3569 Cl  0  0  0  0  0  0  0  0  0  0  0  0
    0.5348    0.7661   -0.4125 C   0  0  0  0  0  0  0  0  0  0  0  0
    1.8676    0.0178   -0.2964 C   0  0  0  0  0  0  0  0  0  0  0  0
    2.9176    0.8655    0.4056 C   0  0  0  0  0  0  0  0  0  0  0  0
    3.0032    2.2509   -0.1982 C   0  0  0  0  0  0  0  0  0  0  0  0
    1.6611    2.9062   -0.2852 C   0  0  0  0  0  0  0  0  0  0  0  0
    0.5778    2.0268    0.3625 C   0  0  0  0  0  0  0  0  0  0  0  0
    5.0151    3.3714   -0.0315 C   0  0  0  0  0  0  0  0  0  0  0  0
    1.6225   -1.1735    0.5764 C   0  0  1  0  0  0  0  0  0  0  0  0
    0.1780   -0.8757    1.0431 C   0  0  0  0  0  0  0  0  0  0  0  0
   -1.4632   -0.4762   -0.7988 C   0  0  0  0  0  0  0  0  0  0  0  0
   -2.8981   -0.2006   -0.4098 C   0  0  0  0  0  0  0  0  0  0  0  0
   -3.1613    1.2160   -0.0677 C   0  0  0  0  0  0  0  0  0  0  0  0
   -4.6325    1.4419    0.1512 C   0  0  0  0  0  0  0  0  0  0  0  0
   -5.4926    0.2369   -0.0232 C   0  0  0  0  0  0  0  0  0  0  0  0
   -4.9729   -0.9964    0.6206 C   0  0  0  0  0  0  0  0  0  0  0  0
   -3.4766   -1.1487    0.5812 C   0  0  0  0  0  0  0  0  0  0  0  0
   -0.4047   -1.9715    1.8120 C   0  0  0  0  0  0  0  0  0  0  0  0
    1.7493   -2.4995   -0.0790 C   0  0  0  0  0  0  0  0  0  0  0  0
    3.1603   -2.6587   -0.6251 C   0  0  0  0  0  0  0  0  0  0  0  0
   -0.4540   -0.1918    0.0498 N   0  0  0  0  0  0  0  0  0  0  0  0
    3.8353    2.9927    0.6113 O   0  0  0  0  0  0  0  0  0  0  0  0
   -1.4805   -1.7244   -1.4252 O   0  0  0  0  0  0  0  0  0  0  0  0
    4.0538   -2.5608    0.4551 O   0  0  0  0  0  0  0  0  0  0  0  0
    3.2403   -3.9590   -1.1586 O   0  0  0  0  0  0  0  0  0  0  0  0
   -7.0671    0.6096    0.7441 Cl  0  0  0  0  0  0  0  0  0  0  0  0
    0.4186    0.9727   -1.5022 H   0  0  0  0  0  0  0  0  0  0  0  0
    2.2738   -0.2678   -1.2641 H   0  0  0  0  0  0  0  0  0  0  0  0
    2.7325    0.9591    1.4754 H   0  0  0  0  0  0  0  0  0  0  0  0
    3.8940    0.3704    0.2576 H   0  0  0  0  0  0  0  0  0  0  0  0
    3.4762    2.1266   -1.1993 H   0  0  0  0  0  0  0  0  0  0  0  0
    1.3620    3.0426   -1.3461 H   0  0  0  0  0  0  0  0  0  0  0  0
    1.6041    3.8909    0.1884 H   0  0  0  0  0  0  0  0  0  0  0  0
    0.8390    1.8657    1.4216 H   0  0  0  0  0  0  0  0  0  0  0  0
   -0.3817    2.5566    0.2324 H   0  0  0  0  0  0  0  0  0  0  0  0
    5.6137    3.9667    0.6946 H   0  0  0  0  0  0  0  0  0  0  0  0
    5.6374    2.4907   -0.3015 H   0  0  0  0  0  0  0  0  0  0  0  0
    4.8144    4.0315   -0.8962 H   0  0  0  0  0  0  0  0  0  0  0  0
    2.2961   -1.1911    1.4847 H   0  0  0  0  0  0  0  0  0  0  0  0
    0.4101   -0.0829    1.8487 H   0  0  0  0  0  0  0  0  0  0  0  0
   -1.3381    0.2216   -1.7153 H   0  0  0  0  0  0  0  0  0  0  0  0
   -3.5529   -0.3823   -1.3591 H   0  0  0  0  0  0  0  0  0  0  0  0
   -2.5738    1.4539    0.8478 H   0  0  0  0  0  0  0  0  0  0  0  0
   -2.7974    1.8857   -0.8616 H   0  0  0  0  0  0  0  0  0  0  0  0
   -4.9906    2.2170   -0.5419 H   0  0  0  0  0  0  0  0  0  0  0  0
   -4.7500    1.8558    1.1956 H   0  0  0  0  0  0  0  0  0  0  0  0
   -5.7228   -0.0072   -1.0782 H   0  0  0  0  0  0  0  0  0  0  0  0
   -5.4317   -1.8845    0.1295 H   0  0  0  0  0  0  0  0  0  0  0  0
   -5.3505   -1.0188    1.6830 H   0  0  0  0  0  0  0  0  0  0  0  0
   -3.1118   -1.0568    1.5993 H   0  0  0  0  0  0  0  0  0  0  0  0
   -3.1993   -2.1875    0.2173 H   0  0  0  0  0  0  0  0  0  0  0  0
   -0.9663   -2.7369    1.3060 H   0  0  0  0  0  0  0  0  0  0  0  0
   -1.0370   -1.5721    2.6543 H   0  0  0  0  0  0  0  0  0  0  0  0
    0.4378   -2.4963    2.3651 H   0  0  0  0  0  0  0  0  0  0  0  0
    1.0890   -2.5665   -0.9718 H   0  0  0  0  0  0  0  0  0  0  0  0
    1.6050   -3.3486    0.6212 H   0  0  0  0  0  0  0  0  0  0  0  0
    3.4172   -1.9379   -1.4017 H   0  0  0  0  0  0  0  0  0  0  0  0
   -0.9174   -1.7497   -2.2496 H   0  0  0  0  0  0  0  0  0  0  0  0
    3.7808   -3.1747    1.1713 H   0  0  0  0  0  0  0  0  0  0  0  0
    2.5067   -4.5108   -0.8316 H   0  0  0  0  0  0  0  0  0  0  0  0
    0.4186    0.9727   -1.5022 H   0  0  0  0  0  0  0  0  0  0  0  0
    2.2738   -0.2678   -1.2641 H   0  0  0  0  0  0  0  0  0  0  0  0
    2.7325    0.9591    1.4754 H   0  0  0  0  0  0  0  0  0  0  0  0
    3.8940    0.3704    0.2576 H   0  0  0  0  0  0  0  0  0  0  0  0
    3.4762    2.1266   -1.1993 H   0  0  0  0  0  0  0  0  0  0  0  0
    1.3620    3.0426   -1.3461 H   0  0  0  0  0  0  0  0  0  0  0  0
    1.6041    3.8909    0.1884 H   0  0  0  0  0  0  0  0  0  0  0  0
    0.8390    1.8657    1.4216 H   0  0  0  0  0  0  0  0  0  0  0  0
   -0.3817    2.5566    0.2324 H   0  0  0  0  0  0  0  0  0  0  0  0
    5.6137    3.9667    0.6946 H   0  0  0  0  0  0  0  0  0  0  0  0
    5.6374    2.4907   -0.3015 H   0  0  0  0  0  0  0  0  0  0  0  0
    4.8144    4.0315   -0.8962 H   0  0  0  0  0  0  0  0  0  0  0  0
    2.2961   -1.1911    1.4847 H   0  0  0  0  0  0  0  0  0  0  0  0
    0.4101   -0.0829    1.8487 H   0  0  0  0  0  0  0  0  0  0  0  0
   -1.3381    0.2216   -1.7153 H   0  0  0  0  0  0  0  0  0  0  0  0
   -3.5529   -0.3823   -1.3591 H   0  0  0  0  0  0  0  0  0  0  0  0
   -2.5738    1.4539    0.8478 H   0  0  0  0  0  0  0  0  0  0  0  0
   -2.7974    1.8857   -0.8616 H   0  0  0  0  0  0  0  0  0  0  0  0
   -4.9906    2.2170   -0.5419 H   0  0  0  0  0  0  0  0  0  0  0  0
   -4.7500    1.8558    1.1956 H   0  0  0  0  0  0  0  0  0  0  0  0
   -5.7228   -0.0072   -1.0782 H   0  0  0  0  0  0  0  0  0  0  0  0
   -5.4317   -1.8845    0.1295 H   0  0  0  0  0  0  0  0  0  0  0  0
   -5.3505   -1.0188    1.6830 H   0  0  0  0  0  0  0  0  0  0  0  0
   -3.1118   -1.0568    1.5993 H   0  0  0  0  0  0  0  0  0  0  0  0
   -3.1993   -2.1875    0.2173 H   0  0  0  0  0  0  0  0  0  0  0  0
   -0.9663   -2.7369    1.3060 H   0  0  0  0  0  0  0  0  0  0  0  0
   -1.0370   -1.5721    2.6543 H   0  0  0  0  0  0  0  0  0  0  0  0
    0.4378   -2.4963    2.3651 H   0  0  0  0  0  0  0  0  0  0  0  0
    1.0890   -2.5665   -0.9718 H   0  0  0  0  0  0  0  0  0  0  0  0
    1.6050   -3.3486    0.6212 H   0  0  0  0  0  0  0  0  0  0  0  0
    3.4172   -1.9379   -1.4017 H   0  0  0  0  0  0  0  0  0  0  0  0
   -0.9174   -1.7497   -2.2496 H   0  0  0  0  0  0  0  0  0  0  0  0
    3.7808   -3.1747    1.1713 H   0  0  0  0  0  0  0  0  0  0  0  0
    2.5067   -4.5108   -0.8316 H   0  0  0  0  0  0  0  0  0  0  0  0
   -0.0349    0.5156   -1.4907 H   0  0  0  0  0  0  0  0  0  0  0  0
    2.0890   -0.2339   -1.4974 H   0  0  0  0  0  0  0  0  0  0  0  0
    2.3900    1.1625    1.2276 H   0  0  0  0  0  0  0  0  0  0  0  0
    3.6936    0.3310    0.3678 H   0  0  0  0  0  0  0  0  0  0  0  0
    3.2228    1.5585   -1.6531 H   0  0  0  0  0  0  0  0  0  0  0  0
    1.2987    2.7876   -1.9279 H   0  0  0  0  0  0  0  0  0  0  0  0
    1.6671    3.7020   -0.4566 H   0  0  0  0  0  0  0  0  0  0  0  0
   -0.4576    2.5817   -0.3691 H   0  0  0  0  0  0  0  0  0  0  0  0
    0.6635    2.2179    0.9755 H   0  0  0  0  0  0  0  0  0  0  0  0
    4.6125    3.2589   -2.0819 H   0  0  0  0  0  0  0  0  0  0  0  0
    5.7811    3.5119   -0.6953 H   0  0  0  0  0  0  0  0  0  0  0  0
    5.3831    1.8532   -1.3198 H   0  0  0  0  0  0  0  0  0  0  0  0
    1.1020   -2.1014   -0.6204 H   0  0  0  0  0  0  0  0  0  0  0  0
   -0.2234   -2.0790    1.2791 H   0  0  0  0  0  0  0  0  0  0  0  0
   -1.5755    1.1993    1.3136 H   0  0  0  0  0  0  0  0  0  0  0  0
   -2.3119    1.1860   -0.9625 H   0  0  0  0  0  0  0  0  0  0  0  0
   -4.2409    0.2466    1.2321 H   0  0  0  0  0  0  0  0  0  0  0  0
   -3.8398    1.9185    0.7142 H   0  0  0  0  0  0  0  0  0  0  0  0
   -6.0838    1.0239    0.0396 H   0  0  0  0  0  0  0  0  0  0  0  0
   -5.1622    1.7447   -1.2926 H   0  0  0  0  0  0  0  0  0  0  0  0
   -6.0992   -0.2196   -2.1378 H   0  0  0  0  0  0  0  0  0  0  0  0
   -3.7866    0.1317   -2.7914 H   0  0  0  0  0  0  0  0  0  0  0  0
   -4.1583   -1.5947   -2.6301 H   0  0  0  0  0  0  0  0  0  0  0  0
   -3.2626   -1.6643   -0.3503 H   0  0  0  0  0  0  0  0  0  0  0  0
   -2.0442   -1.2136   -1.5716 H   0  0  0  0  0  0  0  0  0  0  0  0
    0.5703    0.4674    2.6088 H   0  0  0  0  0  0  0  0  0  0  0  0
    0.2424   -1.2028    3.3029 H   0  0  0  0  0  0  0  0  0  0  0  0
    1.8287   -0.7783    2.6534 H   0  0  0  0  0  0  0  0  0  0  0  0
    3.3671   -2.2667   -0.1147 H   0  0  0  0  0  0  0  0  0  0  0  0
    3.3054   -1.4036    1.4084 H   0  0  0  0  0  0  0  0  0  0  0  0
    2.1150   -4.1537    0.5793 H   0  0  0  0  0  0  0  0  0  0  0  0
   -2.0455   -0.2999    2.7472 H   0  0  0  0  0  0  0  0  0  0  0  0
    4.1561   -3.2794    2.3575 H   0  0  0  0  0  0  0  0  0  0  0  0
    0.9440   -4.3161    2.3110 H   0  0  0  0  0  0  0  0  0  0  0  0
    0.4186    0.9727   -1.5022 H   0  0  0  0  0  0  0  0  0  0  0  0
    2.2738   -0.2678   -1.2641 H   0  0  0  0  0  0  0  0  0  0  0  0
    2.7325    0.9591    1.4754 H   0  0  0  0  0  0  0  0  0  0  0  0
    3.8940    0.3704    0.2576 H   0  0  0  0  0  0  0  0  0  0  0  0
    3.4762    2.1266   -1.1993 H   0  0  0  0  0  0  0  0  0  0  0  0
    1.3620    3.0426   -1.3461 H   0  0  0  0  0  0  0  0  0  0  0  0
    1.6041    3.8909    0.1884 H   0  0  0  0  0  0  0  0  0  0  0  0
    0.8390    1.8657    1.4216 H   0  0  0  0  0  0  0  0  0  0  0  0
   -0.3817    2.5566    0.2324 H   0  0  0  0  0  0  0  0  0  0  0  0
    5.6137    3.9667    0.6946 H   0  0  0  0  0  0  0  0  0  0  0  0
    5.6374    2.4907   -0.3015 H   0  0  0  0  0  0  0  0  0  0  0  0
    4.8144    4.0315   -0.8962 H   0  0  0  0  0  0  0  0  0  0  0  0
    2.2961   -1.1911    1.4847 H   0  0  0  0  0  0  0  0  0  0  0  0
    0.4101   -0.0829    1.8487 H   0  0  0  0  0  0  0  0  0  0  0  0
   -1.3381    0.2216   -1.7153 H   0  0  0  0  0  0  0  0  0  0  0  0
   -3.5529   -0.3823   -1.3591 H   0  0  0  0  0  0  0  0  0  0  0  0
   -2.5738    1.4539    0.8478 H   0  0  0  0  0  0  0  0  0  0  0  0
   -2.7974    1.8857   -0.8616 H   0  0  0  0  0  0  0  0  0  0  0  0
   -4.9906    2.2170   -0.5419 H   0  0  0  0  0  0  0  0  0  0  0  0
   -4.7500    1.8558    1.1956 H   0  0  0  0  0  0  0  0  0  0  0  0
   -5.7228   -0.0072   -1.0782 H   0  0  0  0  0  0  0  0  0  0  0  0
   -5.4317   -1.8845    0.1295 H   0  0  0  0  0  0  0  0  0  0  0  0
   -5.3505   -1.0188    1.6830 H   0  0  0  0  0  0  0  0  0  0  0  0
   -3.1118   -1.0568    1.5993 H   0  0  0  0  0  0  0  0  0  0  0  0
   -3.1993   -2.1875    0.2173 H   0  0  0  0  0  0  0  0  0  0  0  0
   -0.9663   -2.7369    1.3060 H   0  0  0  0  0  0  0  0  0  0  0  0
   -1.0370   -1.5721    2.6543 H   0  0  0  0  0  0  0  0  0  0  0  0
    0.4378   -2.4963    2.3651 H   0  0  0  0  0  0  0  0  0  0  0  0
    1.0890   -2.5665   -0.9718 H   0  0  0  0  0  0  0  0  0  0  0  0
    1.6050   -3.3486    0.6212 H   0  0  0  0  0  0  0  0  0  0  0  0
    3.4172   -1.9379   -1.4017 H   0  0  0  0  0  0  0  0  0  0  0  0
   -0.9174   -1.7497   -2.2496 H   0  0  0  0  0  0  0  0  0  0  0  0
    3.7808   -3.1747    1.1713 H   0  0  0  0  0  0  0  0  0  0  0  0
    2.5067   -4.5108   -0.8316 H   0  0  0  0  0  0  0  0  0  0  0  0
  1  2  1  0
  2  3  1  0
  3  4  1  0
  4  5  1  0
  1  6  1  0
  5  6  1  0
  2  8  1  0
  8  9  1  0
 10 11  1  0
 11 12  1  0
 12 13  1  0
 13 14  1  0
 14 15  1  0
 11 16  1  0
 15 16  1  0
  9 17  1  0
  8 18  1  0
 18 19  1  0
  1 20  1  0
  9 20  1  0
 10 20  1  0
  4 21  1  0
  7 21  1  0
 10 22  1  0
 19 23  1  0
 19 24  1  0
 14 25  1  0
 26 27  1  0
 27 28  1  0
 28 29  1  0
 29 30  1  0
 26 31  1  0
 30 31  1  0
 27 33  1  0
 33 34  1  0
 35 36  1  0
 36 37  1  0
 37 38  1  0
 38 39  1  0
 39 40  1  0
 36 41  1  0
 40 41  1  0
 34 42  1  0
 33 43  1  0
 43 44  1  0
 26 45  1  0
 34 45  1  0
 35 45  1  0
 29 46  1  0
 32 46  1  0
 35 47  1  0
 44 48  1  0
 44 49  1  0
 39 50  1  0
 51 52  1  0
 52 53  1  0
 53 54  1  0
 54 55  1  0
 51 56  1  0
 55 56  1  0
 52 58  1  0
 58 59  1  0
 60 61  1  0
 61 62  1  0
 62 63  1  0
 63 64  1  0
 64 65  1  0
 61 66  1  0
 65 66  1  0
 59 67  1  0
 58 68  1  0
 68 69  1  0
 51 70  1  0
 59 70  1  0
 60 70  1  0
 54 71  1  0
 57 71  1  0
 60 72  1  0
 69 73  1  0
 69 74  1  0
 64 75  1  0
 76 77  1  0
 77 78  1  0
 78 79  1  0
 79 80  1  0
 76 81  1  0
 80 81  1  0
 77 83  1  0
 83 84  1  0
 85 86  1  0
 86 87  1  0
 87 88  1  0
 88 89  1  0
 89 90  1  0
 86 91  1  0
 90 91  1  0
 84 92  1  0
 83 93  1  0
 93 94  1  0
 76 95  1  0
 84 95  1  0
 85 95  1  0
 79 96  1  0
 82 96  1  0
 85 97  1  0
 94 98  1  0
 94 99  1  0
 89100  1  0
  1101  1  0
  2102  1  0
  3103  1  0
  3104  1  0
  4105  1  0
  5106  1  0
  5107  1  0
  6108  1  0
  6109  1  0
  7110  1  0
  7111  1  0
  7112  1  0
  8113  1  1
  9114  1  0
 10115  1  0
 11116  1  0
 12117  1  0
 12118  1  0
 13119  1  0
 13120  1  0
 14121  1  0
 15122  1  0
 15123  1  0
 16124  1  0
 16125  1  0
 17126  1  0
 17127  1  0
 17128  1  0
 18129  1  0
 18130  1  0
 19131  1  0
 22132  1  0
 23133  1  0
 24134  1  0
 26135  1  0
 27136  1  0
 28137  1  0
 28138  1  0
 29139  1  0
 30140  1  0
 30141  1  0
 31142  1  0
 31143  1  0
 32144  1  0
 32145  1  0
 32146  1  0
 33147  1  1
 34148  1  0
 35149  1  0
 36150  1  0
 37151  1  0
 37152  1  0
 38153  1  0
 38154  1  0
 39155  1  0
 40156  1  0
 40157  1  0
 41158  1  0
 41159  1  0
 42160  1  0
 42161  1  0
 42162  1  0
 43163  1  0
 43164  1  0
 44165  1  0
 47166  1  0
 48167  1  0
 49168  1  0
 51169  1  0
 52170  1  0
 53171  1  0
 53172  1  0
 54173  1  0
 55174  1  0
 55175  1  0
 56176  1  0
 56177  1  0
 57178  1  0
 57179  1  0
 57180  1  0
 58181  1  0
 59182  1  0
 60183  1  0
 61184  1  0
 62185  1  0
 62186  1  0
 63187  1  0
 63188  1  0
 64189  1  0
 65190  1  0
 65191  1  0
 66192  1  0
 66193  1  0
 67194  1  0
 67195  1  0
 67196  1  0
 68197  1  0
 68198  1  0
 69199  1  0
 72200  1  0
 73201  1  0
 74202  1  0
 76203  1  0
 77204  1  0
 78205  1  0
 78206  1  0
 79207  1  0
 80208  1  0
 80209  1  0
 81210  1  0
 81211  1  0
 82212  1  0
 82213  1  0
 82214  1  0
 83215  1  1
 84216  1  0
 85217  1  0
 86218  1  0
 87219  1  0
 87220  1  0
 88221  1  0
 88222  1  0
 89223  1  0
 90224  1  0
 90225  1  0
 91226  1  0
 91227  1  0
 92228  1  0
 92229  1  0
 92230  1  0
 93231  1  0
 93232  1  0
 94233  1  0
 97234  1  0
 98235  1  0
 99236  1  0
M  END
>  <PDBID>  (1) 
4COX

>  <PDB ID>  (1) 
4COX

>  <Generic Name>  (1) 
Indomethacin

>  <Brand Name>  (1) 
Apo Indomethacin Cap 25mg#Apo Indomethacin Cap 50mg#Ftp-indomethacin#Indocid Cap 25mg#Indocid Cap 50mg#Indocid SR 75mg#Indocid Sterile Oph Susp 1%#Indocid Sup 100mg#Indocid Sup 50mg#Indocin#Indocollyre#Indomethacin#Indomethacin ER#Indomethacin Extended-release#Mint-indomethacin#Novo-methacin - 100mg Sup#Novo-methacin - Sup 50mg#Ntp-indomethacin#Nu-indo Cap 25mg#Nu-indo Cap 50mg#Pro-indo 25 Cap 25mg#Pro-indo 50 Cap 50mg#Ratio-indomethacin#Rhodacine - Cap 25mg#Rhodacine - Cap 50mg#Rhodacine - Sup 100mg#Rhodacine - Sup 50mg#Sandoz Indomethacin#Teva-indomethacin#Tivorbex#Arthrexin#Elmetacin#Indaflex#Indocid#Indolar SR#Indomed#Indoxen#Metindol#Mikametan#Nu-Indo#Reumacide

>  <DrugBank ID>  (1) 
DB00328

>  <ATC Codes>  (1) 
S01CC02#M02AA23#M01AB01#M01AB51#S01BC01#C01EB03

>  <Ligand ID>  (1) 
IMN

>  <Target Name>  (1) 
Prostaglandin G/H synthase 2

>  <UniProt ID>  (1) 
P35354

>  <PDB ID.1>  (1) 
4COX

>  <Seq. Identity>  (1) 
84%

$$$$
