PDB_DB00710_04
     RDKit          3D

 46 45  0  0  0  0  0  0  0  0999 V2000
   -4.1586    0.5819    0.4636 P   0  0  0  0  0  0  0  0  0  0  0  0
   -5.5359    0.1037   -0.2846 O   0  0  0  0  0  0  0  0  0  0  0  0
   -4.1360    2.0377    1.3264 O   0  0  0  0  0  0  0  0  0  0  0  0
   -4.5864   -0.1153    1.7483 O   0  0  0  0  0  0  0  0  0  0  0  0
   -2.6614   -0.2661    0.1360 C   0  0  0  0  0  0  0  0  0  0  0  0
   -2.4751   -0.7001   -1.5544 P   0  0  0  0  0  0  0  0  0  0  0  0
   -1.5275    0.3060   -2.4760 O   0  0  0  0  0  0  0  0  0  0  0  0
   -1.2063   -1.6186   -1.5023 O   0  0  0  0  0  0  0  0  0  0  0  0
   -3.6807    0.0235   -2.2510 O   0  0  0  0  0  0  0  0  0  0  0  0
   -2.4740   -1.4743    0.8738 O   0  0  0  0  0  0  0  0  0  0  0  0
   -1.5308    0.6029    0.6197 C   0  0  0  0  0  0  0  0  0  0  0  0
   -0.1643    0.0746    0.4256 C   0  0  0  0  0  0  0  0  0  0  0  0
    0.8140    1.0251    0.9854 N   0  0  0  0  0  0  0  0  0  0  0  0
    2.1686    0.6445    0.7121 C   0  0  0  0  0  0  0  0  0  0  0  0
    2.6514   -0.5825    1.4107 C   0  0  0  0  0  0  0  0  0  0  0  0
    4.0946   -0.8826    1.0638 C   0  0  0  0  0  0  0  0  0  0  0  0
    4.3256   -1.1053   -0.3957 C   0  0  0  0  0  0  0  0  0  0  0  0
    5.7911   -1.3866   -0.6289 C   0  0  0  0  0  0  0  0  0  0  0  0
    0.5560    2.3022    0.3629 C   0  0  0  0  0  0  0  0  0  0  0  0
   -3.9696    1.3681   -0.5463 H   0  0  0  0  0  0  0  0  0  0  0  0
   -6.2408    0.7289   -0.0425 H   0  0  0  0  0  0  0  0  0  0  0  0
   -3.2172    2.1463    1.5871 H   0  0  0  0  0  0  0  0  0  0  0  0
   -3.8965   -0.2369    2.4298 H   0  0  0  0  0  0  0  0  0  0  0  0
   -3.0994   -1.8375   -1.9780 H   0  0  0  0  0  0  0  0  0  0  0  0
   -1.4737    1.1284   -1.9798 H   0  0  0  0  0  0  0  0  0  0  0  0
   -0.7611   -2.0822   -2.2171 H   0  0  0  0  0  0  0  0  0  0  0  0
   -3.9220    0.0288   -3.1847 H   0  0  0  0  0  0  0  0  0  0  0  0
   -3.4147   -1.7802    1.0262 H   0  0  0  0  0  0  0  0  0  0  0  0
   -1.6207    1.6525    0.2593 H   0  0  0  0  0  0  0  0  0  0  0  0
   -1.6847    0.6934    1.7398 H   0  0  0  0  0  0  0  0  0  0  0  0
    0.1491    0.0200   -0.6535 H   0  0  0  0  0  0  0  0  0  0  0  0
   -0.0106   -0.8566    0.9785 H   0  0  0  0  0  0  0  0  0  0  0  0
    2.8591    1.4818    0.9445 H   0  0  0  0  0  0  0  0  0  0  0  0
    2.2690    0.4405   -0.3903 H   0  0  0  0  0  0  0  0  0  0  0  0
    2.0297   -1.4665    1.2099 H   0  0  0  0  0  0  0  0  0  0  0  0
    2.6122   -0.4220    2.5050 H   0  0  0  0  0  0  0  0  0  0  0  0
    4.7618   -0.0803    1.4216 H   0  0  0  0  0  0  0  0  0  0  0  0
    4.4239   -1.8047    1.5989 H   0  0  0  0  0  0  0  0  0  0  0  0
    4.0371   -0.2662   -1.0461 H   0  0  0  0  0  0  0  0  0  0  0  0
    3.7774   -1.9993   -0.7675 H   0  0  0  0  0  0  0  0  0  0  0  0
    6.3689   -1.1267    0.2765 H   0  0  0  0  0  0  0  0  0  0  0  0
    6.1917   -0.7603   -1.4797 H   0  0  0  0  0  0  0  0  0  0  0  0
    5.9858   -2.4683   -0.8378 H   0  0  0  0  0  0  0  0  0  0  0  0
    1.5026    2.9045    0.2786 H   0  0  0  0  0  0  0  0  0  0  0  0
   -0.1695    2.9125    0.9416 H   0  0  0  0  0  0  0  0  0  0  0  0
    0.2479    2.1113   -0.6781 H   0  0  0  0  0  0  0  0  0  0  0  0
  1  2  1  0
  1  3  1  0
  1  4  1  0
  1  5  1  0
  5  6  1  0
  6  7  1  0
  6  8  1  0
  6  9  1  0
  5 10  1  0
  5 11  1  0
 11 12  1  0
 12 13  1  0
 13 14  1  0
 14 15  1  0
 15 16  1  0
 16 17  1  0
 17 18  1  0
 13 19  1  0
  1 20  1  0
  2 21  1  0
  3 22  1  0
  4 23  1  0
  6 24  1  0
  7 25  1  0
  8 26  1  0
  9 27  1  0
 10 28  1  0
 11 29  1  0
 11 30  1  0
 12 31  1  0
 12 32  1  0
 14 33  1  0
 14 34  1  0
 15 35  1  0
 15 36  1  0
 16 37  1  0
 16 38  1  0
 17 39  1  0
 17 40  1  0
 18 41  1  0
 18 42  1  0
 18 43  1  0
 19 44  1  0
 19 45  1  0
 19 46  1  0
M  END
>  <PDBID>  (1) 
2F94

>  <PDB ID>  (1) 
2F94

>  <Generic Name>  (1) 
Ibandronate

>  <Brand Name>  (1) 
Bondronat#Boniva#Ibandronate Sodium#ADRONiL#Bonviva

>  <DrugBank ID>  (1) 
DB00710

>  <ATC Codes>  (1) 
M05BA06

>  <Ligand ID>  (1) 
BFQ

>  <Target Name>  (1) 
Farnesyl pyrophosphate synthase

>  <UniProt ID>  (1) 
P14324

>  <PDB ID.1>  (1) 
2F94

>  <Seq. Identity>  (1) 
100%

$$$$
