PDB_DB01259_02
     RDKit          3D

 94 98  0  0  0  0  0  0  0  0999 V2000
   11.0940    1.1785    0.7004 C   0  0  0  0  0  0  0  0  0  0  0  0
   10.9630   -0.2933   -0.1846 S   0  0  0  0  0  0  0  0  0  0  0  0
   11.7711   -1.4360    0.5750 O   0  0  0  0  0  0  0  0  0  0  0  0
   11.5753    0.0072   -1.7057 O   0  0  0  0  0  0  0  0  0  0  0  0
    9.3356   -0.7136   -0.3733 C   0  0  0  0  0  0  0  0  0  0  0  0
    8.6109   -0.9199    0.9262 C   0  0  0  0  0  0  0  0  0  0  0  0
    7.2248   -1.2862    0.7596 N   0  0  0  0  0  0  0  0  0  0  0  0
    6.4649   -0.2039    0.2369 C   0  0  0  0  0  0  0  0  0  0  0  0
    5.0101   -0.4882    0.0639 C   0  0  0  0  0  0  0  0  0  0  0  0
    4.7287   -1.7646   -0.7395 C   0  0  0  0  0  0  0  0  0  0  0  0
    3.1984   -1.7605   -0.5745 C   0  0  0  0  0  0  0  0  0  0  0  0
    3.0714   -1.1956    0.8125 C   0  0  0  0  0  0  0  0  0  0  0  0
    4.3512   -0.8273    1.2433 O   0  0  0  0  0  0  0  0  0  0  0  0
    2.2369    0.0568    0.8977 C   0  0  0  0  0  0  0  0  0  0  0  0
    2.2064    0.4625    2.3573 C   0  0  0  0  0  0  0  0  0  0  0  0
    1.7904    1.9090    2.4211 C   0  0  0  0  0  0  0  0  0  0  0  0
    0.9638    2.2348    1.2292 C   0  0  0  0  0  0  0  0  0  0  0  0
    0.2115    3.4463    1.5056 N   0  0  0  0  0  0  0  0  0  0  0  0
   -0.4649    3.8630    0.2725 C   0  0  0  0  0  0  0  0  0  0  0  0
   -1.4727    2.8321    0.0271 N   0  0  0  0  0  0  0  0  0  0  0  0
   -0.7199    1.6620   -0.3911 C   0  0  0  0  0  0  0  0  0  0  0  0
   -1.4741    0.7510   -1.1415 N   0  0  0  0  0  0  0  0  0  0  0  0
   -2.5777    0.0980   -0.5286 C   0  0  0  0  0  0  0  0  0  0  0  0
   -2.8328   -1.1736   -1.3418 C   0  0  0  0  0  0  0  0  0  0  0  0
   -4.2990   -1.5344   -1.3976 C   0  0  0  0  0  0  0  0  0  0  0  0
   -5.1608   -0.4903   -2.0443 C   0  0  0  0  0  0  0  0  0  0  0  0
   -6.3398   -0.3915   -1.3228 O   0  0  0  0  0  0  0  0  0  0  0  0
   -7.4910   -0.5213   -2.0761 C   0  0  0  0  0  0  0  0  0  0  0  0
   -8.6858   -0.3775   -1.1348 C   0  0  0  0  0  0  0  0  0  0  0  0
   -8.6387   -1.4662   -0.0840 C   0  0  0  0  0  0  0  0  0  0  0  0
   -9.7560   -1.3804    0.8968 C   0  0  0  0  0  0  0  0  0  0  0  0
  -10.1926    0.0497    1.0842 C   0  0  0  0  0  0  0  0  0  0  0  0
   -9.0005    0.9436    0.9612 C   0  0  0  0  0  0  0  0  0  0  0  0
   -9.1776    2.2099    1.4297 F   0  0  0  0  0  0  0  0  0  0  0  0
   -8.5673    0.9949   -0.4920 C   0  0  0  0  0  0  0  0  0  0  0  0
   -4.3727    0.8104   -1.9896 C   0  0  0  0  0  0  0  0  0  0  0  0
   -5.3006    2.2081   -2.5042 Cl  0  0  0  0  0  0  0  0  0  0  0  0
   -3.8482    0.9284   -0.5614 C   0  0  0  0  0  0  0  0  0  0  0  0
    0.0102    1.0975    0.8201 C   0  0  0  0  0  0  0  0  0  0  0  0
    0.8408   -0.0965    0.4163 C   0  0  0  0  0  0  0  0  0  0  0  0
   10.0986    1.6457    0.8097 H   0  0  0  0  0  0  0  0  0  0  0  0
   11.5794    0.9365    1.6791 H   0  0  0  0  0  0  0  0  0  0  0  0
   11.7725    1.8612    0.1632 H   0  0  0  0  0  0  0  0  0  0  0  0
   12.3236   -2.0525    0.0239 H   0  0  0  0  0  0  0  0  0  0  0  0
   10.8434    0.3815   -2.2673 H   0  0  0  0  0  0  0  0  0  0  0  0
    9.2414   -1.6498   -0.9601 H   0  0  0  0  0  0  0  0  0  0  0  0
    8.8240    0.0806   -0.9816 H   0  0  0  0  0  0  0  0  0  0  0  0
    9.1793   -1.6786    1.5057 H   0  0  0  0  0  0  0  0  0  0  0  0
    8.7114    0.0204    1.5161 H   0  0  0  0  0  0  0  0  0  0  0  0
    6.8641   -1.5278    1.7104 H   0  0  0  0  0  0  0  0  0  0  0  0
    6.5357    0.7371    0.8328 H   0  0  0  0  0  0  0  0  0  0  0  0
    6.8484    0.0770   -0.7893 H   0  0  0  0  0  0  0  0  0  0  0  0
    4.5080    0.3158   -0.5114 H   0  0  0  0  0  0  0  0  0  0  0  0
    5.0437   -1.7022   -1.7763 H   0  0  0  0  0  0  0  0  0  0  0  0
    5.1448   -2.5991   -0.1594 H   0  0  0  0  0  0  0  0  0  0  0  0
    2.7679   -2.7730   -0.6943 H   0  0  0  0  0  0  0  0  0  0  0  0
    2.8019   -1.0170   -1.2887 H   0  0  0  0  0  0  0  0  0  0  0  0
    2.6047   -1.9364    1.4913 H   0  0  0  0  0  0  0  0  0  0  0  0
    2.7714    0.8665    0.3643 H   0  0  0  0  0  0  0  0  0  0  0  0
    1.4268   -0.1412    2.8771 H   0  0  0  0  0  0  0  0  0  0  0  0
    3.2071    0.3079    2.8105 H   0  0  0  0  0  0  0  0  0  0  0  0
    2.7532    2.4960    2.3202 H   0  0  0  0  0  0  0  0  0  0  0  0
    1.3227    2.1815    3.3824 H   0  0  0  0  0  0  0  0  0  0  0  0
    1.5521    2.4681    0.3058 H   0  0  0  0  0  0  0  0  0  0  0  0
   -0.4548    3.3400    2.3000 H   0  0  0  0  0  0  0  0  0  0  0  0
    0.2888    3.9104   -0.5154 H   0  0  0  0  0  0  0  0  0  0  0  0
   -0.9652    4.8166    0.5062 H   0  0  0  0  0  0  0  0  0  0  0  0
   -1.9062    2.6619    0.9755 H   0  0  0  0  0  0  0  0  0  0  0  0
    0.1102    2.0558   -1.0462 H   0  0  0  0  0  0  0  0  0  0  0  0
   -0.9750    0.2277   -1.8643 H   0  0  0  0  0  0  0  0  0  0  0  0
   -2.3594   -0.1882    0.5135 H   0  0  0  0  0  0  0  0  0  0  0  0
   -2.3135   -1.9921   -0.8074 H   0  0  0  0  0  0  0  0  0  0  0  0
   -2.3794   -1.0987   -2.3450 H   0  0  0  0  0  0  0  0  0  0  0  0
   -4.6086   -1.7682   -0.3567 H   0  0  0  0  0  0  0  0  0  0  0  0
   -4.3604   -2.4685   -1.9925 H   0  0  0  0  0  0  0  0  0  0  0  0
   -5.4267   -0.6983   -3.1002 H   0  0  0  0  0  0  0  0  0  0  0  0
   -7.5341    0.3912   -2.7318 H   0  0  0  0  0  0  0  0  0  0  0  0
   -7.6084   -1.4562   -2.6167 H   0  0  0  0  0  0  0  0  0  0  0  0
   -9.6371   -0.4536   -1.6898 H   0  0  0  0  0  0  0  0  0  0  0  0
   -8.6620   -2.4387   -0.6160 H   0  0  0  0  0  0  0  0  0  0  0  0
   -7.6197   -1.4207    0.3768 H   0  0  0  0  0  0  0  0  0  0  0  0
  -10.6284   -1.9936    0.5532 H   0  0  0  0  0  0  0  0  0  0  0  0
   -9.3607   -1.7576    1.8864 H   0  0  0  0  0  0  0  0  0  0  0  0
  -10.9332    0.3651    0.3166 H   0  0  0  0  0  0  0  0  0  0  0  0
  -10.6085    0.1965    2.1196 H   0  0  0  0  0  0  0  0  0  0  0  0
   -8.1200    0.5168    1.5179 H   0  0  0  0  0  0  0  0  0  0  0  0
   -9.2031    1.6873   -1.0703 H   0  0  0  0  0  0  0  0  0  0  0  0
   -7.5218    1.3186   -0.5879 H   0  0  0  0  0  0  0  0  0  0  0  0
   -3.5171    0.6758   -2.6808 H   0  0  0  0  0  0  0  0  0  0  0  0
   -3.7113    1.9887   -0.3777 H   0  0  0  0  0  0  0  0  0  0  0  0
   -4.5930    0.4401    0.0918 H   0  0  0  0  0  0  0  0  0  0  0  0
   -0.6534    0.9048    1.6691 H   0  0  0  0  0  0  0  0  0  0  0  0
    0.4174   -1.0445    0.8549 H   0  0  0  0  0  0  0  0  0  0  0  0
    0.8318   -0.1643   -0.6960 H   0  0  0  0  0  0  0  0  0  0  0  0
  1  2  1  0
  2  3  1  0
  2  4  1  0
  2  5  1  0
  5  6  1  0
  6  7  1  0
  7  8  1  0
  8  9  1  0
  9 10  1  0
 10 11  1  0
 11 12  1  0
  9 13  1  0
 12 13  1  0
 12 14  1  0
 14 15  1  0
 15 16  1  0
 16 17  1  0
 17 18  1  0
 18 19  1  0
 19 20  1  0
 20 21  1  0
 21 22  1  0
 22 23  1  0
 23 24  1  0
 24 25  1  0
 25 26  1  0
 26 27  1  0
 27 28  1  0
 28 29  1  0
 29 30  1  0
 30 31  1  0
 31 32  1  0
 32 33  1  0
 33 34  1  0
 29 35  1  0
 33 35  1  0
 26 36  1  0
 36 37  1  0
 23 38  1  0
 36 38  1  0
 17 39  1  0
 21 39  1  0
 14 40  1  0
 39 40  1  0
  1 41  1  0
  1 42  1  0
  1 43  1  0
  3 44  1  0
  4 45  1  0
  5 46  1  0
  5 47  1  0
  6 48  1  0
  6 49  1  0
  7 50  1  0
  8 51  1  0
  8 52  1  0
  9 53  1  0
 10 54  1  0
 10 55  1  0
 11 56  1  0
 11 57  1  0
 12 58  1  0
 14 59  1  0
 15 60  1  0
 15 61  1  0
 16 62  1  0
 16 63  1  0
 17 64  1  0
 18 65  1  0
 19 66  1  0
 19 67  1  0
 20 68  1  0
 21 69  1  0
 22 70  1  0
 23 71  1  0
 24 72  1  0
 24 73  1  0
 25 74  1  0
 25 75  1  0
 26 76  1  0
 28 77  1  0
 28 78  1  0
 29 79  1  0
 30 80  1  0
 30 81  1  0
 31 82  1  0
 31 83  1  0
 32 84  1  0
 32 85  1  0
 33 86  1  0
 35 87  1  0
 35 88  1  0
 36 89  1  0
 38 90  1  0
 38 91  1  0
 39 92  1  0
 40 93  1  0
 40 94  1  0
M  END
>  <PDBID>  (1) 
1XKK

>  <PDB ID>  (1) 
1XKK

>  <Generic Name>  (1) 
Lapatinib

>  <Brand Name>  (1) 
Tykerb#Tycerb

>  <DrugBank ID>  (1) 
DB01259

>  <ATC Codes>  (1) 
L01XE07

>  <Ligand ID>  (1) 
FMM

>  <Target Name>  (1) 
Receptor tyrosine-protein kinase erbB-2

>  <UniProt ID>  (1) 
P04626

>  <PDB ID.1>  (1) 
1XKK

>  <Seq. Identity>  (1) 
78%

$$$$
