PDB_DB01283_03
     RDKit          3D

 94 96  0  0  0  0  0  0  0  0999 V2000
   -1.8328    3.4730    0.0342 O   0  0  0  0  0  0  0  0  0  0  0  0
   -1.8060    2.0892    0.3526 C   0  0  0  0  0  0  0  0  0  0  0  0
   -3.1436    1.8432    0.7583 O   0  0  0  0  0  0  0  0  0  0  0  0
   -1.5020    1.3989   -0.9274 C   0  0  0  0  0  0  0  0  0  0  0  0
   -1.4094   -0.0774   -0.9304 C   0  0  0  0  0  0  0  0  0  0  0  0
   -2.6772   -0.7624   -0.5037 C   0  0  0  0  0  0  0  0  0  0  0  0
   -2.6758   -1.4318    0.8168 C   0  0  0  0  0  0  0  0  0  0  0  0
   -3.8143   -2.4552    0.8350 C   0  0  0  0  0  0  0  0  0  0  0  0
   -1.4064   -2.2577    0.9249 C   0  0  0  0  0  0  0  0  0  0  0  0
   -0.2230   -1.3050    0.9049 C   0  0  0  0  0  0  0  0  0  0  0  0
   -0.1416   -0.7551   -0.5310 C   0  0  0  0  0  0  0  0  0  0  0  0
    1.0631   -0.1639   -0.8387 N   0  0  0  0  0  0  0  0  0  0  0  0
    1.6829    0.9420   -0.3052 C   0  0  0  0  0  0  0  0  0  0  0  0
    2.2773    0.8572    1.0869 C   0  0  0  0  0  0  0  0  0  0  0  0
    3.2233    2.3864    1.3840 Cl  0  0  0  0  0  0  0  0  0  0  0  0
    3.2720   -0.2346    1.1725 C   0  0  0  0  0  0  0  0  0  0  0  0
    3.9634   -0.5245   -0.1183 C   0  0  0  0  0  0  0  0  0  0  0  0
    4.0776    0.6718   -1.0251 C   0  0  0  0  0  0  0  0  0  0  0  0
    2.8091    1.4119   -1.2100 C   0  0  0  0  0  0  0  0  0  0  0  0
    3.0411    2.7660   -1.0603 F   0  0  0  0  0  0  0  0  0  0  0  0
   -1.8328    3.4730    0.0342 O   0  0  0  0  0  0  0  0  0  0  0  0
   -1.8060    2.0892    0.3526 C   0  0  0  0  0  0  0  0  0  0  0  0
   -3.1436    1.8432    0.7583 O   0  0  0  0  0  0  0  0  0  0  0  0
   -1.5020    1.3989   -0.9274 C   0  0  0  0  0  0  0  0  0  0  0  0
   -1.4094   -0.0774   -0.9304 C   0  0  0  0  0  0  0  0  0  0  0  0
   -2.6772   -0.7624   -0.5037 C   0  0  0  0  0  0  0  0  0  0  0  0
   -2.6758   -1.4318    0.8168 C   0  0  0  0  0  0  0  0  0  0  0  0
   -3.8143   -2.4552    0.8350 C   0  0  0  0  0  0  0  0  0  0  0  0
   -1.4064   -2.2577    0.9249 C   0  0  0  0  0  0  0  0  0  0  0  0
   -0.2230   -1.3050    0.9049 C   0  0  0  0  0  0  0  0  0  0  0  0
   -0.1416   -0.7551   -0.5310 C   0  0  0  0  0  0  0  0  0  0  0  0
    1.0631   -0.1639   -0.8387 N   0  0  0  0  0  0  0  0  0  0  0  0
    1.6829    0.9420   -0.3052 C   0  0  0  0  0  0  0  0  0  0  0  0
    2.2773    0.8572    1.0869 C   0  0  0  0  0  0  0  0  0  0  0  0
    3.2233    2.3864    1.3840 Cl  0  0  0  0  0  0  0  0  0  0  0  0
    3.2720   -0.2346    1.1725 C   0  0  0  0  0  0  0  0  0  0  0  0
    3.9634   -0.5245   -0.1183 C   0  0  0  0  0  0  0  0  0  0  0  0
    4.0776    0.6718   -1.0251 C   0  0  0  0  0  0  0  0  0  0  0  0
    2.8091    1.4119   -1.2100 C   0  0  0  0  0  0  0  0  0  0  0  0
    3.0411    2.7660   -1.0603 F   0  0  0  0  0  0  0  0  0  0  0  0
   -2.2259    3.6163   -0.8796 H   0  0  0  0  0  0  0  0  0  0  0  0
   -1.0980    1.9869    1.1642 H   0  0  0  0  0  0  0  0  0  0  0  0
   -3.7924    2.2283    0.1413 H   0  0  0  0  0  0  0  0  0  0  0  0
   -2.4685    1.6288   -1.5550 H   0  0  0  0  0  0  0  0  0  0  0  0
   -0.7464    1.8551   -1.5549 H   0  0  0  0  0  0  0  0  0  0  0  0
   -1.4280   -0.2830   -2.0832 H   0  0  0  0  0  0  0  0  0  0  0  0
   -3.5061   -0.0256   -0.5714 H   0  0  0  0  0  0  0  0  0  0  0  0
   -2.9748   -1.5546   -1.2534 H   0  0  0  0  0  0  0  0  0  0  0  0
   -2.8042   -0.8117    1.6992 H   0  0  0  0  0  0  0  0  0  0  0  0
   -4.1760   -2.6949   -0.1696 H   0  0  0  0  0  0  0  0  0  0  0  0
   -3.5118   -3.4016    1.3246 H   0  0  0  0  0  0  0  0  0  0  0  0
   -4.6887   -2.0873    1.4283 H   0  0  0  0  0  0  0  0  0  0  0  0
   -1.4138   -2.9621    1.7542 H   0  0  0  0  0  0  0  0  0  0  0  0
   -1.3135   -2.8625   -0.0017 H   0  0  0  0  0  0  0  0  0  0  0  0
   -0.2803   -0.5428    1.6638 H   0  0  0  0  0  0  0  0  0  0  0  0
    0.6660   -1.9334    1.0413 H   0  0  0  0  0  0  0  0  0  0  0  0
   -0.1453   -1.7581   -1.0994 H   0  0  0  0  0  0  0  0  0  0  0  0
    1.5129   -0.5930   -1.6902 H   0  0  0  0  0  0  0  0  0  0  0  0
    0.9712    1.8482   -0.1836 H   0  0  0  0  0  0  0  0  0  0  0  0
    1.5390    0.8745    1.8970 H   0  0  0  0  0  0  0  0  0  0  0  0
    4.0283    0.0347    1.9859 H   0  0  0  0  0  0  0  0  0  0  0  0
    2.8042   -1.1526    1.5730 H   0  0  0  0  0  0  0  0  0  0  0  0
    3.5450   -1.4022   -0.6457 H   0  0  0  0  0  0  0  0  0  0  0  0
    5.0303   -0.8072    0.1357 H   0  0  0  0  0  0  0  0  0  0  0  0
    4.4017    0.2974   -2.0184 H   0  0  0  0  0  0  0  0  0  0  0  0
    4.9067    1.3363   -0.6646 H   0  0  0  0  0  0  0  0  0  0  0  0
    2.3907    1.2939   -2.2577 H   0  0  0  0  0  0  0  0  0  0  0  0
   -2.2259    3.6163   -0.8796 H   0  0  0  0  0  0  0  0  0  0  0  0
   -1.0980    1.9869    1.1642 H   0  0  0  0  0  0  0  0  0  0  0  0
   -3.7924    2.2283    0.1413 H   0  0  0  0  0  0  0  0  0  0  0  0
   -2.4685    1.6288   -1.5550 H   0  0  0  0  0  0  0  0  0  0  0  0
   -0.7464    1.8551   -1.5549 H   0  0  0  0  0  0  0  0  0  0  0  0
   -1.4280   -0.2830   -2.0832 H   0  0  0  0  0  0  0  0  0  0  0  0
   -3.5061   -0.0256   -0.5714 H   0  0  0  0  0  0  0  0  0  0  0  0
   -2.9748   -1.5546   -1.2534 H   0  0  0  0  0  0  0  0  0  0  0  0
   -2.8042   -0.8117    1.6992 H   0  0  0  0  0  0  0  0  0  0  0  0
   -4.1760   -2.6949   -0.1696 H   0  0  0  0  0  0  0  0  0  0  0  0
   -3.5118   -3.4016    1.3246 H   0  0  0  0  0  0  0  0  0  0  0  0
   -4.6887   -2.0873    1.4283 H   0  0  0  0  0  0  0  0  0  0  0  0
   -1.4138   -2.9621    1.7542 H   0  0  0  0  0  0  0  0  0  0  0  0
   -1.3135   -2.8625   -0.0017 H   0  0  0  0  0  0  0  0  0  0  0  0
   -0.2803   -0.5428    1.6638 H   0  0  0  0  0  0  0  0  0  0  0  0
    0.6660   -1.9334    1.0413 H   0  0  0  0  0  0  0  0  0  0  0  0
   -0.1453   -1.7581   -1.0994 H   0  0  0  0  0  0  0  0  0  0  0  0
    1.5129   -0.5930   -1.6902 H   0  0  0  0  0  0  0  0  0  0  0  0
    0.9712    1.8482   -0.1836 H   0  0  0  0  0  0  0  0  0  0  0  0
    1.5390    0.8745    1.8970 H   0  0  0  0  0  0  0  0  0  0  0  0
    4.0283    0.0347    1.9859 H   0  0  0  0  0  0  0  0  0  0  0  0
    2.8042   -1.1526    1.5730 H   0  0  0  0  0  0  0  0  0  0  0  0
    3.5450   -1.4022   -0.6457 H   0  0  0  0  0  0  0  0  0  0  0  0
    5.0303   -0.8072    0.1357 H   0  0  0  0  0  0  0  0  0  0  0  0
    4.4017    0.2974   -2.0184 H   0  0  0  0  0  0  0  0  0  0  0  0
    4.9067    1.3363   -0.6646 H   0  0  0  0  0  0  0  0  0  0  0  0
    2.3907    1.2939   -2.2577 H   0  0  0  0  0  0  0  0  0  0  0  0
  1  2  1  0
  2  3  1  0
  2  4  1  0
  4  5  1  0
  5  6  1  0
  6  7  1  0
  7  8  1  0
  7  9  1  0
  9 10  1  0
  5 11  1  0
 10 11  1  0
 11 12  1  0
 12 13  1  0
 13 14  1  0
 14 15  1  0
 14 16  1  0
 16 17  1  0
 17 18  1  0
 13 19  1  0
 18 19  1  0
 19 20  1  0
 21 22  1  0
 22 23  1  0
 22 24  1  0
 24 25  1  0
 25 26  1  0
 26 27  1  0
 27 28  1  0
 27 29  1  0
 29 30  1  0
 25 31  1  0
 30 31  1  0
 31 32  1  0
 32 33  1  0
 33 34  1  0
 34 35  1  0
 34 36  1  0
 36 37  1  0
 37 38  1  0
 33 39  1  0
 38 39  1  0
 39 40  1  0
  1 41  1  0
  2 42  1  0
  3 43  1  0
  4 44  1  0
  4 45  1  0
  5 46  1  0
  6 47  1  0
  6 48  1  0
  7 49  1  0
  8 50  1  0
  8 51  1  0
  8 52  1  0
  9 53  1  0
  9 54  1  0
 10 55  1  0
 10 56  1  0
 11 57  1  0
 12 58  1  0
 13 59  1  0
 14 60  1  0
 16 61  1  0
 16 62  1  0
 17 63  1  0
 17 64  1  0
 18 65  1  0
 18 66  1  0
 19 67  1  0
 21 68  1  0
 22 69  1  0
 23 70  1  0
 24 71  1  0
 24 72  1  0
 25 73  1  0
 26 74  1  0
 26 75  1  0
 27 76  1  0
 28 77  1  0
 28 78  1  0
 28 79  1  0
 29 80  1  0
 29 81  1  0
 30 82  1  0
 30 83  1  0
 31 84  1  0
 32 85  1  0
 33 86  1  0
 34 87  1  0
 36 88  1  0
 36 89  1  0
 37 90  1  0
 37 91  1  0
 38 92  1  0
 38 93  1  0
 39 94  1  0
M  END
>  <PDBID>  (1) 
4OTY

>  <PDB ID>  (1) 
4OTY

>  <Generic Name>  (1) 
Lumiracoxib

>  <Brand Name>  (1) 
Prexige

>  <DrugBank ID>  (1) 
DB01283

>  <ATC Codes>  (1) 
M01AH06

>  <Ligand ID>  (1) 
LUR

>  <Target Name>  (1) 
Prostaglandin G/H synthase 1

>  <UniProt ID>  (1) 
P23219

>  <PDB ID.1>  (1) 
4OTY

>  <Seq. Identity>  (1) 
62%

$$$$
