PDB_DB01034_06
     RDKit          3D

 82 82  0  0  0  0  0  0  0  0999 V2000
   -3.8419    2.4937   -0.0851 O   0  0  0  0  0  0  0  0  0  0  0  0
   -3.9581    1.0972   -0.3051 C   0  0  0  0  0  0  0  0  0  0  0  0
   -5.3185    0.7633    0.0876 N   0  0  0  0  0  0  0  0  0  0  0  0
   -3.0003    0.3862    0.5737 C   0  0  2  0  0  0  0  0  0  0  0  0
   -1.6342    0.6656    0.2386 O   0  0  0  0  0  0  0  0  0  0  0  0
   -2.0952   -0.6707    0.2717 C   0  0  2  0  0  0  0  0  0  0  0  0
   -2.0545   -1.5342   -0.9235 C   0  0  1  0  0  0  0  0  0  0  0  0
   -2.7445   -0.9260   -2.0106 O   0  0  0  0  0  0  0  0  0  0  0  0
   -0.8247   -2.2064   -1.3464 C   0  0  0  0  0  0  0  0  0  0  0  0
    0.3948   -1.5096   -1.7182 C   0  0  0  0  0  0  0  0  0  0  0  0
    1.1208   -0.6553   -0.7224 C   0  0  0  0  0  0  0  0  0  0  0  0
    1.5384   -1.3614    0.4974 C   0  0  0  0  0  0  0  0  0  0  0  0
    2.1528   -0.5697    1.5672 C   0  0  0  0  0  0  0  0  0  0  0  0
    3.3801    0.2155    1.4167 C   0  0  0  0  0  0  0  0  0  0  0  0
    3.4495    1.3815    0.5223 C   0  0  0  0  0  0  0  0  0  0  0  0
    4.8390    2.0396    0.5930 C   0  0  0  0  0  0  0  0  0  0  0  0
   -4.0839   -0.3733    2.7228 O   0  0  0  0  0  0  0  0  0  0  0  0
   -3.7084   -1.3664    1.7630 C   0  0  0  0  0  0  0  0  0  0  0  0
   -2.3029   -1.4389    1.8136 N   0  0  0  0  0  0  0  0  0  0  0  0
   -4.3626   -1.1164    0.4704 C   0  0  2  0  0  0  0  0  0  0  0  0
   -4.0824   -2.0658   -0.5872 O   0  0  0  0  0  0  0  0  0  0  0  0
   -4.0361   -0.5757   -0.7844 C   0  0  2  0  0  0  0  0  0  0  0  0
   -2.8469   -0.0989   -1.4873 C   0  0  0  0  0  0  0  0  0  0  0  0
   -2.7759   -0.7397   -2.7639 O   0  0  0  0  0  0  0  0  0  0  0  0
   -1.5246   -0.2612   -0.8567 C   0  0  0  0  0  0  0  0  0  0  0  0
   -0.4022    0.2772   -1.7577 C   0  0  0  0  0  0  0  0  0  0  0  0
    0.8997    0.0428   -0.9779 C   0  0  0  0  0  0  0  0  0  0  0  0
    2.0864    0.5226   -1.7407 C   0  0  0  0  0  0  0  0  0  0  0  0
    3.3645    0.2873   -0.9926 C   0  0  0  0  0  0  0  0  0  0  0  0
    3.3550    1.0139    0.3242 C   0  0  0  0  0  0  0  0  0  0  0  0
    4.6552    0.7910    1.0847 C   0  0  0  0  0  0  0  0  0  0  0  0
    4.5447    1.5606    2.3894 C   0  0  0  0  0  0  0  0  0  0  0  0
   -4.7283    2.9279   -0.1010 H   0  0  0  0  0  0  0  0  0  0  0  0
   -3.8728    0.9593   -1.3749 H   0  0  0  0  0  0  0  0  0  0  0  0
   -6.0172    1.4425   -0.2288 H   0  0  0  0  0  0  0  0  0  0  0  0
   -5.3944    0.4545    1.0652 H   0  0  0  0  0  0  0  0  0  0  0  0
   -3.1548    0.6606    1.6654 H   0  0  0  0  0  0  0  0  0  0  0  0
   -1.7290   -1.2584    1.1944 H   0  0  0  0  0  0  0  0  0  0  0  0
   -2.7835   -2.4171   -0.6128 H   0  0  0  0  0  0  0  0  0  0  0  0
   -2.0753   -0.3630   -2.4558 H   0  0  0  0  0  0  0  0  0  0  0  0
   -0.6283   -3.0770   -0.6246 H   0  0  0  0  0  0  0  0  0  0  0  0
   -1.1243   -2.8201   -2.2807 H   0  0  0  0  0  0  0  0  0  0  0  0
    0.1678   -0.8163   -2.5874 H   0  0  0  0  0  0  0  0  0  0  0  0
    1.1699   -2.2033   -2.1810 H   0  0  0  0  0  0  0  0  0  0  0  0
    0.7554    0.3474   -0.5698 H   0  0  0  0  0  0  0  0  0  0  0  0
    2.1466   -0.4460   -1.2701 H   0  0  0  0  0  0  0  0  0  0  0  0
    2.2050   -2.2205    0.1857 H   0  0  0  0  0  0  0  0  0  0  0  0
    0.5900   -1.8168    0.9513 H   0  0  0  0  0  0  0  0  0  0  0  0
    1.3711    0.1150    2.0658 H   0  0  0  0  0  0  0  0  0  0  0  0
    2.3664   -1.2643    2.4791 H   0  0  0  0  0  0  0  0  0  0  0  0
    4.2584   -0.4938    1.2508 H   0  0  0  0  0  0  0  0  0  0  0  0
    3.6492    0.6112    2.4653 H   0  0  0  0  0  0  0  0  0  0  0  0
    2.7509    2.1676    0.9254 H   0  0  0  0  0  0  0  0  0  0  0  0
    3.2741    1.1458   -0.5143 H   0  0  0  0  0  0  0  0  0  0  0  0
    4.8854    2.8141   -0.1781 H   0  0  0  0  0  0  0  0  0  0  0  0
    4.9097    2.4617    1.6182 H   0  0  0  0  0  0  0  0  0  0  0  0
    5.6044    1.2430    0.4558 H   0  0  0  0  0  0  0  0  0  0  0  0
   -5.0387   -0.2009    2.6840 H   0  0  0  0  0  0  0  0  0  0  0  0
   -4.1475   -2.3093    2.2498 H   0  0  0  0  0  0  0  0  0  0  0  0
   -1.8362   -0.6256    2.2741 H   0  0  0  0  0  0  0  0  0  0  0  0
   -1.9213   -2.3535    2.1451 H   0  0  0  0  0  0  0  0  0  0  0  0
   -5.5249   -1.2233    0.6424 H   0  0  0  0  0  0  0  0  0  0  0  0
   -5.0022   -0.3246   -1.4344 H   0  0  0  0  0  0  0  0  0  0  0  0
   -2.9816    0.9986   -1.8238 H   0  0  0  0  0  0  0  0  0  0  0  0
   -2.2957   -0.1967   -3.4073 H   0  0  0  0  0  0  0  0  0  0  0  0
   -1.2887   -1.3152   -0.6962 H   0  0  0  0  0  0  0  0  0  0  0  0
   -1.4146    0.3059    0.1021 H   0  0  0  0  0  0  0  0  0  0  0  0
   -0.4949    1.3739   -1.8701 H   0  0  0  0  0  0  0  0  0  0  0  0
   -0.3547   -0.2087   -2.7262 H   0  0  0  0  0  0  0  0  0  0  0  0
    1.0281   -1.0323   -0.7705 H   0  0  0  0  0  0  0  0  0  0  0  0
    0.8372    0.5698    0.0070 H   0  0  0  0  0  0  0  0  0  0  0  0
    2.1547   -0.0973   -2.6810 H   0  0  0  0  0  0  0  0  0  0  0  0
    2.0478    1.6028   -1.9912 H   0  0  0  0  0  0  0  0  0  0  0  0
    4.2390    0.6744   -1.5620 H   0  0  0  0  0  0  0  0  0  0  0  0
    3.5677   -0.8035   -0.8371 H   0  0  0  0  0  0  0  0  0  0  0  0
    3.2225    2.0849    0.1426 H   0  0  0  0  0  0  0  0  0  0  0  0
    2.5618    0.5962    1.0130 H   0  0  0  0  0  0  0  0  0  0  0  0
    5.5372    1.1274    0.5301 H   0  0  0  0  0  0  0  0  0  0  0  0
    4.7580   -0.2855    1.3561 H   0  0  0  0  0  0  0  0  0  0  0  0
    5.5849    1.7087    2.7683 H   0  0  0  0  0  0  0  0  0  0  0  0
    4.0495    2.5253    2.1586 H   0  0  0  0  0  0  0  0  0  0  0  0
    3.9328    0.9497    3.1072 H   0  0  0  0  0  0  0  0  0  0  0  0
  1  2  1  0
  2  3  1  0
  2  4  1  0
  4  5  1  0
  4  6  1  0
  5  6  1  0
  6  7  1  0
  7  8  1  0
  7  9  1  0
  9 10  1  0
 10 11  1  0
 11 12  1  0
 12 13  1  0
 13 14  1  0
 14 15  1  0
 15 16  1  0
 17 18  1  0
 18 19  1  0
 18 20  1  0
 20 21  1  0
 20 22  1  0
 21 22  1  0
 22 23  1  0
 23 24  1  0
 23 25  1  0
 25 26  1  0
 26 27  1  0
 27 28  1  0
 28 29  1  0
 29 30  1  0
 30 31  1  0
 31 32  1  0
  1 33  1  0
  2 34  1  0
  3 35  1  0
  3 36  1  0
  4 37  1  1
  6 38  1  1
  7 39  1  1
  8 40  1  0
  9 41  1  0
  9 42  1  0
 10 43  1  0
 10 44  1  0
 11 45  1  0
 11 46  1  0
 12 47  1  0
 12 48  1  0
 13 49  1  0
 13 50  1  0
 14 51  1  0
 14 52  1  0
 15 53  1  0
 15 54  1  0
 16 55  1  0
 16 56  1  0
 16 57  1  0
 17 58  1  0
 18 59  1  0
 19 60  1  0
 19 61  1  0
 20 62  1  1
 22 63  1  6
 23 64  1  0
 24 65  1  0
 25 66  1  0
 25 67  1  0
 26 68  1  0
 26 69  1  0
 27 70  1  0
 27 71  1  0
 28 72  1  0
 28 73  1  0
 29 74  1  0
 29 75  1  0
 30 76  1  0
 30 77  1  0
 31 78  1  0
 31 79  1  0
 32 80  1  0
 32 81  1  0
 32 82  1  0
M  END
>  <PDBID>  (1) 
4LS7

>  <PDB ID>  (1) 
4LS7

>  <Generic Name>  (1) 
Cerulenin

>  <Brand Name>  (1) 
Helicocerin

>  <DrugBank ID>  (1) 
DB01034

>  <ATC Codes>  (1) 
nan

>  <Ligand ID>  (1) 
1X9

>  <Target Name>  (1) 
3-oxoacyl-[acyl-carrier-protein] synthase 2

>  <UniProt ID>  (1) 
P0AAI5

>  <PDB ID.1>  (1) 
4LS7

>  <Seq. Identity>  (1) 
51%

$$$$
