PDB_DB09073_02
     RDKit          3D

 80 84  0  0  0  0  0  0  0  0999 V2000
   -5.5746   -3.0038   -1.5908 O   0  0  0  0  0  0  0  0  0  0  0  0
   -5.4938   -2.0814   -0.5485 C   0  0  0  0  0  0  0  0  0  0  0  0
   -5.9136   -2.6571    0.7699 C   0  0  0  0  0  0  0  0  0  0  0  0
   -4.1985   -1.3700   -0.5501 C   0  0  0  0  0  0  0  0  0  0  0  0
   -2.9449   -2.1021   -0.4047 C   0  0  2  0  0  0  0  0  0  0  0  0
   -3.0389   -3.5742   -0.0964 C   0  0  0  0  0  0  0  0  0  0  0  0
   -1.9592   -1.5383    0.6103 C   0  0  1  0  0  0  0  0  0  0  0  0
   -0.5863   -2.1277    0.2532 C   0  0  0  0  0  0  0  0  0  0  0  0
   -0.1408   -1.6856   -1.0192 N   0  0  0  0  0  0  0  0  0  0  0  0
   -0.2752   -0.2621   -1.2153 C   0  0  0  0  0  0  0  0  0  0  0  0
   -0.6422    0.4316   -0.0355 N   0  0  0  0  0  0  0  0  0  0  0  0
   -1.8426   -0.0473    0.6030 C   0  0  1  0  0  0  0  0  0  0  0  0
   -3.0498    0.5336    0.2054 N   0  0  0  0  0  0  0  0  0  0  0  0
   -3.1267    1.9018   -0.0459 C   0  0  0  0  0  0  0  0  0  0  0  0
   -4.4147    2.4575   -0.4854 C   0  0  0  0  0  0  0  0  0  0  0  0
   -5.0167    3.1136    0.7286 C   0  0  0  0  0  0  0  0  0  0  0  0
   -3.7737    3.7980    1.3148 C   0  0  0  0  0  0  0  0  0  0  0  0
   -2.7749    2.6652    1.2224 C   0  0  0  0  0  0  0  0  0  0  0  0
   -4.2073   -0.2188    0.4682 C   0  0  0  0  0  0  0  0  0  0  0  0
   -4.1360   -0.7466    1.7559 O   0  0  0  0  0  0  0  0  0  0  0  0
    0.9098    0.2635   -1.7827 N   0  0  0  0  0  0  0  0  0  0  0  0
    2.1445    0.0547   -1.1319 C   0  0  0  0  0  0  0  0  0  0  0  0
    3.2582    0.5714   -1.9543 N   0  0  0  0  0  0  0  0  0  0  0  0
    4.4751    0.1747   -1.2732 C   0  0  0  0  0  0  0  0  0  0  0  0
    4.5634    1.0451   -0.0414 C   0  0  1  0  0  0  0  0  0  0  0  0
    3.5291    0.5643    0.9146 C   0  0  0  0  0  0  0  0  0  0  0  0
    2.1599    0.7068    0.2271 C   0  0  0  0  0  0  0  0  0  0  0  0
    5.8786    1.0651    0.5506 N   0  0  0  0  0  0  0  0  0  0  0  0
    6.8482    1.6141   -0.3322 C   0  0  0  0  0  0  0  0  0  0  0  0
    7.8970    0.5920   -0.6426 C   0  0  0  0  0  0  0  0  0  0  0  0
    8.5673    0.2783    0.6279 N   0  0  0  0  0  0  0  0  0  0  0  0
    7.6314   -0.4256    1.4508 C   0  0  0  0  0  0  0  0  0  0  0  0
    6.1987   -0.2063    1.1129 C   0  0  0  0  0  0  0  0  0  0  0  0
   -5.1232   -2.8436    1.4869 H   0  0  0  0  0  0  0  0  0  0  0  0
   -6.6850   -2.0288    1.2926 H   0  0  0  0  0  0  0  0  0  0  0  0
   -6.4458   -3.6360    0.5837 H   0  0  0  0  0  0  0  0  0  0  0  0
   -2.2882   -4.1786   -0.6816 H   0  0  0  0  0  0  0  0  0  0  0  0
   -4.0003   -4.0411   -0.2567 H   0  0  0  0  0  0  0  0  0  0  0  0
   -2.7570   -3.7933    0.9774 H   0  0  0  0  0  0  0  0  0  0  0  0
    0.1227   -1.8261    1.0476 H   0  0  0  0  0  0  0  0  0  0  0  0
   -2.3402    2.1830   -0.7995 H   0  0  0  0  0  0  0  0  0  0  0  0
   -5.1006    1.7787   -1.0084 H   0  0  0  0  0  0  0  0  0  0  0  0
   -4.2341    3.3009   -1.2178 H   0  0  0  0  0  0  0  0  0  0  0  0
   -5.6998    3.9389    0.4206 H   0  0  0  0  0  0  0  0  0  0  0  0
   -5.4470    2.4306    1.4579 H   0  0  0  0  0  0  0  0  0  0  0  0
   -3.5018    4.6227    0.6103 H   0  0  0  0  0  0  0  0  0  0  0  0
   -3.9395    4.1670    2.3247 H   0  0  0  0  0  0  0  0  0  0  0  0
   -1.7469    3.0212    1.2636 H   0  0  0  0  0  0  0  0  0  0  0  0
   -2.9387    2.0126    2.1111 H   0  0  0  0  0  0  0  0  0  0  0  0
    0.8275    1.1791   -2.2620 H   0  0  0  0  0  0  0  0  0  0  0  0
    5.3605    0.2397   -1.9185 H   0  0  0  0  0  0  0  0  0  0  0  0
    3.6359   -0.5486    1.0782 H   0  0  0  0  0  0  0  0  0  0  0  0
    1.4590    0.1445    0.8839 H   0  0  0  0  0  0  0  0  0  0  0  0
    6.4236    2.0942   -1.2354 H   0  0  0  0  0  0  0  0  0  0  0  0
    7.3730    2.4456    0.2247 H   0  0  0  0  0  0  0  0  0  0  0  0
    8.6768    0.9938   -1.3457 H   0  0  0  0  0  0  0  0  0  0  0  0
    7.4972   -0.3678   -1.0231 H   0  0  0  0  0  0  0  0  0  0  0  0
    8.7527    1.2150    1.0778 H   0  0  0  0  0  0  0  0  0  0  0  0
    7.8579   -0.2637    2.5394 H   0  0  0  0  0  0  0  0  0  0  0  0
    7.8411   -1.5259    1.2980 H   0  0  0  0  0  0  0  0  0  0  0  0
    5.7875   -1.0367    0.4742 H   0  0  0  0  0  0  0  0  0  0  0  0
    5.6070   -0.2975    2.0718 H   0  0  0  0  0  0  0  0  0  0  0  0
   -6.1831   -3.7343   -1.4062 H   0  0  0  0  0  0  0  0  0  0  0  0
   -6.2816   -1.3078   -0.8065 H   0  0  0  0  0  0  0  0  0  0  0  0
   -4.2042   -0.7917   -1.5330 H   0  0  0  0  0  0  0  0  0  0  0  0
   -2.3721   -2.0501   -1.3819 H   0  0  0  0  0  0  0  0  0  0  0  0
   -2.1547   -1.9621    1.6302 H   0  0  0  0  0  0  0  0  0  0  0  0
   -0.6338   -3.2360    0.2388 H   0  0  0  0  0  0  0  0  0  0  0  0
   -0.3844   -2.2625   -1.8243 H   0  0  0  0  0  0  0  0  0  0  0  0
   -1.0779   -0.1436   -2.0142 H   0  0  0  0  0  0  0  0  0  0  0  0
   -0.5857    1.4508   -0.1150 H   0  0  0  0  0  0  0  0  0  0  0  0
   -1.6949    0.2367    1.6951 H   0  0  0  0  0  0  0  0  0  0  0  0
   -5.1653    0.3042    0.3916 H   0  0  0  0  0  0  0  0  0  0  0  0
   -4.8720   -0.4086    2.3410 H   0  0  0  0  0  0  0  0  0  0  0  0
    2.4092   -1.0101   -0.9649 H   0  0  0  0  0  0  0  0  0  0  0  0
    3.2336    1.6277   -1.9303 H   0  0  0  0  0  0  0  0  0  0  0  0
    4.3492   -0.8750   -0.9628 H   0  0  0  0  0  0  0  0  0  0  0  0
    4.3101    2.0809   -0.3400 H   0  0  0  0  0  0  0  0  0  0  0  0
    3.4764    1.1296    1.8528 H   0  0  0  0  0  0  0  0  0  0  0  0
    1.9061    1.7878    0.1765 H   0  0  0  0  0  0  0  0  0  0  0  0
  1  2  1  0
  2  3  1  0
  2  4  1  0
  4  5  1  0
  5  6  1  0
  5  7  1  0
  7  8  1  0
  8  9  1  0
  9 10  1  0
 10 11  1  0
  7 12  1  0
 11 12  1  0
 12 13  1  0
 13 14  1  0
 14 15  1  0
 15 16  1  0
 16 17  1  0
 14 18  1  0
 17 18  1  0
  4 19  1  0
 13 19  1  0
 19 20  1  0
 10 21  1  0
 21 22  1  0
 22 23  1  0
 23 24  1  0
 24 25  1  0
 25 26  1  0
 22 27  1  0
 26 27  1  0
 25 28  1  0
 28 29  1  0
 29 30  1  0
 30 31  1  0
 31 32  1  0
 28 33  1  0
 32 33  1  0
  3 34  1  0
  3 35  1  0
  3 36  1  0
  6 37  1  0
  6 38  1  0
  6 39  1  0
  8 40  1  0
 14 41  1  0
 15 42  1  0
 15 43  1  0
 16 44  1  0
 16 45  1  0
 17 46  1  0
 17 47  1  0
 18 48  1  0
 18 49  1  0
 21 50  1  0
 24 51  1  0
 26 52  1  0
 27 53  1  0
 29 54  1  0
 29 55  1  0
 30 56  1  0
 30 57  1  0
 31 58  1  0
 32 59  1  0
 32 60  1  0
 33 61  1  0
 33 62  1  0
  1 63  1  0
  2 64  1  0
  4 65  1  0
  5 66  1  6
  7 67  1  1
  8 68  1  0
  9 69  1  0
 10 70  1  0
 11 71  1  0
 12 72  1  1
 19 73  1  0
 20 74  1  0
 22 75  1  0
 23 76  1  0
 24 77  1  0
 25 78  1  6
 26 79  1  0
 27 80  1  0
M  END
>  <PDBID>  (1) 
5L2I

>  <PDB ID>  (1) 
5L2I

>  <Generic Name>  (1) 
Palbociclib

>  <Brand Name>  (1) 
Ibrance

>  <DrugBank ID>  (1) 
DB09073

>  <ATC Codes>  (1) 
L01XE33

>  <Ligand ID>  (1) 
LQQ

>  <Target Name>  (1) 
Cyclin-dependent kinase 6

>  <UniProt ID>  (1) 
Q00534

>  <PDB ID.1>  (1) 
5L2I

>  <Seq. Identity>  (1) 
100%

$$$$
