PDB_DB08882_09
     RDKit          3D

170178  0  0  0  0  0  0  0  0999 V2000
   -1.2236    0.4191   -1.0941 C   0  0  0  0  0  0  0  0  0  0  0  0
   -2.1313    0.1805   -0.0641 N   0  0  0  0  0  0  0  0  0  0  0  0
   -1.1642   -0.9560   -1.7884 C   0  0  0  0  0  0  0  0  0  0  0  0
    0.2347    0.6298   -0.6569 C   0  0  0  0  0  0  0  0  0  0  0  0
   -2.6886   -1.1034   -0.1836 C   0  0  0  0  0  0  0  0  0  0  0  0
   -2.1766    0.9080    1.1073 C   0  0  0  0  0  0  0  0  0  0  0  0
   -2.5231   -1.4140   -1.6239 N   0  0  0  0  0  0  0  0  0  0  0  0
   -0.7311   -0.7398   -3.1215 N   0  0  0  0  0  0  0  0  0  0  0  0
    1.0209    0.1878   -1.7798 N   0  0  0  0  0  0  0  0  0  0  0  0
    0.4658    1.9658   -0.3493 O   0  0  0  0  0  0  0  0  0  0  0  0
   -4.0321   -1.2779    0.2537 N   0  0  0  0  0  0  0  0  0  0  0  0
   -2.6336    2.3444    0.9815 C   0  0  0  0  0  0  0  0  0  0  0  0
    0.3341    0.2755   -3.0532 C   0  0  0  0  0  0  0  0  0  0  0  0
   -1.7493   -0.3993   -4.0589 C   0  0  0  0  0  0  0  0  0  0  0  0
    2.3551    0.6400   -1.8291 C   0  0  0  0  0  0  0  0  0  0  0  0
   -4.3839   -2.6850    0.0498 C   0  0  0  0  0  0  0  0  0  0  0  0
   -5.0013   -0.5049   -0.4788 C   0  0  0  0  0  0  0  0  0  0  0  0
   -2.6065    2.9587    2.3650 C   0  0  0  0  0  0  0  0  0  0  0  0
    1.2490   -0.0792   -4.0416 O   0  0  0  0  0  0  0  0  0  0  0  0
    3.2267   -0.0030   -0.7933 C   0  0  0  0  0  0  0  0  0  0  0  0
   -5.7099   -2.9233    0.6918 C   0  0  1  0  0  0  0  0  0  0  0  0
   -6.2821   -0.5302    0.3450 C   0  0  0  0  0  0  0  0  0  0  0  0
   -3.0759    4.4113    2.2073 C   0  0  0  0  0  0  0  0  0  0  0  0
    4.6015    0.5056   -0.8765 N   0  0  0  0  0  0  0  0  0  0  0  0
    2.6635    0.0672    0.5077 N   0  0  0  0  0  0  0  0  0  0  0  0
   -6.7822   -1.9608    0.2821 C   0  0  0  0  0  0  0  0  0  0  0  0
   -6.1599   -4.2570    0.2884 N   0  0  0  0  0  0  0  0  0  0  0  0
    5.4246   -0.2995   -0.0049 C   0  0  0  0  0  0  0  0  0  0  0  0
    3.6147    0.5069    1.5200 C   0  0  0  0  0  0  0  0  0  0  0  0
    4.8323   -0.3671    1.3732 C   0  0  0  0  0  0  0  0  0  0  0  0
    6.8430    0.2647    0.0762 C   0  0  0  0  0  0  0  0  0  0  0  0
    3.8809    1.9699    1.4465 C   0  0  0  0  0  0  0  0  0  0  0  0
    5.8704   -0.1514    2.4347 C   0  0  0  0  0  0  0  0  0  0  0  0
    7.6846   -0.6706    0.8946 C   0  0  0  0  0  0  0  0  0  0  0  0
    6.9844   -1.1655    2.1396 C   0  0  0  0  0  0  0  0  0  0  0  0
   -1.2236    0.4191   -1.0941 C   0  0  0  0  0  0  0  0  0  0  0  0
   -2.1313    0.1805   -0.0641 N   0  0  0  0  0  0  0  0  0  0  0  0
   -1.1642   -0.9560   -1.7884 C   0  0  0  0  0  0  0  0  0  0  0  0
    0.2347    0.6298   -0.6569 C   0  0  0  0  0  0  0  0  0  0  0  0
   -2.6886   -1.1034   -0.1836 C   0  0  0  0  0  0  0  0  0  0  0  0
   -2.1766    0.9080    1.1073 C   0  0  0  0  0  0  0  0  0  0  0  0
   -2.5231   -1.4140   -1.6239 N   0  0  0  0  0  0  0  0  0  0  0  0
   -0.7311   -0.7398   -3.1215 N   0  0  0  0  0  0  0  0  0  0  0  0
    1.0209    0.1878   -1.7798 N   0  0  0  0  0  0  0  0  0  0  0  0
    0.4658    1.9658   -0.3493 O   0  0  0  0  0  0  0  0  0  0  0  0
   -4.0321   -1.2779    0.2537 N   0  0  0  0  0  0  0  0  0  0  0  0
   -2.6336    2.3444    0.9815 C   0  0  0  0  0  0  0  0  0  0  0  0
    0.3341    0.2755   -3.0532 C   0  0  0  0  0  0  0  0  0  0  0  0
   -1.7493   -0.3993   -4.0589 C   0  0  0  0  0  0  0  0  0  0  0  0
    2.3551    0.6400   -1.8291 C   0  0  0  0  0  0  0  0  0  0  0  0
   -4.3839   -2.6850    0.0498 C   0  0  0  0  0  0  0  0  0  0  0  0
   -5.0013   -0.5049   -0.4788 C   0  0  0  0  0  0  0  0  0  0  0  0
   -2.6065    2.9587    2.3650 C   0  0  0  0  0  0  0  0  0  0  0  0
    1.2490   -0.0792   -4.0416 O   0  0  0  0  0  0  0  0  0  0  0  0
    3.2267   -0.0030   -0.7933 C   0  0  0  0  0  0  0  0  0  0  0  0
   -5.7099   -2.9233    0.6918 C   0  0  1  0  0  0  0  0  0  0  0  0
   -6.2821   -0.5302    0.3450 C   0  0  0  0  0  0  0  0  0  0  0  0
   -3.0759    4.4113    2.2073 C   0  0  0  0  0  0  0  0  0  0  0  0
    4.6015    0.5056   -0.8765 N   0  0  0  0  0  0  0  0  0  0  0  0
    2.6635    0.0672    0.5077 N   0  0  0  0  0  0  0  0  0  0  0  0
   -6.7822   -1.9608    0.2821 C   0  0  0  0  0  0  0  0  0  0  0  0
   -6.1599   -4.2570    0.2884 N   0  0  0  0  0  0  0  0  0  0  0  0
    5.4246   -0.2995   -0.0049 C   0  0  0  0  0  0  0  0  0  0  0  0
    3.6147    0.5069    1.5200 C   0  0  0  0  0  0  0  0  0  0  0  0
    4.8323   -0.3671    1.3732 C   0  0  0  0  0  0  0  0  0  0  0  0
    6.8430    0.2647    0.0762 C   0  0  0  0  0  0  0  0  0  0  0  0
    3.8809    1.9699    1.4465 C   0  0  0  0  0  0  0  0  0  0  0  0
    5.8704   -0.1514    2.4347 C   0  0  0  0  0  0  0  0  0  0  0  0
    7.6846   -0.6706    0.8946 C   0  0  0  0  0  0  0  0  0  0  0  0
    6.9844   -1.1655    2.1396 C   0  0  0  0  0  0  0  0  0  0  0  0
   -1.5261    1.1390   -1.8673 H   0  0  0  0  0  0  0  0  0  0  0  0
   -0.4550   -1.5952   -1.2160 H   0  0  0  0  0  0  0  0  0  0  0  0
    0.3311    0.0280    0.2585 H   0  0  0  0  0  0  0  0  0  0  0  0
   -2.0478   -1.8459    0.3347 H   0  0  0  0  0  0  0  0  0  0  0  0
   -2.8004    0.4600    1.9306 H   0  0  0  0  0  0  0  0  0  0  0  0
   -1.1489    0.9527    1.5770 H   0  0  0  0  0  0  0  0  0  0  0  0
   -3.1560   -0.8318   -2.1842 H   0  0  0  0  0  0  0  0  0  0  0  0
    0.7231    2.0534    0.5986 H   0  0  0  0  0  0  0  0  0  0  0  0
   -1.9767    2.9588    0.3408 H   0  0  0  0  0  0  0  0  0  0  0  0
   -3.6985    2.3927    0.6416 H   0  0  0  0  0  0  0  0  0  0  0  0
   -0.0567    1.2933   -3.2640 H   0  0  0  0  0  0  0  0  0  0  0  0
   -1.2342   -0.1503   -5.0246 H   0  0  0  0  0  0  0  0  0  0  0  0
   -2.3462   -1.3023   -4.2693 H   0  0  0  0  0  0  0  0  0  0  0  0
   -2.3974    0.4054   -3.7087 H   0  0  0  0  0  0  0  0  0  0  0  0
    2.7859    0.5472   -2.8564 H   0  0  0  0  0  0  0  0  0  0  0  0
    2.3289    1.7540   -1.6183 H   0  0  0  0  0  0  0  0  0  0  0  0
   -3.6435   -3.3442    0.5480 H   0  0  0  0  0  0  0  0  0  0  0  0
   -4.4239   -2.8809   -1.0411 H   0  0  0  0  0  0  0  0  0  0  0  0
   -5.2470   -1.0582   -1.4173 H   0  0  0  0  0  0  0  0  0  0  0  0
   -4.6753    0.5053   -0.7368 H   0  0  0  0  0  0  0  0  0  0  0  0
   -3.2442    2.4516    3.0931 H   0  0  0  0  0  0  0  0  0  0  0  0
   -1.5403    3.0378    2.7297 H   0  0  0  0  0  0  0  0  0  0  0  0
    1.6346   -0.9494   -3.8330 H   0  0  0  0  0  0  0  0  0  0  0  0
    3.3240   -1.0889   -1.1315 H   0  0  0  0  0  0  0  0  0  0  0  0
   -5.5521   -2.9535    1.7910 H   0  0  0  0  0  0  0  0  0  0  0  0
   -7.0472    0.1553   -0.0295 H   0  0  0  0  0  0  0  0  0  0  0  0
   -5.9753   -0.3464    1.3980 H   0  0  0  0  0  0  0  0  0  0  0  0
   -3.2630    4.8926    3.1792 H   0  0  0  0  0  0  0  0  0  0  0  0
   -3.9506    4.3896    1.5315 H   0  0  0  0  0  0  0  0  0  0  0  0
   -2.2505    4.9392    1.6494 H   0  0  0  0  0  0  0  0  0  0  0  0
    4.8993    0.2414   -1.8644 H   0  0  0  0  0  0  0  0  0  0  0  0
    2.3916   -0.9296    0.7781 H   0  0  0  0  0  0  0  0  0  0  0  0
   -7.0105   -2.1591   -0.7918 H   0  0  0  0  0  0  0  0  0  0  0  0
   -7.6663   -2.1388    0.9259 H   0  0  0  0  0  0  0  0  0  0  0  0
   -5.6278   -4.5963   -0.5420 H   0  0  0  0  0  0  0  0  0  0  0  0
   -6.0589   -4.9357    1.0626 H   0  0  0  0  0  0  0  0  0  0  0  0
    5.5286   -1.3119   -0.4784 H   0  0  0  0  0  0  0  0  0  0  0  0
    3.1521    0.2698    2.5074 H   0  0  0  0  0  0  0  0  0  0  0  0
    4.4633   -1.4244    1.5062 H   0  0  0  0  0  0  0  0  0  0  0  0
    6.8392    1.2862    0.5150 H   0  0  0  0  0  0  0  0  0  0  0  0
    7.2677    0.3460   -0.9375 H   0  0  0  0  0  0  0  0  0  0  0  0
    2.9816    2.4857    1.8927 H   0  0  0  0  0  0  0  0  0  0  0  0
    3.9819    2.3877    0.4332 H   0  0  0  0  0  0  0  0  0  0  0  0
    4.7212    2.2489    2.1135 H   0  0  0  0  0  0  0  0  0  0  0  0
    5.4372   -0.3831    3.4399 H   0  0  0  0  0  0  0  0  0  0  0  0
    6.2643    0.8813    2.4799 H   0  0  0  0  0  0  0  0  0  0  0  0
    8.5765   -0.0856    1.2685 H   0  0  0  0  0  0  0  0  0  0  0  0
    8.0627   -1.5196    0.2582 H   0  0  0  0  0  0  0  0  0  0  0  0
    7.6535   -1.3025    2.9990 H   0  0  0  0  0  0  0  0  0  0  0  0
    6.4413   -2.1169    1.8637 H   0  0  0  0  0  0  0  0  0  0  0  0
   -1.5261    1.1390   -1.8673 H   0  0  0  0  0  0  0  0  0  0  0  0
   -0.4550   -1.5952   -1.2160 H   0  0  0  0  0  0  0  0  0  0  0  0
    0.3311    0.0280    0.2585 H   0  0  0  0  0  0  0  0  0  0  0  0
   -2.0478   -1.8459    0.3347 H   0  0  0  0  0  0  0  0  0  0  0  0
   -2.8004    0.4600    1.9306 H   0  0  0  0  0  0  0  0  0  0  0  0
   -1.1489    0.9527    1.5770 H   0  0  0  0  0  0  0  0  0  0  0  0
   -3.1560   -0.8318   -2.1842 H   0  0  0  0  0  0  0  0  0  0  0  0
    0.7231    2.0534    0.5986 H   0  0  0  0  0  0  0  0  0  0  0  0
   -1.9767    2.9588    0.3408 H   0  0  0  0  0  0  0  0  0  0  0  0
   -3.6985    2.3927    0.6416 H   0  0  0  0  0  0  0  0  0  0  0  0
   -0.0567    1.2933   -3.2640 H   0  0  0  0  0  0  0  0  0  0  0  0
   -1.2342   -0.1503   -5.0246 H   0  0  0  0  0  0  0  0  0  0  0  0
   -2.3462   -1.3023   -4.2693 H   0  0  0  0  0  0  0  0  0  0  0  0
   -2.3974    0.4054   -3.7087 H   0  0  0  0  0  0  0  0  0  0  0  0
    2.7859    0.5472   -2.8564 H   0  0  0  0  0  0  0  0  0  0  0  0
    2.3289    1.7540   -1.6183 H   0  0  0  0  0  0  0  0  0  0  0  0
   -3.6435   -3.3442    0.5480 H   0  0  0  0  0  0  0  0  0  0  0  0
   -4.4239   -2.8809   -1.0411 H   0  0  0  0  0  0  0  0  0  0  0  0
   -5.2470   -1.0582   -1.4173 H   0  0  0  0  0  0  0  0  0  0  0  0
   -4.6753    0.5053   -0.7368 H   0  0  0  0  0  0  0  0  0  0  0  0
   -3.2442    2.4516    3.0931 H   0  0  0  0  0  0  0  0  0  0  0  0
   -1.5403    3.0378    2.7297 H   0  0  0  0  0  0  0  0  0  0  0  0
    1.6346   -0.9494   -3.8330 H   0  0  0  0  0  0  0  0  0  0  0  0
    3.3240   -1.0889   -1.1315 H   0  0  0  0  0  0  0  0  0  0  0  0
   -5.5521   -2.9535    1.7910 H   0  0  0  0  0  0  0  0  0  0  0  0
   -7.0472    0.1553   -0.0295 H   0  0  0  0  0  0  0  0  0  0  0  0
   -5.9753   -0.3464    1.3980 H   0  0  0  0  0  0  0  0  0  0  0  0
   -3.2630    4.8926    3.1792 H   0  0  0  0  0  0  0  0  0  0  0  0
   -3.9506    4.3896    1.5315 H   0  0  0  0  0  0  0  0  0  0  0  0
   -2.2505    4.9392    1.6494 H   0  0  0  0  0  0  0  0  0  0  0  0
    4.8993    0.2414   -1.8644 H   0  0  0  0  0  0  0  0  0  0  0  0
    2.3916   -0.9296    0.7781 H   0  0  0  0  0  0  0  0  0  0  0  0
   -7.0105   -2.1591   -0.7918 H   0  0  0  0  0  0  0  0  0  0  0  0
   -7.6663   -2.1388    0.9259 H   0  0  0  0  0  0  0  0  0  0  0  0
   -5.6278   -4.5963   -0.5420 H   0  0  0  0  0  0  0  0  0  0  0  0
   -6.0589   -4.9357    1.0626 H   0  0  0  0  0  0  0  0  0  0  0  0
    5.5286   -1.3119   -0.4784 H   0  0  0  0  0  0  0  0  0  0  0  0
    3.1521    0.2698    2.5074 H   0  0  0  0  0  0  0  0  0  0  0  0
    4.4633   -1.4244    1.5062 H   0  0  0  0  0  0  0  0  0  0  0  0
    6.8392    1.2862    0.5150 H   0  0  0  0  0  0  0  0  0  0  0  0
    7.2677    0.3460   -0.9375 H   0  0  0  0  0  0  0  0  0  0  0  0
    2.9816    2.4857    1.8927 H   0  0  0  0  0  0  0  0  0  0  0  0
    3.9819    2.3877    0.4332 H   0  0  0  0  0  0  0  0  0  0  0  0
    4.7212    2.2489    2.1135 H   0  0  0  0  0  0  0  0  0  0  0  0
    5.4372   -0.3831    3.4399 H   0  0  0  0  0  0  0  0  0  0  0  0
    6.2643    0.8813    2.4799 H   0  0  0  0  0  0  0  0  0  0  0  0
    8.5765   -0.0856    1.2685 H   0  0  0  0  0  0  0  0  0  0  0  0
    8.0627   -1.5196    0.2582 H   0  0  0  0  0  0  0  0  0  0  0  0
    7.6535   -1.3025    2.9990 H   0  0  0  0  0  0  0  0  0  0  0  0
    6.4413   -2.1169    1.8637 H   0  0  0  0  0  0  0  0  0  0  0  0
  1  2  1  0
  1  3  1  0
  1  4  1  0
  2  5  1  0
  2  6  1  0
  3  7  1  0
  5  7  1  0
  3  8  1  0
  4  9  1  0
  4 10  1  0
  5 11  1  0
  6 12  1  0
  8 13  1  0
  9 13  1  0
  8 14  1  0
  9 15  1  0
 11 16  1  0
 11 17  1  0
 12 18  1  0
 13 19  1  0
 15 20  1  0
 16 21  1  0
 17 22  1  0
 18 23  1  0
 20 24  1  0
 20 25  1  0
 21 26  1  0
 22 26  1  0
 21 27  1  0
 24 28  1  0
 25 29  1  0
 28 30  1  0
 29 30  1  0
 28 31  1  0
 29 32  1  0
 30 33  1  0
 31 34  1  0
 33 35  1  0
 34 35  1  0
 36 37  1  0
 36 38  1  0
 36 39  1  0
 37 40  1  0
 37 41  1  0
 38 42  1  0
 40 42  1  0
 38 43  1  0
 39 44  1  0
 39 45  1  0
 40 46  1  0
 41 47  1  0
 43 48  1  0
 44 48  1  0
 43 49  1  0
 44 50  1  0
 46 51  1  0
 46 52  1  0
 47 53  1  0
 48 54  1  0
 50 55  1  0
 51 56  1  0
 52 57  1  0
 53 58  1  0
 55 59  1  0
 55 60  1  0
 56 61  1  0
 57 61  1  0
 56 62  1  0
 59 63  1  0
 60 64  1  0
 63 65  1  0
 64 65  1  0
 63 66  1  0
 64 67  1  0
 65 68  1  0
 66 69  1  0
 68 70  1  0
 69 70  1  0
  1 71  1  0
  3 72  1  0
  4 73  1  0
  5 74  1  0
  6 75  1  0
  6 76  1  0
  7 77  1  0
 10 78  1  0
 12 79  1  0
 12 80  1  0
 13 81  1  0
 14 82  1  0
 14 83  1  0
 14 84  1  0
 15 85  1  0
 15 86  1  0
 16 87  1  0
 16 88  1  0
 17 89  1  0
 17 90  1  0
 18 91  1  0
 18 92  1  0
 19 93  1  0
 20 94  1  0
 21 95  1  1
 22 96  1  0
 22 97  1  0
 23 98  1  0
 23 99  1  0
 23100  1  0
 24101  1  0
 25102  1  0
 26103  1  0
 26104  1  0
 27105  1  0
 27106  1  0
 28107  1  0
 29108  1  0
 30109  1  0
 31110  1  0
 31111  1  0
 32112  1  0
 32113  1  0
 32114  1  0
 33115  1  0
 33116  1  0
 34117  1  0
 34118  1  0
 35119  1  0
 35120  1  0
 36121  1  0
 38122  1  0
 39123  1  0
 40124  1  0
 41125  1  0
 41126  1  0
 42127  1  0
 45128  1  0
 47129  1  0
 47130  1  0
 48131  1  0
 49132  1  0
 49133  1  0
 49134  1  0
 50135  1  0
 50136  1  0
 51137  1  0
 51138  1  0
 52139  1  0
 52140  1  0
 53141  1  0
 53142  1  0
 54143  1  0
 55144  1  0
 56145  1  1
 57146  1  0
 57147  1  0
 58148  1  0
 58149  1  0
 58150  1  0
 59151  1  0
 60152  1  0
 61153  1  0
 61154  1  0
 62155  1  0
 62156  1  0
 63157  1  0
 64158  1  0
 65159  1  0
 66160  1  0
 66161  1  0
 67162  1  0
 67163  1  0
 67164  1  0
 68165  1  0
 68166  1  0
 69167  1  0
 69168  1  0
 70169  1  0
 70170  1  0
M  END
>  <PDBID>  (1) 
2RGU

>  <PDB ID>  (1) 
2RGU

>  <Generic Name>  (1) 
Linagliptin

>  <Brand Name>  (1) 
Glyxambi#Jentadueto#Jentadueto XR#Tradjenta#Trajenta

>  <DrugBank ID>  (1) 
DB08882

>  <ATC Codes>  (1) 
A10BH05#A10BD19#A10BD11

>  <Ligand ID>  (1) 
356

>  <Target Name>  (1) 
Dipeptidyl peptidase 4

>  <UniProt ID>  (1) 
P27487

>  <PDB ID.1>  (1) 
2RGU

>  <Seq. Identity>  (1) 
100%

$$$$
