PDB_DB00988_08
     RDKit          3D

 28 28  0  0  0  0  0  0  0  0999 V2000
    1.7310    1.0454    0.0565 C   0  0  0  0  0  0  0  0  0  0  0  0
    0.3522    0.5005   -0.2926 C   0  0  0  0  0  0  0  0  0  0  0  0
   -2.1793   -0.4739   -0.2112 C   0  0  0  0  0  0  0  0  0  0  0  0
   -0.7013    1.4261    0.2339 C   0  0  0  0  0  0  0  0  0  0  0  0
    0.2573   -0.9040    0.1778 C   0  0  0  0  0  0  0  0  0  0  0  0
   -1.1442   -1.4407    0.3223 C   0  0  0  0  0  0  0  0  0  0  0  0
   -2.0007    0.7916    0.5870 C   0  0  0  0  0  0  0  0  0  0  0  0
   -3.0612    1.6503    0.3316 O   0  0  0  0  0  0  0  0  0  0  0  0
   -3.4330   -1.0461    0.0290 O   0  0  0  0  0  0  0  0  0  0  0  0
    2.8637    0.2112   -0.4150 C   0  0  0  0  0  0  0  0  0  0  0  0
    2.9461   -1.1155    0.0659 N   0  0  0  0  0  0  0  0  0  0  0  0
    1.7959    1.2956    1.1434 H   0  0  0  0  0  0  0  0  0  0  0  0
    1.8213    2.0410   -0.4609 H   0  0  0  0  0  0  0  0  0  0  0  0
   -0.8634    2.2935   -0.4461 H   0  0  0  0  0  0  0  0  0  0  0  0
    0.8201   -1.0220    1.1233 H   0  0  0  0  0  0  0  0  0  0  0  0
   -1.3526   -1.5503    1.4112 H   0  0  0  0  0  0  0  0  0  0  0  0
   -3.2075    1.7623   -0.6367 H   0  0  0  0  0  0  0  0  0  0  0  0
   -3.4201   -2.0410   -0.1191 H   0  0  0  0  0  0  0  0  0  0  0  0
    2.8878    0.2816   -1.5342 H   0  0  0  0  0  0  0  0  0  0  0  0
    3.8042    0.7457   -0.0957 H   0  0  0  0  0  0  0  0  0  0  0  0
    3.1103   -1.8527   -0.6449 H   0  0  0  0  0  0  0  0  0  0  0  0
    3.6242   -1.2591    0.8454 H   0  0  0  0  0  0  0  0  0  0  0  0
    0.3072    0.5834   -1.4206 H   0  0  0  0  0  0  0  0  0  0  0  0
   -2.0930   -0.3284   -1.2933 H   0  0  0  0  0  0  0  0  0  0  0  0
   -0.2873    1.8875    1.1762 H   0  0  0  0  0  0  0  0  0  0  0  0
    0.7271   -1.5707   -0.5983 H   0  0  0  0  0  0  0  0  0  0  0  0
   -1.3066   -2.4187   -0.1329 H   0  0  0  0  0  0  0  0  0  0  0  0
   -1.9981    0.5075    1.6503 H   0  0  0  0  0  0  0  0  0  0  0  0
  1  2  1  0
  2  4  1  0
  2  5  1  0
  3  6  1  0
  5  6  1  0
  3  7  1  0
  4  7  1  0
  7  8  1  0
  3  9  1  0
  1 10  1  0
 10 11  1  0
  1 12  1  0
  1 13  1  0
  4 14  1  0
  5 15  1  0
  6 16  1  0
  8 17  1  0
  9 18  1  0
 10 19  1  0
 10 20  1  0
 11 21  1  0
 11 22  1  0
  2 23  1  0
  3 24  1  0
  4 25  1  0
  5 26  1  0
  6 27  1  0
  7 28  1  0
M  END
>  <PDBID>  (1) 
4XP1

>  <PDB ID>  (1) 
4XP1

>  <Generic Name>  (1) 
Dopamine

>  <Brand Name>  (1) 
Dopamine#Dopamine HCl#Dopamine HCl Inj 4%#Dopamine Hydrochloride#Dopamine Hydrochloride and Dextrose#Intropin Injection 40mg/ml#Intropin#Revimine

>  <DrugBank ID>  (1) 
DB00988

>  <ATC Codes>  (1) 
C01CA04

>  <Ligand ID>  (1) 
LDP

>  <Target Name>  (1) 
Sodium-dependent dopamine transporter

>  <UniProt ID>  (1) 
Q01959

>  <PDB ID.1>  (1) 
4XP1

>  <Seq. Identity>  (1) 
52%

$$$$
