PDB_DB01030_02
     RDKit          3D

 72 76  0  0  0  0  0  0  0  0999 V2000
   -5.9162   -0.5494   -0.7606 C   0  0  0  0  0  0  0  0  0  0  0  0
   -5.6602   -1.9903   -1.1301 C   0  0  0  0  0  0  0  0  0  0  0  0
   -4.6306    0.2410   -0.6609 C   0  0  2  0  0  0  0  0  0  0  0  0
   -4.0158    0.1701   -1.9357 O   0  0  0  0  0  0  0  0  0  0  0  0
   -3.7429   -0.3283    0.4177 C   0  0  0  0  0  0  0  0  0  0  0  0
   -4.9865    1.6813   -0.4700 C   0  0  0  0  0  0  0  0  0  0  0  0
   -3.8005    0.3484    1.7189 C   0  0  0  0  0  0  0  0  0  0  0  0
   -2.3666   -0.4581   -0.2021 C   0  0  0  0  0  0  0  0  0  0  0  0
   -6.0170    1.9901   -1.3601 O   0  0  0  0  0  0  0  0  0  0  0  0
   -5.4906    1.8300    0.8241 O   0  0  0  0  0  0  0  0  0  0  0  0
   -2.5422    0.4307    2.5118 C   0  0  0  0  0  0  0  0  0  0  0  0
   -4.3779    1.7723    1.6629 C   0  0  0  0  0  0  0  0  0  0  0  0
   -1.4412   -0.8361    0.9259 C   0  0  0  0  0  0  0  0  0  0  0  0
   -2.4672   -0.5985    3.4655 O   0  0  0  0  0  0  0  0  0  0  0  0
   -1.3452    0.3899    1.7318 N   0  0  0  0  0  0  0  0  0  0  0  0
   -0.0463   -1.1386    0.4695 C   0  0  0  0  0  0  0  0  0  0  0  0
   -0.1562    0.1767    2.4915 C   0  0  0  0  0  0  0  0  0  0  0  0
    0.7645   -0.6763    1.6607 C   0  0  0  0  0  0  0  0  0  0  0  0
    0.3105   -0.4852   -0.7476 N   0  0  0  0  0  0  0  0  0  0  0  0
    1.9354    0.1185    1.0774 C   0  0  0  0  0  0  0  0  0  0  0  0
    1.6580   -0.8435   -1.1403 C   0  0  0  0  0  0  0  0  0  0  0  0
    2.5615   -0.8221    0.0481 C   0  0  0  0  0  0  0  0  0  0  0  0
    2.1851    0.0841   -2.2079 C   0  0  0  0  0  0  0  0  0  0  0  0
    3.9957   -0.5448   -0.2278 C   0  0  0  0  0  0  0  0  0  0  0  0
    3.5094   -0.4054   -2.6811 C   0  0  0  0  0  0  0  0  0  0  0  0
    4.4023   -0.9707   -1.6281 C   0  0  0  0  0  0  0  0  0  0  0  0
    4.4561    0.8508    0.0782 C   0  0  0  0  0  0  0  0  0  0  0  0
    5.8639    0.9859   -0.2404 N   0  0  0  0  0  0  0  0  0  0  0  0
    6.7368    0.2407    0.6111 C   0  0  0  0  0  0  0  0  0  0  0  0
    6.2828    2.3715   -0.2644 C   0  0  0  0  0  0  0  0  0  0  0  0
    4.5287   -2.3402   -1.7343 O   0  0  0  0  0  0  0  0  0  0  0  0
   -6.4655   -0.4692    0.1982 H   0  0  0  0  0  0  0  0  0  0  0  0
   -6.5606   -0.0838   -1.5444 H   0  0  0  0  0  0  0  0  0  0  0  0
   -6.5467   -2.3375   -1.7334 H   0  0  0  0  0  0  0  0  0  0  0  0
   -5.6350   -2.5818   -0.2019 H   0  0  0  0  0  0  0  0  0  0  0  0
   -4.7249   -2.0555   -1.7247 H   0  0  0  0  0  0  0  0  0  0  0  0
   -4.3572    0.9016   -2.5200 H   0  0  0  0  0  0  0  0  0  0  0  0
   -4.0763   -1.4037    0.5425 H   0  0  0  0  0  0  0  0  0  0  0  0
   -4.1265    2.3670   -0.6032 H   0  0  0  0  0  0  0  0  0  0  0  0
   -4.5457   -0.1985    2.3759 H   0  0  0  0  0  0  0  0  0  0  0  0
   -2.0208    0.4567   -0.7018 H   0  0  0  0  0  0  0  0  0  0  0  0
   -2.3547   -1.3068   -0.9217 H   0  0  0  0  0  0  0  0  0  0  0  0
   -6.8381    2.2938   -0.9021 H   0  0  0  0  0  0  0  0  0  0  0  0
   -2.4967    1.3790    3.1199 H   0  0  0  0  0  0  0  0  0  0  0  0
   -3.6165    2.4998    1.3622 H   0  0  0  0  0  0  0  0  0  0  0  0
   -4.7249    2.0398    2.6824 H   0  0  0  0  0  0  0  0  0  0  0  0
   -1.8365   -1.6765    1.4967 H   0  0  0  0  0  0  0  0  0  0  0  0
   -3.1337   -1.2969    3.3412 H   0  0  0  0  0  0  0  0  0  0  0  0
    0.1186   -2.2538    0.4053 H   0  0  0  0  0  0  0  0  0  0  0  0
    0.2915    1.1568    2.7395 H   0  0  0  0  0  0  0  0  0  0  0  0
   -0.4411   -0.3988    3.4084 H   0  0  0  0  0  0  0  0  0  0  0  0
    1.1565   -1.5109    2.2626 H   0  0  0  0  0  0  0  0  0  0  0  0
   -0.3967   -0.6510   -1.4698 H   0  0  0  0  0  0  0  0  0  0  0  0
    1.5063    0.9565    0.5208 H   0  0  0  0  0  0  0  0  0  0  0  0
    2.6227    0.3925    1.8884 H   0  0  0  0  0  0  0  0  0  0  0  0
    1.6820   -1.8712   -1.6032 H   0  0  0  0  0  0  0  0  0  0  0  0
    2.4883   -1.8649    0.4931 H   0  0  0  0  0  0  0  0  0  0  0  0
    2.1318    1.1492   -1.9386 H   0  0  0  0  0  0  0  0  0  0  0  0
    1.4739   -0.0122   -3.0855 H   0  0  0  0  0  0  0  0  0  0  0  0
    4.6203   -1.2098    0.4480 H   0  0  0  0  0  0  0  0  0  0  0  0
    3.3470   -1.2037   -3.4571 H   0  0  0  0  0  0  0  0  0  0  0  0
    4.0235    0.4104   -3.2370 H   0  0  0  0  0  0  0  0  0  0  0  0
    5.4311   -0.5498   -1.7679 H   0  0  0  0  0  0  0  0  0  0  0  0
    4.3837    1.0813    1.1751 H   0  0  0  0  0  0  0  0  0  0  0  0
    3.9012    1.6414   -0.4292 H   0  0  0  0  0  0  0  0  0  0  0  0
    7.1131   -0.7008    0.1226 H   0  0  0  0  0  0  0  0  0  0  0  0
    7.6598    0.8083    0.8996 H   0  0  0  0  0  0  0  0  0  0  0  0
    6.2809   -0.0930    1.5602 H   0  0  0  0  0  0  0  0  0  0  0  0
    5.3566    2.9833   -0.1200 H   0  0  0  0  0  0  0  0  0  0  0  0
    6.7323    2.5652   -1.2632 H   0  0  0  0  0  0  0  0  0  0  0  0
    7.0220    2.5637    0.5297 H   0  0  0  0  0  0  0  0  0  0  0  0
    5.3670   -2.6108   -2.1468 H   0  0  0  0  0  0  0  0  0  0  0  0
  1  2  1  0
  1  3  1  0
  3  4  1  6
  3  5  1  0
  3  6  1  0
  5  7  1  0
  5  8  1  0
  6  9  1  0
  6 10  1  0
  7 11  1  0
  7 12  1  0
 10 12  1  0
  8 13  1  0
 11 14  1  0
 11 15  1  0
 13 15  1  0
 13 16  1  0
 15 17  1  0
 16 18  1  0
 17 18  1  0
 16 19  1  0
 18 20  1  0
 19 21  1  0
 20 22  1  0
 21 22  1  0
 21 23  1  0
 22 24  1  0
 23 25  1  0
 24 26  1  0
 25 26  1  0
 24 27  1  0
 27 28  1  0
 28 29  1  0
 28 30  1  0
 26 31  1  0
  1 32  1  0
  1 33  1  0
  2 34  1  0
  2 35  1  0
  2 36  1  0
  4 37  1  0
  5 38  1  0
  6 39  1  0
  7 40  1  0
  8 41  1  0
  8 42  1  0
  9 43  1  0
 11 44  1  0
 12 45  1  0
 12 46  1  0
 13 47  1  0
 14 48  1  0
 16 49  1  0
 17 50  1  0
 17 51  1  0
 18 52  1  0
 19 53  1  0
 20 54  1  0
 20 55  1  0
 21 56  1  0
 22 57  1  0
 23 58  1  0
 23 59  1  0
 24 60  1  0
 25 61  1  0
 25 62  1  0
 26 63  1  0
 27 64  1  0
 27 65  1  0
 29 66  1  0
 29 67  1  0
 29 68  1  0
 30 69  1  0
 30 70  1  0
 30 71  1  0
 31 72  1  0
M  END
>  <PDBID>  (1) 
1K4T

>  <PDB ID>  (1) 
1K4T

>  <Generic Name>  (1) 
Topotecan

>  <Brand Name>  (1) 
Act Topotecan#Hycamtin#Mylan-topotecan Hydrochloride for Injection#PMS-topotecan#Topotecan#Topotecan Hydrochloride#Topotecan Hydrochloride for Injection#Topotecan Injection#Topotecan for Injection

>  <DrugBank ID>  (1) 
DB01030

>  <ATC Codes>  (1) 
L01XX17

>  <Ligand ID>  (1) 
TTC

>  <Target Name>  (1) 
DNA topoisomerase 1

>  <UniProt ID>  (1) 
P11387

>  <PDB ID.1>  (1) 
1K4T

>  <Seq. Identity>  (1) 
92%

$$$$
