PDB_DB04787_09
     RDKit          3D

104108  0  0  0  0  0  0  0  0999 V2000
   -3.1569   -1.6989    0.5923 C   0  0  0  0  0  0  0  0  0  0  0  0
   -3.0718   -0.7825   -0.5803 C   0  0  0  0  0  0  0  0  0  0  0  0
   -2.0317    0.3015   -0.4316 C   0  0  2  0  0  0  0  0  0  0  0  0
   -0.6241   -0.2425   -0.5607 C   0  0  0  0  0  0  0  0  0  0  0  0
    0.2542    0.5451    0.3533 C   0  0  1  0  0  0  0  0  0  0  0  0
   -0.1013    0.1859    1.7601 C   0  0  0  0  0  0  0  0  0  0  0  0
   -1.5175    0.6016    2.0147 C   0  0  0  0  0  0  0  0  0  0  0  0
   -2.2703    1.0656    0.8194 C   0  0  0  0  0  0  0  0  0  0  0  0
   -3.6633    1.0689    1.1167 N   0  0  0  0  0  0  0  0  0  0  0  0
   -4.5579    0.8736    0.0669 C   0  0  0  0  0  0  0  0  0  0  0  0
   -4.6978    2.3677   -0.9893 S   0  0  0  0  0  0  0  0  0  0  0  0
   -4.2878   -0.1824   -0.7902 O   0  0  0  0  0  0  0  0  0  0  0  0
    1.7052    0.5163    0.0586 C   0  0  2  0  0  0  0  0  0  0  0  0
    2.0806    1.0306   -1.2899 C   0  0  0  0  0  0  0  0  0  0  0  0
    3.5980    0.7975   -1.2351 C   0  0  0  0  0  0  0  0  0  0  0  0
    3.7674   -0.2871   -0.2030 C   0  0  0  0  0  0  0  0  0  0  0  0
    2.4087   -0.6956    0.1821 N   0  0  0  0  0  0  0  0  0  0  0  0
    2.0575   -1.7732   -0.6696 C   0  0  0  0  0  0  0  0  0  0  0  0
    4.5475    0.1723    1.0065 C   0  0  0  0  0  0  0  0  0  0  0  0
    5.8681    0.6010    0.5919 N   0  0  0  0  0  0  0  0  0  0  0  0
   -2.7723   -1.6385   -1.8090 C   0  0  0  0  0  0  0  0  0  0  0  0
   -2.9822   -2.1029    0.1843 C   0  0  0  0  0  0  0  0  0  0  0  0
   -3.0855   -0.7993   -0.6059 C   0  0  0  0  0  0  0  0  0  0  0  0
   -2.0119    0.1764   -0.2347 C   0  0  0  0  0  0  0  0  0  0  0  0
   -0.6240   -0.4896   -0.2136 C   0  0  0  0  0  0  0  0  0  0  0  0
    0.3339    0.5613    0.1844 C   0  0  1  0  0  0  0  0  0  0  0  0
    0.1094    0.8758    1.6528 C   0  0  0  0  0  0  0  0  0  0  0  0
   -1.2536    1.5340    1.7447 C   0  0  0  0  0  0  0  0  0  0  0  0
   -2.3480    0.7461    1.1210 C   0  0  0  0  0  0  0  0  0  0  0  0
   -3.4854    1.6529    0.9187 N   0  0  0  0  0  0  0  0  0  0  0  0
   -4.2543    1.1552   -0.2075 C   0  0  0  0  0  0  0  0  0  0  0  0
   -5.9647    1.7518    0.0334 S   0  0  0  0  0  0  0  0  0  0  0  0
   -4.3144   -0.2291   -0.2274 O   0  0  0  0  0  0  0  0  0  0  0  0
    1.7596    0.3463   -0.0666 C   0  0  2  0  0  0  0  0  0  0  0  0
    2.1421    0.1434   -1.5074 C   0  0  0  0  0  0  0  0  0  0  0  0
    3.6367   -0.1086   -1.3549 C   0  0  0  0  0  0  0  0  0  0  0  0
    3.7995   -0.5122    0.0957 C   0  0  0  0  0  0  0  0  0  0  0  0
    2.4409   -0.6690    0.6230 N   0  0  0  0  0  0  0  0  0  0  0  0
    2.0908   -2.0181    0.3327 C   0  0  0  0  0  0  0  0  0  0  0  0
    4.5976    0.4767    0.8868 C   0  0  0  0  0  0  0  0  0  0  0  0
    5.9048    0.5987    0.3176 N   0  0  0  0  0  0  0  0  0  0  0  0
   -3.1667   -1.0635   -2.0904 C   0  0  0  0  0  0  0  0  0  0  0  0
   -3.8471   -1.3581    1.3910 H   0  0  0  0  0  0  0  0  0  0  0  0
   -2.1628   -1.9979    1.0040 H   0  0  0  0  0  0  0  0  0  0  0  0
   -3.6082   -2.6656    0.2194 H   0  0  0  0  0  0  0  0  0  0  0  0
   -2.1756    0.9917   -1.2907 H   0  0  0  0  0  0  0  0  0  0  0  0
   -0.2380   -0.1172   -1.6043 H   0  0  0  0  0  0  0  0  0  0  0  0
   -0.6826   -1.3118   -0.3580 H   0  0  0  0  0  0  0  0  0  0  0  0
   -0.0673    1.6242    0.2195 H   0  0  0  0  0  0  0  0  0  0  0  0
    0.6113    0.5853    2.5096 H   0  0  0  0  0  0  0  0  0  0  0  0
   -0.0654   -0.9208    1.8646 H   0  0  0  0  0  0  0  0  0  0  0  0
   -2.0630   -0.1871    2.5899 H   0  0  0  0  0  0  0  0  0  0  0  0
   -1.4654    1.4718    2.7336 H   0  0  0  0  0  0  0  0  0  0  0  0
   -1.9929    2.1468    0.6361 H   0  0  0  0  0  0  0  0  0  0  0  0
   -3.9457    0.9416    2.0699 H   0  0  0  0  0  0  0  0  0  0  0  0
   -5.5781    0.7042    0.4697 H   0  0  0  0  0  0  0  0  0  0  0  0
   -3.5773    3.1851   -0.8657 H   0  0  0  0  0  0  0  0  0  0  0  0
    2.1889    1.2333    0.7955 H   0  0  0  0  0  0  0  0  0  0  0  0
    1.9127    2.1305   -1.3728 H   0  0  0  0  0  0  0  0  0  0  0  0
    1.6254    0.5180   -2.1362 H   0  0  0  0  0  0  0  0  0  0  0  0
    4.0702    1.7304   -0.8662 H   0  0  0  0  0  0  0  0  0  0  0  0
    4.0024    0.5309   -2.2187 H   0  0  0  0  0  0  0  0  0  0  0  0
    4.3221   -1.1201   -0.6793 H   0  0  0  0  0  0  0  0  0  0  0  0
    3.0048   -2.3677   -0.8515 H   0  0  0  0  0  0  0  0  0  0  0  0
    1.7388   -1.4704   -1.6992 H   0  0  0  0  0  0  0  0  0  0  0  0
    1.3752   -2.5196   -0.2167 H   0  0  0  0  0  0  0  0  0  0  0  0
    4.6891   -0.7287    1.6480 H   0  0  0  0  0  0  0  0  0  0  0  0
    4.0769    1.0042    1.5322 H   0  0  0  0  0  0  0  0  0  0  0  0
    5.8955    0.9352   -0.3941 H   0  0  0  0  0  0  0  0  0  0  0  0
    6.5652   -0.1746    0.6654 H   0  0  0  0  0  0  0  0  0  0  0  0
   -3.7310   -2.1304   -2.0997 H   0  0  0  0  0  0  0  0  0  0  0  0
   -2.3228   -1.0479   -2.6216 H   0  0  0  0  0  0  0  0  0  0  0  0
   -2.0901   -2.4420   -1.4502 H   0  0  0  0  0  0  0  0  0  0  0  0
   -4.0116   -2.5243    0.3799 H   0  0  0  0  0  0  0  0  0  0  0  0
   -2.4575   -2.8922   -0.3993 H   0  0  0  0  0  0  0  0  0  0  0  0
   -2.5218   -1.9684    1.1630 H   0  0  0  0  0  0  0  0  0  0  0  0
   -1.9613    0.9601   -0.9963 H   0  0  0  0  0  0  0  0  0  0  0  0
   -0.4865   -0.9205   -1.2087 H   0  0  0  0  0  0  0  0  0  0  0  0
   -0.7002   -1.2406    0.6029 H   0  0  0  0  0  0  0  0  0  0  0  0
    0.0343    1.5084   -0.3578 H   0  0  0  0  0  0  0  0  0  0  0  0
    0.8491    1.6084    2.0301 H   0  0  0  0  0  0  0  0  0  0  0  0
    0.0961   -0.0684    2.2252 H   0  0  0  0  0  0  0  0  0  0  0  0
   -1.1870    2.5772    1.3727 H   0  0  0  0  0  0  0  0  0  0  0  0
   -1.4779    1.6227    2.8378 H   0  0  0  0  0  0  0  0  0  0  0  0
   -2.7142   -0.0437    1.8111 H   0  0  0  0  0  0  0  0  0  0  0  0
   -3.1539    2.6090    0.6570 H   0  0  0  0  0  0  0  0  0  0  0  0
   -3.9121    1.5827   -1.1748 H   0  0  0  0  0  0  0  0  0  0  0  0
   -5.9527    3.1461    0.3202 H   0  0  0  0  0  0  0  0  0  0  0  0
    2.2715    1.3214    0.2184 H   0  0  0  0  0  0  0  0  0  0  0  0
    1.9634    1.0792   -2.1063 H   0  0  0  0  0  0  0  0  0  0  0  0
    1.6142   -0.6557   -2.0174 H   0  0  0  0  0  0  0  0  0  0  0  0
    4.1422    0.8791   -1.5140 H   0  0  0  0  0  0  0  0  0  0  0  0
    4.0056   -0.8827   -2.0481 H   0  0  0  0  0  0  0  0  0  0  0  0
    4.3473   -1.4743    0.1076 H   0  0  0  0  0  0  0  0  0  0  0  0
    3.0134   -2.6390    0.5511 H   0  0  0  0  0  0  0  0  0  0  0  0
    1.8749   -2.2215   -0.7389 H   0  0  0  0  0  0  0  0  0  0  0  0
    1.3240   -2.4505    1.0016 H   0  0  0  0  0  0  0  0  0  0  0  0
    4.7209    0.0482    1.9101 H   0  0  0  0  0  0  0  0  0  0  0  0
    4.1581    1.4677    0.9762 H   0  0  0  0  0  0  0  0  0  0  0  0
    5.9758    1.2100   -0.5010 H   0  0  0  0  0  0  0  0  0  0  0  0
    6.4400   -0.2756    0.2889 H   0  0  0  0  0  0  0  0  0  0  0  0
   -3.2952   -2.1461   -2.2437 H   0  0  0  0  0  0  0  0  0  0  0  0
   -4.0766   -0.5864   -2.5532 H   0  0  0  0  0  0  0  0  0  0  0  0
   -2.2471   -0.6564   -2.5537 H   0  0  0  0  0  0  0  0  0  0  0  0
  2  1  1  0
  2  3  1  0
  3  4  1  0
  4  5  1  0
  5  6  1  0
  6  7  1  0
  3  8  1  0
  7  8  1  0
  8  9  1  0
  9 10  1  0
 10 11  1  0
  2 12  1  0
 10 12  1  0
  5 13  1  0
 13 14  1  0
 14 15  1  0
 15 16  1  0
 13 17  1  0
 16 17  1  0
 17 18  1  0
 16 19  1  0
 19 20  1  0
  2 21  1  0
 23 22  1  0
 23 24  1  0
 24 25  1  0
 25 26  1  0
 26 27  1  0
 27 28  1  0
 24 29  1  0
 28 29  1  0
 29 30  1  0
 30 31  1  0
 31 32  1  0
 23 33  1  0
 31 33  1  0
 26 34  1  0
 34 35  1  0
 35 36  1  0
 36 37  1  0
 34 38  1  0
 37 38  1  0
 38 39  1  0
 37 40  1  0
 40 41  1  0
 23 42  1  0
  1 43  1  0
  1 44  1  0
  1 45  1  0
  3 46  1  6
  4 47  1  0
  4 48  1  0
  5 49  1  1
  6 50  1  0
  6 51  1  0
  7 52  1  0
  7 53  1  0
  8 54  1  0
  9 55  1  0
 10 56  1  0
 11 57  1  0
 13 58  1  1
 14 59  1  0
 14 60  1  0
 15 61  1  0
 15 62  1  0
 16 63  1  0
 18 64  1  0
 18 65  1  0
 18 66  1  0
 19 67  1  0
 19 68  1  0
 20 69  1  0
 20 70  1  0
 21 71  1  0
 21 72  1  0
 21 73  1  0
 22 74  1  0
 22 75  1  0
 22 76  1  0
 24 77  1  0
 25 78  1  0
 25 79  1  0
 26 80  1  6
 27 81  1  0
 27 82  1  0
 28 83  1  0
 28 84  1  0
 29 85  1  0
 30 86  1  0
 31 87  1  0
 32 88  1  0
 34 89  1  1
 35 90  1  0
 35 91  1  0
 36 92  1  0
 36 93  1  0
 37 94  1  0
 39 95  1  0
 39 96  1  0
 39 97  1  0
 40 98  1  0
 40 99  1  0
 41100  1  0
 41101  1  0
 42102  1  0
 42103  1  0
 42104  1  0
M  END
>  <PDBID>  (1) 
1ZUC

>  <PDB ID>  (1) 
1ZUC

>  <Generic Name>  (1) 
Tanaproget

>  <Brand Name>  (1) 
nan

>  <DrugBank ID>  (1) 
DB04787

>  <ATC Codes>  (1) 
nan

>  <Ligand ID>  (1) 
T98

>  <Target Name>  (1) 
Progesterone receptor

>  <UniProt ID>  (1) 
P06401

>  <PDB ID.1>  (1) 
1ZUC

>  <Seq. Identity>  (1) 
97%

$$$$
