PDB_DB00480_00
     RDKit          3D

 88 92  0  0  0  0  0  0  0  0999 V2000
    1.6893   -0.1823    0.2156 C   0  0  1  0  0  0  0  0  0  0  0  0
    2.2150   -1.1401   -0.8689 C   0  0  0  0  0  0  0  0  0  0  0  0
    3.6708   -1.4657   -0.6224 C   0  0  0  0  0  0  0  0  0  0  0  0
    4.4272   -0.2528   -0.1243 C   0  0  0  0  0  0  0  0  0  0  0  0
    3.7305    0.9069   -0.6019 N   0  0  0  0  0  0  0  0  0  0  0  0
    2.4545    1.1249    0.0694 C   0  0  0  0  0  0  0  0  0  0  0  0
   -1.7388    0.8130    0.2922 C   0  0  0  0  0  0  0  0  0  0  0  0
   -1.8510   -0.7207    0.3730 C   0  0  0  0  0  0  0  0  0  0  0  0
   -0.5014   -1.1265   -0.1061 C   0  0  0  0  0  0  0  0  0  0  0  0
    0.3229    0.0721   -0.1264 N   0  0  0  0  0  0  0  0  0  0  0  0
   -0.3489    0.9547    0.8309 C   0  0  0  0  0  0  0  0  0  0  0  0
   -4.1230    0.9981    0.3629 C   0  0  0  0  0  0  0  0  0  0  0  0
   -4.2533   -0.4875    0.1510 C   0  0  0  0  0  0  0  0  0  0  0  0
   -3.0025   -1.1002   -0.4744 C   0  0  0  0  0  0  0  0  0  0  0  0
   -2.8326    1.3608    1.1147 C   0  0  0  0  0  0  0  0  0  0  0  0
    0.1257    2.2277    0.8599 O   0  0  0  0  0  0  0  0  0  0  0  0
   -2.8790   -0.6203   -1.8348 N   0  0  0  0  0  0  0  0  0  0  0  0
    2.6737    1.7486    1.2826 O   0  0  0  0  0  0  0  0  0  0  0  0
    5.7281   -0.1976   -0.6385 O   0  0  0  0  0  0  0  0  0  0  0  0
    1.6893   -0.1823    0.2156 C   0  0  1  0  0  0  0  0  0  0  0  0
    2.2150   -1.1401   -0.8689 C   0  0  0  0  0  0  0  0  0  0  0  0
    3.6708   -1.4657   -0.6224 C   0  0  0  0  0  0  0  0  0  0  0  0
    4.4272   -0.2528   -0.1243 C   0  0  0  0  0  0  0  0  0  0  0  0
    3.7305    0.9069   -0.6019 N   0  0  0  0  0  0  0  0  0  0  0  0
    2.4545    1.1249    0.0694 C   0  0  0  0  0  0  0  0  0  0  0  0
   -1.7388    0.8130    0.2922 C   0  0  0  0  0  0  0  0  0  0  0  0
   -1.8510   -0.7207    0.3730 C   0  0  0  0  0  0  0  0  0  0  0  0
   -0.5014   -1.1265   -0.1061 C   0  0  0  0  0  0  0  0  0  0  0  0
    0.3229    0.0721   -0.1264 N   0  0  0  0  0  0  0  0  0  0  0  0
   -0.3489    0.9547    0.8309 C   0  0  0  0  0  0  0  0  0  0  0  0
   -4.1230    0.9981    0.3629 C   0  0  0  0  0  0  0  0  0  0  0  0
   -4.2533   -0.4875    0.1510 C   0  0  0  0  0  0  0  0  0  0  0  0
   -3.0025   -1.1002   -0.4744 C   0  0  0  0  0  0  0  0  0  0  0  0
   -2.8326    1.3608    1.1147 C   0  0  0  0  0  0  0  0  0  0  0  0
    0.1257    2.2277    0.8599 O   0  0  0  0  0  0  0  0  0  0  0  0
   -2.8790   -0.6203   -1.8348 N   0  0  0  0  0  0  0  0  0  0  0  0
    2.6737    1.7486    1.2826 O   0  0  0  0  0  0  0  0  0  0  0  0
    5.7281   -0.1976   -0.6385 O   0  0  0  0  0  0  0  0  0  0  0  0
    1.8556   -0.6450    1.1843 H   0  0  0  0  0  0  0  0  0  0  0  0
    1.6541   -2.0711   -0.8530 H   0  0  0  0  0  0  0  0  0  0  0  0
    2.0906   -0.5903   -1.8254 H   0  0  0  0  0  0  0  0  0  0  0  0
    4.1017   -1.7858   -1.5960 H   0  0  0  0  0  0  0  0  0  0  0  0
    3.7541   -2.2795    0.1181 H   0  0  0  0  0  0  0  0  0  0  0  0
    4.5047   -0.2104    0.9682 H   0  0  0  0  0  0  0  0  0  0  0  0
    3.5357    0.8401   -1.6263 H   0  0  0  0  0  0  0  0  0  0  0  0
    1.9150    1.8571   -0.5791 H   0  0  0  0  0  0  0  0  0  0  0  0
   -1.8034    1.0452   -0.7885 H   0  0  0  0  0  0  0  0  0  0  0  0
   -2.0579   -1.0252    1.4198 H   0  0  0  0  0  0  0  0  0  0  0  0
   -0.4981   -1.5247   -1.1464 H   0  0  0  0  0  0  0  0  0  0  0  0
   -0.1090   -1.8974    0.5899 H   0  0  0  0  0  0  0  0  0  0  0  0
   -0.3165    0.4418    1.8334 H   0  0  0  0  0  0  0  0  0  0  0  0
   -3.9962    1.4631   -0.6496 H   0  0  0  0  0  0  0  0  0  0  0  0
   -5.0098    1.3493    0.8854 H   0  0  0  0  0  0  0  0  0  0  0  0
   -5.0793   -0.6113   -0.6061 H   0  0  0  0  0  0  0  0  0  0  0  0
   -4.5036   -0.9522    1.1052 H   0  0  0  0  0  0  0  0  0  0  0  0
   -3.1611   -2.2024   -0.4320 H   0  0  0  0  0  0  0  0  0  0  0  0
   -2.8063    2.4527    1.1822 H   0  0  0  0  0  0  0  0  0  0  0  0
   -2.8212    0.8672    2.1075 H   0  0  0  0  0  0  0  0  0  0  0  0
    0.0625    2.5644    1.8074 H   0  0  0  0  0  0  0  0  0  0  0  0
   -3.7798   -0.8087   -2.3233 H   0  0  0  0  0  0  0  0  0  0  0  0
   -2.1413   -1.1700   -2.3218 H   0  0  0  0  0  0  0  0  0  0  0  0
    3.1134    1.2061    1.9568 H   0  0  0  0  0  0  0  0  0  0  0  0
    5.9888    0.7737   -0.6388 H   0  0  0  0  0  0  0  0  0  0  0  0
    1.8556   -0.6450    1.1843 H   0  0  0  0  0  0  0  0  0  0  0  0
    1.6541   -2.0711   -0.8530 H   0  0  0  0  0  0  0  0  0  0  0  0
    2.0906   -0.5903   -1.8254 H   0  0  0  0  0  0  0  0  0  0  0  0
    4.1017   -1.7858   -1.5960 H   0  0  0  0  0  0  0  0  0  0  0  0
    3.7541   -2.2795    0.1181 H   0  0  0  0  0  0  0  0  0  0  0  0
    4.5047   -0.2104    0.9682 H   0  0  0  0  0  0  0  0  0  0  0  0
    3.5357    0.8401   -1.6263 H   0  0  0  0  0  0  0  0  0  0  0  0
    1.9150    1.8571   -0.5791 H   0  0  0  0  0  0  0  0  0  0  0  0
   -1.8034    1.0452   -0.7885 H   0  0  0  0  0  0  0  0  0  0  0  0
   -2.0579   -1.0252    1.4198 H   0  0  0  0  0  0  0  0  0  0  0  0
   -0.4981   -1.5247   -1.1464 H   0  0  0  0  0  0  0  0  0  0  0  0
   -0.1090   -1.8974    0.5899 H   0  0  0  0  0  0  0  0  0  0  0  0
   -0.3165    0.4418    1.8334 H   0  0  0  0  0  0  0  0  0  0  0  0
   -3.9962    1.4631   -0.6496 H   0  0  0  0  0  0  0  0  0  0  0  0
   -5.0098    1.3493    0.8854 H   0  0  0  0  0  0  0  0  0  0  0  0
   -5.0793   -0.6113   -0.6061 H   0  0  0  0  0  0  0  0  0  0  0  0
   -4.5036   -0.9522    1.1052 H   0  0  0  0  0  0  0  0  0  0  0  0
   -3.1611   -2.2024   -0.4320 H   0  0  0  0  0  0  0  0  0  0  0  0
   -2.8063    2.4527    1.1822 H   0  0  0  0  0  0  0  0  0  0  0  0
   -2.8212    0.8672    2.1075 H   0  0  0  0  0  0  0  0  0  0  0  0
    0.0625    2.5644    1.8074 H   0  0  0  0  0  0  0  0  0  0  0  0
   -3.7798   -0.8087   -2.3233 H   0  0  0  0  0  0  0  0  0  0  0  0
   -2.1413   -1.1700   -2.3218 H   0  0  0  0  0  0  0  0  0  0  0  0
    3.1134    1.2061    1.9568 H   0  0  0  0  0  0  0  0  0  0  0  0
    5.9888    0.7737   -0.6388 H   0  0  0  0  0  0  0  0  0  0  0  0
  1  2  1  0
  2  3  1  0
  3  4  1  0
  4  5  1  0
  1  6  1  0
  5  6  1  0
  7  8  1  0
  8  9  1  0
  1 10  1  0
  9 10  1  0
  7 11  1  0
 10 11  1  0
 12 13  1  0
  8 14  1  0
 13 14  1  0
  7 15  1  0
 12 15  1  0
 11 16  1  0
 14 17  1  0
  6 18  1  0
  4 19  1  0
 20 21  1  0
 21 22  1  0
 22 23  1  0
 23 24  1  0
 20 25  1  0
 24 25  1  0
 26 27  1  0
 27 28  1  0
 20 29  1  0
 28 29  1  0
 26 30  1  0
 29 30  1  0
 31 32  1  0
 27 33  1  0
 32 33  1  0
 26 34  1  0
 31 34  1  0
 30 35  1  0
 33 36  1  0
 25 37  1  0
 23 38  1  0
  1 39  1  1
  2 40  1  0
  2 41  1  0
  3 42  1  0
  3 43  1  0
  4 44  1  0
  5 45  1  0
  6 46  1  0
  7 47  1  0
  8 48  1  0
  9 49  1  0
  9 50  1  0
 11 51  1  0
 12 52  1  0
 12 53  1  0
 13 54  1  0
 13 55  1  0
 14 56  1  0
 15 57  1  0
 15 58  1  0
 16 59  1  0
 17 60  1  0
 17 61  1  0
 18 62  1  0
 19 63  1  0
 20 64  1  1
 21 65  1  0
 21 66  1  0
 22 67  1  0
 22 68  1  0
 23 69  1  0
 24 70  1  0
 25 71  1  0
 26 72  1  0
 27 73  1  0
 28 74  1  0
 28 75  1  0
 30 76  1  0
 31 77  1  0
 31 78  1  0
 32 79  1  0
 32 80  1  0
 33 81  1  0
 34 82  1  0
 34 83  1  0
 35 84  1  0
 36 85  1  0
 36 86  1  0
 37 87  1  0
 38 88  1  0
M  END
>  <PDBID>  (1) 
5FQD

>  <PDB ID>  (1) 
5FQD

>  <Generic Name>  (1) 
Lenalidomide

>  <Brand Name>  (1) 
Revlimid#Ladevina#Lenangio

>  <DrugBank ID>  (1) 
DB00480

>  <ATC Codes>  (1) 
L04AX04

>  <Ligand ID>  (1) 
LVY

>  <Target Name>  (1) 
Protein cereblon

>  <UniProt ID>  (1) 
Q96SW2

>  <PDB ID.1>  (1) 
5FQD

>  <Seq. Identity>  (1) 
100%

$$$$
