PDB_DB00311_04
     RDKit          3D

 36 37  0  0  0  0  0  0  0  0999 V2000
    4.7396    1.7255    0.2644 N   0  0  0  0  0  0  0  0  0  0  0  0
    0.5070   -0.7726    0.5254 C   0  0  2  0  0  0  0  0  0  0  0  0
    0.2604    0.1277   -0.6945 C   0  0  1  0  0  0  0  0  0  0  0  0
   -1.1018    0.6983   -0.4869 C   0  0  0  0  0  0  0  0  0  0  0  0
   -2.1443   -0.3398   -0.3423 C   0  0  0  0  0  0  0  0  0  0  0  0
   -4.2425    0.3235    0.3730 C   0  0  0  0  0  0  0  0  0  0  0  0
    3.7273    0.1622   -1.6157 O   0  0  0  0  0  0  0  0  0  0  0  0
    4.9600   -0.8890    0.4709 O   0  0  0  0  0  0  0  0  0  0  0  0
    4.1900    0.2424    0.1863 S   0  0  0  0  0  0  0  0  0  0  0  0
    2.5544    0.2356    0.7861 C   0  0  0  0  0  0  0  0  0  0  0  0
    1.9071   -1.0373    0.5350 N   0  0  0  0  0  0  0  0  0  0  0  0
    1.5822    1.3471   -0.3121 S   0  0  0  0  0  0  0  0  0  0  0  0
   -1.6883   -1.7435   -0.1975 C   0  0  0  0  0  0  0  0  0  0  0  0
   -0.3584   -1.9563    0.4409 C   0  0  0  0  0  0  0  0  0  0  0  0
   -2.9523    0.0147    0.7394 O   0  0  0  0  0  0  0  0  0  0  0  0
   -4.2333    1.4867   -0.5850 C   0  0  0  0  0  0  0  0  0  0  0  0
    5.6762    1.9331    0.6675 H   0  0  0  0  0  0  0  0  0  0  0  0
    4.6486    2.3695   -0.5692 H   0  0  0  0  0  0  0  0  0  0  0  0
    0.2388   -0.1661    1.4079 H   0  0  0  0  0  0  0  0  0  0  0  0
    0.4294   -0.3822   -1.6356 H   0  0  0  0  0  0  0  0  0  0  0  0
   -1.0480    1.3680    0.4067 H   0  0  0  0  0  0  0  0  0  0  0  0
   -1.2977    1.3980   -1.3459 H   0  0  0  0  0  0  0  0  0  0  0  0
   -2.8108   -0.2687   -1.2522 H   0  0  0  0  0  0  0  0  0  0  0  0
   -4.8034    0.5624    1.2930 H   0  0  0  0  0  0  0  0  0  0  0  0
   -4.7121   -0.5840   -0.0868 H   0  0  0  0  0  0  0  0  0  0  0  0
    3.1959    1.0006   -1.6801 H   0  0  0  0  0  0  0  0  0  0  0  0
    5.1798   -1.7479    0.0359 H   0  0  0  0  0  0  0  0  0  0  0  0
    2.4835    0.5751    1.8341 H   0  0  0  0  0  0  0  0  0  0  0  0
    2.2693   -1.4013   -0.3718 H   0  0  0  0  0  0  0  0  0  0  0  0
   -1.6677   -2.2136   -1.2096 H   0  0  0  0  0  0  0  0  0  0  0  0
   -2.4490   -2.3216    0.3706 H   0  0  0  0  0  0  0  0  0  0  0  0
   -0.4907   -2.3550    1.4915 H   0  0  0  0  0  0  0  0  0  0  0  0
    0.2044   -2.7695   -0.0827 H   0  0  0  0  0  0  0  0  0  0  0  0
   -5.1782    2.0610   -0.3966 H   0  0  0  0  0  0  0  0  0  0  0  0
   -4.2129    1.1639   -1.6281 H   0  0  0  0  0  0  0  0  0  0  0  0
   -3.3626    2.1531   -0.3850 H   0  0  0  0  0  0  0  0  0  0  0  0
  2  3  1  0
  3  4  1  0
  4  5  1  0
  1  9  1  0
  9  7  1  0
  8  9  1  0
  9 10  1  0
  2 11  1  0
 10 11  1  0
  3 12  1  0
 10 12  1  0
  5 13  1  0
  2 14  1  0
 13 14  1  0
  5 15  1  0
  6 15  1  0
  6 16  1  0
  1 17  1  0
  1 18  1  0
  2 19  1  1
  3 20  1  6
  4 21  1  0
  4 22  1  0
  5 23  1  0
  6 24  1  0
  6 25  1  0
  7 26  1  0
  8 27  1  0
 10 28  1  0
 11 29  1  0
 13 30  1  0
 13 31  1  0
 14 32  1  0
 14 33  1  0
 16 34  1  0
 16 35  1  0
 16 36  1  0
M  END
>  <PDBID>  (1) 
3DD0

>  <PDB ID>  (1) 
3DD0

>  <Generic Name>  (1) 
Ethoxzolamide

>  <Brand Name>  (1) 
Cardrase#Ethamide

>  <DrugBank ID>  (1) 
DB00311

>  <ATC Codes>  (1) 
nan

>  <Ligand ID>  (1) 
EZL

>  <Target Name>  (1) 
Carbonic anhydrase 1

>  <UniProt ID>  (1) 
P00915

>  <PDB ID.1>  (1) 
3DD0

>  <Seq. Identity>  (1) 
61%

$$$$
