PDB_DB04835_08
     RDKit          3D

180188  0  0  0  0  0  0  0  0999 V2000
   -4.1812    5.0751   -1.1782 F   0  0  0  0  0  0  0  0  0  0  0  0
   -3.8553    2.4447    2.4784 O   0  0  0  0  0  0  0  0  0  0  0  0
    3.7037   -0.6994   -0.2155 C   0  0  0  0  0  0  0  0  0  0  0  0
    4.9109   -0.2313   -0.7918 N   0  0  0  0  0  0  0  0  0  0  0  0
   -0.5106   -1.2361   -0.0435 C   0  0  0  0  0  0  0  0  0  0  0  0
    5.4511    1.8440    0.5623 C   0  0  0  0  0  0  0  0  0  0  0  0
   -1.2444   -0.5225    1.0174 C   0  0  0  0  0  0  0  0  0  0  0  0
   -2.7173   -0.6517    0.9536 C   0  0  1  0  0  0  0  0  0  0  0  0
    6.7963   -0.6728   -2.1912 C   0  0  0  0  0  0  0  0  0  0  0  0
   -3.4060   -1.9243    1.0983 C   0  0  0  0  0  0  0  0  0  0  0  0
   -3.2688    1.7161    1.3778 C   0  0  2  0  0  0  0  0  0  0  0  0
   -3.8930    2.2784    0.1767 C   0  0  0  0  0  0  0  0  0  0  0  0
   -4.8816    3.9282   -1.5986 C   0  0  0  0  0  0  0  0  0  0  0  0
    6.7268    2.3049    1.3474 C   0  0  0  0  0  0  0  0  0  0  0  0
   -5.6339    4.4241   -2.6962 F   0  0  0  0  0  0  0  0  0  0  0  0
    0.9352   -1.1317    0.0174 N   0  0  0  0  0  0  0  0  0  0  0  0
    1.3335    0.2219   -0.2594 C   0  0  1  0  0  0  0  0  0  0  0  0
    5.3806    2.9100   -0.5542 C   0  0  0  0  0  0  0  0  0  0  0  0
   -3.5594    1.8062   -1.1781 C   0  0  0  0  0  0  0  0  0  0  0  0
   -5.4228    2.3119    0.2574 C   0  0  0  0  0  0  0  0  0  0  0  0
   -3.9798    2.8972   -2.1677 C   0  0  0  0  0  0  0  0  0  0  0  0
   -5.8829    3.4648   -0.5979 C   0  0  0  0  0  0  0  0  0  0  0  0
   -3.1904   -3.0509    0.1613 C   0  0  0  0  0  0  0  0  0  0  0  0
   -3.3688   -2.4332    2.5495 C   0  0  0  0  0  0  0  0  0  0  0  0
   -4.4132   -3.9809    0.3223 C   0  0  0  0  0  0  0  0  0  0  0  0
   -4.6502   -3.2625    2.7129 C   0  0  0  0  0  0  0  0  0  0  0  0
   -4.5833   -4.4004    1.7387 C   0  0  0  0  0  0  0  0  0  0  0  0
    1.5753   -1.7944   -1.1005 C   0  0  2  0  0  0  0  0  0  0  0  0
    6.3596   -0.4367    0.8932 N   0  0  0  0  0  0  0  0  0  0  0  0
    5.7954    0.5597   -0.0132 C   0  0  1  0  0  0  0  0  0  0  0  0
    6.5893   -1.5133    0.0308 N   0  0  0  0  0  0  0  0  0  0  0  0
   -3.3692    0.3705    1.7332 N   0  0  0  0  0  0  0  0  0  0  0  0
    2.7996    0.4394    0.1105 C   0  0  0  0  0  0  0  0  0  0  0  0
    3.0468   -1.8498   -0.8590 C   0  0  0  0  0  0  0  0  0  0  0  0
    5.8422   -1.2762   -1.1802 C   0  0  0  0  0  0  0  0  0  0  0  0
    1.2165    0.4387   -1.7658 C   0  0  0  0  0  0  0  0  0  0  0  0
    1.2102   -0.9584   -2.2970 C   0  0  0  0  0  0  0  0  0  0  0  0
   -4.6009    4.8489   -1.7442 F   0  0  0  0  0  0  0  0  0  0  0  0
   -3.9393    2.6593    2.2052 O   0  0  0  0  0  0  0  0  0  0  0  0
    3.7476   -0.7464    0.2858 C   0  0  0  0  0  0  0  0  0  0  0  0
    5.0707   -0.4829   -0.0562 N   0  0  0  0  0  0  0  0  0  0  0  0
   -0.4339   -1.1579    0.1179 C   0  0  0  0  0  0  0  0  0  0  0  0
    6.0068    1.7449    0.5367 C   0  0  0  0  0  0  0  0  0  0  0  0
   -1.2495   -0.3941    1.0787 C   0  0  0  0  0  0  0  0  0  0  0  0
   -2.7163   -0.5286    0.9211 C   0  0  1  0  0  0  0  0  0  0  0  0
    5.4279   -0.7363   -2.4673 C   0  0  0  0  0  0  0  0  0  0  0  0
   -3.4265   -1.7861    1.0679 C   0  0  0  0  0  0  0  0  0  0  0  0
   -3.4000    1.8387    1.1564 C   0  0  2  0  0  0  0  0  0  0  0  0
   -4.0841    2.2785   -0.0716 C   0  0  0  0  0  0  0  0  0  0  0  0
   -5.3018    3.6495   -1.9628 C   0  0  0  0  0  0  0  0  0  0  0  0
    6.9943    2.3795    1.5376 C   0  0  0  0  0  0  0  0  0  0  0  0
   -6.1694    3.9817   -3.0251 F   0  0  0  0  0  0  0  0  0  0  0  0
    0.9990   -1.0318    0.3137 N   0  0  0  0  0  0  0  0  0  0  0  0
    1.4512    0.3036    0.0219 C   0  0  1  0  0  0  0  0  0  0  0  0
    6.3716    2.2107   -0.8247 C   0  0  0  0  0  0  0  0  0  0  0  0
   -3.8192    1.6788   -1.3793 C   0  0  0  0  0  0  0  0  0  0  0  0
   -5.6019    2.3234    0.1519 C   0  0  0  0  0  0  0  0  0  0  0  0
   -4.4119    2.5765   -2.4676 C   0  0  0  0  0  0  0  0  0  0  0  0
   -6.1854    3.2896   -0.8187 C   0  0  0  0  0  0  0  0  0  0  0  0
   -3.1431   -2.9490    0.1786 C   0  0  0  0  0  0  0  0  0  0  0  0
   -3.5327   -2.2270    2.5158 C   0  0  0  0  0  0  0  0  0  0  0  0
   -4.3858   -3.8650    0.2542 C   0  0  0  0  0  0  0  0  0  0  0  0
   -4.8298   -3.0453    2.5818 C   0  0  0  0  0  0  0  0  0  0  0  0
   -4.6635   -4.2345    1.6810 C   0  0  0  0  0  0  0  0  0  0  0  0
    1.7002   -1.7462   -0.7757 C   0  0  2  0  0  0  0  0  0  0  0  0
    7.2148   -0.3866    0.5516 N   0  0  0  0  0  0  0  0  0  0  0  0
    5.9106    0.2853    0.7569 C   0  0  0  0  0  0  0  0  0  0  0  0
    7.1491   -0.7123   -0.8093 N   0  0  0  0  0  0  0  0  0  0  0  0
   -3.4320    0.5198    1.5928 N   0  0  0  0  0  0  0  0  0  0  0  0
    2.9197    0.4961    0.3100 C   0  0  0  0  0  0  0  0  0  0  0  0
    3.1109   -1.9440   -0.3549 C   0  0  0  0  0  0  0  0  0  0  0  0
    5.7707   -1.1551   -1.0378 C   0  0  0  0  0  0  0  0  0  0  0  0
    1.2564    0.4878   -1.4734 C   0  0  0  0  0  0  0  0  0  0  0  0
    1.5097   -0.8905   -1.9786 C   0  0  0  0  0  0  0  0  0  0  0  0
   -4.5272    1.8691    2.9284 H   0  0  0  0  0  0  0  0  0  0  0  0
    4.0436   -1.0844    0.8125 H   0  0  0  0  0  0  0  0  0  0  0  0
   -0.7526   -2.2914   -0.0664 H   0  0  0  0  0  0  0  0  0  0  0  0
   -0.9021   -0.8269   -1.0274 H   0  0  0  0  0  0  0  0  0  0  0  0
    4.6637    1.9524    1.2883 H   0  0  0  0  0  0  0  0  0  0  0  0
   -0.8273   -0.6975    2.0422 H   0  0  0  0  0  0  0  0  0  0  0  0
   -1.0322    0.5854    0.8652 H   0  0  0  0  0  0  0  0  0  0  0  0
   -2.9726   -0.3050   -0.1441 H   0  0  0  0  0  0  0  0  0  0  0  0
    6.9653   -1.3752   -3.0587 H   0  0  0  0  0  0  0  0  0  0  0  0
    6.3819    0.2399   -2.6534 H   0  0  0  0  0  0  0  0  0  0  0  0
    7.8236   -0.5184   -1.7861 H   0  0  0  0  0  0  0  0  0  0  0  0
   -4.5290   -1.6747    0.9804 H   0  0  0  0  0  0  0  0  0  0  0  0
   -2.2052    2.1129    1.4192 H   0  0  0  0  0  0  0  0  0  0  0  0
   -3.6221    3.4034    0.2077 H   0  0  0  0  0  0  0  0  0  0  0  0
    6.4249    3.1464    2.0031 H   0  0  0  0  0  0  0  0  0  0  0  0
    7.0898    1.4756    1.9819 H   0  0  0  0  0  0  0  0  0  0  0  0
    7.4853    2.6917    0.6414 H   0  0  0  0  0  0  0  0  0  0  0  0
    0.7765    0.9675    0.3014 H   0  0  0  0  0  0  0  0  0  0  0  0
    6.3317    3.4060   -0.7337 H   0  0  0  0  0  0  0  0  0  0  0  0
    4.6510    3.7079   -0.2414 H   0  0  0  0  0  0  0  0  0  0  0  0
    5.0435    2.4498   -1.4983 H   0  0  0  0  0  0  0  0  0  0  0  0
   -2.5045    1.6238   -1.3569 H   0  0  0  0  0  0  0  0  0  0  0  0
   -4.2418    0.9448   -1.4688 H   0  0  0  0  0  0  0  0  0  0  0  0
   -5.7717    2.3596    1.2975 H   0  0  0  0  0  0  0  0  0  0  0  0
   -5.7579    1.3676   -0.2557 H   0  0  0  0  0  0  0  0  0  0  0  0
   -4.4787    2.4412   -3.0683 H   0  0  0  0  0  0  0  0  0  0  0  0
   -3.0710    3.4055   -2.5797 H   0  0  0  0  0  0  0  0  0  0  0  0
   -6.1407    4.3382    0.0779 H   0  0  0  0  0  0  0  0  0  0  0  0
   -6.8309    3.1390   -1.1280 H   0  0  0  0  0  0  0  0  0  0  0  0
   -2.3465   -3.7329    0.3971 H   0  0  0  0  0  0  0  0  0  0  0  0
   -3.2171   -2.7072   -0.8731 H   0  0  0  0  0  0  0  0  0  0  0  0
   -3.4836   -1.5920    3.2214 H   0  0  0  0  0  0  0  0  0  0  0  0
   -2.4995   -3.0765    2.7236 H   0  0  0  0  0  0  0  0  0  0  0  0
   -5.3075   -3.5576   -0.1173 H   0  0  0  0  0  0  0  0  0  0  0  0
   -4.1420   -4.8986   -0.2740 H   0  0  0  0  0  0  0  0  0  0  0  0
   -4.7206   -3.6511    3.7545 H   0  0  0  0  0  0  0  0  0  0  0  0
   -5.5192   -2.6287    2.4744 H   0  0  0  0  0  0  0  0  0  0  0  0
   -5.6096   -4.8896    1.7882 H   0  0  0  0  0  0  0  0  0  0  0  0
   -3.8821   -5.1976    2.0710 H   0  0  0  0  0  0  0  0  0  0  0  0
    1.1740   -2.8166   -1.1510 H   0  0  0  0  0  0  0  0  0  0  0  0
    5.7913   -0.6693    1.6999 H   0  0  0  0  0  0  0  0  0  0  0  0
    6.6857    0.7771   -0.7305 H   0  0  0  0  0  0  0  0  0  0  0  0
    6.4825   -2.4313    0.4612 H   0  0  0  0  0  0  0  0  0  0  0  0
   -3.0287    0.2311    2.7456 H   0  0  0  0  0  0  0  0  0  0  0  0
    2.7468    0.6385    1.2288 H   0  0  0  0  0  0  0  0  0  0  0  0
    3.0505    1.3870   -0.4053 H   0  0  0  0  0  0  0  0  0  0  0  0
    3.4954   -2.1249   -1.8477 H   0  0  0  0  0  0  0  0  0  0  0  0
    3.2194   -2.7737   -0.2550 H   0  0  0  0  0  0  0  0  0  0  0  0
    5.4290   -2.1570   -1.6359 H   0  0  0  0  0  0  0  0  0  0  0  0
    0.3052    1.0121   -1.9645 H   0  0  0  0  0  0  0  0  0  0  0  0
    2.1366    0.9306   -2.1558 H   0  0  0  0  0  0  0  0  0  0  0  0
    1.8676   -1.1168   -3.1559 H   0  0  0  0  0  0  0  0  0  0  0  0
    0.1981   -1.2183   -2.6312 H   0  0  0  0  0  0  0  0  0  0  0  0
   -3.8178    2.1758    3.0612 H   0  0  0  0  0  0  0  0  0  0  0  0
    3.8174   -1.0306    1.3964 H   0  0  0  0  0  0  0  0  0  0  0  0
   -0.6929   -2.2079    0.0862 H   0  0  0  0  0  0  0  0  0  0  0  0
   -0.6615   -0.7492   -0.9122 H   0  0  0  0  0  0  0  0  0  0  0  0
    5.0181    2.2203    0.8091 H   0  0  0  0  0  0  0  0  0  0  0  0
   -0.9070   -0.5012    2.1418 H   0  0  0  0  0  0  0  0  0  0  0  0
   -1.0312    0.7033    0.8713 H   0  0  0  0  0  0  0  0  0  0  0  0
   -2.8696   -0.2380   -0.2162 H   0  0  0  0  0  0  0  0  0  0  0  0
    6.2980   -0.3162   -3.0101 H   0  0  0  0  0  0  0  0  0  0  0  0
    4.6452    0.0742   -2.4761 H   0  0  0  0  0  0  0  0  0  0  0  0
    5.0718   -1.6057   -3.0814 H   0  0  0  0  0  0  0  0  0  0  0  0
   -4.5324   -1.5289    0.8138 H   0  0  0  0  0  0  0  0  0  0  0  0
   -2.3202    2.1865    1.1489 H   0  0  0  0  0  0  0  0  0  0  0  0
   -3.8174    3.3965   -0.1741 H   0  0  0  0  0  0  0  0  0  0  0  0
    6.5925    2.1692    2.5357 H   0  0  0  0  0  0  0  0  0  0  0  0
    7.9903    1.9343    1.4169 H   0  0  0  0  0  0  0  0  0  0  0  0
    7.1097    3.4590    1.3239 H   0  0  0  0  0  0  0  0  0  0  0  0
    0.8901    1.0166    0.6215 H   0  0  0  0  0  0  0  0  0  0  0  0
    7.1699    1.5865   -1.2700 H   0  0  0  0  0  0  0  0  0  0  0  0
    5.5047    2.3793   -1.4993 H   0  0  0  0  0  0  0  0  0  0  0  0
    6.8599    3.2311   -0.7362 H   0  0  0  0  0  0  0  0  0  0  0  0
   -2.7595    1.5842   -1.6133 H   0  0  0  0  0  0  0  0  0  0  0  0
   -4.3915    0.7089   -1.5130 H   0  0  0  0  0  0  0  0  0  0  0  0
   -5.7959    2.6072    1.2073 H   0  0  0  0  0  0  0  0  0  0  0  0
   -5.9893    1.3172   -0.0447 H   0  0  0  0  0  0  0  0  0  0  0  0
   -4.9906    1.9655   -3.2209 H   0  0  0  0  0  0  0  0  0  0  0  0
   -3.6111    3.0575   -3.0685 H   0  0  0  0  0  0  0  0  0  0  0  0
   -6.4121    4.2332   -0.2303 H   0  0  0  0  0  0  0  0  0  0  0  0
   -7.1571    2.8713   -1.1937 H   0  0  0  0  0  0  0  0  0  0  0  0
   -2.3304   -3.6151    0.4790 H   0  0  0  0  0  0  0  0  0  0  0  0
   -3.0865   -2.6215   -0.8610 H   0  0  0  0  0  0  0  0  0  0  0  0
   -3.6862   -1.3691    3.1511 H   0  0  0  0  0  0  0  0  0  0  0  0
   -2.7108   -2.8973    2.8289 H   0  0  0  0  0  0  0  0  0  0  0  0
   -5.2414   -3.3884   -0.2089 H   0  0  0  0  0  0  0  0  0  0  0  0
   -4.1227   -4.7799   -0.3024 H   0  0  0  0  0  0  0  0  0  0  0  0
   -5.0399   -3.3836    3.6090 H   0  0  0  0  0  0  0  0  0  0  0  0
   -5.6901   -2.4315    2.2192 H   0  0  0  0  0  0  0  0  0  0  0  0
   -5.6526   -4.7845    1.6643 H   0  0  0  0  0  0  0  0  0  0  0  0
   -3.9250   -4.9425    2.0971 H   0  0  0  0  0  0  0  0  0  0  0  0
    1.2336   -2.7397   -0.9239 H   0  0  0  0  0  0  0  0  0  0  0  0
    7.1910   -1.2820    1.1226 H   0  0  0  0  0  0  0  0  0  0  0  0
    5.6758    0.0878    1.8328 H   0  0  0  0  0  0  0  0  0  0  0  0
    7.8592   -1.3769   -1.1137 H   0  0  0  0  0  0  0  0  0  0  0  0
   -3.1331    0.4649    2.6169 H   0  0  0  0  0  0  0  0  0  0  0  0
    2.9914    1.0576    1.2654 H   0  0  0  0  0  0  0  0  0  0  0  0
    3.2831    1.2336   -0.4653 H   0  0  0  0  0  0  0  0  0  0  0  0
    3.6944   -2.2964   -1.2587 H   0  0  0  0  0  0  0  0  0  0  0  0
    3.1140   -2.8407    0.3041 H   0  0  0  0  0  0  0  0  0  0  0  0
    5.8012   -2.2509   -1.0396 H   0  0  0  0  0  0  0  0  0  0  0  0
    0.2656    0.8997   -1.6563 H   0  0  0  0  0  0  0  0  0  0  0  0
    2.0313    1.2162   -1.8537 H   0  0  0  0  0  0  0  0  0  0  0  0
    2.3558   -0.9469   -2.7001 H   0  0  0  0  0  0  0  0  0  0  0  0
    0.6274   -1.2456   -2.5506 H   0  0  0  0  0  0  0  0  0  0  0  0
  3  4  1  0
  5  7  1  0
  7  8  1  0
  8 10  1  0
  2 11  1  0
 11 12  1  0
 13  1  1  0
  6 14  1  0
 13 15  1  0
  5 16  1  0
 16 17  1  0
  6 18  1  0
 12 19  1  0
 12 20  1  0
 13 21  1  0
 19 21  1  0
 13 22  1  0
 20 22  1  0
 10 23  1  0
 10 24  1  0
 23 25  1  0
 24 26  1  0
 25 27  1  0
 26 27  1  0
 16 28  1  0
  4 30  1  0
  6 30  1  0
 29 30  1  0
 29 31  1  0
  8 32  1  0
 11 32  1  0
  3 33  1  0
 17 33  1  0
  3 34  1  0
 28 34  1  0
  4 35  1  0
  9 35  1  0
 31 35  1  0
 17 36  1  0
 28 37  1  0
 36 37  1  0
 40 41  1  0
 42 44  1  0
 44 45  1  0
 45 47  1  0
 39 48  1  0
 48 49  1  0
 50 38  1  0
 43 51  1  0
 50 52  1  0
 42 53  1  0
 53 54  1  0
 43 55  1  0
 49 56  1  0
 49 57  1  0
 50 58  1  0
 56 58  1  0
 50 59  1  0
 57 59  1  0
 47 60  1  0
 47 61  1  0
 60 62  1  0
 61 63  1  0
 62 64  1  0
 63 64  1  0
 53 65  1  0
 41 67  1  0
 43 67  1  0
 66 67  1  0
 66 68  1  0
 45 69  1  0
 48 69  1  0
 40 70  1  0
 54 70  1  0
 40 71  1  0
 65 71  1  0
 41 72  1  0
 46 72  1  0
 68 72  1  0
 54 73  1  0
 65 74  1  0
 73 74  1  0
  2 75  1  0
  3 76  1  0
  5 77  1  0
  5 78  1  0
  6 79  1  0
  7 80  1  0
  7 81  1  0
  8 82  1  6
  9 83  1  0
  9 84  1  0
  9 85  1  0
 10 86  1  0
 11 87  1  6
 12 88  1  0
 14 89  1  0
 14 90  1  0
 14 91  1  0
 17 92  1  1
 18 93  1  0
 18 94  1  0
 18 95  1  0
 19 96  1  0
 19 97  1  0
 20 98  1  0
 20 99  1  0
 21100  1  0
 21101  1  0
 22102  1  0
 22103  1  0
 23104  1  0
 23105  1  0
 24106  1  0
 24107  1  0
 25108  1  0
 25109  1  0
 26110  1  0
 26111  1  0
 27112  1  0
 27113  1  0
 28114  1  6
 29115  1  0
 30116  1  6
 31117  1  0
 32118  1  0
 33119  1  0
 33120  1  0
 34121  1  0
 34122  1  0
 35123  1  0
 36124  1  0
 36125  1  0
 37126  1  0
 37127  1  0
 39128  1  0
 40129  1  0
 42130  1  0
 42131  1  0
 43132  1  0
 44133  1  0
 44134  1  0
 45135  1  6
 46136  1  0
 46137  1  0
 46138  1  0
 47139  1  0
 48140  1  6
 49141  1  0
 51142  1  0
 51143  1  0
 51144  1  0
 54145  1  1
 55146  1  0
 55147  1  0
 55148  1  0
 56149  1  0
 56150  1  0
 57151  1  0
 57152  1  0
 58153  1  0
 58154  1  0
 59155  1  0
 59156  1  0
 60157  1  0
 60158  1  0
 61159  1  0
 61160  1  0
 62161  1  0
 62162  1  0
 63163  1  0
 63164  1  0
 64165  1  0
 64166  1  0
 65167  1  6
 66168  1  0
 67169  1  0
 68170  1  0
 69171  1  0
 70172  1  0
 70173  1  0
 71174  1  0
 71175  1  0
 72176  1  0
 73177  1  0
 73178  1  0
 74179  1  0
 74180  1  0
M  END
>  <PDBID>  (1) 
4MBS

>  <PDB ID>  (1) 
4MBS

>  <Generic Name>  (1) 
Maraviroc

>  <Brand Name>  (1) 
Celsentri#Selzentry

>  <DrugBank ID>  (1) 
DB04835

>  <ATC Codes>  (1) 
J05AX09

>  <Ligand ID>  (1) 
MRV

>  <Target Name>  (1) 
C-C chemokine receptor type 5

>  <UniProt ID>  (1) 
P51681

>  <PDB ID.1>  (1) 
4MBS

>  <Seq. Identity>  (1) 
74%

$$$$
