PDB_DB01030_07
     RDKit          3D

 72 76  0  0  0  0  0  0  0  0999 V2000
   -6.2896   -0.1790   -0.0610 C   0  0  0  0  0  0  0  0  0  0  0  0
   -7.4443    0.4156   -0.8047 C   0  0  0  0  0  0  0  0  0  0  0  0
   -4.9552    0.3483   -0.5345 C   0  0  2  0  0  0  0  0  0  0  0  0
   -4.8523    0.0182   -1.8891 O   0  0  0  0  0  0  0  0  0  0  0  0
   -3.8121   -0.3676    0.1672 C   0  0  0  0  0  0  0  0  0  0  0  0
   -4.8474    1.8326   -0.4345 C   0  0  0  0  0  0  0  0  0  0  0  0
   -3.8139    0.0792    1.5925 C   0  0  0  0  0  0  0  0  0  0  0  0
   -2.5037   -0.1696   -0.5454 C   0  0  0  0  0  0  0  0  0  0  0  0
   -4.1802    2.3756   -1.5587 O   0  0  0  0  0  0  0  0  0  0  0  0
   -4.1866    2.2978    0.6675 O   0  0  0  0  0  0  0  0  0  0  0  0
   -2.5648   -0.2760    2.3569 C   0  0  0  0  0  0  0  0  0  0  0  0
   -4.2256    1.5227    1.7873 C   0  0  0  0  0  0  0  0  0  0  0  0
   -1.4745    0.3225    0.3916 C   0  0  0  0  0  0  0  0  0  0  0  0
   -2.1749    0.7696    3.1984 O   0  0  0  0  0  0  0  0  0  0  0  0
   -1.4334   -0.5960    1.5343 N   0  0  0  0  0  0  0  0  0  0  0  0
   -0.0465    0.2318   -0.0798 C   0  0  0  0  0  0  0  0  0  0  0  0
   -0.1673   -0.3041    2.1804 C   0  0  0  0  0  0  0  0  0  0  0  0
    0.6517    0.5157    1.2406 C   0  0  0  0  0  0  0  0  0  0  0  0
    0.3200   -1.0792   -0.5814 N   0  0  0  0  0  0  0  0  0  0  0  0
    2.1007    0.2742    1.2169 C   0  0  0  0  0  0  0  0  0  0  0  0
    1.7088   -0.9977   -0.9227 C   0  0  0  0  0  0  0  0  0  0  0  0
    2.6232   -0.7168    0.2485 C   0  0  0  0  0  0  0  0  0  0  0  0
    2.2445   -2.1902   -1.6584 C   0  0  0  0  0  0  0  0  0  0  0  0
    3.9181   -0.2145   -0.3797 C   0  0  0  0  0  0  0  0  0  0  0  0
    3.5524   -1.7534   -2.3307 C   0  0  0  0  0  0  0  0  0  0  0  0
    4.5105   -1.2996   -1.2790 C   0  0  0  0  0  0  0  0  0  0  0  0
    4.9713    0.1237    0.6502 C   0  0  0  0  0  0  0  0  0  0  0  0
    6.1731    0.5986    0.1105 N   0  0  0  0  0  0  0  0  0  0  0  0
    6.2293    1.8479   -0.5178 C   0  0  0  0  0  0  0  0  0  0  0  0
    7.3751   -0.0924    0.3122 C   0  0  0  0  0  0  0  0  0  0  0  0
    4.9833   -2.3536   -0.4963 O   0  0  0  0  0  0  0  0  0  0  0  0
   -6.4640   -0.0173    1.0215 H   0  0  0  0  0  0  0  0  0  0  0  0
   -6.3355   -1.2840   -0.2089 H   0  0  0  0  0  0  0  0  0  0  0  0
   -8.3211   -0.2812   -0.6432 H   0  0  0  0  0  0  0  0  0  0  0  0
   -7.7828    1.3929   -0.3686 H   0  0  0  0  0  0  0  0  0  0  0  0
   -7.3105    0.4529   -1.8976 H   0  0  0  0  0  0  0  0  0  0  0  0
   -5.0222   -0.9560   -1.9611 H   0  0  0  0  0  0  0  0  0  0  0  0
   -4.0646   -1.4607    0.1165 H   0  0  0  0  0  0  0  0  0  0  0  0
   -5.8565    2.3339   -0.4508 H   0  0  0  0  0  0  0  0  0  0  0  0
   -4.6423   -0.5216    2.0817 H   0  0  0  0  0  0  0  0  0  0  0  0
   -2.5938    0.5705   -1.3857 H   0  0  0  0  0  0  0  0  0  0  0  0
   -2.1399   -1.1029   -1.0253 H   0  0  0  0  0  0  0  0  0  0  0  0
   -4.6505    2.1973   -2.3936 H   0  0  0  0  0  0  0  0  0  0  0  0
   -2.7156   -1.1546    3.0450 H   0  0  0  0  0  0  0  0  0  0  0  0
   -5.2267    1.6412    2.2512 H   0  0  0  0  0  0  0  0  0  0  0  0
   -3.5123    1.9783    2.5274 H   0  0  0  0  0  0  0  0  0  0  0  0
   -1.6104    1.3696    0.7287 H   0  0  0  0  0  0  0  0  0  0  0  0
   -2.6392    0.7507    4.0669 H   0  0  0  0  0  0  0  0  0  0  0  0
    0.1597    0.9843   -0.8383 H   0  0  0  0  0  0  0  0  0  0  0  0
    0.3349   -1.2801    2.3584 H   0  0  0  0  0  0  0  0  0  0  0  0
   -0.3283    0.1716    3.1673 H   0  0  0  0  0  0  0  0  0  0  0  0
    0.4294    1.5964    1.4645 H   0  0  0  0  0  0  0  0  0  0  0  0
    0.0611   -1.8562    0.0379 H   0  0  0  0  0  0  0  0  0  0  0  0
    2.6168    1.2623    1.0286 H   0  0  0  0  0  0  0  0  0  0  0  0
    2.4348   -0.0287    2.2422 H   0  0  0  0  0  0  0  0  0  0  0  0
    1.8221   -0.1239   -1.6118 H   0  0  0  0  0  0  0  0  0  0  0  0
    2.8079   -1.6804    0.7570 H   0  0  0  0  0  0  0  0  0  0  0  0
    1.5525   -2.5961   -2.4230 H   0  0  0  0  0  0  0  0  0  0  0  0
    2.5324   -2.9573   -0.9090 H   0  0  0  0  0  0  0  0  0  0  0  0
    3.6484    0.6283   -1.0408 H   0  0  0  0  0  0  0  0  0  0  0  0
    3.3560   -0.9074   -3.0196 H   0  0  0  0  0  0  0  0  0  0  0  0
    4.0274   -2.6129   -2.8538 H   0  0  0  0  0  0  0  0  0  0  0  0
    5.3903   -0.8452   -1.7755 H   0  0  0  0  0  0  0  0  0  0  0  0
    5.1406   -0.8172    1.2508 H   0  0  0  0  0  0  0  0  0  0  0  0
    4.5686    0.8892    1.3521 H   0  0  0  0  0  0  0  0  0  0  0  0
    5.3737    2.4990   -0.1917 H   0  0  0  0  0  0  0  0  0  0  0  0
    6.3167    1.8392   -1.6267 H   0  0  0  0  0  0  0  0  0  0  0  0
    7.1375    2.4191   -0.1731 H   0  0  0  0  0  0  0  0  0  0  0  0
    8.1237    0.1391   -0.4927 H   0  0  0  0  0  0  0  0  0  0  0  0
    7.2762   -1.1906    0.4492 H   0  0  0  0  0  0  0  0  0  0  0  0
    7.8596    0.2785    1.2478 H   0  0  0  0  0  0  0  0  0  0  0  0
    5.8565   -2.7042   -0.8055 H   0  0  0  0  0  0  0  0  0  0  0  0
  1  2  1  0
  1  3  1  0
  3  4  1  6
  3  5  1  0
  3  6  1  0
  5  7  1  0
  5  8  1  0
  6  9  1  0
  6 10  1  0
  7 11  1  0
  7 12  1  0
 10 12  1  0
  8 13  1  0
 11 14  1  0
 11 15  1  0
 13 15  1  0
 13 16  1  0
 15 17  1  0
 16 18  1  0
 17 18  1  0
 16 19  1  0
 18 20  1  0
 19 21  1  0
 20 22  1  0
 21 22  1  0
 21 23  1  0
 22 24  1  0
 23 25  1  0
 24 26  1  0
 25 26  1  0
 24 27  1  0
 27 28  1  0
 28 29  1  0
 28 30  1  0
 26 31  1  0
  1 32  1  0
  1 33  1  0
  2 34  1  0
  2 35  1  0
  2 36  1  0
  4 37  1  0
  5 38  1  0
  6 39  1  0
  7 40  1  0
  8 41  1  0
  8 42  1  0
  9 43  1  0
 11 44  1  0
 12 45  1  0
 12 46  1  0
 13 47  1  0
 14 48  1  0
 16 49  1  0
 17 50  1  0
 17 51  1  0
 18 52  1  0
 19 53  1  0
 20 54  1  0
 20 55  1  0
 21 56  1  0
 22 57  1  0
 23 58  1  0
 23 59  1  0
 24 60  1  0
 25 61  1  0
 25 62  1  0
 26 63  1  0
 27 64  1  0
 27 65  1  0
 29 66  1  0
 29 67  1  0
 29 68  1  0
 30 69  1  0
 30 70  1  0
 30 71  1  0
 31 72  1  0
M  END
>  <PDBID>  (1) 
1K4T

>  <PDB ID>  (1) 
1K4T

>  <Generic Name>  (1) 
Topotecan

>  <Brand Name>  (1) 
Act Topotecan#Hycamtin#Mylan-topotecan Hydrochloride for Injection#PMS-topotecan#Topotecan#Topotecan Hydrochloride#Topotecan Hydrochloride for Injection#Topotecan Injection#Topotecan for Injection

>  <DrugBank ID>  (1) 
DB01030

>  <ATC Codes>  (1) 
L01XX17

>  <Ligand ID>  (1) 
TTC

>  <Target Name>  (1) 
DNA topoisomerase 1

>  <UniProt ID>  (1) 
P11387

>  <PDB ID.1>  (1) 
1K4T

>  <Seq. Identity>  (1) 
92%

$$$$
