PDB_DB01222_02
     RDKit          3D

 73 77  0  0  0  0  0  0  0  0999 V2000
    4.1830    3.8009   -0.0082 C   0  0  0  0  0  0  0  0  0  0  0  0
    3.4768    2.4653   -0.2909 C   0  0  0  0  0  0  0  0  0  0  0  0
    4.4198    1.3964    0.1297 C   0  0  0  0  0  0  0  0  0  0  0  0
    2.6451   -1.3061   -1.3318 C   0  0  1  0  0  0  0  0  0  0  0  0
    1.4047   -0.6319   -1.9490 C   0  0  0  0  0  0  0  0  0  0  0  0
    0.6773   -0.2146   -0.7073 C   0  0  1  0  0  0  0  0  0  0  0  0
   -0.7422    0.1075   -0.8310 C   0  0  2  0  0  0  0  0  0  0  0  0
   -0.9986    1.2679   -1.8116 C   0  0  0  0  0  0  0  0  0  0  0  0
   -2.4908    1.3855   -1.8947 C   0  0  0  0  0  0  0  0  0  0  0  0
   -3.1471    1.6156   -0.5728 C   0  0  0  0  0  0  0  0  0  0  0  0
   -4.3604    2.2049    1.5713 C   0  0  0  0  0  0  0  0  0  0  0  0
   -3.2880    1.1814    1.8100 C   0  0  0  0  0  0  0  0  0  0  0  0
   -2.7104    0.6381    0.4961 C   0  0  2  0  0  0  0  0  0  0  0  0
    0.1421   -1.3723    1.3920 C   0  0  0  0  0  0  0  0  0  0  0  0
    2.9981   -2.6592    0.7608 C   0  0  0  0  0  0  0  0  0  0  0  0
    2.9214   -3.9959    0.0990 C   0  0  0  0  0  0  0  0  0  0  0  0
    0.3233   -2.6825   -0.6839 C   0  0  0  0  0  0  0  0  0  0  0  0
    3.9128   -0.0166   -0.0741 C   0  0  2  0  0  0  0  0  0  0  0  0
    3.6309   -0.2952   -1.3881 O   0  0  0  0  0  0  0  0  0  0  0  0
   -4.6398    1.6079   -0.7801 C   0  0  0  0  0  0  0  0  0  0  0  0
   -5.3539    1.7963    0.5192 C   0  0  0  0  0  0  0  0  0  0  0  0
   -6.1440    0.7234    0.8913 O   0  0  0  0  0  0  0  0  0  0  0  0
   -1.2042    0.6060    0.5429 C   0  0  1  0  0  0  0  0  0  0  0  0
   -0.6088   -0.1111    1.6699 C   0  0  1  0  0  0  0  0  0  0  0  0
    0.8180   -1.5185    0.1025 C   0  0  1  0  0  0  0  0  0  0  0  0
    2.3324   -1.5230    0.1203 C   0  0  2  0  0  0  0  0  0  0  0  0
    2.8035   -0.3012    0.6781 O   0  0  0  0  0  0  0  0  0  0  0  0
    2.7842   -2.7570    2.1561 O   0  0  0  0  0  0  0  0  0  0  0  0
    3.9496   -4.7769    0.7148 O   0  0  0  0  0  0  0  0  0  0  0  0
   -1.5769   -0.4405    2.6520 O   0  0  0  0  0  0  0  0  0  0  0  0
   -3.2766   -0.7286    0.2934 C   0  0  0  0  0  0  0  0  0  0  0  0
    3.7017    4.6264   -0.5446 H   0  0  0  0  0  0  0  0  0  0  0  0
    4.2899    3.9802    1.0674 H   0  0  0  0  0  0  0  0  0  0  0  0
    5.2191    3.6856   -0.4193 H   0  0  0  0  0  0  0  0  0  0  0  0
    2.5684    2.4419    0.3553 H   0  0  0  0  0  0  0  0  0  0  0  0
    3.2653    2.4249   -1.3606 H   0  0  0  0  0  0  0  0  0  0  0  0
    5.3654    1.4837   -0.4505 H   0  0  0  0  0  0  0  0  0  0  0  0
    4.6569    1.4977    1.2077 H   0  0  0  0  0  0  0  0  0  0  0  0
    2.9330   -2.1877   -1.8976 H   0  0  0  0  0  0  0  0  0  0  0  0
    1.6484    0.2499   -2.5379 H   0  0  0  0  0  0  0  0  0  0  0  0
    0.8213   -1.3266   -2.5526 H   0  0  0  0  0  0  0  0  0  0  0  0
    1.1996    0.5633   -0.1578 H   0  0  0  0  0  0  0  0  0  0  0  0
   -1.4351   -0.6673   -1.1696 H   0  0  0  0  0  0  0  0  0  0  0  0
   -0.4926    2.1817   -1.5015 H   0  0  0  0  0  0  0  0  0  0  0  0
   -0.6421    0.8978   -2.8008 H   0  0  0  0  0  0  0  0  0  0  0  0
   -2.7266    2.2393   -2.5487 H   0  0  0  0  0  0  0  0  0  0  0  0
   -2.8938    0.4805   -2.3876 H   0  0  0  0  0  0  0  0  0  0  0  0
   -2.8719    2.6378   -0.2338 H   0  0  0  0  0  0  0  0  0  0  0  0
   -4.9421    2.2789    2.5361 H   0  0  0  0  0  0  0  0  0  0  0  0
   -3.9900    3.2148    1.3716 H   0  0  0  0  0  0  0  0  0  0  0  0
   -3.7567    0.3618    2.4067 H   0  0  0  0  0  0  0  0  0  0  0  0
   -2.4715    1.6965    2.3655 H   0  0  0  0  0  0  0  0  0  0  0  0
   -0.5742   -2.2422    1.5116 H   0  0  0  0  0  0  0  0  0  0  0  0
    0.8706   -1.5379    2.2142 H   0  0  0  0  0  0  0  0  0  0  0  0
    4.1194   -2.4208    0.7470 H   0  0  0  0  0  0  0  0  0  0  0  0
    2.0086   -4.5795    0.3031 H   0  0  0  0  0  0  0  0  0  0  0  0
    3.2333   -3.9287   -0.9416 H   0  0  0  0  0  0  0  0  0  0  0  0
    1.0317   -3.1735   -1.3418 H   0  0  0  0  0  0  0  0  0  0  0  0
   -0.0450   -3.4459    0.0552 H   0  0  0  0  0  0  0  0  0  0  0  0
   -0.6018   -2.4740   -1.2848 H   0  0  0  0  0  0  0  0  0  0  0  0
    4.8172   -0.6496    0.1764 H   0  0  0  0  0  0  0  0  0  0  0  0
   -4.8496    2.4570   -1.4952 H   0  0  0  0  0  0  0  0  0  0  0  0
   -4.9805    0.6988   -1.3331 H   0  0  0  0  0  0  0  0  0  0  0  0
   -6.0530    2.6695    0.3980 H   0  0  0  0  0  0  0  0  0  0  0  0
   -6.0361    0.4645    1.8363 H   0  0  0  0  0  0  0  0  0  0  0  0
   -0.8889    1.6935    0.5583 H   0  0  0  0  0  0  0  0  0  0  0  0
    0.0998    0.5714    2.2308 H   0  0  0  0  0  0  0  0  0  0  0  0
    2.2824   -3.6170    2.2700 H   0  0  0  0  0  0  0  0  0  0  0  0
    4.7655   -4.2305    0.6238 H   0  0  0  0  0  0  0  0  0  0  0  0
   -1.2115   -1.1049    3.2919 H   0  0  0  0  0  0  0  0  0  0  0  0
   -4.0207   -1.0110    1.0952 H   0  0  0  0  0  0  0  0  0  0  0  0
   -3.7692   -0.8214   -0.7188 H   0  0  0  0  0  0  0  0  0  0  0  0
   -2.5259   -1.5449    0.3115 H   0  0  0  0  0  0  0  0  0  0  0  0
  1  2  1  0
  2  3  1  0
  4  5  1  0
  5  6  1  0
  6  7  1  0
  7  8  1  0
  8  9  1  0
  9 10  1  0
 11 12  1  0
 10 13  1  0
 12 13  1  0
 15 16  1  0
  3 18  1  0
  4 19  1  0
 18 19  1  0
 10 20  1  0
 11 21  1  0
 20 21  1  0
 21 22  1  0
  7 23  1  0
 13 23  1  0
 14 24  1  0
 23 24  1  0
  6 25  1  0
 14 25  1  0
 25 17  1  6
  4 26  1  0
 26 15  1  1
 25 26  1  0
 18 27  1  0
 26 27  1  0
 15 28  1  0
 16 29  1  0
 24 30  1  0
 13 31  1  6
  1 32  1  0
  1 33  1  0
  1 34  1  0
  2 35  1  0
  2 36  1  0
  3 37  1  0
  3 38  1  0
  4 39  1  6
  5 40  1  0
  5 41  1  0
  6 42  1  1
  7 43  1  6
  8 44  1  0
  8 45  1  0
  9 46  1  0
  9 47  1  0
 10 48  1  0
 11 49  1  0
 11 50  1  0
 12 51  1  0
 12 52  1  0
 14 53  1  0
 14 54  1  0
 15 55  1  0
 16 56  1  0
 16 57  1  0
 17 58  1  0
 17 59  1  0
 17 60  1  0
 18 61  1  1
 20 62  1  0
 20 63  1  0
 21 64  1  0
 22 65  1  0
 23 66  1  1
 24 67  1  1
 28 68  1  0
 29 69  1  0
 30 70  1  0
 31 71  1  0
 31 72  1  0
 31 73  1  0
M  END
>  <PDBID>  (1) 
5NFP

>  <PDB ID>  (1) 
5NFP

>  <Generic Name>  (1) 
Budesonide

>  <Brand Name>  (1) 
Budesonide#Budesonide (enteric Coated)#Budesonide Inhalation#Budesonide Nasal#Childrens Rhinocort Allergy#Cortiment#Entocort#Entocort EC#Entocort Enema#Mylan-budesonide AQ#Pulmicort Flexhaler#Pulmicort Nebuamp 0.125 mg/ml#Pulmicort Nebuamp 0.25 mg/ml#Pulmicort Nebuamp 0.5 mg/ml#Pulmicort Respules#Pulmicort Turbuhaler 100 Mcg/dose#Pulmicort Turbuhaler 200 Mcg/dose#Pulmicort Turbuhaler 400 Mcg/dose#Rhinocort Allergy#Rhinocort Aqua#Rhinocort Aqua 100mcg#Rhinocort Turbuhaler 100 Mcg/dose#Symbicort#Symbicort 100 Turbuhaler#Symbicort 200 Turbuhaler#Symbicort Forte Turbuhaler#Uceris#Bidien#Budeson#Budicort#ENTOCORT#Noex#Pulmicort#Rhinocort#Rhinosol#Spirocort

>  <DrugBank ID>  (1) 
DB01222

>  <ATC Codes>  (1) 
R03AK07#A07EA06#R03BA02#D07AC09#R03AK12#R01AD05

>  <Ligand ID>  (1) 
8W5

>  <Target Name>  (1) 
Glucocorticoid receptor

>  <UniProt ID>  (1) 
P04150

>  <PDB ID.1>  (1) 
5NFP

>  <Seq. Identity>  (1) 
98%

$$$$
