PDB_DB00278_08
     RDKit          3D

170174  0  0  0  0  0  0  0  0999 V2000
    1.2028   -0.4350   -0.1462 S   0  0  0  0  0  0  0  0  0  0  0  0
    1.5206   -1.6641   -1.4208 O   0  0  0  0  0  0  0  0  0  0  0  0
    1.3491   -1.1582    1.2295 O   0  0  0  0  0  0  0  0  0  0  0  0
    5.8109   -1.2194   -1.3551 C   0  0  0  0  0  0  0  0  0  0  0  0
    6.3007   -1.6328   -0.0050 C   0  0  2  0  0  0  0  0  0  0  0  0
    6.1023   -0.5116    0.9724 C   0  0  0  0  0  0  0  0  0  0  0  0
    4.8525    0.2737    0.7723 C   0  0  0  0  0  0  0  0  0  0  0  0
    5.1572    1.6873    0.3532 C   0  0  0  0  0  0  0  0  0  0  0  0
    3.9459    2.5204    0.0998 C   0  0  0  0  0  0  0  0  0  0  0  0
    2.7157    1.7094    0.4438 C   0  0  0  0  0  0  0  0  0  0  0  0
    2.7077    0.4903   -0.4262 C   0  0  0  0  0  0  0  0  0  0  0  0
    3.8835   -0.4083   -0.1562 C   0  0  0  0  0  0  0  0  0  0  0  0
    7.7761   -1.9936   -0.1507 C   0  0  0  0  0  0  0  0  0  0  0  0
    4.4402   -0.8206   -1.4030 N   0  0  0  0  0  0  0  0  0  0  0  0
    0.0396    0.4081   -0.5244 N   0  0  0  0  0  0  0  0  0  0  0  0
   -1.3126    0.0668   -0.2106 C   0  0  2  0  0  0  0  0  0  0  0  0
   -1.7311   -1.1452   -0.9840 C   0  0  0  0  0  0  0  0  0  0  0  0
   -0.8982   -2.2303   -0.7051 O   0  0  0  0  0  0  0  0  0  0  0  0
   -2.1438    1.2851   -0.6252 C   0  0  0  0  0  0  0  0  0  0  0  0
   -1.6556    2.4648    0.1741 C   0  0  0  0  0  0  0  0  0  0  0  0
   -2.4193    3.7293   -0.1757 C   0  0  0  0  0  0  0  0  0  0  0  0
   -1.9332    4.8552    0.5982 N   0  0  0  0  0  0  0  0  0  0  0  0
   -2.6953    6.0445    0.2183 C   0  0  0  0  0  0  0  0  0  0  0  0
   -2.2505    7.1927    0.9556 N   0  0  0  0  0  0  0  0  0  0  0  0
   -4.0813    5.7338    0.4256 N   0  0  0  0  0  0  0  0  0  0  0  0
   -3.0795   -1.6097   -0.6555 N   0  0  0  0  0  0  0  0  0  0  0  0
   -3.2203   -2.0912    0.6745 C   0  0  2  0  0  0  0  0  0  0  0  0
   -3.3500   -3.6230    0.6917 C   0  0  0  0  0  0  0  0  0  0  0  0
   -4.5933   -4.0657   -0.0542 C   0  0  1  0  0  0  0  0  0  0  0  0
   -4.7383   -3.2887   -1.3214 C   0  0  0  0  0  0  0  0  0  0  0  0
   -3.5119   -2.4875   -1.6947 C   0  0  0  0  0  0  0  0  0  0  0  0
   -4.4365   -1.5281    1.4183 C   0  0  0  0  0  0  0  0  0  0  0  0
   -4.3711   -0.1561    1.5359 O   0  0  0  0  0  0  0  0  0  0  0  0
   -4.5168   -2.0609    2.6956 O   0  0  0  0  0  0  0  0  0  0  0  0
   -4.3711   -5.5539   -0.3620 C   0  0  0  0  0  0  0  0  0  0  0  0
    1.2028   -0.4350   -0.1462 S   0  0  0  0  0  0  0  0  0  0  0  0
    1.5206   -1.6641   -1.4208 O   0  0  0  0  0  0  0  0  0  0  0  0
    1.3491   -1.1582    1.2295 O   0  0  0  0  0  0  0  0  0  0  0  0
    5.8109   -1.2194   -1.3551 C   0  0  0  0  0  0  0  0  0  0  0  0
    6.3007   -1.6328   -0.0050 C   0  0  2  0  0  0  0  0  0  0  0  0
    6.1023   -0.5116    0.9724 C   0  0  0  0  0  0  0  0  0  0  0  0
    4.8525    0.2737    0.7723 C   0  0  0  0  0  0  0  0  0  0  0  0
    5.1572    1.6873    0.3532 C   0  0  0  0  0  0  0  0  0  0  0  0
    3.9459    2.5204    0.0998 C   0  0  0  0  0  0  0  0  0  0  0  0
    2.7157    1.7094    0.4438 C   0  0  0  0  0  0  0  0  0  0  0  0
    2.7077    0.4903   -0.4262 C   0  0  0  0  0  0  0  0  0  0  0  0
    3.8835   -0.4083   -0.1562 C   0  0  0  0  0  0  0  0  0  0  0  0
    7.7761   -1.9936   -0.1507 C   0  0  0  0  0  0  0  0  0  0  0  0
    4.4402   -0.8206   -1.4030 N   0  0  0  0  0  0  0  0  0  0  0  0
    0.0396    0.4081   -0.5244 N   0  0  0  0  0  0  0  0  0  0  0  0
   -1.3126    0.0668   -0.2106 C   0  0  2  0  0  0  0  0  0  0  0  0
   -1.7311   -1.1452   -0.9840 C   0  0  0  0  0  0  0  0  0  0  0  0
   -0.8982   -2.2303   -0.7051 O   0  0  0  0  0  0  0  0  0  0  0  0
   -2.1438    1.2851   -0.6252 C   0  0  0  0  0  0  0  0  0  0  0  0
   -1.6556    2.4648    0.1741 C   0  0  0  0  0  0  0  0  0  0  0  0
   -2.4193    3.7293   -0.1757 C   0  0  0  0  0  0  0  0  0  0  0  0
   -1.9332    4.8552    0.5982 N   0  0  0  0  0  0  0  0  0  0  0  0
   -2.6953    6.0445    0.2183 C   0  0  0  0  0  0  0  0  0  0  0  0
   -2.2505    7.1927    0.9556 N   0  0  0  0  0  0  0  0  0  0  0  0
   -4.0813    5.7338    0.4256 N   0  0  0  0  0  0  0  0  0  0  0  0
   -3.0795   -1.6097   -0.6555 N   0  0  0  0  0  0  0  0  0  0  0  0
   -3.2203   -2.0912    0.6745 C   0  0  2  0  0  0  0  0  0  0  0  0
   -3.3500   -3.6230    0.6917 C   0  0  0  0  0  0  0  0  0  0  0  0
   -4.5933   -4.0657   -0.0542 C   0  0  1  0  0  0  0  0  0  0  0  0
   -4.7383   -3.2887   -1.3214 C   0  0  0  0  0  0  0  0  0  0  0  0
   -3.5119   -2.4875   -1.6947 C   0  0  0  0  0  0  0  0  0  0  0  0
   -4.4365   -1.5281    1.4183 C   0  0  0  0  0  0  0  0  0  0  0  0
   -4.3711   -0.1561    1.5359 O   0  0  0  0  0  0  0  0  0  0  0  0
   -4.5168   -2.0609    2.6956 O   0  0  0  0  0  0  0  0  0  0  0  0
   -4.3711   -5.5539   -0.3620 C   0  0  0  0  0  0  0  0  0  0  0  0
    1.4461   -1.1045   -2.2464 H   0  0  0  0  0  0  0  0  0  0  0  0
    0.5303   -1.0854    1.8146 H   0  0  0  0  0  0  0  0  0  0  0  0
    5.9183   -2.1221   -2.0258 H   0  0  0  0  0  0  0  0  0  0  0  0
    6.4820   -0.4558   -1.8339 H   0  0  0  0  0  0  0  0  0  0  0  0
    5.7184   -2.5072    0.3157 H   0  0  0  0  0  0  0  0  0  0  0  0
    6.1779   -0.9484    1.9935 H   0  0  0  0  0  0  0  0  0  0  0  0
    6.9924    0.1611    0.8760 H   0  0  0  0  0  0  0  0  0  0  0  0
    4.3404    0.3403    1.7761 H   0  0  0  0  0  0  0  0  0  0  0  0
    5.7159    2.1550    1.2173 H   0  0  0  0  0  0  0  0  0  0  0  0
    5.8528    1.7444   -0.4966 H   0  0  0  0  0  0  0  0  0  0  0  0
    3.9830    3.4760    0.6628 H   0  0  0  0  0  0  0  0  0  0  0  0
    3.8925    2.7338   -0.9999 H   0  0  0  0  0  0  0  0  0  0  0  0
    1.8342    2.3387    0.1217 H   0  0  0  0  0  0  0  0  0  0  0  0
    2.6602    1.4802    1.5175 H   0  0  0  0  0  0  0  0  0  0  0  0
    2.6428    0.8216   -1.4819 H   0  0  0  0  0  0  0  0  0  0  0  0
    3.5169   -1.3252    0.3893 H   0  0  0  0  0  0  0  0  0  0  0  0
    8.1663   -1.7290   -1.1592 H   0  0  0  0  0  0  0  0  0  0  0  0
    7.9020   -3.0918   -0.0539 H   0  0  0  0  0  0  0  0  0  0  0  0
    8.3814   -1.4350    0.5752 H   0  0  0  0  0  0  0  0  0  0  0  0
    3.8280   -1.5824   -1.7875 H   0  0  0  0  0  0  0  0  0  0  0  0
    0.0870    1.2295   -1.1919 H   0  0  0  0  0  0  0  0  0  0  0  0
   -1.4278   -0.0377    0.8814 H   0  0  0  0  0  0  0  0  0  0  0  0
   -1.6327   -0.9253   -2.0622 H   0  0  0  0  0  0  0  0  0  0  0  0
   -0.7818   -2.4322    0.2317 H   0  0  0  0  0  0  0  0  0  0  0  0
   -3.2112    1.1536   -0.4849 H   0  0  0  0  0  0  0  0  0  0  0  0
   -1.9364    1.5297   -1.6942 H   0  0  0  0  0  0  0  0  0  0  0  0
   -1.8393    2.3119    1.2783 H   0  0  0  0  0  0  0  0  0  0  0  0
   -0.5854    2.6735    0.0699 H   0  0  0  0  0  0  0  0  0  0  0  0
   -3.5096    3.6320   -0.0212 H   0  0  0  0  0  0  0  0  0  0  0  0
   -2.2782    4.0004   -1.2562 H   0  0  0  0  0  0  0  0  0  0  0  0
   -0.9377    5.0879    0.3630 H   0  0  0  0  0  0  0  0  0  0  0  0
   -2.5346    6.2349   -0.8654 H   0  0  0  0  0  0  0  0  0  0  0  0
   -2.7904    7.3676    1.8266 H   0  0  0  0  0  0  0  0  0  0  0  0
   -1.2298    7.1916    1.1407 H   0  0  0  0  0  0  0  0  0  0  0  0
   -4.3022    5.8188    1.4354 H   0  0  0  0  0  0  0  0  0  0  0  0
   -4.7254    6.2719   -0.1813 H   0  0  0  0  0  0  0  0  0  0  0  0
   -2.3621   -1.8583    1.3409 H   0  0  0  0  0  0  0  0  0  0  0  0
   -2.4839   -4.0349    0.1472 H   0  0  0  0  0  0  0  0  0  0  0  0
   -3.3095   -3.9642    1.7257 H   0  0  0  0  0  0  0  0  0  0  0  0
   -5.4472   -4.0020    0.6312 H   0  0  0  0  0  0  0  0  0  0  0  0
   -4.8932   -4.0281   -2.1571 H   0  0  0  0  0  0  0  0  0  0  0  0
   -5.6594   -2.6504   -1.3522 H   0  0  0  0  0  0  0  0  0  0  0  0
   -3.7756   -1.9159   -2.6138 H   0  0  0  0  0  0  0  0  0  0  0  0
   -2.7032   -3.2047   -1.9431 H   0  0  0  0  0  0  0  0  0  0  0  0
   -5.3787   -1.8271    0.8814 H   0  0  0  0  0  0  0  0  0  0  0  0
   -4.6858    0.1275    2.4253 H   0  0  0  0  0  0  0  0  0  0  0  0
   -5.3209   -2.6219    2.7994 H   0  0  0  0  0  0  0  0  0  0  0  0
   -3.2752   -5.7665   -0.4214 H   0  0  0  0  0  0  0  0  0  0  0  0
   -4.7801   -5.8110   -1.3545 H   0  0  0  0  0  0  0  0  0  0  0  0
   -4.7661   -6.1923    0.4573 H   0  0  0  0  0  0  0  0  0  0  0  0
    1.4461   -1.1045   -2.2464 H   0  0  0  0  0  0  0  0  0  0  0  0
    0.5303   -1.0854    1.8146 H   0  0  0  0  0  0  0  0  0  0  0  0
    5.9183   -2.1221   -2.0258 H   0  0  0  0  0  0  0  0  0  0  0  0
    6.4820   -0.4558   -1.8339 H   0  0  0  0  0  0  0  0  0  0  0  0
    5.7184   -2.5072    0.3157 H   0  0  0  0  0  0  0  0  0  0  0  0
    6.1779   -0.9484    1.9935 H   0  0  0  0  0  0  0  0  0  0  0  0
    6.9924    0.1611    0.8760 H   0  0  0  0  0  0  0  0  0  0  0  0
    4.3404    0.3403    1.7761 H   0  0  0  0  0  0  0  0  0  0  0  0
    5.7159    2.1550    1.2173 H   0  0  0  0  0  0  0  0  0  0  0  0
    5.8528    1.7444   -0.4966 H   0  0  0  0  0  0  0  0  0  0  0  0
    3.9830    3.4760    0.6628 H   0  0  0  0  0  0  0  0  0  0  0  0
    3.8925    2.7338   -0.9999 H   0  0  0  0  0  0  0  0  0  0  0  0
    1.8342    2.3387    0.1217 H   0  0  0  0  0  0  0  0  0  0  0  0
    2.6602    1.4802    1.5175 H   0  0  0  0  0  0  0  0  0  0  0  0
    2.6428    0.8216   -1.4819 H   0  0  0  0  0  0  0  0  0  0  0  0
    3.5169   -1.3252    0.3893 H   0  0  0  0  0  0  0  0  0  0  0  0
    8.1663   -1.7290   -1.1592 H   0  0  0  0  0  0  0  0  0  0  0  0
    7.9020   -3.0918   -0.0539 H   0  0  0  0  0  0  0  0  0  0  0  0
    8.3814   -1.4350    0.5752 H   0  0  0  0  0  0  0  0  0  0  0  0
    3.8280   -1.5824   -1.7875 H   0  0  0  0  0  0  0  0  0  0  0  0
    0.0870    1.2295   -1.1919 H   0  0  0  0  0  0  0  0  0  0  0  0
   -1.4278   -0.0377    0.8814 H   0  0  0  0  0  0  0  0  0  0  0  0
   -1.6327   -0.9253   -2.0622 H   0  0  0  0  0  0  0  0  0  0  0  0
   -0.7818   -2.4322    0.2317 H   0  0  0  0  0  0  0  0  0  0  0  0
   -3.2112    1.1536   -0.4849 H   0  0  0  0  0  0  0  0  0  0  0  0
   -1.9364    1.5297   -1.6942 H   0  0  0  0  0  0  0  0  0  0  0  0
   -1.8393    2.3119    1.2783 H   0  0  0  0  0  0  0  0  0  0  0  0
   -0.5854    2.6735    0.0699 H   0  0  0  0  0  0  0  0  0  0  0  0
   -3.5096    3.6320   -0.0212 H   0  0  0  0  0  0  0  0  0  0  0  0
   -2.2782    4.0004   -1.2562 H   0  0  0  0  0  0  0  0  0  0  0  0
   -0.9377    5.0879    0.3630 H   0  0  0  0  0  0  0  0  0  0  0  0
   -2.5346    6.2349   -0.8654 H   0  0  0  0  0  0  0  0  0  0  0  0
   -2.7904    7.3676    1.8266 H   0  0  0  0  0  0  0  0  0  0  0  0
   -1.2298    7.1916    1.1407 H   0  0  0  0  0  0  0  0  0  0  0  0
   -4.3022    5.8188    1.4354 H   0  0  0  0  0  0  0  0  0  0  0  0
   -4.7254    6.2719   -0.1813 H   0  0  0  0  0  0  0  0  0  0  0  0
   -2.3621   -1.8583    1.3409 H   0  0  0  0  0  0  0  0  0  0  0  0
   -2.4839   -4.0349    0.1472 H   0  0  0  0  0  0  0  0  0  0  0  0
   -3.3095   -3.9642    1.7257 H   0  0  0  0  0  0  0  0  0  0  0  0
   -5.4472   -4.0020    0.6312 H   0  0  0  0  0  0  0  0  0  0  0  0
   -4.8932   -4.0281   -2.1571 H   0  0  0  0  0  0  0  0  0  0  0  0
   -5.6594   -2.6504   -1.3522 H   0  0  0  0  0  0  0  0  0  0  0  0
   -3.7756   -1.9159   -2.6138 H   0  0  0  0  0  0  0  0  0  0  0  0
   -2.7032   -3.2047   -1.9431 H   0  0  0  0  0  0  0  0  0  0  0  0
   -5.3787   -1.8271    0.8814 H   0  0  0  0  0  0  0  0  0  0  0  0
   -4.6858    0.1275    2.4253 H   0  0  0  0  0  0  0  0  0  0  0  0
   -5.3209   -2.6219    2.7994 H   0  0  0  0  0  0  0  0  0  0  0  0
   -3.2752   -5.7665   -0.4214 H   0  0  0  0  0  0  0  0  0  0  0  0
   -4.7801   -5.8110   -1.3545 H   0  0  0  0  0  0  0  0  0  0  0  0
   -4.7661   -6.1923    0.4573 H   0  0  0  0  0  0  0  0  0  0  0  0
  1  2  1  0
  1  3  1  0
  4  5  1  0
  5  6  1  0
  6  7  1  0
  7  8  1  0
  8  9  1  0
  9 10  1  0
  1 11  1  0
 10 11  1  0
  7 12  1  0
 11 12  1  0
  5 13  1  0
  4 14  1  0
 12 14  1  0
  1 15  1  0
 15 16  1  0
 16 17  1  0
 17 18  1  0
 16 19  1  0
 19 20  1  0
 20 21  1  0
 21 22  1  0
 22 23  1  0
 23 24  1  0
 23 25  1  0
 17 26  1  0
 26 27  1  0
 27 28  1  0
 28 29  1  0
 29 30  1  0
 26 31  1  0
 30 31  1  0
 27 32  1  0
 32 33  1  0
 32 34  1  0
 29 35  1  0
 36 37  1  0
 36 38  1  0
 39 40  1  0
 40 41  1  0
 41 42  1  0
 42 43  1  0
 43 44  1  0
 44 45  1  0
 36 46  1  0
 45 46  1  0
 42 47  1  0
 46 47  1  0
 40 48  1  0
 39 49  1  0
 47 49  1  0
 36 50  1  0
 50 51  1  0
 51 52  1  0
 52 53  1  0
 51 54  1  0
 54 55  1  0
 55 56  1  0
 56 57  1  0
 57 58  1  0
 58 59  1  0
 58 60  1  0
 52 61  1  0
 61 62  1  0
 62 63  1  0
 63 64  1  0
 64 65  1  0
 61 66  1  0
 65 66  1  0
 62 67  1  0
 67 68  1  0
 67 69  1  0
 64 70  1  0
  2 71  1  0
  3 72  1  0
  4 73  1  0
  4 74  1  0
  5 75  1  1
  6 76  1  0
  6 77  1  0
  7 78  1  0
  8 79  1  0
  8 80  1  0
  9 81  1  0
  9 82  1  0
 10 83  1  0
 10 84  1  0
 11 85  1  0
 12 86  1  0
 13 87  1  0
 13 88  1  0
 13 89  1  0
 14 90  1  0
 15 91  1  0
 16 92  1  1
 17 93  1  0
 18 94  1  0
 19 95  1  0
 19 96  1  0
 20 97  1  0
 20 98  1  0
 21 99  1  0
 21100  1  0
 22101  1  0
 23102  1  0
 24103  1  0
 24104  1  0
 25105  1  0
 25106  1  0
 27107  1  1
 28108  1  0
 28109  1  0
 29110  1  1
 30111  1  0
 30112  1  0
 31113  1  0
 31114  1  0
 32115  1  0
 33116  1  0
 34117  1  0
 35118  1  0
 35119  1  0
 35120  1  0
 37121  1  0
 38122  1  0
 39123  1  0
 39124  1  0
 40125  1  1
 41126  1  0
 41127  1  0
 42128  1  0
 43129  1  0
 43130  1  0
 44131  1  0
 44132  1  0
 45133  1  0
 45134  1  0
 46135  1  0
 47136  1  0
 48137  1  0
 48138  1  0
 48139  1  0
 49140  1  0
 50141  1  0
 51142  1  1
 52143  1  0
 53144  1  0
 54145  1  0
 54146  1  0
 55147  1  0
 55148  1  0
 56149  1  0
 56150  1  0
 57151  1  0
 58152  1  0
 59153  1  0
 59154  1  0
 60155  1  0
 60156  1  0
 62157  1  1
 63158  1  0
 63159  1  0
 64160  1  1
 65161  1  0
 65162  1  0
 66163  1  0
 66164  1  0
 67165  1  0
 68166  1  0
 69167  1  0
 70168  1  0
 70169  1  0
 70170  1  0
M  END
>  <PDBID>  (1) 
4HFP

>  <PDB ID>  (1) 
4HFP

>  <Generic Name>  (1) 
Argatroban

>  <Brand Name>  (1) 
Argatroban

>  <DrugBank ID>  (1) 
DB00278

>  <ATC Codes>  (1) 
B01AE03

>  <Ligand ID>  (1) 
15U,MIT

>  <Target Name>  (1) 
Prothrombin

>  <UniProt ID>  (1) 
P00734

>  <PDB ID.1>  (1) 
4HFP

>  <Seq. Identity>  (1) 
100%

$$$$
