PDB_DB01004_08
     RDKit          3D

 78 80  0  0  0  0  0  0  0  0999 V2000
    3.7441    0.1142   -0.4201 N   0  0  0  0  0  0  0  0  0  0  0  0
    2.9349   -1.0797   -0.4941 C   0  0  0  0  0  0  0  0  0  0  0  0
    1.0109   -0.1627    0.6165 C   0  0  0  0  0  0  0  0  0  0  0  0
    0.4792    2.0184    1.2003 C   0  0  0  0  0  0  0  0  0  0  0  0
   -3.7726   -0.2752   -1.5708 C   0  0  0  0  0  0  0  0  0  0  0  0
   -3.5460    1.0315   -2.0518 O   0  0  0  0  0  0  0  0  0  0  0  0
   -3.3620   -1.8535    0.2562 C   0  0  0  0  0  0  0  0  0  0  0  0
   -4.7589   -1.8553    0.3892 O   0  0  0  0  0  0  0  0  0  0  0  0
   -2.9956   -0.4966   -0.2913 C   0  0  0  0  0  0  0  0  0  0  0  0
   -1.6338   -0.3418   -0.4787 O   0  0  0  0  0  0  0  0  0  0  0  0
   -1.2143    0.6870    0.3244 C   0  0  0  0  0  0  0  0  0  0  0  0
    0.1929    0.9715    0.2399 N   0  0  0  0  0  0  0  0  0  0  0  0
    1.5209   -0.7881   -0.5804 N   0  0  0  0  0  0  0  0  0  0  0  0
    3.3236   -1.8141   -1.6614 N   0  0  0  0  0  0  0  0  0  0  0  0
    3.0841    1.1712    0.3196 C   0  0  0  0  0  0  0  0  0  0  0  0
    4.0541    1.9011    0.9835 O   0  0  0  0  0  0  0  0  0  0  0  0
    2.1652    0.5119    1.3221 C   0  0  0  0  0  0  0  0  0  0  0  0
    1.5082    1.5464    2.0705 N   0  0  0  0  0  0  0  0  0  0  0  0
    3.7441    0.1142   -0.4201 N   0  0  0  0  0  0  0  0  0  0  0  0
    2.9349   -1.0797   -0.4941 C   0  0  0  0  0  0  0  0  0  0  0  0
    1.0109   -0.1627    0.6165 C   0  0  0  0  0  0  0  0  0  0  0  0
    0.4792    2.0184    1.2003 C   0  0  0  0  0  0  0  0  0  0  0  0
   -3.7726   -0.2752   -1.5708 C   0  0  0  0  0  0  0  0  0  0  0  0
   -3.5460    1.0315   -2.0518 O   0  0  0  0  0  0  0  0  0  0  0  0
   -3.3620   -1.8535    0.2562 C   0  0  0  0  0  0  0  0  0  0  0  0
   -4.7589   -1.8553    0.3892 O   0  0  0  0  0  0  0  0  0  0  0  0
   -2.9956   -0.4966   -0.2913 C   0  0  0  0  0  0  0  0  0  0  0  0
   -1.6338   -0.3418   -0.4787 O   0  0  0  0  0  0  0  0  0  0  0  0
   -1.2143    0.6870    0.3244 C   0  0  0  0  0  0  0  0  0  0  0  0
    0.1929    0.9715    0.2399 N   0  0  0  0  0  0  0  0  0  0  0  0
    1.5209   -0.7881   -0.5804 N   0  0  0  0  0  0  0  0  0  0  0  0
    3.3236   -1.8141   -1.6614 N   0  0  0  0  0  0  0  0  0  0  0  0
    3.0841    1.1712    0.3196 C   0  0  0  0  0  0  0  0  0  0  0  0
    4.0541    1.9011    0.9835 O   0  0  0  0  0  0  0  0  0  0  0  0
    2.1652    0.5119    1.3221 C   0  0  0  0  0  0  0  0  0  0  0  0
    1.5082    1.5464    2.0705 N   0  0  0  0  0  0  0  0  0  0  0  0
    4.0185    0.4607   -1.3596 H   0  0  0  0  0  0  0  0  0  0  0  0
    3.1086   -1.6865    0.4255 H   0  0  0  0  0  0  0  0  0  0  0  0
    0.4818   -0.8590    1.2853 H   0  0  0  0  0  0  0  0  0  0  0  0
    0.7350    2.9409    0.6444 H   0  0  0  0  0  0  0  0  0  0  0  0
   -0.4093    2.2744    1.8276 H   0  0  0  0  0  0  0  0  0  0  0  0
   -3.5312   -1.0287   -2.3435 H   0  0  0  0  0  0  0  0  0  0  0  0
   -4.8556   -0.3681   -1.3500 H   0  0  0  0  0  0  0  0  0  0  0  0
   -3.8081    1.6590   -1.3344 H   0  0  0  0  0  0  0  0  0  0  0  0
   -2.9522   -2.0544    1.2500 H   0  0  0  0  0  0  0  0  0  0  0  0
   -3.1006   -2.6126   -0.5008 H   0  0  0  0  0  0  0  0  0  0  0  0
   -5.1986   -2.5170   -0.1744 H   0  0  0  0  0  0  0  0  0  0  0  0
   -3.3308    0.2534    0.4462 H   0  0  0  0  0  0  0  0  0  0  0  0
   -1.5515    0.4754    1.3580 H   0  0  0  0  0  0  0  0  0  0  0  0
   -1.7541    1.6059    0.0087 H   0  0  0  0  0  0  0  0  0  0  0  0
    1.0271   -1.7025   -0.6774 H   0  0  0  0  0  0  0  0  0  0  0  0
    3.9221   -2.6397   -1.4694 H   0  0  0  0  0  0  0  0  0  0  0  0
    2.5514   -2.0130   -2.3249 H   0  0  0  0  0  0  0  0  0  0  0  0
    2.5102    1.8096   -0.3802 H   0  0  0  0  0  0  0  0  0  0  0  0
    4.4508    2.5417    0.3374 H   0  0  0  0  0  0  0  0  0  0  0  0
    2.7442   -0.1542    1.9627 H   0  0  0  0  0  0  0  0  0  0  0  0
    2.2074    2.3285    2.1951 H   0  0  0  0  0  0  0  0  0  0  0  0
    4.0185    0.4607   -1.3596 H   0  0  0  0  0  0  0  0  0  0  0  0
    3.1086   -1.6865    0.4255 H   0  0  0  0  0  0  0  0  0  0  0  0
    0.4818   -0.8590    1.2853 H   0  0  0  0  0  0  0  0  0  0  0  0
    0.7350    2.9409    0.6444 H   0  0  0  0  0  0  0  0  0  0  0  0
   -0.4093    2.2744    1.8276 H   0  0  0  0  0  0  0  0  0  0  0  0
   -3.5312   -1.0287   -2.3435 H   0  0  0  0  0  0  0  0  0  0  0  0
   -4.8556   -0.3681   -1.3500 H   0  0  0  0  0  0  0  0  0  0  0  0
   -3.8081    1.6590   -1.3344 H   0  0  0  0  0  0  0  0  0  0  0  0
   -2.9522   -2.0544    1.2500 H   0  0  0  0  0  0  0  0  0  0  0  0
   -3.1006   -2.6126   -0.5008 H   0  0  0  0  0  0  0  0  0  0  0  0
   -5.1986   -2.5170   -0.1744 H   0  0  0  0  0  0  0  0  0  0  0  0
   -3.3308    0.2534    0.4462 H   0  0  0  0  0  0  0  0  0  0  0  0
   -1.5515    0.4754    1.3580 H   0  0  0  0  0  0  0  0  0  0  0  0
   -1.7541    1.6059    0.0087 H   0  0  0  0  0  0  0  0  0  0  0  0
    1.0271   -1.7025   -0.6774 H   0  0  0  0  0  0  0  0  0  0  0  0
    3.9221   -2.6397   -1.4694 H   0  0  0  0  0  0  0  0  0  0  0  0
    2.5514   -2.0130   -2.3249 H   0  0  0  0  0  0  0  0  0  0  0  0
    2.5102    1.8096   -0.3802 H   0  0  0  0  0  0  0  0  0  0  0  0
    4.4508    2.5417    0.3374 H   0  0  0  0  0  0  0  0  0  0  0  0
    2.7442   -0.1542    1.9627 H   0  0  0  0  0  0  0  0  0  0  0  0
    2.2074    2.3285    2.1951 H   0  0  0  0  0  0  0  0  0  0  0  0
  1  2  1  0
  5  6  1  0
  7  8  1  0
  5  9  1  0
  7  9  1  0
  9 10  1  0
 10 11  1  0
  3 12  1  0
  4 12  1  0
 11 12  1  0
  2 13  1  0
  3 13  1  0
  2 14  1  0
  1 15  1  0
 15 16  1  0
  3 17  1  0
 15 17  1  0
  4 18  1  0
 17 18  1  0
 19 20  1  0
 23 24  1  0
 25 26  1  0
 23 27  1  0
 25 27  1  0
 27 28  1  0
 28 29  1  0
 21 30  1  0
 22 30  1  0
 29 30  1  0
 20 31  1  0
 21 31  1  0
 20 32  1  0
 19 33  1  0
 33 34  1  0
 21 35  1  0
 33 35  1  0
 22 36  1  0
 35 36  1  0
  1 37  1  0
  2 38  1  0
  3 39  1  0
  4 40  1  0
  4 41  1  0
  5 42  1  0
  5 43  1  0
  6 44  1  0
  7 45  1  0
  7 46  1  0
  8 47  1  0
  9 48  1  0
 11 49  1  0
 11 50  1  0
 13 51  1  0
 14 52  1  0
 14 53  1  0
 15 54  1  0
 16 55  1  0
 17 56  1  0
 18 57  1  0
 19 58  1  0
 20 59  1  0
 21 60  1  0
 22 61  1  0
 22 62  1  0
 23 63  1  0
 23 64  1  0
 24 65  1  0
 25 66  1  0
 25 67  1  0
 26 68  1  0
 27 69  1  0
 29 70  1  0
 29 71  1  0
 31 72  1  0
 32 73  1  0
 32 74  1  0
 33 75  1  0
 34 76  1  0
 35 77  1  0
 36 78  1  0
M  END
>  <PDBID>  (1) 
1KI2

>  <PDB ID>  (1) 
1KI2

>  <Generic Name>  (1) 
Ganciclovir

>  <Brand Name>  (1) 
Cytovene - Cap 250mg#Cytovene - Pws 500mg/10m/-vial IV#Cytovene IV#Cytovene Inj 500mg/vial#Cytovene, 500 mg#Ganciclovir#Ganciclovir for Injection#Vitrasert, Intravitreal Implant#Zirgan#Cytovene#Vitrasert

>  <DrugBank ID>  (1) 
DB01004

>  <ATC Codes>  (1) 
J05AB06#S01AD09

>  <Ligand ID>  (1) 
GA2

>  <Target Name>  (1) 
Thymidine kinase

>  <UniProt ID>  (1) 
P03176

>  <PDB ID.1>  (1) 
1KI2

>  <Seq. Identity>  (1) 
100%

$$$$
