PDB_DB08882_05
     RDKit          3D

170178  0  0  0  0  0  0  0  0999 V2000
   -1.6866    0.3722   -0.0957 C   0  0  0  0  0  0  0  0  0  0  0  0
   -2.8589    1.0270    0.2181 N   0  0  0  0  0  0  0  0  0  0  0  0
   -1.5597   -0.6493    1.0631 C   0  0  0  0  0  0  0  0  0  0  0  0
   -0.3803    1.0523   -0.1105 C   0  0  0  0  0  0  0  0  0  0  0  0
   -3.7277    0.1438    0.8932 C   0  0  0  0  0  0  0  0  0  0  0  0
   -3.3398    2.1945   -0.3114 C   0  0  0  0  0  0  0  0  0  0  0  0
   -2.9273   -1.0035    1.2718 N   0  0  0  0  0  0  0  0  0  0  0  0
   -0.7154   -1.6738    0.5792 N   0  0  0  0  0  0  0  0  0  0  0  0
    0.6731    0.0676   -0.4147 N   0  0  0  0  0  0  0  0  0  0  0  0
   -0.0030    1.6830    1.0484 O   0  0  0  0  0  0  0  0  0  0  0  0
   -4.9686   -0.1842    0.3077 N   0  0  0  0  0  0  0  0  0  0  0  0
   -2.6184    3.4314    0.1270 C   0  0  0  0  0  0  0  0  0  0  0  0
    0.1823   -1.2592   -0.4458 C   0  0  0  0  0  0  0  0  0  0  0  0
   -0.1740   -2.5427    1.5771 C   0  0  0  0  0  0  0  0  0  0  0  0
    1.8206    0.3188    0.4119 C   0  0  0  0  0  0  0  0  0  0  0  0
   -4.9690   -0.7965   -0.9726 C   0  0  0  0  0  0  0  0  0  0  0  0
   -5.7671   -0.9641    1.2039 C   0  0  0  0  0  0  0  0  0  0  0  0
   -3.2805    4.6414   -0.5585 C   0  0  0  0  0  0  0  0  0  0  0  0
    1.2333   -2.1764   -0.4312 O   0  0  0  0  0  0  0  0  0  0  0  0
    3.1055   -0.2921   -0.0046 C   0  0  0  0  0  0  0  0  0  0  0  0
   -4.4613   -2.2176   -0.9937 C   0  0  1  0  0  0  0  0  0  0  0  0
   -5.5680   -2.4312    1.1769 C   0  0  0  0  0  0  0  0  0  0  0  0
   -3.1890    4.5302   -2.0644 C   0  0  0  0  0  0  0  0  0  0  0  0
    4.0918    0.1295    1.0260 N   0  0  0  0  0  0  0  0  0  0  0  0
    3.6141    0.2965   -1.2339 N   0  0  0  0  0  0  0  0  0  0  0  0
   -5.4522   -3.0358   -0.1915 C   0  0  0  0  0  0  0  0  0  0  0  0
   -4.4401   -2.6728   -2.3693 N   0  0  0  0  0  0  0  0  0  0  0  0
    5.2386   -0.7680    0.8064 C   0  0  0  0  0  0  0  0  0  0  0  0
    4.8101   -0.3478   -1.6244 C   0  0  0  0  0  0  0  0  0  0  0  0
    5.8464   -0.5077   -0.5535 C   0  0  0  0  0  0  0  0  0  0  0  0
    6.2356   -0.4584    1.8971 C   0  0  0  0  0  0  0  0  0  0  0  0
    4.5232   -1.6640   -2.3154 C   0  0  0  0  0  0  0  0  0  0  0  0
    6.7684    0.6929   -0.4775 C   0  0  0  0  0  0  0  0  0  0  0  0
    6.3156    1.0508    1.9777 C   0  0  0  0  0  0  0  0  0  0  0  0
    6.3592    1.6686    0.6070 C   0  0  0  0  0  0  0  0  0  0  0  0
   -1.6866    0.3722   -0.0957 C   0  0  0  0  0  0  0  0  0  0  0  0
   -2.8589    1.0270    0.2181 N   0  0  0  0  0  0  0  0  0  0  0  0
   -1.5597   -0.6493    1.0631 C   0  0  0  0  0  0  0  0  0  0  0  0
   -0.3803    1.0523   -0.1105 C   0  0  0  0  0  0  0  0  0  0  0  0
   -3.7277    0.1438    0.8932 C   0  0  0  0  0  0  0  0  0  0  0  0
   -3.3398    2.1945   -0.3114 C   0  0  0  0  0  0  0  0  0  0  0  0
   -2.9273   -1.0035    1.2718 N   0  0  0  0  0  0  0  0  0  0  0  0
   -0.7154   -1.6738    0.5792 N   0  0  0  0  0  0  0  0  0  0  0  0
    0.6731    0.0676   -0.4147 N   0  0  0  0  0  0  0  0  0  0  0  0
   -0.0030    1.6830    1.0484 O   0  0  0  0  0  0  0  0  0  0  0  0
   -4.9686   -0.1842    0.3077 N   0  0  0  0  0  0  0  0  0  0  0  0
   -2.6184    3.4314    0.1270 C   0  0  0  0  0  0  0  0  0  0  0  0
    0.1823   -1.2592   -0.4458 C   0  0  0  0  0  0  0  0  0  0  0  0
   -0.1740   -2.5427    1.5771 C   0  0  0  0  0  0  0  0  0  0  0  0
    1.8206    0.3188    0.4119 C   0  0  0  0  0  0  0  0  0  0  0  0
   -4.9690   -0.7965   -0.9726 C   0  0  0  0  0  0  0  0  0  0  0  0
   -5.7671   -0.9641    1.2039 C   0  0  0  0  0  0  0  0  0  0  0  0
   -3.2805    4.6414   -0.5585 C   0  0  0  0  0  0  0  0  0  0  0  0
    1.2333   -2.1764   -0.4312 O   0  0  0  0  0  0  0  0  0  0  0  0
    3.1055   -0.2921   -0.0046 C   0  0  0  0  0  0  0  0  0  0  0  0
   -4.4613   -2.2176   -0.9937 C   0  0  1  0  0  0  0  0  0  0  0  0
   -5.5680   -2.4312    1.1769 C   0  0  0  0  0  0  0  0  0  0  0  0
   -3.1890    4.5302   -2.0644 C   0  0  0  0  0  0  0  0  0  0  0  0
    4.0918    0.1295    1.0260 N   0  0  0  0  0  0  0  0  0  0  0  0
    3.6141    0.2965   -1.2339 N   0  0  0  0  0  0  0  0  0  0  0  0
   -5.4522   -3.0358   -0.1915 C   0  0  0  0  0  0  0  0  0  0  0  0
   -4.4401   -2.6728   -2.3693 N   0  0  0  0  0  0  0  0  0  0  0  0
    5.2386   -0.7680    0.8064 C   0  0  0  0  0  0  0  0  0  0  0  0
    4.8101   -0.3478   -1.6244 C   0  0  0  0  0  0  0  0  0  0  0  0
    5.8464   -0.5077   -0.5535 C   0  0  0  0  0  0  0  0  0  0  0  0
    6.2356   -0.4584    1.8971 C   0  0  0  0  0  0  0  0  0  0  0  0
    4.5232   -1.6640   -2.3154 C   0  0  0  0  0  0  0  0  0  0  0  0
    6.7684    0.6929   -0.4775 C   0  0  0  0  0  0  0  0  0  0  0  0
    6.3156    1.0508    1.9777 C   0  0  0  0  0  0  0  0  0  0  0  0
    6.3592    1.6686    0.6070 C   0  0  0  0  0  0  0  0  0  0  0  0
   -1.7423   -0.2391   -1.0462 H   0  0  0  0  0  0  0  0  0  0  0  0
   -1.1135   -0.0799    1.9033 H   0  0  0  0  0  0  0  0  0  0  0  0
   -0.3707    1.7932   -0.9505 H   0  0  0  0  0  0  0  0  0  0  0  0
   -3.9865    0.6553    1.8738 H   0  0  0  0  0  0  0  0  0  0  0  0
   -4.4143    2.3564   -0.0081 H   0  0  0  0  0  0  0  0  0  0  0  0
   -3.2945    2.2483   -1.4577 H   0  0  0  0  0  0  0  0  0  0  0  0
   -3.0204   -1.2203    2.3033 H   0  0  0  0  0  0  0  0  0  0  0  0
   -0.7183    1.8967    1.6786 H   0  0  0  0  0  0  0  0  0  0  0  0
   -2.7247    3.6264    1.2180 H   0  0  0  0  0  0  0  0  0  0  0  0
   -1.5675    3.5041   -0.1759 H   0  0  0  0  0  0  0  0  0  0  0  0
   -0.2599   -1.3990   -1.4869 H   0  0  0  0  0  0  0  0  0  0  0  0
   -0.0081   -2.0493    2.5497 H   0  0  0  0  0  0  0  0  0  0  0  0
    0.7474   -3.0599    1.2411 H   0  0  0  0  0  0  0  0  0  0  0  0
   -0.9598   -3.3231    1.7902 H   0  0  0  0  0  0  0  0  0  0  0  0
    1.6318   -0.0290    1.4671 H   0  0  0  0  0  0  0  0  0  0  0  0
    1.9786    1.4181    0.5303 H   0  0  0  0  0  0  0  0  0  0  0  0
   -6.0553   -0.8677   -1.2867 H   0  0  0  0  0  0  0  0  0  0  0  0
   -4.4820   -0.2318   -1.7756 H   0  0  0  0  0  0  0  0  0  0  0  0
   -5.5072   -0.6139    2.2457 H   0  0  0  0  0  0  0  0  0  0  0  0
   -6.8625   -0.7283    1.0963 H   0  0  0  0  0  0  0  0  0  0  0  0
   -2.8625    5.5959   -0.1856 H   0  0  0  0  0  0  0  0  0  0  0  0
   -4.3461    4.6069   -0.2063 H   0  0  0  0  0  0  0  0  0  0  0  0
    1.3585   -2.6417   -1.2703 H   0  0  0  0  0  0  0  0  0  0  0  0
    3.2080   -1.3565   -0.0579 H   0  0  0  0  0  0  0  0  0  0  0  0
   -3.4644   -2.3581   -0.5905 H   0  0  0  0  0  0  0  0  0  0  0  0
   -6.4841   -2.9031    1.6424 H   0  0  0  0  0  0  0  0  0  0  0  0
   -4.7276   -2.8122    1.7965 H   0  0  0  0  0  0  0  0  0  0  0  0
   -3.9513    3.8688   -2.5080 H   0  0  0  0  0  0  0  0  0  0  0  0
   -2.1437    4.2259   -2.3245 H   0  0  0  0  0  0  0  0  0  0  0  0
   -3.3193    5.5774   -2.4688 H   0  0  0  0  0  0  0  0  0  0  0  0
    3.6472   -0.2053    1.9293 H   0  0  0  0  0  0  0  0  0  0  0  0
    3.6491    1.3307   -1.1917 H   0  0  0  0  0  0  0  0  0  0  0  0
   -4.9974   -4.0516   -0.0595 H   0  0  0  0  0  0  0  0  0  0  0  0
   -6.4038   -3.1693   -0.7150 H   0  0  0  0  0  0  0  0  0  0  0  0
   -3.7787   -3.5066   -2.4167 H   0  0  0  0  0  0  0  0  0  0  0  0
   -4.0149   -1.9521   -2.9961 H   0  0  0  0  0  0  0  0  0  0  0  0
    4.8907   -1.8090    0.8860 H   0  0  0  0  0  0  0  0  0  0  0  0
    5.2910    0.3160   -2.4077 H   0  0  0  0  0  0  0  0  0  0  0  0
    6.4706   -1.3850   -0.8078 H   0  0  0  0  0  0  0  0  0  0  0  0
    5.8226   -0.8515    2.8468 H   0  0  0  0  0  0  0  0  0  0  0  0
    7.2240   -0.9182    1.6914 H   0  0  0  0  0  0  0  0  0  0  0  0
    3.5541   -1.6172   -2.8666 H   0  0  0  0  0  0  0  0  0  0  0  0
    4.5362   -2.5141   -1.6183 H   0  0  0  0  0  0  0  0  0  0  0  0
    5.3119   -1.8144   -3.1080 H   0  0  0  0  0  0  0  0  0  0  0  0
    6.7288    1.2844   -1.4371 H   0  0  0  0  0  0  0  0  0  0  0  0
    7.7992    0.3991   -0.2774 H   0  0  0  0  0  0  0  0  0  0  0  0
    5.3557    1.3844    2.4409 H   0  0  0  0  0  0  0  0  0  0  0  0
    7.1261    1.3772    2.6261 H   0  0  0  0  0  0  0  0  0  0  0  0
    7.1166    2.4711    0.6147 H   0  0  0  0  0  0  0  0  0  0  0  0
    5.4022    2.1153    0.3058 H   0  0  0  0  0  0  0  0  0  0  0  0
   -1.7423   -0.2391   -1.0462 H   0  0  0  0  0  0  0  0  0  0  0  0
   -1.1135   -0.0799    1.9033 H   0  0  0  0  0  0  0  0  0  0  0  0
   -0.3707    1.7932   -0.9505 H   0  0  0  0  0  0  0  0  0  0  0  0
   -3.9865    0.6553    1.8738 H   0  0  0  0  0  0  0  0  0  0  0  0
   -4.4143    2.3564   -0.0081 H   0  0  0  0  0  0  0  0  0  0  0  0
   -3.2945    2.2483   -1.4577 H   0  0  0  0  0  0  0  0  0  0  0  0
   -3.0204   -1.2203    2.3033 H   0  0  0  0  0  0  0  0  0  0  0  0
   -0.7183    1.8967    1.6786 H   0  0  0  0  0  0  0  0  0  0  0  0
   -2.7247    3.6264    1.2180 H   0  0  0  0  0  0  0  0  0  0  0  0
   -1.5675    3.5041   -0.1759 H   0  0  0  0  0  0  0  0  0  0  0  0
   -0.2599   -1.3990   -1.4869 H   0  0  0  0  0  0  0  0  0  0  0  0
   -0.0081   -2.0493    2.5497 H   0  0  0  0  0  0  0  0  0  0  0  0
    0.7474   -3.0599    1.2411 H   0  0  0  0  0  0  0  0  0  0  0  0
   -0.9598   -3.3231    1.7902 H   0  0  0  0  0  0  0  0  0  0  0  0
    1.6318   -0.0290    1.4671 H   0  0  0  0  0  0  0  0  0  0  0  0
    1.9786    1.4181    0.5303 H   0  0  0  0  0  0  0  0  0  0  0  0
   -6.0553   -0.8677   -1.2867 H   0  0  0  0  0  0  0  0  0  0  0  0
   -4.4820   -0.2318   -1.7756 H   0  0  0  0  0  0  0  0  0  0  0  0
   -5.5072   -0.6139    2.2457 H   0  0  0  0  0  0  0  0  0  0  0  0
   -6.8625   -0.7283    1.0963 H   0  0  0  0  0  0  0  0  0  0  0  0
   -2.8625    5.5959   -0.1856 H   0  0  0  0  0  0  0  0  0  0  0  0
   -4.3461    4.6069   -0.2063 H   0  0  0  0  0  0  0  0  0  0  0  0
    1.3585   -2.6417   -1.2703 H   0  0  0  0  0  0  0  0  0  0  0  0
    3.2080   -1.3565   -0.0579 H   0  0  0  0  0  0  0  0  0  0  0  0
   -3.4644   -2.3581   -0.5905 H   0  0  0  0  0  0  0  0  0  0  0  0
   -6.4841   -2.9031    1.6424 H   0  0  0  0  0  0  0  0  0  0  0  0
   -4.7276   -2.8122    1.7965 H   0  0  0  0  0  0  0  0  0  0  0  0
   -3.9513    3.8688   -2.5080 H   0  0  0  0  0  0  0  0  0  0  0  0
   -2.1437    4.2259   -2.3245 H   0  0  0  0  0  0  0  0  0  0  0  0
   -3.3193    5.5774   -2.4688 H   0  0  0  0  0  0  0  0  0  0  0  0
    3.6472   -0.2053    1.9293 H   0  0  0  0  0  0  0  0  0  0  0  0
    3.6491    1.3307   -1.1917 H   0  0  0  0  0  0  0  0  0  0  0  0
   -4.9974   -4.0516   -0.0595 H   0  0  0  0  0  0  0  0  0  0  0  0
   -6.4038   -3.1693   -0.7150 H   0  0  0  0  0  0  0  0  0  0  0  0
   -3.7787   -3.5066   -2.4167 H   0  0  0  0  0  0  0  0  0  0  0  0
   -4.0149   -1.9521   -2.9961 H   0  0  0  0  0  0  0  0  0  0  0  0
    4.8907   -1.8090    0.8860 H   0  0  0  0  0  0  0  0  0  0  0  0
    5.2910    0.3160   -2.4077 H   0  0  0  0  0  0  0  0  0  0  0  0
    6.4706   -1.3850   -0.8078 H   0  0  0  0  0  0  0  0  0  0  0  0
    5.8226   -0.8515    2.8468 H   0  0  0  0  0  0  0  0  0  0  0  0
    7.2240   -0.9182    1.6914 H   0  0  0  0  0  0  0  0  0  0  0  0
    3.5541   -1.6172   -2.8666 H   0  0  0  0  0  0  0  0  0  0  0  0
    4.5362   -2.5141   -1.6183 H   0  0  0  0  0  0  0  0  0  0  0  0
    5.3119   -1.8144   -3.1080 H   0  0  0  0  0  0  0  0  0  0  0  0
    6.7288    1.2844   -1.4371 H   0  0  0  0  0  0  0  0  0  0  0  0
    7.7992    0.3991   -0.2774 H   0  0  0  0  0  0  0  0  0  0  0  0
    5.3557    1.3844    2.4409 H   0  0  0  0  0  0  0  0  0  0  0  0
    7.1261    1.3772    2.6261 H   0  0  0  0  0  0  0  0  0  0  0  0
    7.1166    2.4711    0.6147 H   0  0  0  0  0  0  0  0  0  0  0  0
    5.4022    2.1153    0.3058 H   0  0  0  0  0  0  0  0  0  0  0  0
  1  2  1  0
  1  3  1  0
  1  4  1  0
  2  5  1  0
  2  6  1  0
  3  7  1  0
  5  7  1  0
  3  8  1  0
  4  9  1  0
  4 10  1  0
  5 11  1  0
  6 12  1  0
  8 13  1  0
  9 13  1  0
  8 14  1  0
  9 15  1  0
 11 16  1  0
 11 17  1  0
 12 18  1  0
 13 19  1  0
 15 20  1  0
 16 21  1  0
 17 22  1  0
 18 23  1  0
 20 24  1  0
 20 25  1  0
 21 26  1  0
 22 26  1  0
 21 27  1  0
 24 28  1  0
 25 29  1  0
 28 30  1  0
 29 30  1  0
 28 31  1  0
 29 32  1  0
 30 33  1  0
 31 34  1  0
 33 35  1  0
 34 35  1  0
 36 37  1  0
 36 38  1  0
 36 39  1  0
 37 40  1  0
 37 41  1  0
 38 42  1  0
 40 42  1  0
 38 43  1  0
 39 44  1  0
 39 45  1  0
 40 46  1  0
 41 47  1  0
 43 48  1  0
 44 48  1  0
 43 49  1  0
 44 50  1  0
 46 51  1  0
 46 52  1  0
 47 53  1  0
 48 54  1  0
 50 55  1  0
 51 56  1  0
 52 57  1  0
 53 58  1  0
 55 59  1  0
 55 60  1  0
 56 61  1  0
 57 61  1  0
 56 62  1  0
 59 63  1  0
 60 64  1  0
 63 65  1  0
 64 65  1  0
 63 66  1  0
 64 67  1  0
 65 68  1  0
 66 69  1  0
 68 70  1  0
 69 70  1  0
  1 71  1  0
  3 72  1  0
  4 73  1  0
  5 74  1  0
  6 75  1  0
  6 76  1  0
  7 77  1  0
 10 78  1  0
 12 79  1  0
 12 80  1  0
 13 81  1  0
 14 82  1  0
 14 83  1  0
 14 84  1  0
 15 85  1  0
 15 86  1  0
 16 87  1  0
 16 88  1  0
 17 89  1  0
 17 90  1  0
 18 91  1  0
 18 92  1  0
 19 93  1  0
 20 94  1  0
 21 95  1  1
 22 96  1  0
 22 97  1  0
 23 98  1  0
 23 99  1  0
 23100  1  0
 24101  1  0
 25102  1  0
 26103  1  0
 26104  1  0
 27105  1  0
 27106  1  0
 28107  1  0
 29108  1  0
 30109  1  0
 31110  1  0
 31111  1  0
 32112  1  0
 32113  1  0
 32114  1  0
 33115  1  0
 33116  1  0
 34117  1  0
 34118  1  0
 35119  1  0
 35120  1  0
 36121  1  0
 38122  1  0
 39123  1  0
 40124  1  0
 41125  1  0
 41126  1  0
 42127  1  0
 45128  1  0
 47129  1  0
 47130  1  0
 48131  1  0
 49132  1  0
 49133  1  0
 49134  1  0
 50135  1  0
 50136  1  0
 51137  1  0
 51138  1  0
 52139  1  0
 52140  1  0
 53141  1  0
 53142  1  0
 54143  1  0
 55144  1  0
 56145  1  1
 57146  1  0
 57147  1  0
 58148  1  0
 58149  1  0
 58150  1  0
 59151  1  0
 60152  1  0
 61153  1  0
 61154  1  0
 62155  1  0
 62156  1  0
 63157  1  0
 64158  1  0
 65159  1  0
 66160  1  0
 66161  1  0
 67162  1  0
 67163  1  0
 67164  1  0
 68165  1  0
 68166  1  0
 69167  1  0
 69168  1  0
 70169  1  0
 70170  1  0
M  END
>  <PDBID>  (1) 
2RGU

>  <PDB ID>  (1) 
2RGU

>  <Generic Name>  (1) 
Linagliptin

>  <Brand Name>  (1) 
Glyxambi#Jentadueto#Jentadueto XR#Tradjenta#Trajenta

>  <DrugBank ID>  (1) 
DB08882

>  <ATC Codes>  (1) 
A10BH05#A10BD19#A10BD11

>  <Ligand ID>  (1) 
356

>  <Target Name>  (1) 
Dipeptidyl peptidase 4

>  <UniProt ID>  (1) 
P27487

>  <PDB ID.1>  (1) 
2RGU

>  <Seq. Identity>  (1) 
100%

$$$$
