PDB_DB01394_08
     RDKit          3D

 70 72  0  0  0  0  0  0  0  0999 V2000
   -4.6025    3.8338    0.6141 O   0  0  0  0  0  0  0  0  0  0  0  0
   -3.2155    3.5706    0.7560 C   0  0  0  0  0  0  0  0  0  0  0  0
   -2.5361    4.7990    0.1734 C   0  0  0  0  0  0  0  0  0  0  0  0
   -2.9625    2.3824    0.0319 N   0  0  0  0  0  0  0  0  0  0  0  0
   -1.5880    1.9357   -0.0425 C   0  0  2  0  0  0  0  0  0  0  0  0
   -1.5882    0.5727   -0.6332 C   0  0  0  0  0  0  0  0  0  0  0  0
   -2.8237   -0.1396   -0.0600 C   0  0  0  0  0  0  0  0  0  0  0  0
   -0.7803    2.1346    1.1744 C   0  0  0  0  0  0  0  0  0  0  0  0
    0.6409    2.3782    0.7691 C   0  0  0  0  0  0  0  0  0  0  0  0
    1.3815    1.0800    0.6194 C   0  0  2  0  0  0  0  0  0  0  0  0
    2.8008    1.5594    0.2457 C   0  0  0  0  0  0  0  0  0  0  0  0
    3.6825    0.3755    0.4365 C   0  0  0  0  0  0  0  0  0  0  0  0
    3.1164   -0.8903   -0.0747 C   0  0  0  0  0  0  0  0  0  0  0  0
    1.9181   -0.7795   -0.9593 C   0  0  0  0  0  0  0  0  0  0  0  0
    2.3613   -0.6925   -2.2757 O   0  0  0  0  0  0  0  0  0  0  0  0
    2.0453   -1.7907   -3.0390 C   0  0  0  0  0  0  0  0  0  0  0  0
    4.1228   -1.5740   -0.7632 O   0  0  0  0  0  0  0  0  0  0  0  0
    4.5072   -2.7514   -0.1435 C   0  0  0  0  0  0  0  0  0  0  0  0
    4.9656    0.6033   -0.1201 O   0  0  0  0  0  0  0  0  0  0  0  0
    5.9585    0.6828    0.8224 C   0  0  0  0  0  0  0  0  0  0  0  0
    0.9351    0.2983   -0.5917 C   0  0  1  0  0  0  0  0  0  0  0  0
   -0.4458   -0.3099   -0.4703 C   0  0  0  0  0  0  0  0  0  0  0  0
   -0.5183   -1.2890    0.6885 C   0  0  0  0  0  0  0  0  0  0  0  0
   -1.0556   -2.6487    0.2793 C   0  0  0  0  0  0  0  0  0  0  0  0
   -2.5775   -2.5386    0.3271 C   0  0  1  0  0  0  0  0  0  0  0  0
   -3.0488   -1.4811   -0.6619 C   0  0  0  0  0  0  0  0  0  0  0  0
   -4.4384   -1.6829   -0.8349 O   0  0  0  0  0  0  0  0  0  0  0  0
   -3.1910   -3.7574    0.0900 O   0  0  0  0  0  0  0  0  0  0  0  0
   -3.9811   -4.1888    1.1382 C   0  0  0  0  0  0  0  0  0  0  0  0
   -5.0700    3.1056    0.1531 H   0  0  0  0  0  0  0  0  0  0  0  0
   -3.0893    3.4873    1.8547 H   0  0  0  0  0  0  0  0  0  0  0  0
   -1.7048    4.5437   -0.5127 H   0  0  0  0  0  0  0  0  0  0  0  0
   -3.2162    5.4502   -0.3958 H   0  0  0  0  0  0  0  0  0  0  0  0
   -2.1892    5.3934    1.0446 H   0  0  0  0  0  0  0  0  0  0  0  0
   -3.4090    2.4473   -0.9093 H   0  0  0  0  0  0  0  0  0  0  0  0
   -1.1305    2.6175   -0.8304 H   0  0  0  0  0  0  0  0  0  0  0  0
   -1.8563    0.6909   -1.7255 H   0  0  0  0  0  0  0  0  0  0  0  0
   -3.6908    0.5102   -0.3869 H   0  0  0  0  0  0  0  0  0  0  0  0
   -2.8626   -0.1213    1.0268 H   0  0  0  0  0  0  0  0  0  0  0  0
   -0.8859    1.3753    1.9605 H   0  0  0  0  0  0  0  0  0  0  0  0
   -1.1153    3.0978    1.6653 H   0  0  0  0  0  0  0  0  0  0  0  0
    0.6624    2.8622   -0.2487 H   0  0  0  0  0  0  0  0  0  0  0  0
    1.1841    3.0877    1.4262 H   0  0  0  0  0  0  0  0  0  0  0  0
    1.3961    0.4767    1.5322 H   0  0  0  0  0  0  0  0  0  0  0  0
    3.0516    2.3641    0.9636 H   0  0  0  0  0  0  0  0  0  0  0  0
    2.7246    1.9126   -0.7989 H   0  0  0  0  0  0  0  0  0  0  0  0
    3.8794    0.3249    1.5483 H   0  0  0  0  0  0  0  0  0  0  0  0
    2.9036   -1.5333    0.8236 H   0  0  0  0  0  0  0  0  0  0  0  0
    1.3952   -1.7562   -0.8995 H   0  0  0  0  0  0  0  0  0  0  0  0
    2.3888   -1.7339   -4.0741 H   0  0  0  0  0  0  0  0  0  0  0  0
    2.6209   -2.6544   -2.5858 H   0  0  0  0  0  0  0  0  0  0  0  0
    0.9824   -2.0852   -2.9358 H   0  0  0  0  0  0  0  0  0  0  0  0
    4.9044   -2.5686    0.8922 H   0  0  0  0  0  0  0  0  0  0  0  0
    3.6000   -3.3714    0.0037 H   0  0  0  0  0  0  0  0  0  0  0  0
    5.2184   -3.3013   -0.7594 H   0  0  0  0  0  0  0  0  0  0  0  0
    6.0785   -0.2276    1.4423 H   0  0  0  0  0  0  0  0  0  0  0  0
    6.9213    0.7852    0.2560 H   0  0  0  0  0  0  0  0  0  0  0  0
    5.8995    1.6041    1.4449 H   0  0  0  0  0  0  0  0  0  0  0  0
    0.8658    1.0439   -1.4210 H   0  0  0  0  0  0  0  0  0  0  0  0
   -0.4652   -1.0126   -1.3743 H   0  0  0  0  0  0  0  0  0  0  0  0
    0.5265   -1.4891    1.0555 H   0  0  0  0  0  0  0  0  0  0  0  0
   -1.0967   -0.9638    1.5419 H   0  0  0  0  0  0  0  0  0  0  0  0
   -0.7510   -3.4155    0.9932 H   0  0  0  0  0  0  0  0  0  0  0  0
   -0.8156   -2.8872   -0.7778 H   0  0  0  0  0  0  0  0  0  0  0  0
   -2.8877   -2.1960    1.3352 H   0  0  0  0  0  0  0  0  0  0  0  0
   -2.6011   -1.6139   -1.6569 H   0  0  0  0  0  0  0  0  0  0  0  0
   -4.7931   -1.0405   -1.5231 H   0  0  0  0  0  0  0  0  0  0  0  0
   -3.4032   -4.3220    2.0783 H   0  0  0  0  0  0  0  0  0  0  0  0
   -4.7882   -3.4451    1.3031 H   0  0  0  0  0  0  0  0  0  0  0  0
   -4.4639   -5.1336    0.8380 H   0  0  0  0  0  0  0  0  0  0  0  0
  1  2  1  0
  2  3  1  0
  2  4  1  0
  4  5  1  0
  5  6  1  0
  6  7  1  0
  5  8  1  0
  8  9  1  0
  9 10  1  0
 10 11  1  0
 11 12  1  0
 12 13  1  0
 13 14  1  0
 14 15  1  0
 15 16  1  0
 13 17  1  0
 17 18  1  0
 12 19  1  0
 19 20  1  0
 10 21  1  0
 14 21  1  0
  6 22  1  0
 21 22  1  0
 22 23  1  0
 23 24  1  0
 24 25  1  0
  7 26  1  0
 25 26  1  0
 26 27  1  0
 25 28  1  0
 28 29  1  0
  1 30  1  0
  2 31  1  0
  3 32  1  0
  3 33  1  0
  3 34  1  0
  4 35  1  0
  5 36  1  6
  6 37  1  0
  7 38  1  0
  7 39  1  0
  8 40  1  0
  8 41  1  0
  9 42  1  0
  9 43  1  0
 10 44  1  1
 11 45  1  0
 11 46  1  0
 12 47  1  0
 13 48  1  0
 14 49  1  0
 16 50  1  0
 16 51  1  0
 16 52  1  0
 18 53  1  0
 18 54  1  0
 18 55  1  0
 20 56  1  0
 20 57  1  0
 20 58  1  0
 21 59  1  6
 22 60  1  0
 23 61  1  0
 23 62  1  0
 24 63  1  0
 24 64  1  0
 25 65  1  1
 26 66  1  0
 27 67  1  0
 29 68  1  0
 29 69  1  0
 29 70  1  0
M  END
>  <PDBID>  (1) 
5EYP

>  <PDB ID>  (1) 
5EYP

>  <Generic Name>  (1) 
Colchicine

>  <Brand Name>  (1) 
Colchicine#Colchicine Tab 0.6mg#Colchicine Tab 1mg#Colcrys#Euro-colchicine#Jamp-colchicine#Mitigare#PMS-colchicine#Probenecid and Colchicine#Verban Ont

>  <DrugBank ID>  (1) 
DB01394

>  <ATC Codes>  (1) 
M04AC01

>  <Ligand ID>  (1) 
LOC

>  <Target Name>  (1) 
Tubulin beta-1 chain

>  <UniProt ID>  (1) 
Q9H4B7

>  <PDB ID.1>  (1) 
5EYP

>  <Seq. Identity>  (1) 
78%

$$$$
