PDB_DB04854_04
     RDKit          3D

108110  0  0  0  0  0  0  0  0999 V2000
   -3.3145    0.7002    1.0698 S   0  0  0  0  0  0  0  0  0  0  0  0
   -2.2732    0.3607   -0.4035 C   0  0  0  0  0  0  0  0  0  0  0  0
   -3.1742   -0.2434   -1.3055 N   0  0  0  0  0  0  0  0  0  0  0  0
   -4.2325   -0.9257   -0.6611 C   0  0  0  0  0  0  0  0  0  0  0  0
   -4.8659    0.0048    0.3574 C   0  0  0  0  0  0  0  0  0  0  0  0
   -1.0483   -0.4064   -0.0630 C   0  0  0  0  0  0  0  0  0  0  0  0
   -0.2067    0.3721    0.9301 C   0  0  0  0  0  0  0  0  0  0  0  0
    0.7473    1.3152    0.1823 C   0  0  0  0  0  0  0  0  0  0  0  0
    1.8761    0.4316   -0.3417 C   0  0  0  0  0  0  0  0  0  0  0  0
    1.2200   -0.7333   -1.0654 C   0  0  0  0  0  0  0  0  0  0  0  0
   -0.2257   -0.5206   -1.3569 C   0  0  0  0  0  0  0  0  0  0  0  0
    1.3112    2.2672    1.1849 C   0  0  0  0  0  0  0  0  0  0  0  0
    2.0389    1.5339    2.2261 N   0  0  0  0  0  0  0  0  0  0  0  0
    2.7750    1.0984   -1.0788 O   0  0  0  0  0  0  0  0  0  0  0  0
    4.0693    1.1950   -0.7560 C   0  0  0  0  0  0  0  0  0  0  0  0
    4.8844   -0.0301   -0.7360 C   0  0  0  0  0  0  0  0  0  0  0  0
    4.5368   -1.1306    0.1867 C   0  0  0  0  0  0  0  0  0  0  0  0
    6.3677    0.3095   -0.4598 C   0  0  0  0  0  0  0  0  0  0  0  0
   -3.8833   -2.2443   -0.0597 C   0  0  0  0  0  0  0  0  0  0  0  0
   -5.6212   -0.6869    1.4333 C   0  0  0  0  0  0  0  0  0  0  0  0
   -5.9049    0.2861    2.4199 O   0  0  0  0  0  0  0  0  0  0  0  0
   -6.8372   -1.1647    0.9608 O   0  0  0  0  0  0  0  0  0  0  0  0
   -3.3145    0.7002    1.0698 S   0  0  0  0  0  0  0  0  0  0  0  0
   -2.2732    0.3607   -0.4035 C   0  0  0  0  0  0  0  0  0  0  0  0
   -3.1742   -0.2434   -1.3055 N   0  0  0  0  0  0  0  0  0  0  0  0
   -4.2325   -0.9257   -0.6611 C   0  0  0  0  0  0  0  0  0  0  0  0
   -4.8659    0.0048    0.3574 C   0  0  0  0  0  0  0  0  0  0  0  0
   -1.0483   -0.4064   -0.0630 C   0  0  0  0  0  0  0  0  0  0  0  0
   -0.2067    0.3721    0.9301 C   0  0  0  0  0  0  0  0  0  0  0  0
    0.7473    1.3152    0.1823 C   0  0  0  0  0  0  0  0  0  0  0  0
    1.8761    0.4316   -0.3417 C   0  0  0  0  0  0  0  0  0  0  0  0
    1.2200   -0.7333   -1.0654 C   0  0  0  0  0  0  0  0  0  0  0  0
   -0.2257   -0.5206   -1.3569 C   0  0  0  0  0  0  0  0  0  0  0  0
    1.3112    2.2672    1.1849 C   0  0  0  0  0  0  0  0  0  0  0  0
    2.0389    1.5339    2.2261 N   0  0  0  0  0  0  0  0  0  0  0  0
    2.7750    1.0984   -1.0788 O   0  0  0  0  0  0  0  0  0  0  0  0
    4.0693    1.1950   -0.7560 C   0  0  0  0  0  0  0  0  0  0  0  0
    4.8844   -0.0301   -0.7360 C   0  0  0  0  0  0  0  0  0  0  0  0
    4.5368   -1.1306    0.1867 C   0  0  0  0  0  0  0  0  0  0  0  0
    6.3677    0.3095   -0.4598 C   0  0  0  0  0  0  0  0  0  0  0  0
   -3.8833   -2.2443   -0.0597 C   0  0  0  0  0  0  0  0  0  0  0  0
   -5.6212   -0.6869    1.4333 C   0  0  0  0  0  0  0  0  0  0  0  0
   -5.9049    0.2861    2.4199 O   0  0  0  0  0  0  0  0  0  0  0  0
   -6.8372   -1.1647    0.9608 O   0  0  0  0  0  0  0  0  0  0  0  0
   -2.0129    1.3825   -0.8068 H   0  0  0  0  0  0  0  0  0  0  0  0
   -2.7498   -0.8515   -2.0072 H   0  0  0  0  0  0  0  0  0  0  0  0
   -5.0294   -1.0998   -1.4309 H   0  0  0  0  0  0  0  0  0  0  0  0
   -5.4246    0.8203   -0.1091 H   0  0  0  0  0  0  0  0  0  0  0  0
   -1.2707   -1.4195    0.2731 H   0  0  0  0  0  0  0  0  0  0  0  0
   -0.7891    0.9764    1.6229 H   0  0  0  0  0  0  0  0  0  0  0  0
    0.3992   -0.3640    1.4965 H   0  0  0  0  0  0  0  0  0  0  0  0
    0.2058    1.8410   -0.6004 H   0  0  0  0  0  0  0  0  0  0  0  0
    2.3357    0.0033    0.5659 H   0  0  0  0  0  0  0  0  0  0  0  0
    1.7389   -0.8893   -2.0260 H   0  0  0  0  0  0  0  0  0  0  0  0
    1.3189   -1.6921   -0.5021 H   0  0  0  0  0  0  0  0  0  0  0  0
   -0.3937    0.4098   -1.9172 H   0  0  0  0  0  0  0  0  0  0  0  0
   -0.5826   -1.3461   -1.9834 H   0  0  0  0  0  0  0  0  0  0  0  0
    0.5232    2.8293    1.7271 H   0  0  0  0  0  0  0  0  0  0  0  0
    2.0334    2.9622    0.6891 H   0  0  0  0  0  0  0  0  0  0  0  0
    2.4294    2.2564    2.9009 H   0  0  0  0  0  0  0  0  0  0  0  0
    1.3116    0.9850    2.7482 H   0  0  0  0  0  0  0  0  0  0  0  0
    4.5892    1.9141   -1.4774 H   0  0  0  0  0  0  0  0  0  0  0  0
    4.2510    1.7128    0.2376 H   0  0  0  0  0  0  0  0  0  0  0  0
    4.9478   -0.4947   -1.7783 H   0  0  0  0  0  0  0  0  0  0  0  0
    5.4423   -1.8365    0.2703 H   0  0  0  0  0  0  0  0  0  0  0  0
    3.7031   -1.7755   -0.0778 H   0  0  0  0  0  0  0  0  0  0  0  0
    4.4078   -0.7793    1.2466 H   0  0  0  0  0  0  0  0  0  0  0  0
    6.5242    0.5722    0.5906 H   0  0  0  0  0  0  0  0  0  0  0  0
    7.0017   -0.5430   -0.7110 H   0  0  0  0  0  0  0  0  0  0  0  0
    6.6602    1.1624   -1.1211 H   0  0  0  0  0  0  0  0  0  0  0  0
   -4.8518   -2.8125    0.0646 H   0  0  0  0  0  0  0  0  0  0  0  0
   -3.4298   -2.2147    0.9292 H   0  0  0  0  0  0  0  0  0  0  0  0
   -3.2787   -2.8380   -0.7662 H   0  0  0  0  0  0  0  0  0  0  0  0
   -5.0238   -1.4473    1.9303 H   0  0  0  0  0  0  0  0  0  0  0  0
   -5.9095    1.1969    2.0434 H   0  0  0  0  0  0  0  0  0  0  0  0
   -7.3161   -0.4096    0.5261 H   0  0  0  0  0  0  0  0  0  0  0  0
   -2.0129    1.3825   -0.8068 H   0  0  0  0  0  0  0  0  0  0  0  0
   -2.7498   -0.8515   -2.0072 H   0  0  0  0  0  0  0  0  0  0  0  0
   -5.0294   -1.0998   -1.4309 H   0  0  0  0  0  0  0  0  0  0  0  0
   -5.4246    0.8203   -0.1091 H   0  0  0  0  0  0  0  0  0  0  0  0
   -1.2707   -1.4195    0.2731 H   0  0  0  0  0  0  0  0  0  0  0  0
   -0.7891    0.9764    1.6229 H   0  0  0  0  0  0  0  0  0  0  0  0
    0.3992   -0.3640    1.4965 H   0  0  0  0  0  0  0  0  0  0  0  0
    0.2058    1.8410   -0.6004 H   0  0  0  0  0  0  0  0  0  0  0  0
    2.3357    0.0033    0.5659 H   0  0  0  0  0  0  0  0  0  0  0  0
    1.7389   -0.8893   -2.0260 H   0  0  0  0  0  0  0  0  0  0  0  0
    1.3189   -1.6921   -0.5021 H   0  0  0  0  0  0  0  0  0  0  0  0
   -0.3937    0.4098   -1.9172 H   0  0  0  0  0  0  0  0  0  0  0  0
   -0.5826   -1.3461   -1.9834 H   0  0  0  0  0  0  0  0  0  0  0  0
    0.5232    2.8293    1.7271 H   0  0  0  0  0  0  0  0  0  0  0  0
    2.0334    2.9622    0.6891 H   0  0  0  0  0  0  0  0  0  0  0  0
    2.4294    2.2564    2.9009 H   0  0  0  0  0  0  0  0  0  0  0  0
    1.3116    0.9850    2.7482 H   0  0  0  0  0  0  0  0  0  0  0  0
    4.5892    1.9141   -1.4774 H   0  0  0  0  0  0  0  0  0  0  0  0
    4.2510    1.7128    0.2376 H   0  0  0  0  0  0  0  0  0  0  0  0
    4.9478   -0.4947   -1.7783 H   0  0  0  0  0  0  0  0  0  0  0  0
    5.4423   -1.8365    0.2703 H   0  0  0  0  0  0  0  0  0  0  0  0
    3.7031   -1.7755   -0.0778 H   0  0  0  0  0  0  0  0  0  0  0  0
    4.4078   -0.7793    1.2466 H   0  0  0  0  0  0  0  0  0  0  0  0
    6.5242    0.5722    0.5906 H   0  0  0  0  0  0  0  0  0  0  0  0
    7.0017   -0.5430   -0.7110 H   0  0  0  0  0  0  0  0  0  0  0  0
    6.6602    1.1624   -1.1211 H   0  0  0  0  0  0  0  0  0  0  0  0
   -4.8518   -2.8125    0.0646 H   0  0  0  0  0  0  0  0  0  0  0  0
   -3.4298   -2.2147    0.9292 H   0  0  0  0  0  0  0  0  0  0  0  0
   -3.2787   -2.8380   -0.7662 H   0  0  0  0  0  0  0  0  0  0  0  0
   -5.0238   -1.4473    1.9303 H   0  0  0  0  0  0  0  0  0  0  0  0
   -5.9095    1.1969    2.0434 H   0  0  0  0  0  0  0  0  0  0  0  0
   -7.3161   -0.4096    0.5261 H   0  0  0  0  0  0  0  0  0  0  0  0
  1  2  1  0
  2  3  1  0
  3  4  1  0
  1  5  1  0
  4  5  1  0
  2  6  1  0
  6  7  1  0
  7  8  1  0
  8  9  1  0
  9 10  1  0
  6 11  1  0
 10 11  1  0
  8 12  1  0
 12 13  1  0
  9 14  1  0
 14 15  1  0
 15 16  1  0
 16 17  1  0
 16 18  1  0
  4 19  1  0
  5 20  1  0
 20 21  1  0
 20 22  1  0
 23 24  1  0
 24 25  1  0
 25 26  1  0
 23 27  1  0
 26 27  1  0
 24 28  1  0
 28 29  1  0
 29 30  1  0
 30 31  1  0
 31 32  1  0
 28 33  1  0
 32 33  1  0
 30 34  1  0
 34 35  1  0
 31 36  1  0
 36 37  1  0
 37 38  1  0
 38 39  1  0
 38 40  1  0
 26 41  1  0
 27 42  1  0
 42 43  1  0
 42 44  1  0
  2 45  1  0
  3 46  1  0
  4 47  1  0
  5 48  1  0
  6 49  1  0
  7 50  1  0
  7 51  1  0
  8 52  1  0
  9 53  1  0
 10 54  1  0
 10 55  1  0
 11 56  1  0
 11 57  1  0
 12 58  1  0
 12 59  1  0
 13 60  1  0
 13 61  1  0
 15 62  1  0
 15 63  1  0
 16 64  1  0
 17 65  1  0
 17 66  1  0
 17 67  1  0
 18 68  1  0
 18 69  1  0
 18 70  1  0
 19 71  1  0
 19 72  1  0
 19 73  1  0
 20 74  1  0
 21 75  1  0
 22 76  1  0
 24 77  1  0
 25 78  1  0
 26 79  1  0
 27 80  1  0
 28 81  1  0
 29 82  1  0
 29 83  1  0
 30 84  1  0
 31 85  1  0
 32 86  1  0
 32 87  1  0
 33 88  1  0
 33 89  1  0
 34 90  1  0
 34 91  1  0
 35 92  1  0
 35 93  1  0
 37 94  1  0
 37 95  1  0
 38 96  1  0
 39 97  1  0
 39 98  1  0
 39 99  1  0
 40100  1  0
 40101  1  0
 40102  1  0
 41103  1  0
 41104  1  0
 41105  1  0
 42106  1  0
 43107  1  0
 44108  1  0
M  END
>  <PDBID>  (1) 
1N5X

>  <PDB ID>  (1) 
1N5X

>  <Generic Name>  (1) 
Febuxostat

>  <Brand Name>  (1) 
Febuxostat#Uloric#Adenuric#Atenurix#Barif#Feburic

>  <DrugBank ID>  (1) 
DB04854

>  <ATC Codes>  (1) 
M04AA03

>  <Ligand ID>  (1) 
TEI

>  <Target Name>  (1) 
Xanthine dehydrogenase/oxidase

>  <UniProt ID>  (1) 
P47989

>  <PDB ID.1>  (1) 
1N5X

>  <Seq. Identity>  (1) 
85%

$$$$
