PDB_DB01229_05
     RDKit          3D

290302  0  0  0  0  0  0  0  0999 V2000
   -2.0252    2.3009    0.1210 O   0  0  0  0  0  0  0  0  0  0  0  0
   -1.8598    0.9192    0.3045 C   0  0  1  0  0  0  0  0  0  0  0  0
   -3.1686    0.3222   -0.0873 C   0  0  1  0  0  0  0  0  0  0  0  0
   -3.7756    1.0875   -1.0776 O   0  0  0  0  0  0  0  0  0  0  0  0
   -4.9733    1.6360   -0.7242 C   0  0  0  0  0  0  0  0  0  0  0  0
   -6.0192    0.7868   -1.3502 O   0  0  0  0  0  0  0  0  0  0  0  0
   -5.2905    2.9455   -1.3414 C   0  0  0  0  0  0  0  0  0  0  0  0
   -4.3863    4.0931   -1.1006 C   0  0  0  0  0  0  0  0  0  0  0  0
   -4.4426    4.5532    0.3252 C   0  0  0  0  0  0  0  0  0  0  0  0
   -5.8633    5.0280    0.5784 C   0  0  0  0  0  0  0  0  0  0  0  0
   -6.7959    4.7320   -0.5466 C   0  0  0  0  0  0  0  0  0  0  0  0
   -6.7506    3.3230   -1.0500 C   0  0  0  0  0  0  0  0  0  0  0  0
   -3.1481   -1.1015   -0.4997 C   0  0  2  0  0  0  0  0  0  0  0  0
   -3.4248   -1.5139   -1.8796 C   0  0  2  0  0  0  0  0  0  0  0  0
   -3.2914   -0.7055   -2.8669 O   0  0  0  0  0  0  0  0  0  0  0  0
   -2.7084    0.1075   -3.6000 C   0  0  0  0  0  0  0  0  0  0  0  0
   -2.2316   -0.5004   -4.8728 O   0  0  0  0  0  0  0  0  0  0  0  0
   -3.3635    1.3897   -4.1199 C   0  0  0  0  0  0  0  0  0  0  0  0
   -4.5026   -2.5316   -2.1760 C   0  0  0  0  0  0  0  0  0  0  0  0
   -3.5580   -3.0783   -3.0933 O   0  0  0  0  0  0  0  0  0  0  0  0
   -2.6666   -2.8536   -2.0449 C   0  0  2  0  0  0  0  0  0  0  0  0
   -2.8112   -3.8380   -0.9839 C   0  0  0  0  0  0  0  0  0  0  0  0
   -3.2721   -3.4643    0.3562 C   0  0  2  0  0  0  0  0  0  0  0  0
   -4.2843   -4.3144    0.8903 O   0  0  0  0  0  0  0  0  0  0  0  0
   -3.7054   -2.0294    0.5712 C   0  0  2  0  0  0  0  0  0  0  0  0
   -5.2261   -2.0324    0.5885 C   0  0  0  0  0  0  0  0  0  0  0  0
   -3.3215   -1.6111    1.9673 C   0  0  0  0  0  0  0  0  0  0  0  0
   -4.0149   -2.6429    2.7164 O   0  0  0  0  0  0  0  0  0  0  0  0
   -1.9627   -1.5553    2.4469 C   0  0  2  0  0  0  0  0  0  0  0  0
   -2.1422   -1.7060    3.8765 O   0  0  0  0  0  0  0  0  0  0  0  0
   -1.6263   -2.7942    4.4267 C   0  0  0  0  0  0  0  0  0  0  0  0
   -0.6576   -2.4717    5.3675 O   0  0  0  0  0  0  0  0  0  0  0  0
   -2.5336   -3.8074    5.0317 C   0  0  0  0  0  0  0  0  0  0  0  0
   -1.0279   -0.4507    2.2192 C   0  0  1  0  0  0  0  0  0  0  0  0
    0.2587   -0.7794    1.4743 C   0  0  0  0  0  0  0  0  0  0  0  0
    0.5376   -0.0568    0.2289 C   0  0  1  0  0  0  0  0  0  0  0  0
    1.1062   -0.9155   -0.7138 O   0  0  0  0  0  0  0  0  0  0  0  0
    2.1161   -0.5218   -1.4976 C   0  0  0  0  0  0  0  0  0  0  0  0
    1.5066   -0.2818   -2.7874 O   0  0  0  0  0  0  0  0  0  0  0  0
    3.2916   -1.3678   -1.7194 C   0  0  2  0  0  0  0  0  0  0  0  0
    2.9382   -2.7185   -2.0025 O   0  0  0  0  0  0  0  0  0  0  0  0
    4.5641   -1.2913   -1.0539 C   0  0  1  0  0  0  0  0  0  0  0  0
    5.0141    0.1015   -0.7880 N   0  0  0  0  0  0  0  0  0  0  0  0
    5.2739    0.8367   -1.9779 C   0  0  0  0  0  0  0  0  0  0  0  0
    5.5274   -0.0115   -3.0666 O   0  0  0  0  0  0  0  0  0  0  0  0
    6.5066    1.7142   -1.8663 C   0  0  0  0  0  0  0  0  0  0  0  0
    6.3975    2.7398   -0.7486 C   0  0  0  0  0  0  0  0  0  0  0  0
    7.4459    3.7868   -1.0428 C   0  0  0  0  0  0  0  0  0  0  0  0
    8.8002    3.1344   -1.0603 C   0  0  0  0  0  0  0  0  0  0  0  0
    8.7087    1.6887   -0.7037 C   0  0  0  0  0  0  0  0  0  0  0  0
    7.7842    0.9409   -1.6654 C   0  0  0  0  0  0  0  0  0  0  0  0
    4.8175   -2.1076    0.1966 C   0  0  0  0  0  0  0  0  0  0  0  0
    3.9864   -1.7600    1.3616 C   0  0  0  0  0  0  0  0  0  0  0  0
    4.6560   -0.9918    2.4710 C   0  0  0  0  0  0  0  0  0  0  0  0
    6.0746   -1.3017    2.7384 C   0  0  0  0  0  0  0  0  0  0  0  0
    6.8336   -1.1886    1.4249 C   0  0  0  0  0  0  0  0  0  0  0  0
    6.2661   -2.2627    0.5393 C   0  0  0  0  0  0  0  0  0  0  0  0
   -0.6702    0.5363   -0.4705 C   0  0  0  0  0  0  0  0  0  0  0  0
    0.4147   -2.2696    1.2232 C   0  0  0  0  0  0  0  0  0  0  0  0
   -1.5451    0.8843    1.7872 C   0  0  0  0  0  0  0  0  0  0  0  0
   -2.6179    1.4475    2.6710 C   0  0  0  0  0  0  0  0  0  0  0  0
   -0.3653    1.8607    1.9563 C   0  0  0  0  0  0  0  0  0  0  0  0
   -2.0252    2.3009    0.1210 O   0  0  0  0  0  0  0  0  0  0  0  0
   -1.8598    0.9192    0.3045 C   0  0  1  0  0  0  0  0  0  0  0  0
   -3.1686    0.3222   -0.0873 C   0  0  1  0  0  0  0  0  0  0  0  0
   -3.7756    1.0875   -1.0776 O   0  0  0  0  0  0  0  0  0  0  0  0
   -4.9733    1.6360   -0.7242 C   0  0  0  0  0  0  0  0  0  0  0  0
   -6.0192    0.7868   -1.3502 O   0  0  0  0  0  0  0  0  0  0  0  0
   -5.2905    2.9455   -1.3414 C   0  0  0  0  0  0  0  0  0  0  0  0
   -4.3863    4.0931   -1.1006 C   0  0  0  0  0  0  0  0  0  0  0  0
   -4.4426    4.5532    0.3252 C   0  0  0  0  0  0  0  0  0  0  0  0
   -5.8633    5.0280    0.5784 C   0  0  0  0  0  0  0  0  0  0  0  0
   -6.7959    4.7320   -0.5466 C   0  0  0  0  0  0  0  0  0  0  0  0
   -6.7506    3.3230   -1.0500 C   0  0  0  0  0  0  0  0  0  0  0  0
   -3.1481   -1.1015   -0.4997 C   0  0  2  0  0  0  0  0  0  0  0  0
   -3.4248   -1.5139   -1.8796 C   0  0  2  0  0  0  0  0  0  0  0  0
   -3.2914   -0.7055   -2.8669 O   0  0  0  0  0  0  0  0  0  0  0  0
   -2.7084    0.1075   -3.6000 C   0  0  0  0  0  0  0  0  0  0  0  0
   -2.2316   -0.5004   -4.8728 O   0  0  0  0  0  0  0  0  0  0  0  0
   -3.3635    1.3897   -4.1199 C   0  0  0  0  0  0  0  0  0  0  0  0
   -4.5026   -2.5316   -2.1760 C   0  0  0  0  0  0  0  0  0  0  0  0
   -3.5580   -3.0783   -3.0933 O   0  0  0  0  0  0  0  0  0  0  0  0
   -2.6666   -2.8536   -2.0449 C   0  0  2  0  0  0  0  0  0  0  0  0
   -2.8112   -3.8380   -0.9839 C   0  0  0  0  0  0  0  0  0  0  0  0
   -3.2721   -3.4643    0.3562 C   0  0  2  0  0  0  0  0  0  0  0  0
   -4.2843   -4.3144    0.8903 O   0  0  0  0  0  0  0  0  0  0  0  0
   -3.7054   -2.0294    0.5712 C   0  0  2  0  0  0  0  0  0  0  0  0
   -5.2261   -2.0324    0.5885 C   0  0  0  0  0  0  0  0  0  0  0  0
   -3.3215   -1.6111    1.9673 C   0  0  0  0  0  0  0  0  0  0  0  0
   -4.0149   -2.6429    2.7164 O   0  0  0  0  0  0  0  0  0  0  0  0
   -1.9627   -1.5553    2.4469 C   0  0  2  0  0  0  0  0  0  0  0  0
   -2.1422   -1.7060    3.8765 O   0  0  0  0  0  0  0  0  0  0  0  0
   -1.6263   -2.7942    4.4267 C   0  0  0  0  0  0  0  0  0  0  0  0
   -0.6576   -2.4717    5.3675 O   0  0  0  0  0  0  0  0  0  0  0  0
   -2.5336   -3.8074    5.0317 C   0  0  0  0  0  0  0  0  0  0  0  0
   -1.0279   -0.4507    2.2192 C   0  0  1  0  0  0  0  0  0  0  0  0
    0.2587   -0.7794    1.4743 C   0  0  0  0  0  0  0  0  0  0  0  0
    0.5376   -0.0568    0.2289 C   0  0  1  0  0  0  0  0  0  0  0  0
    1.1062   -0.9155   -0.7138 O   0  0  0  0  0  0  0  0  0  0  0  0
    2.1161   -0.5218   -1.4976 C   0  0  0  0  0  0  0  0  0  0  0  0
    1.5066   -0.2818   -2.7874 O   0  0  0  0  0  0  0  0  0  0  0  0
    3.2916   -1.3678   -1.7194 C   0  0  2  0  0  0  0  0  0  0  0  0
    2.9382   -2.7185   -2.0025 O   0  0  0  0  0  0  0  0  0  0  0  0
    4.5641   -1.2913   -1.0539 C   0  0  1  0  0  0  0  0  0  0  0  0
    5.0141    0.1015   -0.7880 N   0  0  0  0  0  0  0  0  0  0  0  0
    5.2739    0.8367   -1.9779 C   0  0  0  0  0  0  0  0  0  0  0  0
    5.5274   -0.0115   -3.0666 O   0  0  0  0  0  0  0  0  0  0  0  0
    6.5066    1.7142   -1.8663 C   0  0  0  0  0  0  0  0  0  0  0  0
    6.3975    2.7398   -0.7486 C   0  0  0  0  0  0  0  0  0  0  0  0
    7.4459    3.7868   -1.0428 C   0  0  0  0  0  0  0  0  0  0  0  0
    8.8002    3.1344   -1.0603 C   0  0  0  0  0  0  0  0  0  0  0  0
    8.7087    1.6887   -0.7037 C   0  0  0  0  0  0  0  0  0  0  0  0
    7.7842    0.9409   -1.6654 C   0  0  0  0  0  0  0  0  0  0  0  0
    4.8175   -2.1076    0.1966 C   0  0  0  0  0  0  0  0  0  0  0  0
    3.9864   -1.7600    1.3616 C   0  0  0  0  0  0  0  0  0  0  0  0
    4.6560   -0.9918    2.4710 C   0  0  0  0  0  0  0  0  0  0  0  0
    6.0746   -1.3017    2.7384 C   0  0  0  0  0  0  0  0  0  0  0  0
    6.8336   -1.1886    1.4249 C   0  0  0  0  0  0  0  0  0  0  0  0
    6.2661   -2.2627    0.5393 C   0  0  0  0  0  0  0  0  0  0  0  0
   -0.6702    0.5363   -0.4705 C   0  0  0  0  0  0  0  0  0  0  0  0
    0.4147   -2.2696    1.2232 C   0  0  0  0  0  0  0  0  0  0  0  0
   -1.5451    0.8843    1.7872 C   0  0  0  0  0  0  0  0  0  0  0  0
   -2.6179    1.4475    2.6710 C   0  0  0  0  0  0  0  0  0  0  0  0
   -0.3653    1.8607    1.9563 C   0  0  0  0  0  0  0  0  0  0  0  0
   -1.5078    2.5982   -0.6400 H   0  0  0  0  0  0  0  0  0  0  0  0
   -3.8747    0.4244    0.7760 H   0  0  0  0  0  0  0  0  0  0  0  0
   -5.1796    1.5006    0.3420 H   0  0  0  0  0  0  0  0  0  0  0  0
   -6.6858    0.6114   -0.6549 H   0  0  0  0  0  0  0  0  0  0  0  0
   -5.2726    2.7729   -2.4656 H   0  0  0  0  0  0  0  0  0  0  0  0
   -3.3673    3.8524   -1.4242 H   0  0  0  0  0  0  0  0  0  0  0  0
   -4.7025    4.9637   -1.7730 H   0  0  0  0  0  0  0  0  0  0  0  0
   -4.1704    3.7219    0.9913 H   0  0  0  0  0  0  0  0  0  0  0  0
   -3.6990    5.3799    0.4303 H   0  0  0  0  0  0  0  0  0  0  0  0
   -5.8064    6.1326    0.7417 H   0  0  0  0  0  0  0  0  0  0  0  0
   -6.2300    4.5443    1.4849 H   0  0  0  0  0  0  0  0  0  0  0  0
   -7.8592    4.9522   -0.2268 H   0  0  0  0  0  0  0  0  0  0  0  0
   -6.5855    5.4172   -1.3978 H   0  0  0  0  0  0  0  0  0  0  0  0
   -7.1826    2.6096   -0.3110 H   0  0  0  0  0  0  0  0  0  0  0  0
   -7.3372    3.2336   -1.9680 H   0  0  0  0  0  0  0  0  0  0  0  0
   -2.0090   -1.3713   -0.3746 H   0  0  0  0  0  0  0  0  0  0  0  0
   -1.7078    0.4125   -3.2496 H   0  0  0  0  0  0  0  0  0  0  0  0
   -2.9893   -0.4091   -5.5124 H   0  0  0  0  0  0  0  0  0  0  0  0
   -3.1620    2.2682   -3.4758 H   0  0  0  0  0  0  0  0  0  0  0  0
   -2.9824    1.6765   -5.1214 H   0  0  0  0  0  0  0  0  0  0  0  0
   -4.4770    1.2762   -4.1257 H   0  0  0  0  0  0  0  0  0  0  0  0
   -4.7713   -3.3132   -1.5286 H   0  0  0  0  0  0  0  0  0  0  0  0
   -5.4020   -2.1325   -2.6979 H   0  0  0  0  0  0  0  0  0  0  0  0
   -1.6543   -2.6369   -2.4544 H   0  0  0  0  0  0  0  0  0  0  0  0
   -3.4066   -4.7579   -1.2926 H   0  0  0  0  0  0  0  0  0  0  0  0
   -1.7746   -4.3234   -0.9044 H   0  0  0  0  0  0  0  0  0  0  0  0
   -2.4459   -3.6545    1.0806 H   0  0  0  0  0  0  0  0  0  0  0  0
   -4.6758   -4.9140    0.2411 H   0  0  0  0  0  0  0  0  0  0  0  0
   -5.6322   -1.3962    1.4438 H   0  0  0  0  0  0  0  0  0  0  0  0
   -5.6589   -3.0304    0.8437 H   0  0  0  0  0  0  0  0  0  0  0  0
   -5.6974   -1.5723   -0.2815 H   0  0  0  0  0  0  0  0  0  0  0  0
   -3.9923   -0.7711    2.2304 H   0  0  0  0  0  0  0  0  0  0  0  0
   -4.4148   -2.2501    3.5105 H   0  0  0  0  0  0  0  0  0  0  0  0
   -1.4162   -2.4881    2.2324 H   0  0  0  0  0  0  0  0  0  0  0  0
   -1.0801   -3.3613    3.6110 H   0  0  0  0  0  0  0  0  0  0  0  0
    0.2539   -2.7940    5.1341 H   0  0  0  0  0  0  0  0  0  0  0  0
   -1.9279   -4.4151    5.7642 H   0  0  0  0  0  0  0  0  0  0  0  0
   -3.4214   -3.4657    5.5400 H   0  0  0  0  0  0  0  0  0  0  0  0
   -2.8451   -4.5813    4.2708 H   0  0  0  0  0  0  0  0  0  0  0  0
   -0.6368   -0.1405    3.2565 H   0  0  0  0  0  0  0  0  0  0  0  0
    1.1533   -0.5666    2.1472 H   0  0  0  0  0  0  0  0  0  0  0  0
    1.2800    0.7726    0.2644 H   0  0  0  0  0  0  0  0  0  0  0  0
    2.3788    0.5355   -1.2032 H   0  0  0  0  0  0  0  0  0  0  0  0
    2.1136    0.2953   -3.3229 H   0  0  0  0  0  0  0  0  0  0  0  0
    3.6089   -1.0988   -2.8726 H   0  0  0  0  0  0  0  0  0  0  0  0
    3.6860   -3.1321   -2.4972 H   0  0  0  0  0  0  0  0  0  0  0  0
    5.3791   -1.6513   -1.7629 H   0  0  0  0  0  0  0  0  0  0  0  0
    4.4278    0.5691   -0.0908 H   0  0  0  0  0  0  0  0  0  0  0  0
    4.4212    1.4917   -2.2123 H   0  0  0  0  0  0  0  0  0  0  0  0
    6.1399    0.4111   -3.6950 H   0  0  0  0  0  0  0  0  0  0  0  0
    6.5911    2.2749   -2.8148 H   0  0  0  0  0  0  0  0  0  0  0  0
    6.6231    2.2924    0.2311 H   0  0  0  0  0  0  0  0  0  0  0  0
    5.4186    3.2496   -0.8149 H   0  0  0  0  0  0  0  0  0  0  0  0
    7.2353    4.2862   -2.0346 H   0  0  0  0  0  0  0  0  0  0  0  0
    7.4196    4.6355   -0.3123 H   0  0  0  0  0  0  0  0  0  0  0  0
    9.3041    3.2807   -2.0513 H   0  0  0  0  0  0  0  0  0  0  0  0
    9.4399    3.6512   -0.3149 H   0  0  0  0  0  0  0  0  0  0  0  0
    8.4997    1.5108    0.3448 H   0  0  0  0  0  0  0  0  0  0  0  0
    9.7211    1.2228   -0.8899 H   0  0  0  0  0  0  0  0  0  0  0  0
    8.3302    0.8885   -2.6286 H   0  0  0  0  0  0  0  0  0  0  0  0
    7.6549   -0.0801   -1.3135 H   0  0  0  0  0  0  0  0  0  0  0  0
    4.4999   -3.1559   -0.1200 H   0  0  0  0  0  0  0  0  0  0  0  0
    3.5279   -2.6646    1.8006 H   0  0  0  0  0  0  0  0  0  0  0  0
    3.1238   -1.0873    1.0674 H   0  0  0  0  0  0  0  0  0  0  0  0
    4.5031    0.1211    2.3537 H   0  0  0  0  0  0  0  0  0  0  0  0
    4.0825   -1.2196    3.4171 H   0  0  0  0  0  0  0  0  0  0  0  0
    6.4758   -0.5761    3.4470 H   0  0  0  0  0  0  0  0  0  0  0  0
    6.1664   -2.3484    3.0993 H   0  0  0  0  0  0  0  0  0  0  0  0
    7.8747   -1.5003    1.6580 H   0  0  0  0  0  0  0  0  0  0  0  0
    6.7417   -0.2109    0.9689 H   0  0  0  0  0  0  0  0  0  0  0  0
    6.8602   -2.3753   -0.4012 H   0  0  0  0  0  0  0  0  0  0  0  0
    6.3853   -3.2637    1.0502 H   0  0  0  0  0  0  0  0  0  0  0  0
   -0.2613    1.4063   -1.0905 H   0  0  0  0  0  0  0  0  0  0  0  0
   -0.9466   -0.1721   -1.2640 H   0  0  0  0  0  0  0  0  0  0  0  0
    0.6983   -2.8329    2.1086 H   0  0  0  0  0  0  0  0  0  0  0  0
    1.3094   -2.3501    0.5298 H   0  0  0  0  0  0  0  0  0  0  0  0
   -0.3719   -2.7075    0.5820 H   0  0  0  0  0  0  0  0  0  0  0  0
   -3.5358    1.7711    2.1856 H   0  0  0  0  0  0  0  0  0  0  0  0
   -2.3052    2.4121    3.1946 H   0  0  0  0  0  0  0  0  0  0  0  0
   -2.8010    0.7950    3.5778 H   0  0  0  0  0  0  0  0  0  0  0  0
   -0.5988    2.6586    2.7324 H   0  0  0  0  0  0  0  0  0  0  0  0
    0.5169    1.3705    2.4164 H   0  0  0  0  0  0  0  0  0  0  0  0
   -0.1800    2.4539    1.0611 H   0  0  0  0  0  0  0  0  0  0  0  0
   -1.5078    2.5982   -0.6400 H   0  0  0  0  0  0  0  0  0  0  0  0
   -3.8747    0.4244    0.7760 H   0  0  0  0  0  0  0  0  0  0  0  0
   -5.1796    1.5006    0.3420 H   0  0  0  0  0  0  0  0  0  0  0  0
   -6.6858    0.6114   -0.6549 H   0  0  0  0  0  0  0  0  0  0  0  0
   -5.2726    2.7729   -2.4656 H   0  0  0  0  0  0  0  0  0  0  0  0
   -3.3673    3.8524   -1.4242 H   0  0  0  0  0  0  0  0  0  0  0  0
   -4.7025    4.9637   -1.7730 H   0  0  0  0  0  0  0  0  0  0  0  0
   -4.1704    3.7219    0.9913 H   0  0  0  0  0  0  0  0  0  0  0  0
   -3.6990    5.3799    0.4303 H   0  0  0  0  0  0  0  0  0  0  0  0
   -5.8064    6.1326    0.7417 H   0  0  0  0  0  0  0  0  0  0  0  0
   -6.2300    4.5443    1.4849 H   0  0  0  0  0  0  0  0  0  0  0  0
   -7.8592    4.9522   -0.2268 H   0  0  0  0  0  0  0  0  0  0  0  0
   -6.5855    5.4172   -1.3978 H   0  0  0  0  0  0  0  0  0  0  0  0
   -7.1826    2.6096   -0.3110 H   0  0  0  0  0  0  0  0  0  0  0  0
   -7.3372    3.2336   -1.9680 H   0  0  0  0  0  0  0  0  0  0  0  0
   -2.0090   -1.3713   -0.3746 H   0  0  0  0  0  0  0  0  0  0  0  0
   -1.7078    0.4125   -3.2496 H   0  0  0  0  0  0  0  0  0  0  0  0
   -2.9893   -0.4091   -5.5124 H   0  0  0  0  0  0  0  0  0  0  0  0
   -3.1620    2.2682   -3.4758 H   0  0  0  0  0  0  0  0  0  0  0  0
   -2.9824    1.6765   -5.1214 H   0  0  0  0  0  0  0  0  0  0  0  0
   -4.4770    1.2762   -4.1257 H   0  0  0  0  0  0  0  0  0  0  0  0
   -4.7713   -3.3132   -1.5286 H   0  0  0  0  0  0  0  0  0  0  0  0
   -5.4020   -2.1325   -2.6979 H   0  0  0  0  0  0  0  0  0  0  0  0
   -1.6543   -2.6369   -2.4544 H   0  0  0  0  0  0  0  0  0  0  0  0
   -3.4066   -4.7579   -1.2926 H   0  0  0  0  0  0  0  0  0  0  0  0
   -1.7746   -4.3234   -0.9044 H   0  0  0  0  0  0  0  0  0  0  0  0
   -2.4459   -3.6545    1.0806 H   0  0  0  0  0  0  0  0  0  0  0  0
   -4.6758   -4.9140    0.2411 H   0  0  0  0  0  0  0  0  0  0  0  0
   -5.6322   -1.3962    1.4438 H   0  0  0  0  0  0  0  0  0  0  0  0
   -5.6589   -3.0304    0.8437 H   0  0  0  0  0  0  0  0  0  0  0  0
   -5.6974   -1.5723   -0.2815 H   0  0  0  0  0  0  0  0  0  0  0  0
   -3.9923   -0.7711    2.2304 H   0  0  0  0  0  0  0  0  0  0  0  0
   -4.4148   -2.2501    3.5105 H   0  0  0  0  0  0  0  0  0  0  0  0
   -1.4162   -2.4881    2.2324 H   0  0  0  0  0  0  0  0  0  0  0  0
   -1.0801   -3.3613    3.6110 H   0  0  0  0  0  0  0  0  0  0  0  0
    0.2539   -2.7940    5.1341 H   0  0  0  0  0  0  0  0  0  0  0  0
   -1.9279   -4.4151    5.7642 H   0  0  0  0  0  0  0  0  0  0  0  0
   -3.4214   -3.4657    5.5400 H   0  0  0  0  0  0  0  0  0  0  0  0
   -2.8451   -4.5813    4.2708 H   0  0  0  0  0  0  0  0  0  0  0  0
   -0.6368   -0.1405    3.2565 H   0  0  0  0  0  0  0  0  0  0  0  0
    1.1533   -0.5666    2.1472 H   0  0  0  0  0  0  0  0  0  0  0  0
    1.2800    0.7726    0.2644 H   0  0  0  0  0  0  0  0  0  0  0  0
    2.3788    0.5355   -1.2032 H   0  0  0  0  0  0  0  0  0  0  0  0
    2.1136    0.2953   -3.3229 H   0  0  0  0  0  0  0  0  0  0  0  0
    3.6089   -1.0988   -2.8726 H   0  0  0  0  0  0  0  0  0  0  0  0
    3.6860   -3.1321   -2.4972 H   0  0  0  0  0  0  0  0  0  0  0  0
    5.3791   -1.6513   -1.7629 H   0  0  0  0  0  0  0  0  0  0  0  0
    4.4278    0.5691   -0.0908 H   0  0  0  0  0  0  0  0  0  0  0  0
    4.4212    1.4917   -2.2123 H   0  0  0  0  0  0  0  0  0  0  0  0
    6.1399    0.4111   -3.6950 H   0  0  0  0  0  0  0  0  0  0  0  0
    6.5911    2.2749   -2.8148 H   0  0  0  0  0  0  0  0  0  0  0  0
    6.6231    2.2924    0.2311 H   0  0  0  0  0  0  0  0  0  0  0  0
    5.4186    3.2496   -0.8149 H   0  0  0  0  0  0  0  0  0  0  0  0
    7.2353    4.2862   -2.0346 H   0  0  0  0  0  0  0  0  0  0  0  0
    7.4196    4.6355   -0.3123 H   0  0  0  0  0  0  0  0  0  0  0  0
    9.3041    3.2807   -2.0513 H   0  0  0  0  0  0  0  0  0  0  0  0
    9.4399    3.6512   -0.3149 H   0  0  0  0  0  0  0  0  0  0  0  0
    8.4997    1.5108    0.3448 H   0  0  0  0  0  0  0  0  0  0  0  0
    9.7211    1.2228   -0.8899 H   0  0  0  0  0  0  0  0  0  0  0  0
    8.3302    0.8885   -2.6286 H   0  0  0  0  0  0  0  0  0  0  0  0
    7.6549   -0.0801   -1.3135 H   0  0  0  0  0  0  0  0  0  0  0  0
    4.4999   -3.1559   -0.1200 H   0  0  0  0  0  0  0  0  0  0  0  0
    3.5279   -2.6646    1.8006 H   0  0  0  0  0  0  0  0  0  0  0  0
    3.1238   -1.0873    1.0674 H   0  0  0  0  0  0  0  0  0  0  0  0
    4.5031    0.1211    2.3537 H   0  0  0  0  0  0  0  0  0  0  0  0
    4.0825   -1.2196    3.4171 H   0  0  0  0  0  0  0  0  0  0  0  0
    6.4758   -0.5761    3.4470 H   0  0  0  0  0  0  0  0  0  0  0  0
    6.1664   -2.3484    3.0993 H   0  0  0  0  0  0  0  0  0  0  0  0
    7.8747   -1.5003    1.6580 H   0  0  0  0  0  0  0  0  0  0  0  0
    6.7417   -0.2109    0.9689 H   0  0  0  0  0  0  0  0  0  0  0  0
    6.8602   -2.3753   -0.4012 H   0  0  0  0  0  0  0  0  0  0  0  0
    6.3853   -3.2637    1.0502 H   0  0  0  0  0  0  0  0  0  0  0  0
   -0.2613    1.4063   -1.0905 H   0  0  0  0  0  0  0  0  0  0  0  0
   -0.9466   -0.1721   -1.2640 H   0  0  0  0  0  0  0  0  0  0  0  0
    0.6983   -2.8329    2.1086 H   0  0  0  0  0  0  0  0  0  0  0  0
    1.3094   -2.3501    0.5298 H   0  0  0  0  0  0  0  0  0  0  0  0
   -0.3719   -2.7075    0.5820 H   0  0  0  0  0  0  0  0  0  0  0  0
   -3.5358    1.7711    2.1856 H   0  0  0  0  0  0  0  0  0  0  0  0
   -2.3052    2.4121    3.1946 H   0  0  0  0  0  0  0  0  0  0  0  0
   -2.8010    0.7950    3.5778 H   0  0  0  0  0  0  0  0  0  0  0  0
   -0.5988    2.6586    2.7324 H   0  0  0  0  0  0  0  0  0  0  0  0
    0.5169    1.3705    2.4164 H   0  0  0  0  0  0  0  0  0  0  0  0
   -0.1800    2.4539    1.0611 H   0  0  0  0  0  0  0  0  0  0  0  0
  2  1  1  6
  2  3  1  0
  3  4  1  0
  4  5  1  0
  5  6  1  0
  5  7  1  0
  7  8  1  0
  8  9  1  0
  9 10  1  0
 10 11  1  0
  7 12  1  0
 11 12  1  0
  3 13  1  0
 13 14  1  0
 14 15  1  6
 15 16  1  0
 16 17  1  0
 16 18  1  0
 14 19  1  0
 19 20  1  0
 14 21  1  0
 20 21  1  0
 21 22  1  0
 22 23  1  0
 23 24  1  0
 13 25  1  0
 23 25  1  0
 25 26  1  1
 25 27  1  0
 27 28  1  0
 27 29  1  0
 29 30  1  0
 30 31  1  0
 31 32  1  0
 31 33  1  0
 29 34  1  0
 34 35  1  0
 35 36  1  0
 36 37  1  0
 37 38  1  0
 38 39  1  0
 38 40  1  0
 40 41  1  0
 40 42  1  0
 42 43  1  0
 43 44  1  0
 44 45  1  0
 44 46  1  0
 46 47  1  0
 47 48  1  0
 48 49  1  0
 49 50  1  0
 46 51  1  0
 50 51  1  0
 42 52  1  0
 52 53  1  0
 53 54  1  0
 54 55  1  0
 55 56  1  0
 52 57  1  0
 56 57  1  0
  2 58  1  0
 36 58  1  0
 35 59  1  0
  2 60  1  0
 34 60  1  0
 60 61  1  0
 60 62  1  0
 64 63  1  6
 64 65  1  0
 65 66  1  0
 66 67  1  0
 67 68  1  0
 67 69  1  0
 69 70  1  0
 70 71  1  0
 71 72  1  0
 72 73  1  0
 69 74  1  0
 73 74  1  0
 65 75  1  0
 75 76  1  0
 76 77  1  6
 77 78  1  0
 78 79  1  0
 78 80  1  0
 76 81  1  0
 81 82  1  0
 76 83  1  0
 82 83  1  0
 83 84  1  0
 84 85  1  0
 85 86  1  0
 75 87  1  0
 85 87  1  0
 87 88  1  1
 87 89  1  0
 89 90  1  0
 89 91  1  0
 91 92  1  0
 92 93  1  0
 93 94  1  0
 93 95  1  0
 91 96  1  0
 96 97  1  0
 97 98  1  0
 98 99  1  0
 99100  1  0
100101  1  0
100102  1  0
102103  1  0
102104  1  0
104105  1  0
105106  1  0
106107  1  0
106108  1  0
108109  1  0
109110  1  0
110111  1  0
111112  1  0
108113  1  0
112113  1  0
104114  1  0
114115  1  0
115116  1  0
116117  1  0
117118  1  0
114119  1  0
118119  1  0
 64120  1  0
 98120  1  0
 97121  1  0
 64122  1  0
 96122  1  0
122123  1  0
122124  1  0
  1125  1  0
  3126  1  1
  5127  1  0
  6128  1  0
  7129  1  0
  8130  1  0
  8131  1  0
  9132  1  0
  9133  1  0
 10134  1  0
 10135  1  0
 11136  1  0
 11137  1  0
 12138  1  0
 12139  1  0
 13140  1  6
 16141  1  0
 17142  1  0
 18143  1  0
 18144  1  0
 18145  1  0
 19146  1  0
 19147  1  0
 21148  1  6
 22149  1  0
 22150  1  0
 23151  1  1
 24152  1  0
 26153  1  0
 26154  1  0
 26155  1  0
 27156  1  0
 28157  1  0
 29158  1  6
 31159  1  0
 32160  1  0
 33161  1  0
 33162  1  0
 33163  1  0
 34164  1  1
 35165  1  0
 36166  1  1
 38167  1  0
 39168  1  0
 40169  1  6
 41170  1  0
 42171  1  6
 43172  1  0
 44173  1  0
 45174  1  0
 46175  1  0
 47176  1  0
 47177  1  0
 48178  1  0
 48179  1  0
 49180  1  0
 49181  1  0
 50182  1  0
 50183  1  0
 51184  1  0
 51185  1  0
 52186  1  0
 53187  1  0
 53188  1  0
 54189  1  0
 54190  1  0
 55191  1  0
 55192  1  0
 56193  1  0
 56194  1  0
 57195  1  0
 57196  1  0
 58197  1  0
 58198  1  0
 59199  1  0
 59200  1  0
 59201  1  0
 61202  1  0
 61203  1  0
 61204  1  0
 62205  1  0
 62206  1  0
 62207  1  0
 63208  1  0
 65209  1  1
 67210  1  0
 68211  1  0
 69212  1  0
 70213  1  0
 70214  1  0
 71215  1  0
 71216  1  0
 72217  1  0
 72218  1  0
 73219  1  0
 73220  1  0
 74221  1  0
 74222  1  0
 75223  1  6
 78224  1  0
 79225  1  0
 80226  1  0
 80227  1  0
 80228  1  0
 81229  1  0
 81230  1  0
 83231  1  6
 84232  1  0
 84233  1  0
 85234  1  1
 86235  1  0
 88236  1  0
 88237  1  0
 88238  1  0
 89239  1  0
 90240  1  0
 91241  1  6
 93242  1  0
 94243  1  0
 95244  1  0
 95245  1  0
 95246  1  0
 96247  1  1
 97248  1  0
 98249  1  1
100250  1  0
101251  1  0
102252  1  6
103253  1  0
104254  1  6
105255  1  0
106256  1  0
107257  1  0
108258  1  0
109259  1  0
109260  1  0
110261  1  0
110262  1  0
111263  1  0
111264  1  0
112265  1  0
112266  1  0
113267  1  0
113268  1  0
114269  1  0
115270  1  0
115271  1  0
116272  1  0
116273  1  0
117274  1  0
117275  1  0
118276  1  0
118277  1  0
119278  1  0
119279  1  0
120280  1  0
120281  1  0
121282  1  0
121283  1  0
121284  1  0
123285  1  0
123286  1  0
123287  1  0
124288  1  0
124289  1  0
124290  1  0
M  END
>  <PDBID>  (1) 
5M50

>  <PDB ID>  (1) 
5M50

>  <Generic Name>  (1) 
Paclitaxel

>  <Brand Name>  (1) 
Abraxane#Abraxane for Injectable Suspension#Aj-paclitaxel#Apo-paclitaxel Injectable#Paclitaxel#Paclitaxel Injection#Paclitaxel Injection USP#Paclitaxel Injection, USP#Paclitaxel Paclitaxel#Paclitaxel for Injection#Paclitaxel for Injection USP#Paxene#Taxol#Teva-paclitaxel for Injection#Onxol#Paxceed

>  <DrugBank ID>  (1) 
DB01229

>  <ATC Codes>  (1) 
L01CD01

>  <Ligand ID>  (1) 
TA1

>  <Target Name>  (1) 
Tubulin beta-1 chain

>  <UniProt ID>  (1) 
Q9H4B7

>  <PDB ID.1>  (1) 
5M50

>  <Seq. Identity>  (1) 
78%

$$$$
