PDB_DB01536_08
     RDKit          3D

 53 56  0  0  0  0  0  0  0  0999 V2000
    2.3379    1.5257   -0.1986 C   0  0  0  0  0  0  0  0  0  0  0  0
    1.6242    0.2329   -0.5089 C   0  0  1  0  0  0  0  0  0  0  0  0
   -0.4651    1.6211   -0.4144 C   0  0  0  0  0  0  0  0  0  0  0  0
   -1.7246    1.7784    0.4513 C   0  0  0  0  0  0  0  0  0  0  0  0
   -2.5915    0.6048    0.1755 C   0  0  1  0  0  0  0  0  0  0  0  0
   -1.8658   -0.7119    0.4885 C   0  0  1  0  0  0  0  0  0  0  0  0
   -2.9524   -1.6764    0.2373 C   0  0  0  0  0  0  0  0  0  0  0  0
   -4.1573   -0.9980    0.8904 C   0  0  0  0  0  0  0  0  0  0  0  0
   -3.7538    0.4450    1.1129 C   0  0  0  0  0  0  0  0  0  0  0  0
   -3.1299    0.6143   -1.2308 C   0  0  0  0  0  0  0  0  0  0  0  0
    1.7007    0.0074   -1.9892 C   0  0  0  0  0  0  0  0  0  0  0  0
    3.8388    1.3978   -0.2773 C   0  0  0  0  0  0  0  0  0  0  0  0
    4.2756    0.3015    0.6686 C   0  0  0  0  0  0  0  0  0  0  0  0
    3.7132   -0.9967    0.1336 C   0  0  0  0  0  0  0  0  0  0  0  0
    2.2208   -0.9347    0.2487 C   0  0  0  0  0  0  0  0  0  0  0  0
    1.5252   -2.1769   -0.2331 C   0  0  0  0  0  0  0  0  0  0  0  0
    0.0896   -2.1044    0.1653 C   0  0  0  0  0  0  0  0  0  0  0  0
   -0.6224   -0.8741   -0.3047 C   0  0  2  0  0  0  0  0  0  0  0  0
    0.2096    0.3673    0.0012 C   0  0  1  0  0  0  0  0  0  0  0  0
    3.6951    0.5502    1.9102 O   0  0  0  0  0  0  0  0  0  0  0  0
   -4.7842    1.3276    0.8588 O   0  0  0  0  0  0  0  0  0  0  0  0
    2.0320    1.8963    0.7919 H   0  0  0  0  0  0  0  0  0  0  0  0
    2.0479    2.2480   -1.0156 H   0  0  0  0  0  0  0  0  0  0  0  0
    0.1814    2.4709   -0.1967 H   0  0  0  0  0  0  0  0  0  0  0  0
   -0.8320    1.6167   -1.4595 H   0  0  0  0  0  0  0  0  0  0  0  0
   -1.4676    1.8484    1.5151 H   0  0  0  0  0  0  0  0  0  0  0  0
   -2.2215    2.6856    0.0916 H   0  0  0  0  0  0  0  0  0  0  0  0
   -1.6266   -0.6777    1.5654 H   0  0  0  0  0  0  0  0  0  0  0  0
   -3.1854   -1.7720   -0.8468 H   0  0  0  0  0  0  0  0  0  0  0  0
   -2.7931   -2.6846    0.6677 H   0  0  0  0  0  0  0  0  0  0  0  0
   -4.2833   -1.4995    1.8834 H   0  0  0  0  0  0  0  0  0  0  0  0
   -5.0497   -1.0903    0.2607 H   0  0  0  0  0  0  0  0  0  0  0  0
   -3.3516    0.5372    2.1490 H   0  0  0  0  0  0  0  0  0  0  0  0
   -2.5381    0.0415   -1.9450 H   0  0  0  0  0  0  0  0  0  0  0  0
   -4.1658    0.1678   -1.2558 H   0  0  0  0  0  0  0  0  0  0  0  0
   -3.2764    1.6814   -1.5136 H   0  0  0  0  0  0  0  0  0  0  0  0
    2.7180   -0.4277   -2.2120 H   0  0  0  0  0  0  0  0  0  0  0  0
    0.9282   -0.6688   -2.3717 H   0  0  0  0  0  0  0  0  0  0  0  0
    1.7121    1.0024   -2.4995 H   0  0  0  0  0  0  0  0  0  0  0  0
    4.2681    2.3726   -0.0105 H   0  0  0  0  0  0  0  0  0  0  0  0
    4.0964    1.0708   -1.3073 H   0  0  0  0  0  0  0  0  0  0  0  0
    5.3656    0.2689    0.7259 H   0  0  0  0  0  0  0  0  0  0  0  0
    4.0693   -1.7992    0.8033 H   0  0  0  0  0  0  0  0  0  0  0  0
    4.0515   -1.2156   -0.8844 H   0  0  0  0  0  0  0  0  0  0  0  0
    1.9625   -0.7731    1.3284 H   0  0  0  0  0  0  0  0  0  0  0  0
    1.9874   -3.0444    0.2466 H   0  0  0  0  0  0  0  0  0  0  0  0
    1.6750   -2.2899   -1.3271 H   0  0  0  0  0  0  0  0  0  0  0  0
   -0.4996   -2.9837   -0.1915 H   0  0  0  0  0  0  0  0  0  0  0  0
    0.0370   -2.1325    1.2691 H   0  0  0  0  0  0  0  0  0  0  0  0
   -0.8403   -0.9461   -1.3936 H   0  0  0  0  0  0  0  0  0  0  0  0
    0.2932    0.3872    1.1251 H   0  0  0  0  0  0  0  0  0  0  0  0
    4.1818    1.3007    2.3373 H   0  0  0  0  0  0  0  0  0  0  0  0
   -4.6604    2.1076    1.4849 H   0  0  0  0  0  0  0  0  0  0  0  0
  1  2  1  0
  3  4  1  0
  4  5  1  0
  5  6  1  0
  6  7  1  0
  7  8  1  0
  5  9  1  0
  8  9  1  0
  5 10  1  6
  2 11  1  6
  1 12  1  0
 12 13  1  0
 13 14  1  0
  2 15  1  0
 14 15  1  0
 15 16  1  0
 16 17  1  0
  6 18  1  0
 17 18  1  0
  2 19  1  0
  3 19  1  0
 18 19  1  0
 13 20  1  0
  9 21  1  0
  1 22  1  0
  1 23  1  0
  3 24  1  0
  3 25  1  0
  4 26  1  0
  4 27  1  0
  6 28  1  1
  7 29  1  0
  7 30  1  0
  8 31  1  0
  8 32  1  0
  9 33  1  0
 10 34  1  0
 10 35  1  0
 10 36  1  0
 11 37  1  0
 11 38  1  0
 11 39  1  0
 12 40  1  0
 12 41  1  0
 13 42  1  0
 14 43  1  0
 14 44  1  0
 15 45  1  0
 16 46  1  0
 16 47  1  0
 17 48  1  0
 17 49  1  0
 18 50  1  6
 19 51  1  1
 20 52  1  0
 21 53  1  0
M  END
>  <PDBID>  (1) 
1QYX

>  <PDB ID>  (1) 
1QYX

>  <Generic Name>  (1) 
4-Androstenedione

>  <Brand Name>  (1) 
nan

>  <DrugBank ID>  (1) 
DB01536

>  <ATC Codes>  (1) 
nan

>  <Ligand ID>  (1) 
ASD

>  <Target Name>  (1) 
Estradiol 17-beta-dehydrogenase 1

>  <UniProt ID>  (1) 
P14061

>  <PDB ID.1>  (1) 
1QYX

>  <Seq. Identity>  (1) 
89%

$$$$
