PDB_DB06290_03
     RDKit          3D

492516  0  0  0  0  0  0  0  0999 V2000
   -0.2466   -1.4949   -1.3837 C   0  0  0  0  0  0  0  0  0  0  0  0
    1.2644   -1.3052   -1.2212 C   0  0  2  0  0  0  0  0  0  0  0  0
    1.2887    0.0687   -0.5853 C   0  0  1  0  0  0  0  0  0  0  0  0
    0.3050   -0.1737    0.5713 C   0  0  0  0  0  0  0  0  0  0  0  0
   -0.8099   -0.9906   -0.0476 C   0  0  1  0  0  0  0  0  0  0  0  0
    2.5887    0.4770   -0.0023 C   0  0  1  0  0  0  0  0  0  0  0  0
    2.5599    0.4494    1.4117 O   0  0  0  0  0  0  0  0  0  0  0  0
    3.7214   -0.2630   -0.4845 N   0  0  0  0  0  0  0  0  0  0  0  0
    1.9471   -1.3524   -2.5371 C   0  0  0  0  0  0  0  0  0  0  0  0
    0.9443   -1.1080   -3.5166 O   0  0  0  0  0  0  0  0  0  0  0  0
    5.5801    0.2893   -1.8369 C   0  0  1  0  0  0  0  0  0  0  0  0
    5.7163    0.5416    0.7484 C   0  0  0  0  0  0  0  0  0  0  0  0
    2.6133   -2.5130   -2.9245 N   0  0  0  0  0  0  0  0  0  0  0  0
    3.3874   -3.2636   -2.0329 C   0  0  0  0  0  0  0  0  0  0  0  0
    2.0643   -3.2259   -4.0416 C   0  0  0  0  0  0  0  0  0  0  0  0
    4.9557    0.5501   -0.5197 C   0  0  2  0  0  0  0  0  0  0  0  0
    5.1241    1.6392   -1.4862 C   0  0  0  0  0  0  0  0  0  0  0  0
    7.0155   -0.1220   -1.7805 C   0  0  0  0  0  0  0  0  0  0  0  0
    4.8885   -3.0918   -2.1572 C   0  0  0  0  0  0  0  0  0  0  0  0
    5.3123   -2.6461   -3.5126 C   0  0  0  0  0  0  0  0  0  0  0  0
    6.4809   -1.7616   -3.6306 C   0  0  0  0  0  0  0  0  0  0  0  0
    7.2638   -1.4845   -2.3835 C   0  0  0  0  0  0  0  0  0  0  0  0
   -1.8707   -0.1294   -0.2513 O   0  0  0  0  0  0  0  0  0  0  0  0
   -4.8596   -0.7298    3.7942 C   0  0  0  0  0  0  0  0  0  0  0  0
   -3.3972   -0.8998    3.4385 C   0  0  0  0  0  0  0  0  0  0  0  0
   -2.9154    0.2784    2.6188 C   0  0  0  0  0  0  0  0  0  0  0  0
   -3.6447    0.3685    1.2965 C   0  0  0  0  0  0  0  0  0  0  0  0
   -5.1187    0.2329    1.4769 C   0  0  0  0  0  0  0  0  0  0  0  0
   -5.4763    0.3461    2.9528 C   0  0  0  0  0  0  0  0  0  0  0  0
   -3.0826   -0.5835    0.2724 C   0  0  0  0  0  0  0  0  0  0  0  0
   -4.0603   -0.6433   -0.8822 C   0  0  0  0  0  0  0  0  0  0  0  0
   -5.4401   -1.0647   -0.4875 C   0  0  1  0  0  0  0  0  0  0  0  0
   -5.7024   -0.9540    0.9265 N   0  0  0  0  0  0  0  0  0  0  0  0
   -6.5085   -0.4638   -1.3521 C   0  0  1  0  0  0  0  0  0  0  0  0
   -8.1305   -1.0649   -0.7239 S   0  0  0  0  0  0  0  0  0  0  0  0
   -9.0198    0.5482   -0.8551 C   0  0  0  0  0  0  0  0  0  0  0  0
   -7.9833    1.2904   -1.6945 C   0  0  2  0  0  0  0  0  0  0  0  0
   -6.6880    0.9695   -1.1317 N   0  0  0  0  0  0  0  0  0  0  0  0
   -8.2243    2.7513   -1.5780 C   0  0  0  0  0  0  0  0  0  0  0  0
   -7.2131    3.5556   -2.3954 C   0  0  0  0  0  0  0  0  0  0  0  0
   -8.1456    3.2197   -0.1610 C   0  0  0  0  0  0  0  0  0  0  0  0
   -5.4885   -1.9549    3.7091 O   0  0  0  0  0  0  0  0  0  0  0  0
   -6.0279   -2.3582    4.9442 C   0  0  0  0  0  0  0  0  0  0  0  0
   -6.9761    0.2645    3.1516 C   0  0  0  0  0  0  0  0  0  0  0  0
    6.7098    1.6001    0.7902 N   0  0  0  0  0  0  0  0  0  0  0  0
    6.1784   -0.6751    1.1832 O   0  0  0  0  0  0  0  0  0  0  0  0
    7.6983    1.7411    1.9218 S   0  0  0  0  0  0  0  0  0  0  0  0
    7.7162    3.3510    2.5602 C   0  0  0  0  0  0  0  0  0  0  0  0
    9.3824    1.9825    0.9000 O   0  0  0  0  0  0  0  0  0  0  0  0
    8.0978    0.6499    2.8586 O   0  0  0  0  0  0  0  0  0  0  0  0
    6.8026    3.7770    3.6202 C   0  0  0  0  0  0  0  0  0  0  0  0
    8.2163    3.5511    3.9694 C   0  0  0  0  0  0  0  0  0  0  0  0
   -0.5656   -1.2533   -1.0716 C   0  0  0  0  0  0  0  0  0  0  0  0
    0.9668   -1.1810   -1.0006 C   0  0  2  0  0  0  0  0  0  0  0  0
    1.1244    0.2288   -0.4855 C   0  0  1  0  0  0  0  0  0  0  0  0
    0.1470    0.1921    0.6986 C   0  0  0  0  0  0  0  0  0  0  0  0
   -0.9270   -0.7770    0.3190 C   0  0  1  0  0  0  0  0  0  0  0  0
    2.4561    0.5739    0.0636 C   0  0  0  0  0  0  0  0  0  0  0  0
    2.4802    0.5499    1.4758 O   0  0  0  0  0  0  0  0  0  0  0  0
    3.5515   -0.2002   -0.3952 N   0  0  0  0  0  0  0  0  0  0  0  0
    1.5653   -1.3873   -2.3439 C   0  0  0  0  0  0  0  0  0  0  0  0
    0.5287   -1.1378   -3.2851 O   0  0  0  0  0  0  0  0  0  0  0  0
    5.3351    0.1849   -1.8920 C   0  0  1  0  0  0  0  0  0  0  0  0
    5.6515    0.6822    0.6403 C   0  0  2  0  0  0  0  0  0  0  0  0
    2.1046   -2.6364   -2.6592 N   0  0  0  0  0  0  0  0  0  0  0  0
    2.9317   -3.3296   -1.7656 C   0  0  0  0  0  0  0  0  0  0  0  0
    1.5208   -3.3734   -3.7194 C   0  0  0  0  0  0  0  0  0  0  0  0
    4.7975    0.5380   -0.5547 C   0  0  2  0  0  0  0  0  0  0  0  0
    4.9299    1.5786   -1.6315 C   0  0  0  0  0  0  0  0  0  0  0  0
    6.7409   -0.2893   -1.8986 C   0  0  0  0  0  0  0  0  0  0  0  0
    4.4143   -3.1807   -1.9872 C   0  0  0  0  0  0  0  0  0  0  0  0
    4.7793   -2.8196   -3.3816 C   0  0  0  0  0  0  0  0  0  0  0  0
    5.9837   -1.9972   -3.6018 C   0  0  0  0  0  0  0  0  0  0  0  0
    6.8573   -1.7199   -2.4315 C   0  0  0  0  0  0  0  0  0  0  0  0
   -2.1225   -0.0727    0.3351 O   0  0  0  0  0  0  0  0  0  0  0  0
   -4.9155   -1.6090    3.9191 C   0  0  0  0  0  0  0  0  0  0  0  0
   -3.4261   -1.4942    3.9471 C   0  0  0  0  0  0  0  0  0  0  0  0
   -2.9444   -0.1653    3.4713 C   0  0  0  0  0  0  0  0  0  0  0  0
   -3.6358    0.2619    2.1681 C   0  0  0  0  0  0  0  0  0  0  0  0
   -5.0865    0.3711    2.3558 C   0  0  0  0  0  0  0  0  0  0  0  0
   -5.6190   -0.3142    3.6060 C   0  0  0  0  0  0  0  0  0  0  0  0
   -3.1227   -0.6654    1.1064 C   0  0  0  0  0  0  0  0  0  0  0  0
   -4.1891   -1.0791    0.1137 C   0  0  0  0  0  0  0  0  0  0  0  0
   -5.1569    0.0835    0.0376 C   0  0  0  0  0  0  0  0  0  0  0  0
   -5.9321    0.0066    1.2597 N   0  0  0  0  0  0  0  0  0  0  0  0
   -6.1076    0.0079   -1.1172 C   0  0  0  0  0  0  0  0  0  0  0  0
   -5.1942   -0.0230   -2.7134 S   0  0  0  0  0  0  0  0  0  0  0  0
   -6.0899    1.3775   -3.5047 C   0  0  0  0  0  0  0  0  0  0  0  0
   -7.2718    1.4478   -2.5527 C   0  0  0  0  0  0  0  0  0  0  0  0
   -6.7387    1.3222   -1.2239 N   0  0  0  0  0  0  0  0  0  0  0  0
   -7.9712    2.7770   -2.6498 C   0  0  0  0  0  0  0  0  0  0  0  0
   -7.0756    3.9435   -2.3123 C   0  0  0  0  0  0  0  0  0  0  0  0
   -9.1702    2.8306   -1.7277 C   0  0  0  0  0  0  0  0  0  0  0  0
   -5.3826   -2.5741    3.0535 O   0  0  0  0  0  0  0  0  0  0  0  0
   -6.0996   -3.5500    3.7339 C   0  0  0  0  0  0  0  0  0  0  0  0
   -5.5984    0.6314    4.8024 C   0  0  0  0  0  0  0  0  0  0  0  0
    6.7266    1.6271    0.5457 N   0  0  0  0  0  0  0  0  0  0  0  0
    6.1188   -0.4993    1.2003 O   0  0  0  0  0  0  0  0  0  0  0  0
    7.7622    1.7954    1.6553 S   0  0  0  0  0  0  0  0  0  0  0  0
    7.8192    3.4969    2.1519 C   0  0  0  0  0  0  0  0  0  0  0  0
    9.4148    1.9664    0.5737 O   0  0  0  0  0  0  0  0  0  0  0  0
    8.2127    0.8720    2.6458 O   0  0  0  0  0  0  0  0  0  0  0  0
    6.8983    3.9049    3.2209 C   0  0  0  0  0  0  0  0  0  0  0  0
    8.3614    3.7928    3.5159 C   0  0  0  0  0  0  0  0  0  0  0  0
   -0.4741   -1.3721   -0.8397 C   0  0  0  0  0  0  0  0  0  0  0  0
    1.0306   -1.3640   -0.5182 C   0  0  2  0  0  0  0  0  0  0  0  0
    1.1997    0.0536   -0.0963 C   0  0  1  0  0  0  0  0  0  0  0  0
    0.0052    0.2224    0.8520 C   0  0  0  0  0  0  0  0  0  0  0  0
   -1.0115   -0.7939    0.4528 C   0  0  1  0  0  0  0  0  0  0  0  0
    2.4190    0.3462    0.7361 C   0  0  0  0  0  0  0  0  0  0  0  0
    2.2818   -0.1754    2.0384 O   0  0  0  0  0  0  0  0  0  0  0  0
    3.6273   -0.1532    0.2105 N   0  0  0  0  0  0  0  0  0  0  0  0
    1.8352   -1.7290   -1.7353 C   0  0  0  0  0  0  0  0  0  0  0  0
    1.1783   -1.1114   -2.8297 O   0  0  0  0  0  0  0  0  0  0  0  0
    4.7737    1.0643   -1.4373 C   0  0  1  0  0  0  0  0  0  0  0  0
    5.9067    0.5703    0.8568 C   0  0  2  0  0  0  0  0  0  0  0  0
    1.9574   -3.0931   -2.0348 N   0  0  0  0  0  0  0  0  0  0  0  0
    3.1977   -3.7387   -1.9627 C   0  0  0  0  0  0  0  0  0  0  0  0
    1.0631   -3.5867   -3.0537 C   0  0  0  0  0  0  0  0  0  0  0  0
    4.6991    0.7935    0.0186 C   0  0  2  0  0  0  0  0  0  0  0  0
    4.4848    2.1688   -0.5026 C   0  0  0  0  0  0  0  0  0  0  0  0
    6.0790    0.7973   -2.0757 C   0  0  0  0  0  0  0  0  0  0  0  0
    4.4277   -2.8953   -2.1969 C   0  0  0  0  0  0  0  0  0  0  0  0
    4.5363   -2.2877   -3.5421 C   0  0  0  0  0  0  0  0  0  0  0  0
    5.1537   -0.9470   -3.6560 C   0  0  0  0  0  0  0  0  0  0  0  0
    6.2034   -0.5963   -2.6643 C   0  0  0  0  0  0  0  0  0  0  0  0
   -2.2032   -0.1100    0.2662 O   0  0  0  0  0  0  0  0  0  0  0  0
   -4.9133   -1.3765    3.8303 C   0  0  0  0  0  0  0  0  0  0  0  0
   -3.4761   -0.9590    3.9570 C   0  0  0  0  0  0  0  0  0  0  0  0
   -3.1997    0.3137    3.2339 C   0  0  0  0  0  0  0  0  0  0  0  0
   -3.8872    0.4016    1.8843 C   0  0  0  0  0  0  0  0  0  0  0  0
   -5.3493    0.3626    2.0608 C   0  0  0  0  0  0  0  0  0  0  0  0
   -5.8209   -0.2744    3.3437 C   0  0  0  0  0  0  0  0  0  0  0  0
   -3.2781   -0.6339    0.9847 C   0  0  0  0  0  0  0  0  0  0  0  0
   -4.2390   -1.1593   -0.0587 C   0  0  0  0  0  0  0  0  0  0  0  0
   -5.2959   -0.0938   -0.2275 C   0  0  0  0  0  0  0  0  0  0  0  0
   -6.1125   -0.1910    0.9672 N   0  0  0  0  0  0  0  0  0  0  0  0
   -6.1890   -0.2907   -1.4131 C   0  0  0  0  0  0  0  0  0  0  0  0
   -5.2158   -0.3051   -2.9722 S   0  0  0  0  0  0  0  0  0  0  0  0
   -6.2074    0.9686   -3.8540 C   0  0  0  0  0  0  0  0  0  0  0  0
   -7.3894    1.0382   -2.9298 C   0  0  1  0  0  0  0  0  0  0  0  0
   -6.9253    0.9379   -1.5898 N   0  0  0  0  0  0  0  0  0  0  0  0
   -8.1433    2.3425   -3.0626 C   0  0  0  0  0  0  0  0  0  0  0  0
   -7.3022    3.5525   -2.7469 C   0  0  0  0  0  0  0  0  0  0  0  0
   -9.3480    2.3760   -2.1455 C   0  0  0  0  0  0  0  0  0  0  0  0
   -5.0697   -2.4759    2.9926 O   0  0  0  0  0  0  0  0  0  0  0  0
   -5.6324   -3.5562    3.6956 C   0  0  0  0  0  0  0  0  0  0  0  0
   -6.0494    0.7723    4.4308 C   0  0  0  0  0  0  0  0  0  0  0  0
    6.8020    1.7369    0.9319 N   0  0  0  0  0  0  0  0  0  0  0  0
    6.5696   -0.6117    0.6886 O   0  0  0  0  0  0  0  0  0  0  0  0
    8.1358    1.6714    1.6108 S   0  0  0  0  0  0  0  0  0  0  0  0
    8.5388    2.4696    2.9904 C   0  0  0  0  0  0  0  0  0  0  0  0
    9.4435    2.1881    0.4178 O   0  0  0  0  0  0  0  0  0  0  0  0
    8.6595    0.0745    1.7798 O   0  0  0  0  0  0  0  0  0  0  0  0
    8.9880    3.9239    2.8846 C   0  0  0  0  0  0  0  0  0  0  0  0
   10.0001    2.9041    3.2063 C   0  0  0  0  0  0  0  0  0  0  0  0
   -0.5279   -1.3224   -1.5506 C   0  0  0  0  0  0  0  0  0  0  0  0
    0.9895   -1.2392   -1.3026 C   0  0  2  0  0  0  0  0  0  0  0  0
    1.0529    0.2021   -0.8526 C   0  0  1  0  0  0  0  0  0  0  0  0
   -0.0326    0.1815    0.2337 C   0  0  0  0  0  0  0  0  0  0  0  0
   -1.0221   -0.8611   -0.1850 C   0  0  1  0  0  0  0  0  0  0  0  0
    2.3107    0.6254   -0.2021 C   0  0  0  0  0  0  0  0  0  0  0  0
    2.1820    0.7480    1.2015 O   0  0  0  0  0  0  0  0  0  0  0  0
    3.4602   -0.1739   -0.4440 N   0  0  0  0  0  0  0  0  0  0  0  0
    1.7581   -1.5159   -2.5361 C   0  0  0  0  0  0  0  0  0  0  0  0
    0.8345   -1.4128   -3.6133 O   0  0  0  0  0  0  0  0  0  0  0  0
    5.3897    0.1950   -1.7502 C   0  0  1  0  0  0  0  0  0  0  0  0
    5.4058    0.8380    0.7701 C   0  0  0  0  0  0  0  0  0  0  0  0
    2.3923   -2.7563   -2.6800 N   0  0  0  0  0  0  0  0  0  0  0  0
    3.1025   -3.3424   -1.6238 C   0  0  0  0  0  0  0  0  0  0  0  0
    1.8010   -3.6678   -3.6174 C   0  0  0  0  0  0  0  0  0  0  0  0
    4.6968    0.5977   -0.5022 C   0  0  2  0  0  0  0  0  0  0  0  0
    4.9174    1.5838   -1.6166 C   0  0  0  0  0  0  0  0  0  0  0  0
    6.8080   -0.2228   -1.5856 C   0  0  0  0  0  0  0  0  0  0  0  0
    4.6042   -3.1994   -1.6919 C   0  0  0  0  0  0  0  0  0  0  0  0
    5.1149   -2.9349   -3.0598 C   0  0  0  0  0  0  0  0  0  0  0  0
    6.3064   -2.0836   -3.2182 C   0  0  0  0  0  0  0  0  0  0  0  0
    7.0358   -1.6761   -1.9803 C   0  0  0  0  0  0  0  0  0  0  0  0
   -2.2507   -0.2232   -0.2777 O   0  0  0  0  0  0  0  0  0  0  0  0
   -4.7077   -1.8656    3.6978 C   0  0  0  0  0  0  0  0  0  0  0  0
   -3.2431   -1.7000    3.3954 C   0  0  0  0  0  0  0  0  0  0  0  0
   -2.9112   -0.3647    2.8158 C   0  0  0  0  0  0  0  0  0  0  0  0
   -3.7371   -0.0468    1.5590 C   0  0  0  0  0  0  0  0  0  0  0  0
   -5.1733   -0.1422    1.9265 C   0  0  0  0  0  0  0  0  0  0  0  0
   -5.4133   -0.6017    3.3505 C   0  0  0  0  0  0  0  0  0  0  0  0
   -3.2722   -0.8885    0.4302 C   0  0  0  0  0  0  0  0  0  0  0  0
   -4.2901   -1.2562   -0.5884 C   0  0  0  0  0  0  0  0  0  0  0  0
   -5.6604   -0.6908   -0.3558 C   0  0  1  0  0  0  0  0  0  0  0  0
   -6.0068   -0.8915    1.0377 N   0  0  0  0  0  0  0  0  0  0  0  0
   -5.7837    0.7649   -0.7567 C   0  0  1  0  0  0  0  0  0  0  0  0
   -5.3674    0.9553   -2.5256 S   0  0  0  0  0  0  0  0  0  0  0  0
   -6.8255    1.9280   -3.0011 C   0  0  0  0  0  0  0  0  0  0  0  0
   -7.4132    2.2119   -1.6528 C   0  0  0  0  0  0  0  0  0  0  0  0
   -7.1765    1.1495   -0.7583 N   0  0  0  0  0  0  0  0  0  0  0  0
   -7.1336    3.5906   -1.1370 C   0  0  0  0  0  0  0  0  0  0  0  0
   -7.7147    4.6206   -2.1078 C   0  0  0  0  0  0  0  0  0  0  0  0
   -5.7232    3.9079   -0.8188 C   0  0  0  0  0  0  0  0  0  0  0  0
   -5.1519   -2.9864    3.0533 O   0  0  0  0  0  0  0  0  0  0  0  0
   -5.6727   -3.9612    3.8664 C   0  0  0  0  0  0  0  0  0  0  0  0
   -6.8830   -0.6260    3.6335 C   0  0  0  0  0  0  0  0  0  0  0  0
    6.4438    1.8442    0.7290 N   0  0  0  0  0  0  0  0  0  0  0  0
    5.8441   -0.2773    1.4512 O   0  0  0  0  0  0  0  0  0  0  0  0
    7.3483    2.1373    1.9003 S   0  0  0  0  0  0  0  0  0  0  0  0
    7.1678    3.7193    2.5218 C   0  0  0  0  0  0  0  0  0  0  0  0
    9.0207    2.5050    0.9329 O   0  0  0  0  0  0  0  0  0  0  0  0
    7.8602    1.1457    2.8932 O   0  0  0  0  0  0  0  0  0  0  0  0
    6.1636    3.9764    3.5551 C   0  0  0  0  0  0  0  0  0  0  0  0
    7.5777    4.0048    3.9387 C   0  0  0  0  0  0  0  0  0  0  0  0
   -0.5282   -2.5315   -1.5574 H   0  0  0  0  0  0  0  0  0  0  0  0
   -0.6464   -0.7969   -2.1563 H   0  0  0  0  0  0  0  0  0  0  0  0
    1.5720   -2.0167   -0.4634 H   0  0  0  0  0  0  0  0  0  0  0  0
    0.8333    0.8500   -1.2155 H   0  0  0  0  0  0  0  0  0  0  0  0
   -0.0422    0.7849    0.9865 H   0  0  0  0  0  0  0  0  0  0  0  0
    0.8090   -0.8071    1.3318 H   0  0  0  0  0  0  0  0  0  0  0  0
   -1.0758   -1.8928    0.5141 H   0  0  0  0  0  0  0  0  0  0  0  0
    2.7653    1.5549   -0.2647 H   0  0  0  0  0  0  0  0  0  0  0  0
    1.8543    1.1113    1.6879 H   0  0  0  0  0  0  0  0  0  0  0  0
    3.9529   -1.0886    0.1141 H   0  0  0  0  0  0  0  0  0  0  0  0
    2.6335   -0.4643   -2.6877 H   0  0  0  0  0  0  0  0  0  0  0  0
    0.3521   -1.8949   -3.6053 H   0  0  0  0  0  0  0  0  0  0  0  0
    4.9910   -0.2325   -2.6122 H   0  0  0  0  0  0  0  0  0  0  0  0
    4.9682    0.8605    1.5523 H   0  0  0  0  0  0  0  0  0  0  0  0
    3.1414   -3.1827   -0.9553 H   0  0  0  0  0  0  0  0  0  0  0  0
    3.1824   -4.3570   -2.2625 H   0  0  0  0  0  0  0  0  0  0  0  0
    1.1954   -3.8481   -3.8010 H   0  0  0  0  0  0  0  0  0  0  0  0
    2.8662   -3.8997   -4.4335 H   0  0  0  0  0  0  0  0  0  0  0  0
    1.8637   -2.4859   -4.8490 H   0  0  0  0  0  0  0  0  0  0  0  0
    5.8947    2.3931   -1.3698 H   0  0  0  0  0  0  0  0  0  0  0  0
    4.2277    2.0542   -2.0451 H   0  0  0  0  0  0  0  0  0  0  0  0
    7.4328   -0.1309   -0.7679 H   0  0  0  0  0  0  0  0  0  0  0  0
    7.5963    0.6125   -2.3753 H   0  0  0  0  0  0  0  0  0  0  0  0
    5.2301   -2.5078   -1.3115 H   0  0  0  0  0  0  0  0  0  0  0  0
    5.3493   -4.1147   -2.0068 H   0  0  0  0  0  0  0  0  0  0  0  0
    4.4129   -2.1299   -3.9657 H   0  0  0  0  0  0  0  0  0  0  0  0
    5.4418   -3.5413   -4.1913 H   0  0  0  0  0  0  0  0  0  0  0  0
    7.1813   -2.2135   -4.4012 H   0  0  0  0  0  0  0  0  0  0  0  0
    6.1809   -0.8031   -4.1536 H   0  0  0  0  0  0  0  0  0  0  0  0
    7.2034   -2.3162   -1.6531 H   0  0  0  0  0  0  0  0  0  0  0  0
    8.3675   -1.4773   -2.6526 H   0  0  0  0  0  0  0  0  0  0  0  0
   -4.9594   -0.3875    4.8617 H   0  0  0  0  0  0  0  0  0  0  0  0
   -2.8104   -0.8950    4.3783 H   0  0  0  0  0  0  0  0  0  0  0  0
   -3.1815   -1.8464    2.9244 H   0  0  0  0  0  0  0  0  0  0  0  0
   -1.8364    0.1978    2.4799 H   0  0  0  0  0  0  0  0  0  0  0  0
   -3.1054    1.2127    3.1978 H   0  0  0  0  0  0  0  0  0  0  0  0
   -3.4304    1.4084    0.9111 H   0  0  0  0  0  0  0  0  0  0  0  0
   -5.6563    1.1039    1.0002 H   0  0  0  0  0  0  0  0  0  0  0  0
   -5.1472    1.3209    3.3287 H   0  0  0  0  0  0  0  0  0  0  0  0
   -2.9640   -1.5757    0.7592 H   0  0  0  0  0  0  0  0  0  0  0  0
   -4.1232    0.3991   -1.2816 H   0  0  0  0  0  0  0  0  0  0  0  0
   -3.6407   -1.2487   -1.7129 H   0  0  0  0  0  0  0  0  0  0  0  0
   -5.4856   -2.1800   -0.7022 H   0  0  0  0  0  0  0  0  0  0  0  0
   -5.2463   -1.7898    1.3967 H   0  0  0  0  0  0  0  0  0  0  0  0
   -6.3977   -0.6810   -2.4114 H   0  0  0  0  0  0  0  0  0  0  0  0
   -9.9504    0.4534   -1.4168 H   0  0  0  0  0  0  0  0  0  0  0  0
   -9.1396    1.0047    0.1528 H   0  0  0  0  0  0  0  0  0  0  0  0
   -8.0999    0.8988   -2.7222 H   0  0  0  0  0  0  0  0  0  0  0  0
   -5.9801    1.4623   -1.6817 H   0  0  0  0  0  0  0  0  0  0  0  0
   -9.2511    2.9825   -1.9487 H   0  0  0  0  0  0  0  0  0  0  0  0
   -7.5518    4.6082   -2.3952 H   0  0  0  0  0  0  0  0  0  0  0  0
   -6.2583    3.5140   -1.8162 H   0  0  0  0  0  0  0  0  0  0  0  0
   -7.0747    3.1287   -3.4050 H   0  0  0  0  0  0  0  0  0  0  0  0
   -9.1101    3.0707    0.3738 H   0  0  0  0  0  0  0  0  0  0  0  0
   -7.3475    2.6719    0.3684 H   0  0  0  0  0  0  0  0  0  0  0  0
   -7.8658    4.3071   -0.1057 H   0  0  0  0  0  0  0  0  0  0  0  0
   -5.2263   -2.4440    5.7102 H   0  0  0  0  0  0  0  0  0  0  0  0
   -6.8026   -1.6408    5.2337 H   0  0  0  0  0  0  0  0  0  0  0  0
   -6.5298   -3.3513    4.7890 H   0  0  0  0  0  0  0  0  0  0  0  0
   -7.5151    0.9924    2.5217 H   0  0  0  0  0  0  0  0  0  0  0  0
   -7.2030    0.4856    4.1978 H   0  0  0  0  0  0  0  0  0  0  0  0
   -7.3436   -0.7771    2.9181 H   0  0  0  0  0  0  0  0  0  0  0  0
    6.1227    2.4838    0.5695 H   0  0  0  0  0  0  0  0  0  0  0  0
    6.1688   -0.7798    2.1610 H   0  0  0  0  0  0  0  0  0  0  0  0
    7.9892    4.1382    1.8024 H   0  0  0  0  0  0  0  0  0  0  0  0
    8.9767    2.7171    0.3665 H   0  0  0  0  0  0  0  0  0  0  0  0
    9.0695    0.4905    3.0629 H   0  0  0  0  0  0  0  0  0  0  0  0
    6.4049    4.8327    3.6289 H   0  0  0  0  0  0  0  0  0  0  0  0
    6.0506    3.0377    3.9638 H   0  0  0  0  0  0  0  0  0  0  0  0
    8.5266    2.6063    4.4795 H   0  0  0  0  0  0  0  0  0  0  0  0
    8.9248    4.4047    4.1131 H   0  0  0  0  0  0  0  0  0  0  0  0
   -0.9240   -2.2725   -1.2509 H   0  0  0  0  0  0  0  0  0  0  0  0
   -0.9294   -0.5335   -1.8499 H   0  0  0  0  0  0  0  0  0  0  0  0
    1.2633   -1.8593   -0.2076 H   0  0  0  0  0  0  0  0  0  0  0  0
    0.7362    0.9582   -1.2422 H   0  0  0  0  0  0  0  0  0  0  0  0
    0.6443   -0.1828    1.6159 H   0  0  0  0  0  0  0  0  0  0  0  0
   -0.2023    1.2188    0.8620 H   0  0  0  0  0  0  0  0  0  0  0  0
   -0.9642   -1.7002    0.9372 H   0  0  0  0  0  0  0  0  0  0  0  0
    2.6641    1.6535   -0.1911 H   0  0  0  0  0  0  0  0  0  0  0  0
    2.1533    1.3797    1.8698 H   0  0  0  0  0  0  0  0  0  0  0  0
    3.7750   -0.9754    0.2729 H   0  0  0  0  0  0  0  0  0  0  0  0
    2.3199   -0.5883   -2.6092 H   0  0  0  0  0  0  0  0  0  0  0  0
    0.9066   -1.0068   -4.1913 H   0  0  0  0  0  0  0  0  0  0  0  0
    4.6805   -0.3685   -2.5926 H   0  0  0  0  0  0  0  0  0  0  0  0
    4.9699    1.1110    1.4528 H   0  0  0  0  0  0  0  0  0  0  0  0
    2.7414   -3.1609   -0.6856 H   0  0  0  0  0  0  0  0  0  0  0  0
    2.6985   -4.4324   -1.8952 H   0  0  0  0  0  0  0  0  0  0  0  0
    0.4725   -3.6479   -3.5878 H   0  0  0  0  0  0  0  0  0  0  0  0
    2.0907   -4.3409   -3.8130 H   0  0  0  0  0  0  0  0  0  0  0  0
    1.7024   -2.8243   -4.6806 H   0  0  0  0  0  0  0  0  0  0  0  0
    5.6661    2.3732   -1.6186 H   0  0  0  0  0  0  0  0  0  0  0  0
    3.9582    1.9363   -2.0912 H   0  0  0  0  0  0  0  0  0  0  0  0
    7.2516   -0.2501   -0.9329 H   0  0  0  0  0  0  0  0  0  0  0  0
    7.3253    0.3540   -2.6052 H   0  0  0  0  0  0  0  0  0  0  0  0
    4.8125   -2.5521   -1.1933 H   0  0  0  0  0  0  0  0  0  0  0  0
    4.8717   -4.1991   -1.8020 H   0  0  0  0  0  0  0  0  0  0  0  0
    3.8890   -2.2736   -3.8120 H   0  0  0  0  0  0  0  0  0  0  0  0
    4.8361   -3.7431   -4.0335 H   0  0  0  0  0  0  0  0  0  0  0  0
    6.6413   -2.5386   -4.3533 H   0  0  0  0  0  0  0  0  0  0  0  0
    5.7304   -1.0538   -4.1797 H   0  0  0  0  0  0  0  0  0  0  0  0
    6.7579   -2.4811   -1.6455 H   0  0  0  0  0  0  0  0  0  0  0  0
    7.9572   -1.7878   -2.7159 H   0  0  0  0  0  0  0  0  0  0  0  0
   -5.2518   -1.8888    4.9488 H   0  0  0  0  0  0  0  0  0  0  0  0
   -3.0221   -1.6144    4.9952 H   0  0  0  0  0  0  0  0  0  0  0  0
   -3.0101   -2.3586    3.3885 H   0  0  0  0  0  0  0  0  0  0  0  0
   -3.0809    0.5903    4.2712 H   0  0  0  0  0  0  0  0  0  0  0  0
   -1.8325   -0.2127    3.3026 H   0  0  0  0  0  0  0  0  0  0  0  0
   -3.1706    1.2715    1.9510 H   0  0  0  0  0  0  0  0  0  0  0  0
   -5.3253    1.4656    2.5446 H   0  0  0  0  0  0  0  0  0  0  0  0
   -6.6862   -0.5761    3.4421 H   0  0  0  0  0  0  0  0  0  0  0  0
   -2.6910   -1.5966    1.5261 H   0  0  0  0  0  0  0  0  0  0  0  0
   -3.7621   -1.3331   -0.8767 H   0  0  0  0  0  0  0  0  0  0  0  0
   -4.7438   -1.9760    0.4504 H   0  0  0  0  0  0  0  0  0  0  0  0
   -4.6299    1.0546    0.0549 H   0  0  0  0  0  0  0  0  0  0  0  0
   -6.3242   -0.9559    1.3280 H   0  0  0  0  0  0  0  0  0  0  0  0
   -6.8361   -0.7970   -1.0477 H   0  0  0  0  0  0  0  0  0  0  0  0
   -5.4734    2.2812   -3.5014 H   0  0  0  0  0  0  0  0  0  0  0  0
   -6.3969    1.0361   -4.4955 H   0  0  0  0  0  0  0  0  0  0  0  0
   -7.9537    0.6226   -2.7563 H   0  0  0  0  0  0  0  0  0  0  0  0
   -6.0285    2.0553   -1.0040 H   0  0  0  0  0  0  0  0  0  0  0  0
   -8.3851    2.9229   -3.6824 H   0  0  0  0  0  0  0  0  0  0  0  0
   -7.7281    4.8588   -2.4184 H   0  0  0  0  0  0  0  0  0  0  0  0
   -6.7963    3.9270   -1.2441 H   0  0  0  0  0  0  0  0  0  0  0  0
   -6.2444    4.0942   -3.0026 H   0  0  0  0  0  0  0  0  0  0  0  0
   -9.8272    3.6563   -2.0752 H   0  0  0  0  0  0  0  0  0  0  0  0
   -9.7250    1.8548   -1.7295 H   0  0  0  0  0  0  0  0  0  0  0  0
   -8.8321    3.0913   -0.7060 H   0  0  0  0  0  0  0  0  0  0  0  0
   -5.4660   -4.0657    4.5056 H   0  0  0  0  0  0  0  0  0  0  0  0
   -6.9616   -3.1254    4.3013 H   0  0  0  0  0  0  0  0  0  0  0  0
   -6.5036   -4.3265    3.0724 H   0  0  0  0  0  0  0  0  0  0  0  0
   -5.2204    1.6508    4.4998 H   0  0  0  0  0  0  0  0  0  0  0  0
   -5.0096    0.2124    5.6474 H   0  0  0  0  0  0  0  0  0  0  0  0
   -6.6153    0.8159    5.2095 H   0  0  0  0  0  0  0  0  0  0  0  0
    6.2544    2.5487    0.2295 H   0  0  0  0  0  0  0  0  0  0  0  0
    6.3107   -0.4153    2.1550 H   0  0  0  0  0  0  0  0  0  0  0  0
    8.0877    4.2026    1.3247 H   0  0  0  0  0  0  0  0  0  0  0  0
    9.0066    2.6832    0.0105 H   0  0  0  0  0  0  0  0  0  0  0  0
    9.1371    0.6711    2.9180 H   0  0  0  0  0  0  0  0  0  0  0  0
    6.5064    4.9489    3.1585 H   0  0  0  0  0  0  0  0  0  0  0  0
    6.1974    3.1662    3.6476 H   0  0  0  0  0  0  0  0  0  0  0  0
    8.7118    2.9268    4.1176 H   0  0  0  0  0  0  0  0  0  0  0  0
    8.9886    4.7050    3.5985 H   0  0  0  0  0  0  0  0  0  0  0  0
   -0.6263   -0.6826   -1.6982 H   0  0  0  0  0  0  0  0  0  0  0  0
   -0.8415   -2.3912   -1.0288 H   0  0  0  0  0  0  0  0  0  0  0  0
    1.1632   -2.0185    0.3384 H   0  0  0  0  0  0  0  0  0  0  0  0
    1.1074    0.7546   -0.9421 H   0  0  0  0  0  0  0  0  0  0  0  0
    0.3054    0.0712    1.9029 H   0  0  0  0  0  0  0  0  0  0  0  0
   -0.3395    1.2681    0.7485 H   0  0  0  0  0  0  0  0  0  0  0  0
   -1.1111   -1.6473    1.1518 H   0  0  0  0  0  0  0  0  0  0  0  0
    2.4727    1.4445    0.8612 H   0  0  0  0  0  0  0  0  0  0  0  0
    2.1335    0.5217    2.7076 H   0  0  0  0  0  0  0  0  0  0  0  0
    4.0013   -1.0054    0.6408 H   0  0  0  0  0  0  0  0  0  0  0  0
    2.8461   -1.2785   -1.7298 H   0  0  0  0  0  0  0  0  0  0  0  0
    1.5783   -0.2476   -3.0474 H   0  0  0  0  0  0  0  0  0  0  0  0
    3.9041    0.7907   -2.0684 H   0  0  0  0  0  0  0  0  0  0  0  0
    5.5072    0.5191    1.9309 H   0  0  0  0  0  0  0  0  0  0  0  0
    3.3886   -4.3193   -1.0366 H   0  0  0  0  0  0  0  0  0  0  0  0
    3.2241   -4.5226   -2.7793 H   0  0  0  0  0  0  0  0  0  0  0  0
    0.0638   -3.8446   -2.7066 H   0  0  0  0  0  0  0  0  0  0  0  0
    1.5722   -4.4437   -3.5494 H   0  0  0  0  0  0  0  0  0  0  0  0
    1.0201   -2.7913   -3.8524 H   0  0  0  0  0  0  0  0  0  0  0  0
    5.2295    2.9553   -0.4464 H   0  0  0  0  0  0  0  0  0  0  0  0
    3.4382    2.6051   -0.4848 H   0  0  0  0  0  0  0  0  0  0  0  0
    6.9547    0.9438   -1.4136 H   0  0  0  0  0  0  0  0  0  0  0  0
    6.2176    1.5018   -2.9287 H   0  0  0  0  0  0  0  0  0  0  0  0
    4.5561   -2.2573   -1.3302 H   0  0  0  0  0  0  0  0  0  0  0  0
    5.2877   -3.6401   -2.1257 H   0  0  0  0  0  0  0  0  0  0  0  0
    3.4848   -2.2231   -3.9534 H   0  0  0  0  0  0  0  0  0  0  0  0
    5.0371   -2.9924   -4.2743 H   0  0  0  0  0  0  0  0  0  0  0  0
    5.6522   -0.8964   -4.6769 H   0  0  0  0  0  0  0  0  0  0  0  0
    4.3469   -0.1674   -3.7661 H   0  0  0  0  0  0  0  0  0  0  0  0
    6.2773   -1.3941   -1.9136 H   0  0  0  0  0  0  0  0  0  0  0  0
    7.2370   -0.5892   -3.1374 H   0  0  0  0  0  0  0  0  0  0  0  0
   -5.2856   -1.6662    4.8384 H   0  0  0  0  0  0  0  0  0  0  0  0
   -3.2143   -0.8024    5.0347 H   0  0  0  0  0  0  0  0  0  0  0  0
   -2.8498   -1.8118    3.6162 H   0  0  0  0  0  0  0  0  0  0  0  0
   -3.5259    1.1509    3.9059 H   0  0  0  0  0  0  0  0  0  0  0  0
   -2.0898    0.4577    3.1333 H   0  0  0  0  0  0  0  0  0  0  0  0
   -3.5606    1.3993    1.4637 H   0  0  0  0  0  0  0  0  0  0  0  0
   -5.7073    1.4376    2.1328 H   0  0  0  0  0  0  0  0  0  0  0  0
   -6.8110   -0.7454    3.1674 H   0  0  0  0  0  0  0  0  0  0  0  0
   -2.8915   -1.5090    1.5424 H   0  0  0  0  0  0  0  0  0  0  0  0
   -3.7574   -1.3770   -1.0185 H   0  0  0  0  0  0  0  0  0  0  0  0
   -4.7218   -2.0950    0.2832 H   0  0  0  0  0  0  0  0  0  0  0  0
   -4.8459    0.9153   -0.2265 H   0  0  0  0  0  0  0  0  0  0  0  0
   -6.3233   -1.1976    1.1380 H   0  0  0  0  0  0  0  0  0  0  0  0
   -6.8547   -1.1460   -1.3355 H   0  0  0  0  0  0  0  0  0  0  0  0
   -5.6502    1.8921   -3.9738 H   0  0  0  0  0  0  0  0  0  0  0  0
   -6.5316    0.4970   -4.7975 H   0  0  0  0  0  0  0  0  0  0  0  0
   -8.1123    0.2331   -3.1352 H   0  0  0  0  0  0  0  0  0  0  0  0
   -6.4388    1.7605   -1.2108 H   0  0  0  0  0  0  0  0  0  0  0  0
   -8.5484    2.4815   -4.0883 H   0  0  0  0  0  0  0  0  0  0  0  0
   -7.9541    4.4408   -2.9828 H   0  0  0  0  0  0  0  0  0  0  0  0
   -7.1186    3.6446   -1.6425 H   0  0  0  0  0  0  0  0  0  0  0  0
   -6.4066    3.6713   -3.3540 H   0  0  0  0  0  0  0  0  0  0  0  0
   -9.9285    3.2966   -2.3729 H   0  0  0  0  0  0  0  0  0  0  0  0
   -9.9627    1.4680   -2.1961 H   0  0  0  0  0  0  0  0  0  0  0  0
   -8.9676    2.5348   -1.1004 H   0  0  0  0  0  0  0  0  0  0  0  0
   -4.9432   -3.8017    4.5199 H   0  0  0  0  0  0  0  0  0  0  0  0
   -6.6141   -3.2561    4.1241 H   0  0  0  0  0  0  0  0  0  0  0  0
   -5.8070   -4.4197    3.0505 H   0  0  0  0  0  0  0  0  0  0  0  0
   -5.8988    1.8043    4.0180 H   0  0  0  0  0  0  0  0  0  0  0  0
   -5.4016    0.5817    5.3193 H   0  0  0  0  0  0  0  0  0  0  0  0
   -7.0908    0.7646    4.8138 H   0  0  0  0  0  0  0  0  0  0  0  0
    6.1514    2.5327    1.2136 H   0  0  0  0  0  0  0  0  0  0  0  0
    6.5451   -1.2367    1.4408 H   0  0  0  0  0  0  0  0  0  0  0  0
    7.9727    2.2676    3.9212 H   0  0  0  0  0  0  0  0  0  0  0  0
    9.1463    3.1103    0.2116 H   0  0  0  0  0  0  0  0  0  0  0  0
    9.6449    0.0378    1.8100 H   0  0  0  0  0  0  0  0  0  0  0  0
    9.0103    4.3416    1.8674 H   0  0  0  0  0  0  0  0  0  0  0  0
    8.6592    4.6364    3.6712 H   0  0  0  0  0  0  0  0  0  0  0  0
   10.4081    2.8870    4.2166 H   0  0  0  0  0  0  0  0  0  0  0  0
   10.7233    2.6263    2.4117 H   0  0  0  0  0  0  0  0  0  0  0  0
   -0.8249   -0.5775   -2.3170 H   0  0  0  0  0  0  0  0  0  0  0  0
   -0.8451   -2.3421   -1.7897 H   0  0  0  0  0  0  0  0  0  0  0  0
    1.1735   -1.8624   -0.4337 H   0  0  0  0  0  0  0  0  0  0  0  0
    0.7082    0.9118   -1.6346 H   0  0  0  0  0  0  0  0  0  0  0  0
   -0.4617    1.2060    0.3120 H   0  0  0  0  0  0  0  0  0  0  0  0
    0.3812   -0.1018    1.2149 H   0  0  0  0  0  0  0  0  0  0  0  0
   -1.0477   -1.7672    0.4302 H   0  0  0  0  0  0  0  0  0  0  0  0
    2.5464    1.6705   -0.5495 H   0  0  0  0  0  0  0  0  0  0  0  0
    1.6645    1.5521    1.4305 H   0  0  0  0  0  0  0  0  0  0  0  0
    3.6272   -0.8975    0.2925 H   0  0  0  0  0  0  0  0  0  0  0  0
    2.5007   -0.7062   -2.7873 H   0  0  0  0  0  0  0  0  0  0  0  0
    1.3458   -1.2625   -4.4657 H   0  0  0  0  0  0  0  0  0  0  0  0
    4.8378   -0.4256   -2.4820 H   0  0  0  0  0  0  0  0  0  0  0  0
    4.6233    1.2960    1.4710 H   0  0  0  0  0  0  0  0  0  0  0  0
    2.7909   -3.0615   -0.5989 H   0  0  0  0  0  0  0  0  0  0  0  0
    2.8884   -4.4555   -1.6628 H   0  0  0  0  0  0  0  0  0  0  0  0
    0.7168   -3.7574   -3.5386 H   0  0  0  0  0  0  0  0  0  0  0  0
    2.2634   -4.6734   -3.4214 H   0  0  0  0  0  0  0  0  0  0  0  0
    2.1605   -3.3835   -4.6397 H   0  0  0  0  0  0  0  0  0  0  0  0
    5.6630    2.3648   -1.5911 H   0  0  0  0  0  0  0  0  0  0  0  0
    4.0118    1.8896   -2.2164 H   0  0  0  0  0  0  0  0  0  0  0  0
    7.2399   -0.0576   -0.5973 H   0  0  0  0  0  0  0  0  0  0  0  0
    7.4343    0.3882   -2.2988 H   0  0  0  0  0  0  0  0  0  0  0  0
    4.9169   -2.5100   -0.9060 H   0  0  0  0  0  0  0  0  0  0  0  0
    5.0353   -4.1968   -1.3780 H   0  0  0  0  0  0  0  0  0  0  0  0
    4.2577   -2.4596   -3.6291 H   0  0  0  0  0  0  0  0  0  0  0  0
    5.2618   -3.9051   -3.6239 H   0  0  0  0  0  0  0  0  0  0  0  0
    7.0537   -2.6507   -3.8571 H   0  0  0  0  0  0  0  0  0  0  0  0
    6.0830   -1.1927   -3.8835 H   0  0  0  0  0  0  0  0  0  0  0  0
    6.9007   -2.3789   -1.1332 H   0  0  0  0  0  0  0  0  0  0  0  0
    8.1583   -1.7243   -2.1561 H   0  0  0  0  0  0  0  0  0  0  0  0
   -4.8914   -2.0342    4.7995 H   0  0  0  0  0  0  0  0  0  0  0  0
   -2.6986   -1.7581    4.3738 H   0  0  0  0  0  0  0  0  0  0  0  0
   -2.8211   -2.5153    2.7806 H   0  0  0  0  0  0  0  0  0  0  0  0
   -1.8164   -0.3918    2.5457 H   0  0  0  0  0  0  0  0  0  0  0  0
   -2.9963    0.4562    3.5592 H   0  0  0  0  0  0  0  0  0  0  0  0
   -3.4202    1.0193    1.3334 H   0  0  0  0  0  0  0  0  0  0  0  0
   -5.5877    0.9133    1.9040 H   0  0  0  0  0  0  0  0  0  0  0  0
   -4.9725    0.2057    4.0007 H   0  0  0  0  0  0  0  0  0  0  0  0
   -2.7614   -1.7879    0.8776 H   0  0  0  0  0  0  0  0  0  0  0  0
   -4.0096   -1.0171   -1.6366 H   0  0  0  0  0  0  0  0  0  0  0  0
   -4.3721   -2.3844   -0.5784 H   0  0  0  0  0  0  0  0  0  0  0  0
   -6.3827   -1.2856   -0.9491 H   0  0  0  0  0  0  0  0  0  0  0  0
   -6.0644   -1.8993    1.2012 H   0  0  0  0  0  0  0  0  0  0  0  0
   -5.2516    1.4528   -0.1098 H   0  0  0  0  0  0  0  0  0  0  0  0
   -6.5522    2.8496   -3.5408 H   0  0  0  0  0  0  0  0  0  0  0  0
   -7.4898    1.2652   -3.5781 H   0  0  0  0  0  0  0  0  0  0  0  0
   -8.5395    2.2036   -1.8316 H   0  0  0  0  0  0  0  0  0  0  0  0
   -7.7390    0.3164   -1.0530 H   0  0  0  0  0  0  0  0  0  0  0  0
   -7.7387    3.7012   -0.1959 H   0  0  0  0  0  0  0  0  0  0  0  0
   -8.3112    5.3772   -1.5839 H   0  0  0  0  0  0  0  0  0  0  0  0
   -6.8687    5.1292   -2.6252 H   0  0  0  0  0  0  0  0  0  0  0  0
   -8.3447    4.0902   -2.8495 H   0  0  0  0  0  0  0  0  0  0  0  0
   -5.4517    3.8038    0.2541 H   0  0  0  0  0  0  0  0  0  0  0  0
   -4.9472    3.4331   -1.4131 H   0  0  0  0  0  0  0  0  0  0  0  0
   -5.5967    5.0181   -1.0089 H   0  0  0  0  0  0  0  0  0  0  0  0
   -4.9823   -4.3624    4.6155 H   0  0  0  0  0  0  0  0  0  0  0  0
   -6.6489   -3.6093    4.3071 H   0  0  0  0  0  0  0  0  0  0  0  0
   -5.9625   -4.8197    3.2104 H   0  0  0  0  0  0  0  0  0  0  0  0
   -7.2131    0.4241    3.8868 H   0  0  0  0  0  0  0  0  0  0  0  0
   -7.1437   -1.2223    4.5314 H   0  0  0  0  0  0  0  0  0  0  0  0
   -7.4629   -0.9123    2.7368 H   0  0  0  0  0  0  0  0  0  0  0  0
    5.9353    2.7028    0.3054 H   0  0  0  0  0  0  0  0  0  0  0  0
    5.5732   -0.3364    2.3824 H   0  0  0  0  0  0  0  0  0  0  0  0
    7.3898    4.5419    1.7800 H   0  0  0  0  0  0  0  0  0  0  0  0
    8.6080    3.2364    0.4079 H   0  0  0  0  0  0  0  0  0  0  0  0
    8.6875    0.6453    2.7526 H   0  0  0  0  0  0  0  0  0  0  0  0
    5.5713    4.8985    3.4961 H   0  0  0  0  0  0  0  0  0  0  0  0
    5.5530    3.0946    3.8720 H   0  0  0  0  0  0  0  0  0  0  0  0
    8.0609    3.1496    4.4552 H   0  0  0  0  0  0  0  0  0  0  0  0
    8.0986    4.9763    4.1237 H   0  0  0  0  0  0  0  0  0  0  0  0
  1  2  1  0
  2  3  1  0
  3  4  1  0
  1  5  1  0
  4  5  1  0
  3  6  1  0
  6  7  1  0
  6  8  1  0
  2  9  1  0
  9 10  1  0
  9 13  1  0
 13 14  1  0
 13 15  1  0
  8 16  1  0
 11 16  1  0
 16 12  1  1
 11 17  1  0
 16 17  1  0
 11 18  1  0
 14 19  1  0
 19 20  1  0
 20 21  1  0
 18 22  1  0
 21 22  1  0
  5 23  1  0
 24 25  1  0
 25 26  1  0
 26 27  1  0
 27 28  1  0
 24 29  1  0
 28 29  1  0
 23 30  1  0
 27 30  1  0
 30 31  1  0
 31 32  1  0
 28 33  1  0
 32 33  1  0
 32 34  1  0
 34 35  1  0
 35 36  1  0
 36 37  1  0
 34 38  1  0
 37 38  1  0
 37 39  1  0
 39 40  1  0
 39 41  1  0
 24 42  1  0
 42 43  1  0
 29 44  1  0
 12 45  1  0
 12 46  1  0
 45 47  1  0
 47 48  1  0
 47 49  1  0
 47 50  1  0
 48 51  1  0
 48 52  1  0
 51 52  1  0
 53 54  1  0
 54 55  1  0
 55 56  1  0
 53 57  1  0
 56 57  1  0
 55 58  1  0
 58 59  1  0
 58 60  1  0
 54 61  1  0
 61 62  1  0
 61 65  1  0
 65 66  1  0
 65 67  1  0
 68 60  1  1
 63 68  1  0
 64 68  1  0
 63 69  1  0
 68 69  1  0
 63 70  1  0
 66 71  1  0
 71 72  1  0
 72 73  1  0
 70 74  1  0
 73 74  1  0
 57 75  1  0
 76 77  1  0
 77 78  1  0
 78 79  1  0
 79 80  1  0
 76 81  1  0
 80 81  1  0
 75 82  1  0
 79 82  1  0
 82 83  1  0
 83 84  1  0
 80 85  1  0
 84 85  1  0
 84 86  1  0
 86 87  1  0
 87 88  1  0
 88 89  1  0
 86 90  1  0
 89 90  1  0
 89 91  1  0
 91 92  1  0
 91 93  1  0
 76 94  1  0
 94 95  1  0
 81 96  1  0
 64 97  1  0
 64 98  1  0
 97 99  1  0
 99100  1  0
 99101  1  0
 99102  1  0
100103  1  0
100104  1  0
103104  1  0
105106  1  0
106107  1  0
107108  1  0
105109  1  0
108109  1  0
107110  1  0
110111  1  0
110112  1  0
106113  1  0
113114  1  0
113117  1  0
117118  1  0
117119  1  0
120112  1  6
115120  1  0
116120  1  0
115121  1  0
120121  1  0
115122  1  0
118123  1  0
123124  1  0
124125  1  0
122126  1  0
125126  1  0
109127  1  0
128129  1  0
129130  1  0
130131  1  0
131132  1  0
128133  1  0
132133  1  0
127134  1  0
131134  1  0
134135  1  0
135136  1  0
132137  1  0
136137  1  0
136138  1  0
138139  1  0
139140  1  0
140141  1  0
138142  1  0
141142  1  0
141143  1  0
143144  1  0
143145  1  0
128146  1  0
146147  1  0
133148  1  0
116149  1  0
116150  1  0
149151  1  0
151152  1  0
151153  1  0
151154  1  0
152155  1  0
152156  1  0
155156  1  0
157158  1  0
158159  1  0
159160  1  0
157161  1  0
160161  1  0
159162  1  0
162163  1  0
162164  1  0
158165  1  0
165166  1  0
165169  1  0
169170  1  0
169171  1  0
164172  1  0
167172  1  0
172168  1  1
167173  1  0
172173  1  0
167174  1  0
170175  1  0
175176  1  0
176177  1  0
174178  1  0
177178  1  0
161179  1  0
180181  1  0
181182  1  0
182183  1  0
183184  1  0
180185  1  0
184185  1  0
179186  1  0
183186  1  0
186187  1  0
187188  1  0
184189  1  0
188189  1  0
188190  1  0
190191  1  0
191192  1  0
192193  1  0
190194  1  0
193194  1  0
193195  1  0
195196  1  0
195197  1  0
180198  1  0
198199  1  0
185200  1  0
168201  1  0
168202  1  0
201203  1  0
203204  1  0
203205  1  0
203206  1  0
204207  1  0
204208  1  0
207208  1  0
  1209  1  0
  1210  1  0
  2211  1  1
  3212  1  6
  4213  1  0
  4214  1  0
  5215  1  1
  6216  1  1
  7217  1  0
  8218  1  0
  9219  1  0
 10220  1  0
 11221  1  6
 12222  1  0
 14223  1  0
 14224  1  0
 15225  1  0
 15226  1  0
 15227  1  0
 17228  1  0
 17229  1  0
 18230  1  0
 18231  1  0
 19232  1  0
 19233  1  0
 20234  1  0
 20235  1  0
 21236  1  0
 21237  1  0
 22238  1  0
 22239  1  0
 24240  1  0
 25241  1  0
 25242  1  0
 26243  1  0
 26244  1  0
 27245  1  0
 28246  1  0
 29247  1  0
 30248  1  0
 31249  1  0
 31250  1  0
 32251  1  6
 33252  1  0
 34253  1  6
 36254  1  0
 36255  1  0
 37256  1  6
 38257  1  0
 39258  1  0
 40259  1  0
 40260  1  0
 40261  1  0
 41262  1  0
 41263  1  0
 41264  1  0
 43265  1  0
 43266  1  0
 43267  1  0
 44268  1  0
 44269  1  0
 44270  1  0
 45271  1  0
 46272  1  0
 48273  1  0
 49274  1  0
 50275  1  0
 51276  1  0
 51277  1  0
 52278  1  0
 52279  1  0
 53280  1  0
 53281  1  0
 54282  1  1
 55283  1  6
 56284  1  0
 56285  1  0
 57286  1  1
 58287  1  0
 59288  1  0
 60289  1  0
 61290  1  0
 62291  1  0
 63292  1  6
 64293  1  1
 66294  1  0
 66295  1  0
 67296  1  0
 67297  1  0
 67298  1  0
 69299  1  0
 69300  1  0
 70301  1  0
 70302  1  0
 71303  1  0
 71304  1  0
 72305  1  0
 72306  1  0
 73307  1  0
 73308  1  0
 74309  1  0
 74310  1  0
 76311  1  0
 77312  1  0
 77313  1  0
 78314  1  0
 78315  1  0
 79316  1  0
 80317  1  0
 81318  1  0
 82319  1  0
 83320  1  0
 83321  1  0
 84322  1  0
 85323  1  0
 86324  1  0
 88325  1  0
 88326  1  0
 89327  1  0
 90328  1  0
 91329  1  0
 92330  1  0
 92331  1  0
 92332  1  0
 93333  1  0
 93334  1  0
 93335  1  0
 95336  1  0
 95337  1  0
 95338  1  0
 96339  1  0
 96340  1  0
 96341  1  0
 97342  1  0
 98343  1  0
100344  1  0
101345  1  0
102346  1  0
103347  1  0
103348  1  0
104349  1  0
104350  1  0
105351  1  0
105352  1  0
106353  1  1
107354  1  6
108355  1  0
108356  1  0
109357  1  1
110358  1  0
111359  1  0
112360  1  0
113361  1  0
114362  1  0
115363  1  6
116364  1  1
118365  1  0
118366  1  0
119367  1  0
119368  1  0
119369  1  0
121370  1  0
121371  1  0
122372  1  0
122373  1  0
123374  1  0
123375  1  0
124376  1  0
124377  1  0
125378  1  0
125379  1  0
126380  1  0
126381  1  0
128382  1  0
129383  1  0
129384  1  0
130385  1  0
130386  1  0
131387  1  0
132388  1  0
133389  1  0
134390  1  0
135391  1  0
135392  1  0
136393  1  0
137394  1  0
138395  1  0
140396  1  0
140397  1  0
141398  1  6
142399  1  0
143400  1  0
144401  1  0
144402  1  0
144403  1  0
145404  1  0
145405  1  0
145406  1  0
147407  1  0
147408  1  0
147409  1  0
148410  1  0
148411  1  0
148412  1  0
149413  1  0
150414  1  0
152415  1  0
153416  1  0
154417  1  0
155418  1  0
155419  1  0
156420  1  0
156421  1  0
157422  1  0
157423  1  0
158424  1  1
159425  1  6
160426  1  0
160427  1  0
161428  1  1
162429  1  0
163430  1  0
164431  1  0
165432  1  0
166433  1  0
167434  1  6
168435  1  0
170436  1  0
170437  1  0
171438  1  0
171439  1  0
171440  1  0
173441  1  0
173442  1  0
174443  1  0
174444  1  0
175445  1  0
175446  1  0
176447  1  0
176448  1  0
177449  1  0
177450  1  0
178451  1  0
178452  1  0
180453  1  0
181454  1  0
181455  1  0
182456  1  0
182457  1  0
183458  1  0
184459  1  0
185460  1  0
186461  1  0
187462  1  0
187463  1  0
188464  1  6
189465  1  0
190466  1  1
192467  1  0
192468  1  0
193469  1  0
194470  1  0
195471  1  0
196472  1  0
196473  1  0
196474  1  0
197475  1  0
197476  1  0
197477  1  0
199478  1  0
199479  1  0
199480  1  0
200481  1  0
200482  1  0
200483  1  0
201484  1  0
202485  1  0
204486  1  0
205487  1  0
206488  1  0
207489  1  0
207490  1  0
208491  1  0
208492  1  0
M  END
>  <PDBID>  (1) 
3KEE

>  <PDB ID>  (1) 
3KEE

>  <Generic Name>  (1) 
Simeprevir

>  <Brand Name>  (1) 
Galexos#Olysio

>  <DrugBank ID>  (1) 
DB06290

>  <ATC Codes>  (1) 
J05AE14

>  <Ligand ID>  (1) 
30B

>  <Target Name>  (1) 
NS3 protease

>  <UniProt ID>  (1) 
Q91RS4

>  <PDB ID.1>  (1) 
3KEE

>  <Seq. Identity>  (1) 
82%

$$$$
