PDB_DB00932_01
     RDKit          3D

 99102  0  0  0  0  0  0  0  0999 V2000
   -2.8080   -1.2897   -0.4631 O   0  0  0  0  0  0  0  0  0  0  0  0
   -1.6458   -1.8779   -0.0463 C   0  0  0  0  0  0  0  0  0  0  0  0
   -0.9916   -0.9971    0.9876 C   0  0  0  0  0  0  0  0  0  0  0  0
   -1.9589   -0.7822    2.0918 C   0  0  0  0  0  0  0  0  0  0  0  0
   -3.3828   -1.0762    1.8596 C   0  0  0  0  0  0  0  0  0  0  0  0
   -3.8309   -1.2862    0.4357 C   0  0  2  0  0  0  0  0  0  0  0  0
   -1.7888   -3.1875    0.4262 O   0  0  0  0  0  0  0  0  0  0  0  0
   -1.8382    0.5313    2.5499 O   0  0  0  0  0  0  0  0  0  0  0  0
   -4.5913   -2.5867    0.3436 C   0  0  0  0  0  0  0  0  0  0  0  0
   -5.1913   -2.8569   -1.0130 C   0  0  0  0  0  0  0  0  0  0  0  0
   -5.8695   -4.2212   -0.8952 C   0  0  0  0  0  0  0  0  0  0  0  0
   -4.8277   -0.2182    0.0033 C   0  0  0  0  0  0  0  0  0  0  0  0
   -4.2390    1.1571   -0.0260 C   0  0  0  0  0  0  0  0  0  0  0  0
   -5.2648    2.1895   -0.4680 C   0  0  0  0  0  0  0  0  0  0  0  0
   -5.7792    1.8639   -1.8758 C   0  0  0  0  0  0  0  0  0  0  0  0
   -6.6974    2.9586   -2.3151 C   0  0  0  0  0  0  0  0  0  0  0  0
   -6.9677    3.9949   -1.2750 C   0  0  0  0  0  0  0  0  0  0  0  0
   -7.2850    3.4464    0.0768 C   0  0  0  0  0  0  0  0  0  0  0  0
   -6.4726    2.2171    0.4282 C   0  0  0  0  0  0  0  0  0  0  0  0
    0.3300   -1.5340    1.3541 C   0  0  2  0  0  0  0  0  0  0  0  0
    1.0769   -0.7800    2.4053 C   0  0  0  0  0  0  0  0  0  0  0  0
    1.4168    0.6303    2.1736 C   0  0  0  0  0  0  0  0  0  0  0  0
    1.1448   -1.8838    0.1526 C   0  0  0  0  0  0  0  0  0  0  0  0
    2.5200   -2.4579    0.6068 C   0  0  0  0  0  0  0  0  0  0  0  0
    3.0762   -3.3334   -0.4632 C   0  0  0  0  0  0  0  0  0  0  0  0
    3.0158   -2.5582   -1.7604 C   0  0  0  0  0  0  0  0  0  0  0  0
    2.8009   -1.0932   -1.5425 C   0  0  0  0  0  0  0  0  0  0  0  0
    3.8652   -0.4228   -0.8718 N   0  0  0  0  0  0  0  0  0  0  0  0
    1.4852   -0.8042   -0.8012 C   0  0  0  0  0  0  0  0  0  0  0  0
    5.3219   -0.3762   -1.4857 S   0  0  0  0  0  0  0  0  0  0  0  0
    5.9931   -2.0406   -1.3210 O   0  0  0  0  0  0  0  0  0  0  0  0
    5.5711    0.0625   -2.8187 O   0  0  0  0  0  0  0  0  0  0  0  0
    6.3423    0.3587   -0.1996 C   0  0  1  0  0  0  0  0  0  0  0  0
    7.7085    0.4289   -0.6600 N   0  0  0  0  0  0  0  0  0  0  0  0
    8.1207    1.7613   -0.9859 C   0  0  0  0  0  0  0  0  0  0  0  0
    8.1425    2.6300    0.2561 C   0  0  2  0  0  0  0  0  0  0  0  0
    6.8625    2.4079    0.9976 C   0  0  0  0  0  0  0  0  0  0  0  0
    5.8045    1.7061    0.1757 C   0  0  0  0  0  0  0  0  0  0  0  0
    8.2974    4.0572   -0.1656 C   0  0  0  0  0  0  0  0  0  0  0  0
    9.4800    4.1950   -0.8632 F   0  0  0  0  0  0  0  0  0  0  0  0
    7.2242    4.4485   -0.9398 F   0  0  0  0  0  0  0  0  0  0  0  0
    8.3993    4.8581    0.9553 F   0  0  0  0  0  0  0  0  0  0  0  0
   -1.0319   -2.0041   -0.9821 H   0  0  0  0  0  0  0  0  0  0  0  0
   -0.8256   -0.0037    0.4734 H   0  0  0  0  0  0  0  0  0  0  0  0
   -1.6036   -1.4003    2.9734 H   0  0  0  0  0  0  0  0  0  0  0  0
   -3.7079   -1.9626    2.4662 H   0  0  0  0  0  0  0  0  0  0  0  0
   -4.0430   -0.2522    2.2673 H   0  0  0  0  0  0  0  0  0  0  0  0
   -1.7264   -3.2655    1.3958 H   0  0  0  0  0  0  0  0  0  0  0  0
   -1.6345    1.1667    1.8270 H   0  0  0  0  0  0  0  0  0  0  0  0
   -4.0409   -3.4655    0.7382 H   0  0  0  0  0  0  0  0  0  0  0  0
   -5.4993   -2.5553    1.0383 H   0  0  0  0  0  0  0  0  0  0  0  0
   -4.5053   -2.7782   -1.8522 H   0  0  0  0  0  0  0  0  0  0  0  0
   -6.0601   -2.1646   -1.2358 H   0  0  0  0  0  0  0  0  0  0  0  0
   -6.5934   -4.1408   -0.0583 H   0  0  0  0  0  0  0  0  0  0  0  0
   -6.3995   -4.4470   -1.8308 H   0  0  0  0  0  0  0  0  0  0  0  0
   -5.0820   -4.9704   -0.7030 H   0  0  0  0  0  0  0  0  0  0  0  0
   -5.7295   -0.3471    0.6034 H   0  0  0  0  0  0  0  0  0  0  0  0
   -5.1100   -0.4904   -1.0572 H   0  0  0  0  0  0  0  0  0  0  0  0
   -3.8175    1.4934    0.9162 H   0  0  0  0  0  0  0  0  0  0  0  0
   -3.4292    1.1742   -0.7828 H   0  0  0  0  0  0  0  0  0  0  0  0
   -4.8341    3.1979   -0.5278 H   0  0  0  0  0  0  0  0  0  0  0  0
   -6.3763    0.9344   -1.7834 H   0  0  0  0  0  0  0  0  0  0  0  0
   -4.9368    1.6800   -2.5762 H   0  0  0  0  0  0  0  0  0  0  0  0
   -7.6679    2.5867   -2.7059 H   0  0  0  0  0  0  0  0  0  0  0  0
   -6.2108    3.4804   -3.1902 H   0  0  0  0  0  0  0  0  0  0  0  0
   -7.8768    4.5724   -1.6157 H   0  0  0  0  0  0  0  0  0  0  0  0
   -6.1652    4.7579   -1.1928 H   0  0  0  0  0  0  0  0  0  0  0  0
   -8.3795    3.2312    0.1988 H   0  0  0  0  0  0  0  0  0  0  0  0
   -7.0875    4.2728    0.8193 H   0  0  0  0  0  0  0  0  0  0  0  0
   -6.2376    2.2760    1.4985 H   0  0  0  0  0  0  0  0  0  0  0  0
   -7.1272    1.3397    0.1711 H   0  0  0  0  0  0  0  0  0  0  0  0
    0.1243   -2.5400    1.8485 H   0  0  0  0  0  0  0  0  0  0  0  0
    0.4668   -0.8760    3.3543 H   0  0  0  0  0  0  0  0  0  0  0  0
    1.9979   -1.3771    2.6362 H   0  0  0  0  0  0  0  0  0  0  0  0
    1.5360    1.1357    3.1893 H   0  0  0  0  0  0  0  0  0  0  0  0
    0.7347    1.2159    1.5374 H   0  0  0  0  0  0  0  0  0  0  0  0
    2.4531    0.8002    1.7501 H   0  0  0  0  0  0  0  0  0  0  0  0
    0.7276   -2.7315   -0.4297 H   0  0  0  0  0  0  0  0  0  0  0  0
    2.2392   -3.1209    1.4726 H   0  0  0  0  0  0  0  0  0  0  0  0
    3.1720   -1.6866    1.0030 H   0  0  0  0  0  0  0  0  0  0  0  0
    4.0839   -3.6468   -0.1737 H   0  0  0  0  0  0  0  0  0  0  0  0
    2.4209   -4.2406   -0.5331 H   0  0  0  0  0  0  0  0  0  0  0  0
    2.1765   -2.9446   -2.3626 H   0  0  0  0  0  0  0  0  0  0  0  0
    3.9672   -2.6928   -2.2786 H   0  0  0  0  0  0  0  0  0  0  0  0
    2.7353   -0.6325   -2.5686 H   0  0  0  0  0  0  0  0  0  0  0  0
    3.5549    0.4414   -0.3784 H   0  0  0  0  0  0  0  0  0  0  0  0
    1.6299    0.2037   -0.3918 H   0  0  0  0  0  0  0  0  0  0  0  0
    0.7385   -0.6923   -1.6140 H   0  0  0  0  0  0  0  0  0  0  0  0
    6.0066   -2.2014   -0.3635 H   0  0  0  0  0  0  0  0  0  0  0  0
    6.3528    0.4827   -3.2282 H   0  0  0  0  0  0  0  0  0  0  0  0
    6.2575   -0.3152    0.6746 H   0  0  0  0  0  0  0  0  0  0  0  0
    7.9274   -0.2497   -1.4050 H   0  0  0  0  0  0  0  0  0  0  0  0
    9.1662    1.7054   -1.3644 H   0  0  0  0  0  0  0  0  0  0  0  0
    7.5078    2.2671   -1.7353 H   0  0  0  0  0  0  0  0  0  0  0  0
    9.0339    2.3537    0.8709 H   0  0  0  0  0  0  0  0  0  0  0  0
    7.1123    1.8048    1.9173 H   0  0  0  0  0  0  0  0  0  0  0  0
    6.5107    3.4003    1.3668 H   0  0  0  0  0  0  0  0  0  0  0  0
    4.9055    1.6308    0.8055 H   0  0  0  0  0  0  0  0  0  0  0  0
    5.6308    2.3513   -0.7216 H   0  0  0  0  0  0  0  0  0  0  0  0
  1  2  1  0
  2  3  1  0
  3  4  1  0
  4  5  1  0
  1  6  1  0
  5  6  1  0
  2  7  1  0
  4  8  1  0
  6  9  1  1
  9 10  1  0
 10 11  1  0
  6 12  1  0
 12 13  1  0
 13 14  1  0
 14 15  1  0
 15 16  1  0
 16 17  1  0
 17 18  1  0
 14 19  1  0
 18 19  1  0
  3 20  1  0
 20 21  1  0
 21 22  1  0
 20 23  1  0
 23 24  1  0
 24 25  1  0
 25 26  1  0
 26 27  1  0
 27 28  1  0
 23 29  1  0
 27 29  1  0
 28 30  1  0
 30 31  1  0
 30 32  1  0
 30 33  1  0
 33 34  1  0
 34 35  1  0
 35 36  1  0
 36 37  1  0
 33 38  1  0
 37 38  1  0
 36 39  1  0
 39 40  1  0
 39 41  1  0
 39 42  1  0
  2 43  1  0
  3 44  1  0
  4 45  1  0
  5 46  1  0
  5 47  1  0
  7 48  1  0
  8 49  1  0
  9 50  1  0
  9 51  1  0
 10 52  1  0
 10 53  1  0
 11 54  1  0
 11 55  1  0
 11 56  1  0
 12 57  1  0
 12 58  1  0
 13 59  1  0
 13 60  1  0
 14 61  1  0
 15 62  1  0
 15 63  1  0
 16 64  1  0
 16 65  1  0
 17 66  1  0
 17 67  1  0
 18 68  1  0
 18 69  1  0
 19 70  1  0
 19 71  1  0
 20 72  1  1
 21 73  1  0
 21 74  1  0
 22 75  1  0
 22 76  1  0
 22 77  1  0
 23 78  1  0
 24 79  1  0
 24 80  1  0
 25 81  1  0
 25 82  1  0
 26 83  1  0
 26 84  1  0
 27 85  1  0
 28 86  1  0
 29 87  1  0
 29 88  1  0
 31 89  1  0
 32 90  1  0
 33 91  1  1
 34 92  1  0
 35 93  1  0
 35 94  1  0
 36 95  1  1
 37 96  1  0
 37 97  1  0
 38 98  1  0
 38 99  1  0
M  END
>  <PDBID>  (1) 
2O4P

>  <PDB ID>  (1) 
2O4P

>  <Generic Name>  (1) 
Tipranavir

>  <Brand Name>  (1) 
Aptivus

>  <DrugBank ID>  (1) 
DB00932

>  <ATC Codes>  (1) 
J05AE09

>  <Ligand ID>  (1) 
TPV

>  <Target Name>  (1) 
Pol polyprotein

>  <UniProt ID>  (1) 
Q72874

>  <PDB ID.1>  (1) 
2O4P

>  <Seq. Identity>  (1) 
98%

$$$$
