PDB_DB00421_03
     RDKit          3D

138146  0  0  0  0  0  0  0  0999 V2000
    3.0692    1.8482    0.1769 C   0  0  0  0  0  0  0  0  0  0  0  0
    1.7764   -1.4675    0.7983 C   0  0  0  0  0  0  0  0  0  0  0  0
    2.1951   -0.3618   -0.1206 C   0  0  1  0  0  0  0  0  0  0  0  0
   -1.8722   -1.4969   -0.3798 C   0  0  1  0  0  0  0  0  0  0  0  0
    1.0932    0.6810    0.0472 C   0  0  1  0  0  0  0  0  0  0  0  0
   -2.3730   -2.8091    0.1256 C   0  0  0  0  0  0  0  0  0  0  0  0
    0.4539   -2.0365    0.2981 C   0  0  0  0  0  0  0  0  0  0  0  0
    1.7266    1.8796   -0.5506 C   0  0  0  0  0  0  0  0  0  0  0  0
    3.4287    0.3690    0.2891 C   0  0  2  0  0  0  0  0  0  0  0  0
    2.3633   -0.7851   -1.5531 C   0  0  0  0  0  0  0  0  0  0  0  0
   -1.7272   -1.5556   -1.8960 C   0  0  0  0  0  0  0  0  0  0  0  0
   -3.4594   -2.6591    1.1842 C   0  0  0  0  0  0  0  0  0  0  0  0
    3.9757    0.0082    1.6288 C   0  0  0  0  0  0  0  0  0  0  0  0
    5.3907   -0.4883    1.3497 C   0  0  0  0  0  0  0  0  0  0  0  0
    5.2768   -0.8368   -0.1087 C   0  0  0  0  0  0  0  0  0  0  0  0
   -2.0442    3.9316    0.4340 C   0  0  0  0  0  0  0  0  0  0  0  0
   -1.2253    5.2145    0.3590 C   0  0  0  0  0  0  0  0  0  0  0  0
   -4.6781   -2.0409    0.5445 C   0  0  0  0  0  0  0  0  0  0  0  0
   -4.3051   -0.9187   -0.4176 C   0  0  0  0  0  0  0  0  0  0  0  0
   -2.9304   -0.4551   -0.0318 C   0  0  2  0  0  0  0  0  0  0  0  0
   -2.6306    0.8902   -0.6021 C   0  0  0  0  0  0  0  0  0  0  0  0
   -1.2043    1.3071   -0.5595 C   0  0  2  0  0  0  0  0  0  0  0  0
   -0.1901    0.2236   -0.5456 C   0  0  2  0  0  0  0  0  0  0  0  0
   -0.6183   -0.9980    0.2634 C   0  0  1  0  0  0  0  0  0  0  0  0
    6.4951   -0.8229   -0.7636 O   0  0  0  0  0  0  0  0  0  0  0  0
    4.4993    0.1893   -0.5997 O   0  0  0  0  0  0  0  0  0  0  0  0
   -3.0738    4.0483    1.3609 O   0  0  0  0  0  0  0  0  0  0  0  0
   -5.3470   -3.0096   -0.2205 O   0  0  0  0  0  0  0  0  0  0  0  0
   -0.9907    2.4984    0.8069 S   0  0  0  0  0  0  0  0  0  0  0  0
    3.0692    1.8482    0.1769 C   0  0  0  0  0  0  0  0  0  0  0  0
    1.7764   -1.4675    0.7983 C   0  0  0  0  0  0  0  0  0  0  0  0
    2.1951   -0.3618   -0.1206 C   0  0  1  0  0  0  0  0  0  0  0  0
   -1.8722   -1.4969   -0.3798 C   0  0  1  0  0  0  0  0  0  0  0  0
    1.0932    0.6810    0.0472 C   0  0  1  0  0  0  0  0  0  0  0  0
   -2.3730   -2.8091    0.1256 C   0  0  0  0  0  0  0  0  0  0  0  0
    0.4539   -2.0365    0.2981 C   0  0  0  0  0  0  0  0  0  0  0  0
    1.7266    1.8796   -0.5506 C   0  0  0  0  0  0  0  0  0  0  0  0
    3.4287    0.3690    0.2891 C   0  0  2  0  0  0  0  0  0  0  0  0
    2.3633   -0.7851   -1.5531 C   0  0  0  0  0  0  0  0  0  0  0  0
   -1.7272   -1.5556   -1.8960 C   0  0  0  0  0  0  0  0  0  0  0  0
   -3.4594   -2.6591    1.1842 C   0  0  0  0  0  0  0  0  0  0  0  0
    3.9757    0.0082    1.6288 C   0  0  0  0  0  0  0  0  0  0  0  0
    5.3907   -0.4883    1.3497 C   0  0  0  0  0  0  0  0  0  0  0  0
    5.2768   -0.8368   -0.1087 C   0  0  0  0  0  0  0  0  0  0  0  0
   -2.0442    3.9316    0.4340 C   0  0  0  0  0  0  0  0  0  0  0  0
   -1.2253    5.2145    0.3590 C   0  0  0  0  0  0  0  0  0  0  0  0
   -4.6781   -2.0409    0.5445 C   0  0  0  0  0  0  0  0  0  0  0  0
   -4.3051   -0.9187   -0.4176 C   0  0  0  0  0  0  0  0  0  0  0  0
   -2.9304   -0.4551   -0.0318 C   0  0  2  0  0  0  0  0  0  0  0  0
   -2.6306    0.8902   -0.6021 C   0  0  0  0  0  0  0  0  0  0  0  0
   -1.2043    1.3071   -0.5595 C   0  0  2  0  0  0  0  0  0  0  0  0
   -0.1901    0.2236   -0.5456 C   0  0  2  0  0  0  0  0  0  0  0  0
   -0.6183   -0.9980    0.2634 C   0  0  1  0  0  0  0  0  0  0  0  0
    6.4951   -0.8229   -0.7636 O   0  0  0  0  0  0  0  0  0  0  0  0
    4.4993    0.1893   -0.5997 O   0  0  0  0  0  0  0  0  0  0  0  0
   -3.0738    4.0483    1.3609 O   0  0  0  0  0  0  0  0  0  0  0  0
   -5.3470   -3.0096   -0.2205 O   0  0  0  0  0  0  0  0  0  0  0  0
   -0.9907    2.4984    0.8069 S   0  0  0  0  0  0  0  0  0  0  0  0
    3.8260    2.4332   -0.3572 H   0  0  0  0  0  0  0  0  0  0  0  0
    2.9898    2.2235    1.2111 H   0  0  0  0  0  0  0  0  0  0  0  0
    2.5145   -2.2712    0.9142 H   0  0  0  0  0  0  0  0  0  0  0  0
    1.4943   -0.9828    1.7686 H   0  0  0  0  0  0  0  0  0  0  0  0
    0.9637    0.8405    1.1243 H   0  0  0  0  0  0  0  0  0  0  0  0
   -2.8805   -3.3262   -0.7291 H   0  0  0  0  0  0  0  0  0  0  0  0
   -1.6030   -3.5057    0.4755 H   0  0  0  0  0  0  0  0  0  0  0  0
    0.1723   -2.7641    1.1031 H   0  0  0  0  0  0  0  0  0  0  0  0
    0.5576   -2.6319   -0.6158 H   0  0  0  0  0  0  0  0  0  0  0  0
    1.9067    1.8392   -1.6310 H   0  0  0  0  0  0  0  0  0  0  0  0
    1.2622    2.8429   -0.3116 H   0  0  0  0  0  0  0  0  0  0  0  0
    1.8376   -0.0936   -2.2598 H   0  0  0  0  0  0  0  0  0  0  0  0
    2.0527   -1.8401   -1.7394 H   0  0  0  0  0  0  0  0  0  0  0  0
    3.4324   -0.7493   -1.8858 H   0  0  0  0  0  0  0  0  0  0  0  0
   -0.7724   -2.0118   -2.2086 H   0  0  0  0  0  0  0  0  0  0  0  0
   -1.9270   -0.5910   -2.3798 H   0  0  0  0  0  0  0  0  0  0  0  0
   -2.5372   -2.2483   -2.2388 H   0  0  0  0  0  0  0  0  0  0  0  0
   -3.1101   -2.1292    2.0793 H   0  0  0  0  0  0  0  0  0  0  0  0
   -3.7443   -3.7024    1.4719 H   0  0  0  0  0  0  0  0  0  0  0  0
    4.0685    0.8614    2.3149 H   0  0  0  0  0  0  0  0  0  0  0  0
    3.4720   -0.8178    2.1419 H   0  0  0  0  0  0  0  0  0  0  0  0
    5.6303   -1.4097    1.9000 H   0  0  0  0  0  0  0  0  0  0  0  0
    6.1549    0.2686    1.5730 H   0  0  0  0  0  0  0  0  0  0  0  0
    4.8035   -1.8258   -0.1854 H   0  0  0  0  0  0  0  0  0  0  0  0
   -2.5387    3.8372   -0.5643 H   0  0  0  0  0  0  0  0  0  0  0  0
   -0.2457    4.9893   -0.1025 H   0  0  0  0  0  0  0  0  0  0  0  0
   -1.1488    5.7148    1.3347 H   0  0  0  0  0  0  0  0  0  0  0  0
   -1.7295    5.9373   -0.3308 H   0  0  0  0  0  0  0  0  0  0  0  0
   -5.3592   -1.6842    1.3498 H   0  0  0  0  0  0  0  0  0  0  0  0
   -4.2839   -1.2733   -1.4580 H   0  0  0  0  0  0  0  0  0  0  0  0
   -5.0088   -0.0882   -0.2679 H   0  0  0  0  0  0  0  0  0  0  0  0
   -2.9169   -0.3599    1.0832 H   0  0  0  0  0  0  0  0  0  0  0  0
   -3.2518    1.6249   -0.0275 H   0  0  0  0  0  0  0  0  0  0  0  0
   -3.0499    0.9341   -1.6395 H   0  0  0  0  0  0  0  0  0  0  0  0
   -1.0196    1.9091   -1.4875 H   0  0  0  0  0  0  0  0  0  0  0  0
   -0.0834   -0.1508   -1.5951 H   0  0  0  0  0  0  0  0  0  0  0  0
   -0.8458   -0.7143    1.3192 H   0  0  0  0  0  0  0  0  0  0  0  0
    6.3582   -1.2080   -1.6615 H   0  0  0  0  0  0  0  0  0  0  0  0
   -2.7770    4.3960    2.2345 H   0  0  0  0  0  0  0  0  0  0  0  0
   -5.7378   -2.6193   -1.0397 H   0  0  0  0  0  0  0  0  0  0  0  0
    3.8260    2.4332   -0.3572 H   0  0  0  0  0  0  0  0  0  0  0  0
    2.9898    2.2235    1.2111 H   0  0  0  0  0  0  0  0  0  0  0  0
    2.5145   -2.2712    0.9142 H   0  0  0  0  0  0  0  0  0  0  0  0
    1.4943   -0.9828    1.7686 H   0  0  0  0  0  0  0  0  0  0  0  0
    0.9637    0.8405    1.1243 H   0  0  0  0  0  0  0  0  0  0  0  0
   -2.8805   -3.3262   -0.7291 H   0  0  0  0  0  0  0  0  0  0  0  0
   -1.6030   -3.5057    0.4755 H   0  0  0  0  0  0  0  0  0  0  0  0
    0.1723   -2.7641    1.1031 H   0  0  0  0  0  0  0  0  0  0  0  0
    0.5576   -2.6319   -0.6158 H   0  0  0  0  0  0  0  0  0  0  0  0
    1.9067    1.8392   -1.6310 H   0  0  0  0  0  0  0  0  0  0  0  0
    1.2622    2.8429   -0.3116 H   0  0  0  0  0  0  0  0  0  0  0  0
    1.8376   -0.0936   -2.2598 H   0  0  0  0  0  0  0  0  0  0  0  0
    2.0527   -1.8401   -1.7394 H   0  0  0  0  0  0  0  0  0  0  0  0
    3.4324   -0.7493   -1.8858 H   0  0  0  0  0  0  0  0  0  0  0  0
   -0.7724   -2.0118   -2.2086 H   0  0  0  0  0  0  0  0  0  0  0  0
   -1.9270   -0.5910   -2.3798 H   0  0  0  0  0  0  0  0  0  0  0  0
   -2.5372   -2.2483   -2.2388 H   0  0  0  0  0  0  0  0  0  0  0  0
   -3.1101   -2.1292    2.0793 H   0  0  0  0  0  0  0  0  0  0  0  0
   -3.7443   -3.7024    1.4719 H   0  0  0  0  0  0  0  0  0  0  0  0
    4.0685    0.8614    2.3149 H   0  0  0  0  0  0  0  0  0  0  0  0
    3.4720   -0.8178    2.1419 H   0  0  0  0  0  0  0  0  0  0  0  0
    5.6303   -1.4097    1.9000 H   0  0  0  0  0  0  0  0  0  0  0  0
    6.1549    0.2686    1.5730 H   0  0  0  0  0  0  0  0  0  0  0  0
    4.8035   -1.8258   -0.1854 H   0  0  0  0  0  0  0  0  0  0  0  0
   -2.5387    3.8372   -0.5643 H   0  0  0  0  0  0  0  0  0  0  0  0
   -0.2457    4.9893   -0.1025 H   0  0  0  0  0  0  0  0  0  0  0  0
   -1.1488    5.7148    1.3347 H   0  0  0  0  0  0  0  0  0  0  0  0
   -1.7295    5.9373   -0.3308 H   0  0  0  0  0  0  0  0  0  0  0  0
   -5.3592   -1.6842    1.3498 H   0  0  0  0  0  0  0  0  0  0  0  0
   -4.2839   -1.2733   -1.4580 H   0  0  0  0  0  0  0  0  0  0  0  0
   -5.0088   -0.0882   -0.2679 H   0  0  0  0  0  0  0  0  0  0  0  0
   -2.9169   -0.3599    1.0832 H   0  0  0  0  0  0  0  0  0  0  0  0
   -3.2518    1.6249   -0.0275 H   0  0  0  0  0  0  0  0  0  0  0  0
   -3.0499    0.9341   -1.6395 H   0  0  0  0  0  0  0  0  0  0  0  0
   -1.0196    1.9091   -1.4875 H   0  0  0  0  0  0  0  0  0  0  0  0
   -0.0834   -0.1508   -1.5951 H   0  0  0  0  0  0  0  0  0  0  0  0
   -0.8458   -0.7143    1.3192 H   0  0  0  0  0  0  0  0  0  0  0  0
    6.3582   -1.2080   -1.6615 H   0  0  0  0  0  0  0  0  0  0  0  0
   -2.7770    4.3960    2.2345 H   0  0  0  0  0  0  0  0  0  0  0  0
   -5.7378   -2.6193   -1.0397 H   0  0  0  0  0  0  0  0  0  0  0  0
  2  3  1  0
  3  5  1  0
  4  6  1  0
  2  7  1  0
  1  8  1  0
  5  8  1  0
  1  9  1  0
  3  9  1  0
  3 10  1  6
  4 11  1  6
  6 12  1  0
  9 13  1  0
 13 14  1  0
 14 15  1  0
 16 17  1  0
 12 18  1  0
 18 19  1  0
  4 20  1  0
 19 20  1  0
 20 21  1  0
 21 22  1  0
  5 23  1  0
 22 23  1  0
  4 24  1  0
  7 24  1  0
 23 24  1  0
 15 25  1  0
  9 26  1  6
 15 26  1  0
 16 27  1  0
 18 28  1  0
 16 29  1  0
 22 29  1  0
 31 32  1  0
 32 34  1  0
 33 35  1  0
 31 36  1  0
 30 37  1  0
 34 37  1  0
 30 38  1  0
 32 38  1  0
 32 39  1  6
 33 40  1  6
 35 41  1  0
 38 42  1  0
 42 43  1  0
 43 44  1  0
 45 46  1  0
 41 47  1  0
 47 48  1  0
 33 49  1  0
 48 49  1  0
 49 50  1  0
 50 51  1  0
 34 52  1  0
 51 52  1  0
 33 53  1  0
 36 53  1  0
 52 53  1  0
 44 54  1  0
 38 55  1  6
 44 55  1  0
 45 56  1  0
 47 57  1  0
 45 58  1  0
 51 58  1  0
  1 59  1  0
  1 60  1  0
  2 61  1  0
  2 62  1  0
  5 63  1  1
  6 64  1  0
  6 65  1  0
  7 66  1  0
  7 67  1  0
  8 68  1  0
  8 69  1  0
 10 70  1  0
 10 71  1  0
 10 72  1  0
 11 73  1  0
 11 74  1  0
 11 75  1  0
 12 76  1  0
 12 77  1  0
 13 78  1  0
 13 79  1  0
 14 80  1  0
 14 81  1  0
 15 82  1  0
 16 83  1  0
 17 84  1  0
 17 85  1  0
 17 86  1  0
 18 87  1  0
 19 88  1  0
 19 89  1  0
 20 90  1  1
 21 91  1  0
 21 92  1  0
 22 93  1  6
 23 94  1  6
 24 95  1  1
 25 96  1  0
 27 97  1  0
 28 98  1  0
 30 99  1  0
 30100  1  0
 31101  1  0
 31102  1  0
 34103  1  1
 35104  1  0
 35105  1  0
 36106  1  0
 36107  1  0
 37108  1  0
 37109  1  0
 39110  1  0
 39111  1  0
 39112  1  0
 40113  1  0
 40114  1  0
 40115  1  0
 41116  1  0
 41117  1  0
 42118  1  0
 42119  1  0
 43120  1  0
 43121  1  0
 44122  1  0
 45123  1  0
 46124  1  0
 46125  1  0
 46126  1  0
 47127  1  0
 48128  1  0
 48129  1  0
 49130  1  1
 50131  1  0
 50132  1  0
 51133  1  6
 52134  1  6
 53135  1  1
 54136  1  0
 56137  1  0
 57138  1  0
M  END
>  <PDBID>  (1) 
2AB2

>  <PDB ID>  (1) 
2AB2

>  <Generic Name>  (1) 
Spironolactone

>  <Brand Name>  (1) 
Aldactazide#Aldactazide 25#Aldactazide 50#Aldactone#Aldactone 100 mg#Aldactone 25 mg#Apo-spirozide Tab#Ntp-spironolactone#Spironolactone#Spironolactone and Hydrochlorothiazide#Teva-spironolactone#Teva-spironolactone/hctz#Osyrol#Spiresis#Spiretic#Spiroctan#Uractone#Verospiron#Xenalon

>  <DrugBank ID>  (1) 
DB00421

>  <ATC Codes>  (1) 
C03DA01

>  <Ligand ID>  (1) 
SNL

>  <Target Name>  (1) 
Mineralocorticoid receptor

>  <UniProt ID>  (1) 
P08235

>  <PDB ID.1>  (1) 
2AB2

>  <Seq. Identity>  (1) 
99%

$$$$
