PDB_DB01597_00
     RDKit          3D

 82 82  0  0  0  0  0  0  0  0999 V2000
    2.9077   -0.4044    1.2004 C   0  0  0  0  0  0  0  0  0  0  0  0
    2.3619    0.6629    0.3161 C   0  0  1  0  0  0  0  0  0  0  0  0
    3.6346    0.0411   -0.0490 C   0  0  0  0  0  0  0  0  0  0  0  0
    4.8801    0.8729    0.1726 C   0  0  0  0  0  0  0  0  0  0  0  0
    3.7476   -0.9452   -1.1838 C   0  0  0  0  0  0  0  0  0  0  0  0
    1.0666    0.3380   -0.4518 C   0  0  0  0  0  0  0  0  0  0  0  0
    0.0906    0.0573    0.4687 N   0  0  0  0  0  0  0  0  0  0  0  0
   -1.2324   -0.2289    0.2332 C   0  0  0  0  0  0  0  0  0  0  0  0
   -2.0679    0.8327   -0.4178 C   0  0  0  0  0  0  0  0  0  0  0  0
    0.8742    1.3557   -1.3468 O   0  0  0  0  0  0  0  0  0  0  0  0
   -1.3428   -1.5627   -0.4744 C   0  0  0  0  0  0  0  0  0  0  0  0
   -0.7761   -2.5569    0.3366 O   0  0  0  0  0  0  0  0  0  0  0  0
   -0.6673   -1.5603   -1.6744 O   0  0  0  0  0  0  0  0  0  0  0  0
   -3.4878    0.4246   -0.6289 C   0  0  0  0  0  0  0  0  0  0  0  0
   -4.2211    0.0792    0.6382 C   0  0  0  0  0  0  0  0  0  0  0  0
   -4.2482    1.2726    1.5783 C   0  0  0  0  0  0  0  0  0  0  0  0
    2.9077   -0.4044    1.2004 C   0  0  0  0  0  0  0  0  0  0  0  0
    2.3619    0.6629    0.3161 C   0  0  1  0  0  0  0  0  0  0  0  0
    3.6346    0.0411   -0.0490 C   0  0  0  0  0  0  0  0  0  0  0  0
    4.8801    0.8729    0.1726 C   0  0  0  0  0  0  0  0  0  0  0  0
    3.7476   -0.9452   -1.1838 C   0  0  0  0  0  0  0  0  0  0  0  0
    1.0666    0.3380   -0.4518 C   0  0  0  0  0  0  0  0  0  0  0  0
    0.0906    0.0573    0.4687 N   0  0  0  0  0  0  0  0  0  0  0  0
   -1.2324   -0.2289    0.2332 C   0  0  0  0  0  0  0  0  0  0  0  0
   -2.0679    0.8327   -0.4178 C   0  0  0  0  0  0  0  0  0  0  0  0
    0.8742    1.3557   -1.3468 O   0  0  0  0  0  0  0  0  0  0  0  0
   -1.3428   -1.5627   -0.4744 C   0  0  0  0  0  0  0  0  0  0  0  0
   -0.7761   -2.5569    0.3366 O   0  0  0  0  0  0  0  0  0  0  0  0
   -0.6673   -1.5603   -1.6744 O   0  0  0  0  0  0  0  0  0  0  0  0
   -3.4878    0.4246   -0.6289 C   0  0  0  0  0  0  0  0  0  0  0  0
   -4.2211    0.0792    0.6382 C   0  0  0  0  0  0  0  0  0  0  0  0
   -4.2482    1.2726    1.5783 C   0  0  0  0  0  0  0  0  0  0  0  0
    3.3345   -0.1344    2.1777 H   0  0  0  0  0  0  0  0  0  0  0  0
    2.5190   -1.4451    1.1568 H   0  0  0  0  0  0  0  0  0  0  0  0
    2.3712    1.6848    0.7547 H   0  0  0  0  0  0  0  0  0  0  0  0
    5.6614    0.6259   -0.5440 H   0  0  0  0  0  0  0  0  0  0  0  0
    4.5865    1.9362    0.0277 H   0  0  0  0  0  0  0  0  0  0  0  0
    5.2653    0.7305    1.2244 H   0  0  0  0  0  0  0  0  0  0  0  0
    3.2216   -1.8776   -0.9547 H   0  0  0  0  0  0  0  0  0  0  0  0
    3.3980   -0.4451   -2.1037 H   0  0  0  0  0  0  0  0  0  0  0  0
    4.8282   -1.1979   -1.3413 H   0  0  0  0  0  0  0  0  0  0  0  0
    1.3404   -0.5816   -1.0449 H   0  0  0  0  0  0  0  0  0  0  0  0
    0.4318   -0.1075    1.4130 H   0  0  0  0  0  0  0  0  0  0  0  0
   -1.7231   -0.4083    1.2409 H   0  0  0  0  0  0  0  0  0  0  0  0
   -1.6429    1.0678   -1.4196 H   0  0  0  0  0  0  0  0  0  0  0  0
   -2.0758    1.7112    0.2636 H   0  0  0  0  0  0  0  0  0  0  0  0
    1.4533    1.2509   -2.1591 H   0  0  0  0  0  0  0  0  0  0  0  0
   -2.3962   -1.8714   -0.6247 H   0  0  0  0  0  0  0  0  0  0  0  0
   -1.2252   -2.5119    1.2232 H   0  0  0  0  0  0  0  0  0  0  0  0
   -1.2248   -1.9565   -2.3639 H   0  0  0  0  0  0  0  0  0  0  0  0
   -4.0156    1.3269   -1.0519 H   0  0  0  0  0  0  0  0  0  0  0  0
   -3.6193   -0.3702   -1.3854 H   0  0  0  0  0  0  0  0  0  0  0  0
   -3.8913   -0.8370    1.1219 H   0  0  0  0  0  0  0  0  0  0  0  0
   -5.2957   -0.0913    0.3385 H   0  0  0  0  0  0  0  0  0  0  0  0
   -3.5094    1.2005    2.3767 H   0  0  0  0  0  0  0  0  0  0  0  0
   -4.0320    2.1917    0.9935 H   0  0  0  0  0  0  0  0  0  0  0  0
   -5.2796    1.4306    2.0023 H   0  0  0  0  0  0  0  0  0  0  0  0
    3.3345   -0.1344    2.1777 H   0  0  0  0  0  0  0  0  0  0  0  0
    2.5190   -1.4451    1.1568 H   0  0  0  0  0  0  0  0  0  0  0  0
    2.3712    1.6848    0.7547 H   0  0  0  0  0  0  0  0  0  0  0  0
    5.6614    0.6259   -0.5440 H   0  0  0  0  0  0  0  0  0  0  0  0
    4.5865    1.9362    0.0277 H   0  0  0  0  0  0  0  0  0  0  0  0
    5.2653    0.7305    1.2244 H   0  0  0  0  0  0  0  0  0  0  0  0
    3.2216   -1.8776   -0.9547 H   0  0  0  0  0  0  0  0  0  0  0  0
    3.3980   -0.4451   -2.1037 H   0  0  0  0  0  0  0  0  0  0  0  0
    4.8282   -1.1979   -1.3413 H   0  0  0  0  0  0  0  0  0  0  0  0
    1.3404   -0.5816   -1.0449 H   0  0  0  0  0  0  0  0  0  0  0  0
    0.4318   -0.1075    1.4130 H   0  0  0  0  0  0  0  0  0  0  0  0
   -1.7231   -0.4083    1.2409 H   0  0  0  0  0  0  0  0  0  0  0  0
   -1.6429    1.0678   -1.4196 H   0  0  0  0  0  0  0  0  0  0  0  0
   -2.0758    1.7112    0.2636 H   0  0  0  0  0  0  0  0  0  0  0  0
    1.4533    1.2509   -2.1591 H   0  0  0  0  0  0  0  0  0  0  0  0
   -2.3962   -1.8714   -0.6247 H   0  0  0  0  0  0  0  0  0  0  0  0
   -1.2252   -2.5119    1.2232 H   0  0  0  0  0  0  0  0  0  0  0  0
   -1.2248   -1.9565   -2.3639 H   0  0  0  0  0  0  0  0  0  0  0  0
   -4.0156    1.3269   -1.0519 H   0  0  0  0  0  0  0  0  0  0  0  0
   -3.6193   -0.3702   -1.3854 H   0  0  0  0  0  0  0  0  0  0  0  0
   -3.8913   -0.8370    1.1219 H   0  0  0  0  0  0  0  0  0  0  0  0
   -5.2957   -0.0913    0.3385 H   0  0  0  0  0  0  0  0  0  0  0  0
   -3.5094    1.2005    2.3767 H   0  0  0  0  0  0  0  0  0  0  0  0
   -4.0320    2.1917    0.9935 H   0  0  0  0  0  0  0  0  0  0  0  0
   -5.2796    1.4306    2.0023 H   0  0  0  0  0  0  0  0  0  0  0  0
  1  2  1  0
  1  3  1  0
  2  3  1  0
  3  4  1  0
  3  5  1  0
  2  6  1  0
  6  7  1  0
  7  8  1  0
  8  9  1  0
  6 10  1  0
  8 11  1  0
 11 12  1  0
 11 13  1  0
  9 14  1  0
 14 15  1  0
 15 16  1  0
 17 18  1  0
 17 19  1  0
 18 19  1  0
 19 20  1  0
 19 21  1  0
 18 22  1  0
 22 23  1  0
 23 24  1  0
 24 25  1  0
 22 26  1  0
 24 27  1  0
 27 28  1  0
 27 29  1  0
 25 30  1  0
 30 31  1  0
 31 32  1  0
  1 33  1  0
  1 34  1  0
  2 35  1  1
  4 36  1  0
  4 37  1  0
  4 38  1  0
  5 39  1  0
  5 40  1  0
  5 41  1  0
  6 42  1  0
  7 43  1  0
  8 44  1  0
  9 45  1  0
  9 46  1  0
 10 47  1  0
 11 48  1  0
 12 49  1  0
 13 50  1  0
 14 51  1  0
 14 52  1  0
 15 53  1  0
 15 54  1  0
 16 55  1  0
 16 56  1  0
 16 57  1  0
 17 58  1  0
 17 59  1  0
 18 60  1  1
 20 61  1  0
 20 62  1  0
 20 63  1  0
 21 64  1  0
 21 65  1  0
 21 66  1  0
 22 67  1  0
 23 68  1  0
 24 69  1  0
 25 70  1  0
 25 71  1  0
 26 72  1  0
 27 73  1  0
 28 74  1  0
 29 75  1  0
 30 76  1  0
 30 77  1  0
 31 78  1  0
 31 79  1  0
 32 80  1  0
 32 81  1  0
 32 82  1  0
M  END
>  <PDBID>  (1) 
1ITU

>  <PDB ID>  (1) 
1ITU

>  <Generic Name>  (1) 
Cilastatin

>  <Brand Name>  (1) 
Imipenem and Cilastatin#Imipenem and Cilastatin for Injection#Imipenem and Cilastatin for Injection USP#Imipenem and Cilastatin for Injection, USP#Primaxin 250#Primaxin 500#Primaxin IV#Primaxin IV 250/250 Add-vantage Vial#Primaxin IV 500#Ran-imipenem-cilastatin

>  <DrugBank ID>  (1) 
DB01597

>  <ATC Codes>  (1) 
nan

>  <Ligand ID>  (1) 
CIL

>  <Target Name>  (1) 
Dipeptidase 1

>  <UniProt ID>  (1) 
P16444

>  <PDB ID.1>  (1) 
1ITU

>  <Seq. Identity>  (1) 
100%

$$$$
