PDB_DB09078_07
     RDKit          3D

 69 72  0  0  0  0  0  0  0  0999 V2000
   -7.0109   -0.4643    2.2369 C   0  0  0  0  0  0  0  0  0  0  0  0
   -5.7256   -0.7289    1.8248 O   0  0  0  0  0  0  0  0  0  0  0  0
   -5.2311    0.4150    1.1672 C   0  0  0  0  0  0  0  0  0  0  0  0
   -4.0870    0.9146    2.0179 C   0  0  0  0  0  0  0  0  0  0  0  0
   -2.8585    0.1177    1.6432 C   0  0  0  0  0  0  0  0  0  0  0  0
   -3.2134   -1.2748    1.5833 N   0  0  0  0  0  0  0  0  0  0  0  0
   -2.2084   -2.1102    1.0046 C   0  0  0  0  0  0  0  0  0  0  0  0
   -1.7604   -1.6193   -0.3524 C   0  0  0  0  0  0  0  0  0  0  0  0
   -1.2509   -0.1921   -0.1420 C   0  0  2  0  0  0  0  0  0  0  0  0
   -2.4205    0.6457    0.2676 C   0  0  0  0  0  0  0  0  0  0  0  0
   -3.5539    0.6635   -0.7034 C   0  0  0  0  0  0  0  0  0  0  0  0
   -4.8164    0.0057   -0.2039 C   0  0  2  0  0  0  0  0  0  0  0  0
   -5.9369    0.3381   -1.1669 C   0  0  2  0  0  0  0  0  0  0  0  0
   -5.5842   -0.0312   -2.4843 O   0  0  0  0  0  0  0  0  0  0  0  0
   -6.2956    1.7326   -1.1272 N   0  0  0  0  0  0  0  0  0  0  0  0
   -0.5387    0.2573   -1.2212 O   0  0  0  0  0  0  0  0  0  0  0  0
    0.7796    0.4743   -0.8266 C   0  0  1  0  0  0  0  0  0  0  0  0
    1.7167   -0.5061   -1.5425 C   0  0  0  0  0  0  0  0  0  0  0  0
    3.0023   -0.4978   -0.7496 C   0  0  1  0  0  0  0  0  0  0  0  0
    3.5012    0.8560   -0.4136 C   0  0  2  0  0  0  0  0  0  0  0  0
    2.7113    2.0168   -0.8302 C   0  0  0  0  0  0  0  0  0  0  0  0
    1.2852    1.8269   -1.1688 C   0  0  0  0  0  0  0  0  0  0  0  0
    4.8670    0.9929   -0.8698 N   0  0  0  0  0  0  0  0  0  0  0  0
    5.8157    0.1365   -0.2323 C   0  0  0  0  0  0  0  0  0  0  0  0
    5.9882    0.4065    1.1042 O   0  0  0  0  0  0  0  0  0  0  0  0
    7.0411    0.0926   -0.9885 N   0  0  0  0  0  0  0  0  0  0  0  0
    7.9836   -0.7650   -0.3084 C   0  0  0  0  0  0  0  0  0  0  0  0
    8.4410   -0.2898    1.0482 C   0  0  0  0  0  0  0  0  0  0  0  0
    9.3836   -0.3478   -0.1458 C   0  0  0  0  0  0  0  0  0  0  0  0
    2.7236   -1.5094    0.6885 Cl  0  0  0  0  0  0  0  0  0  0  0  0
   -7.0359    0.4087    2.9510 H   0  0  0  0  0  0  0  0  0  0  0  0
   -7.4904   -1.3329    2.7180 H   0  0  0  0  0  0  0  0  0  0  0  0
   -7.6036   -0.2103    1.3237 H   0  0  0  0  0  0  0  0  0  0  0  0
   -5.9776    1.2235    1.1402 H   0  0  0  0  0  0  0  0  0  0  0  0
   -3.8924    1.9645    1.7153 H   0  0  0  0  0  0  0  0  0  0  0  0
   -4.2889    0.8207    3.0919 H   0  0  0  0  0  0  0  0  0  0  0  0
   -2.0174    0.3004    2.3326 H   0  0  0  0  0  0  0  0  0  0  0  0
   -3.4181   -1.5922    2.5387 H   0  0  0  0  0  0  0  0  0  0  0  0
   -2.6038   -3.1461    0.9523 H   0  0  0  0  0  0  0  0  0  0  0  0
   -1.2896   -2.1236    1.6469 H   0  0  0  0  0  0  0  0  0  0  0  0
   -2.5140   -1.6923   -1.1343 H   0  0  0  0  0  0  0  0  0  0  0  0
   -0.9173   -2.2910   -0.6615 H   0  0  0  0  0  0  0  0  0  0  0  0
   -0.5927   -0.2742    0.7756 H   0  0  0  0  0  0  0  0  0  0  0  0
   -2.0396    1.6761    0.4754 H   0  0  0  0  0  0  0  0  0  0  0  0
   -3.3054    0.1365   -1.6643 H   0  0  0  0  0  0  0  0  0  0  0  0
   -3.7678    1.7081   -1.0043 H   0  0  0  0  0  0  0  0  0  0  0  0
   -4.6895   -1.1121   -0.2893 H   0  0  0  0  0  0  0  0  0  0  0  0
   -6.8704   -0.2442   -0.9481 H   0  0  0  0  0  0  0  0  0  0  0  0
   -5.1343   -0.8953   -2.5202 H   0  0  0  0  0  0  0  0  0  0  0  0
   -6.6471    1.9823   -2.0967 H   0  0  0  0  0  0  0  0  0  0  0  0
   -7.1423    1.8674   -0.5133 H   0  0  0  0  0  0  0  0  0  0  0  0
    0.9468    0.2730    0.2495 H   0  0  0  0  0  0  0  0  0  0  0  0
    1.9409   -0.1025   -2.5511 H   0  0  0  0  0  0  0  0  0  0  0  0
    1.2998   -1.5191   -1.5506 H   0  0  0  0  0  0  0  0  0  0  0  0
    3.7203   -1.0759   -1.3861 H   0  0  0  0  0  0  0  0  0  0  0  0
    3.5845    0.8868    0.7187 H   0  0  0  0  0  0  0  0  0  0  0  0
    2.7525    2.8287   -0.0401 H   0  0  0  0  0  0  0  0  0  0  0  0
    3.1968    2.5347   -1.7139 H   0  0  0  0  0  0  0  0  0  0  0  0
    1.1083    1.9571   -2.2806 H   0  0  0  0  0  0  0  0  0  0  0  0
    0.6236    2.6042   -0.7167 H   0  0  0  0  0  0  0  0  0  0  0  0
    4.9849    0.9456   -1.8987 H   0  0  0  0  0  0  0  0  0  0  0  0
    5.3698   -0.9104   -0.2887 H   0  0  0  0  0  0  0  0  0  0  0  0
    5.6018    1.3246    1.2876 H   0  0  0  0  0  0  0  0  0  0  0  0
    6.8565   -0.1904   -1.9627 H   0  0  0  0  0  0  0  0  0  0  0  0
    7.7986   -1.8787   -0.3565 H   0  0  0  0  0  0  0  0  0  0  0  0
    8.5904   -1.0411    1.8462 H   0  0  0  0  0  0  0  0  0  0  0  0
    8.2447    0.7587    1.3804 H   0  0  0  0  0  0  0  0  0  0  0  0
   10.1564   -1.1523   -0.0786 H   0  0  0  0  0  0  0  0  0  0  0  0
    9.7140    0.6093   -0.5970 H   0  0  0  0  0  0  0  0  0  0  0  0
  1  2  1  0
  2  3  1  0
  3  4  1  0
  4  5  1  0
  5  6  1  0
  6  7  1  0
  7  8  1  0
  8  9  1  0
  5 10  1  0
  9 10  1  0
 10 11  1  0
  3 12  1  0
 11 12  1  0
 12 13  1  0
 13 14  1  0
 13 15  1  0
  9 16  1  0
 16 17  1  0
 17 18  1  0
 18 19  1  0
 19 20  1  0
 20 21  1  0
 17 22  1  0
 21 22  1  0
 20 23  1  0
 23 24  1  0
 24 25  1  0
 24 26  1  0
 26 27  1  0
 27 28  1  0
 27 29  1  0
 28 29  1  0
 19 30  1  0
  1 31  1  0
  1 32  1  0
  1 33  1  0
  3 34  1  0
  4 35  1  0
  4 36  1  0
  5 37  1  0
  6 38  1  0
  7 39  1  0
  7 40  1  0
  8 41  1  0
  8 42  1  0
  9 43  1  1
 10 44  1  0
 11 45  1  0
 11 46  1  0
 12 47  1  1
 13 48  1  1
 14 49  1  0
 15 50  1  0
 15 51  1  0
 17 52  1  1
 18 53  1  0
 18 54  1  0
 19 55  1  6
 20 56  1  1
 21 57  1  0
 21 58  1  0
 22 59  1  0
 22 60  1  0
 23 61  1  0
 24 62  1  0
 25 63  1  0
 26 64  1  0
 27 65  1  0
 28 66  1  0
 28 67  1  0
 29 68  1  0
 29 69  1  0
M  END
>  <PDBID>  (1) 
3WZD

>  <PDB ID>  (1) 
3WZD

>  <Generic Name>  (1) 
Lenvatinib

>  <Brand Name>  (1) 
Lenvima

>  <DrugBank ID>  (1) 
DB09078

>  <ATC Codes>  (1) 
L01XE29

>  <Ligand ID>  (1) 
LEV

>  <Target Name>  (1) 
Vascular endothelial growth factor receptor 3

>  <UniProt ID>  (1) 
P35916

>  <PDB ID.1>  (1) 
3WZD

>  <Seq. Identity>  (1) 
67%

$$$$
