PDB_DB01010_05
     RDKit          3D

 34 34  0  0  0  0  0  0  0  0999 V2000
    1.1043   -1.3184   -0.4883 C   0  0  0  0  0  0  0  0  0  0  0  0
    0.1568   -0.1839   -0.6261 C   0  0  0  0  0  0  0  0  0  0  0  0
    0.6394    1.1137   -0.0542 C   0  0  0  0  0  0  0  0  0  0  0  0
    2.1334    1.2072   -0.4088 C   0  0  2  0  0  0  0  0  0  0  0  0
    2.7890    0.2424    0.5559 C   0  0  0  0  0  0  0  0  0  0  0  0
    2.2359   -1.1259    0.4705 C   0  0  0  0  0  0  0  0  0  0  0  0
    2.6223    2.4826   -0.1668 O   0  0  0  0  0  0  0  0  0  0  0  0
   -1.2057   -0.4917   -0.2425 N   0  0  0  0  0  0  0  0  0  0  0  0
   -1.5209   -1.8938   -0.4152 C   0  0  0  0  0  0  0  0  0  0  0  0
   -2.1310    0.2448   -1.0952 C   0  0  0  0  0  0  0  0  0  0  0  0
   -1.5191   -0.1419    1.1182 C   0  0  0  0  0  0  0  0  0  0  0  0
   -2.2595    1.1840    1.2210 C   0  0  0  0  0  0  0  0  0  0  0  0
    1.5691   -1.6470   -1.4645 H   0  0  0  0  0  0  0  0  0  0  0  0
    0.5779   -2.2568   -0.1438 H   0  0  0  0  0  0  0  0  0  0  0  0
    0.0952    0.0312   -1.7343 H   0  0  0  0  0  0  0  0  0  0  0  0
    0.1789    1.9837   -0.6054 H   0  0  0  0  0  0  0  0  0  0  0  0
    0.5790    1.2047    1.0226 H   0  0  0  0  0  0  0  0  0  0  0  0
    2.2756    0.8605   -1.4368 H   0  0  0  0  0  0  0  0  0  0  0  0
    2.6098    0.6782    1.5822 H   0  0  0  0  0  0  0  0  0  0  0  0
    3.8993    0.2919    0.4306 H   0  0  0  0  0  0  0  0  0  0  0  0
    3.0704   -1.8138    0.2072 H   0  0  0  0  0  0  0  0  0  0  0  0
    1.9109   -1.4618    1.4972 H   0  0  0  0  0  0  0  0  0  0  0  0
    2.5934    3.0155   -1.0004 H   0  0  0  0  0  0  0  0  0  0  0  0
   -2.6437   -1.9520   -0.5386 H   0  0  0  0  0  0  0  0  0  0  0  0
   -1.3344   -2.4758    0.5260 H   0  0  0  0  0  0  0  0  0  0  0  0
   -1.0961   -2.3454   -1.3059 H   0  0  0  0  0  0  0  0  0  0  0  0
   -2.0270    1.3364   -0.9868 H   0  0  0  0  0  0  0  0  0  0  0  0
   -1.8019    0.0171   -2.1511 H   0  0  0  0  0  0  0  0  0  0  0  0
   -3.1581   -0.1183   -1.0139 H   0  0  0  0  0  0  0  0  0  0  0  0
   -2.2663   -0.8809    1.5426 H   0  0  0  0  0  0  0  0  0  0  0  0
   -0.6641   -0.2060    1.8095 H   0  0  0  0  0  0  0  0  0  0  0  0
   -1.6676    2.0409    0.9265 H   0  0  0  0  0  0  0  0  0  0  0  0
   -2.5270    1.3029    2.2931 H   0  0  0  0  0  0  0  0  0  0  0  0
   -3.2183    1.0756    0.6754 H   0  0  0  0  0  0  0  0  0  0  0  0
  1  2  1  0
  2  3  1  0
  3  4  1  0
  4  5  1  0
  1  6  1  0
  5  6  1  0
  4  7  1  0
  2  8  1  0
  8  9  1  0
  8 10  1  0
  8 11  1  0
 11 12  1  0
  1 13  1  0
  1 14  1  0
  2 15  1  0
  3 16  1  0
  3 17  1  0
  4 18  1  6
  5 19  1  0
  5 20  1  0
  6 21  1  0
  6 22  1  0
  7 23  1  0
  9 24  1  0
  9 25  1  0
  9 26  1  0
 10 27  1  0
 10 28  1  0
 10 29  1  0
 11 30  1  0
 11 31  1  0
 12 32  1  0
 12 33  1  0
 12 34  1  0
M  CHG  1   8   1
M  END
>  <PDBID>  (1) 
2ACK

>  <PDB ID>  (1) 
2ACK

>  <Generic Name>  (1) 
Edrophonium

>  <Brand Name>  (1) 
Enlon#Enlon 10mg/ml#Enlon Liq IV 10mg/ml#Enlon Plus#Tensilon#Antirex#Reversol

>  <DrugBank ID>  (1) 
DB01010

>  <ATC Codes>  (1) 
nan

>  <Ligand ID>  (1) 
EDR

>  <Target Name>  (1) 
Acetylcholinesterase

>  <UniProt ID>  (1) 
P22303

>  <PDB ID.1>  (1) 
2ACK

>  <Seq. Identity>  (1) 
57%

$$$$
