PDB_DB00820_08
     RDKit          3D

132142  0  0  0  0  0  0  0  0999 V2000
   -4.8731   -2.8565    0.0875 C   0  0  0  0  0  0  0  0  0  0  0  0
   -4.4416   -2.3281   -1.2779 C   0  0  0  0  0  0  0  0  0  0  0  0
   -3.8001   -0.9391   -1.1350 C   0  0  0  0  0  0  0  0  0  0  0  0
   -3.1891   -0.8892    0.2070 C   0  0  0  0  0  0  0  0  0  0  0  0
   -2.0778    0.0059    0.4671 C   0  0  0  0  0  0  0  0  0  0  0  0
   -0.9096   -0.8929    0.6064 C   0  0  0  0  0  0  0  0  0  0  0  0
   -1.4834   -1.9721    1.3864 N   0  0  0  0  0  0  0  0  0  0  0  0
   -2.5730   -2.2786    0.4563 C   0  0  0  0  0  0  0  0  0  0  0  0
   -3.6485   -3.1319    0.9748 C   0  0  0  0  0  0  0  0  0  0  0  0
    0.3625   -0.3294    1.1500 C   0  0  2  0  0  0  0  0  0  0  0  0
    0.6112    0.9354    0.5665 N   0  0  0  0  0  0  0  0  0  0  0  0
    1.2540    1.9518    1.3376 C   0  0  0  0  0  0  0  0  0  0  0  0
    2.1536    1.6846    2.2767 O   0  0  0  0  0  0  0  0  0  0  0  0
    1.9553    2.8801    0.3267 C   0  0  0  0  0  0  0  0  0  0  0  0
    1.0310    3.5252   -0.5159 N   0  0  0  0  0  0  0  0  0  0  0  0
   -0.1209    2.7844   -0.8835 C   0  0  0  0  0  0  0  0  0  0  0  0
   -1.2103    3.6758   -0.9143 O   0  0  0  0  0  0  0  0  0  0  0  0
   -0.4826    1.6508    0.0102 C   0  0  1  0  0  0  0  0  0  0  0  0
   -1.5941    0.8977   -0.6625 C   0  0  0  0  0  0  0  0  0  0  0  0
    0.8573    4.9243   -0.3064 C   0  0  0  0  0  0  0  0  0  0  0  0
    1.3810   -1.4264    0.7095 C   0  0  0  0  0  0  0  0  0  0  0  0
    2.6196   -1.2943    1.4790 C   0  0  0  0  0  0  0  0  0  0  0  0
    3.8226   -0.7779    0.7436 C   0  0  0  0  0  0  0  0  0  0  0  0
    4.0231   -1.5523   -0.5418 C   0  0  0  0  0  0  0  0  0  0  0  0
    5.0450   -0.9299   -1.2465 O   0  0  0  0  0  0  0  0  0  0  0  0
    4.4841    0.1686   -1.8479 C   0  0  0  0  0  0  0  0  0  0  0  0
    3.1194    0.0229   -1.8494 O   0  0  0  0  0  0  0  0  0  0  0  0
    2.8382   -1.2737   -1.3886 C   0  0  0  0  0  0  0  0  0  0  0  0
    1.5011   -1.4066   -0.7877 C   0  0  0  0  0  0  0  0  0  0  0  0
   -4.8731   -2.8565    0.0875 C   0  0  0  0  0  0  0  0  0  0  0  0
   -4.4416   -2.3281   -1.2779 C   0  0  0  0  0  0  0  0  0  0  0  0
   -3.8001   -0.9391   -1.1350 C   0  0  0  0  0  0  0  0  0  0  0  0
   -3.1891   -0.8892    0.2070 C   0  0  0  0  0  0  0  0  0  0  0  0
   -2.0778    0.0059    0.4671 C   0  0  0  0  0  0  0  0  0  0  0  0
   -0.9096   -0.8929    0.6064 C   0  0  0  0  0  0  0  0  0  0  0  0
   -1.4834   -1.9721    1.3864 N   0  0  0  0  0  0  0  0  0  0  0  0
   -2.5730   -2.2786    0.4563 C   0  0  0  0  0  0  0  0  0  0  0  0
   -3.6485   -3.1319    0.9748 C   0  0  0  0  0  0  0  0  0  0  0  0
    0.3625   -0.3294    1.1500 C   0  0  2  0  0  0  0  0  0  0  0  0
    0.6112    0.9354    0.5665 N   0  0  0  0  0  0  0  0  0  0  0  0
    1.2540    1.9518    1.3376 C   0  0  0  0  0  0  0  0  0  0  0  0
    2.1536    1.6846    2.2767 O   0  0  0  0  0  0  0  0  0  0  0  0
    1.9553    2.8801    0.3267 C   0  0  0  0  0  0  0  0  0  0  0  0
    1.0310    3.5252   -0.5159 N   0  0  0  0  0  0  0  0  0  0  0  0
   -0.1209    2.7844   -0.8835 C   0  0  0  0  0  0  0  0  0  0  0  0
   -1.2103    3.6758   -0.9143 O   0  0  0  0  0  0  0  0  0  0  0  0
   -0.4826    1.6508    0.0102 C   0  0  1  0  0  0  0  0  0  0  0  0
   -1.5941    0.8977   -0.6625 C   0  0  0  0  0  0  0  0  0  0  0  0
    0.8573    4.9243   -0.3064 C   0  0  0  0  0  0  0  0  0  0  0  0
    1.3810   -1.4264    0.7095 C   0  0  0  0  0  0  0  0  0  0  0  0
    2.6196   -1.2943    1.4790 C   0  0  0  0  0  0  0  0  0  0  0  0
    3.8226   -0.7779    0.7436 C   0  0  0  0  0  0  0  0  0  0  0  0
    4.0231   -1.5523   -0.5418 C   0  0  0  0  0  0  0  0  0  0  0  0
    5.0450   -0.9299   -1.2465 O   0  0  0  0  0  0  0  0  0  0  0  0
    4.4841    0.1686   -1.8479 C   0  0  0  0  0  0  0  0  0  0  0  0
    3.1194    0.0229   -1.8494 O   0  0  0  0  0  0  0  0  0  0  0  0
    2.8382   -1.2737   -1.3886 C   0  0  0  0  0  0  0  0  0  0  0  0
    1.5011   -1.4066   -0.7877 C   0  0  0  0  0  0  0  0  0  0  0  0
   -5.6050   -2.2179    0.5788 H   0  0  0  0  0  0  0  0  0  0  0  0
   -5.3235   -3.8522   -0.1135 H   0  0  0  0  0  0  0  0  0  0  0  0
   -3.7440   -3.0540   -1.7257 H   0  0  0  0  0  0  0  0  0  0  0  0
   -5.3477   -2.3026   -1.8935 H   0  0  0  0  0  0  0  0  0  0  0  0
   -4.5784   -0.1560   -1.2975 H   0  0  0  0  0  0  0  0  0  0  0  0
   -3.0170   -0.8939   -1.9340 H   0  0  0  0  0  0  0  0  0  0  0  0
   -4.0186   -0.7381    0.9566 H   0  0  0  0  0  0  0  0  0  0  0  0
   -2.2577    0.6726    1.3346 H   0  0  0  0  0  0  0  0  0  0  0  0
   -0.7097   -1.3334   -0.3885 H   0  0  0  0  0  0  0  0  0  0  0  0
   -1.9330   -1.6019    2.2526 H   0  0  0  0  0  0  0  0  0  0  0  0
   -2.1222   -2.6890   -0.4626 H   0  0  0  0  0  0  0  0  0  0  0  0
   -3.3368   -4.1962    0.9002 H   0  0  0  0  0  0  0  0  0  0  0  0
   -3.9068   -2.9211    2.0280 H   0  0  0  0  0  0  0  0  0  0  0  0
    0.3027   -0.2629    2.2343 H   0  0  0  0  0  0  0  0  0  0  0  0
    0.4810    2.6524    1.8059 H   0  0  0  0  0  0  0  0  0  0  0  0
    3.0473    2.0929    2.1657 H   0  0  0  0  0  0  0  0  0  0  0  0
    2.5938    2.2219   -0.2919 H   0  0  0  0  0  0  0  0  0  0  0  0
    2.6246    3.5844    0.8467 H   0  0  0  0  0  0  0  0  0  0  0  0
    0.0048    2.4321   -1.9275 H   0  0  0  0  0  0  0  0  0  0  0  0
   -1.4569    3.8198    0.0535 H   0  0  0  0  0  0  0  0  0  0  0  0
   -0.9922    2.1353    0.9141 H   0  0  0  0  0  0  0  0  0  0  0  0
   -2.4026    1.6312   -0.8438 H   0  0  0  0  0  0  0  0  0  0  0  0
   -1.3037    0.3530   -1.5671 H   0  0  0  0  0  0  0  0  0  0  0  0
    0.2485    5.1863    0.5917 H   0  0  0  0  0  0  0  0  0  0  0  0
    0.4960    5.4455   -1.2255 H   0  0  0  0  0  0  0  0  0  0  0  0
    1.8867    5.3538   -0.1318 H   0  0  0  0  0  0  0  0  0  0  0  0
    0.9460   -2.4175    0.9590 H   0  0  0  0  0  0  0  0  0  0  0  0
    2.5638   -0.8342    2.4710 H   0  0  0  0  0  0  0  0  0  0  0  0
    3.0138   -2.3500    1.8008 H   0  0  0  0  0  0  0  0  0  0  0  0
    3.6599    0.2768    0.4725 H   0  0  0  0  0  0  0  0  0  0  0  0
    4.7120   -0.8546    1.3625 H   0  0  0  0  0  0  0  0  0  0  0  0
    4.2183   -2.6236   -0.3598 H   0  0  0  0  0  0  0  0  0  0  0  0
    4.8240    1.0914   -1.3269 H   0  0  0  0  0  0  0  0  0  0  0  0
    4.9143    0.2522   -2.8820 H   0  0  0  0  0  0  0  0  0  0  0  0
    2.9623   -1.9128   -2.3166 H   0  0  0  0  0  0  0  0  0  0  0  0
    0.8918   -0.5372   -1.2047 H   0  0  0  0  0  0  0  0  0  0  0  0
    1.0093   -2.2813   -1.2638 H   0  0  0  0  0  0  0  0  0  0  0  0
   -5.6050   -2.2179    0.5788 H   0  0  0  0  0  0  0  0  0  0  0  0
   -5.3235   -3.8522   -0.1135 H   0  0  0  0  0  0  0  0  0  0  0  0
   -3.7440   -3.0540   -1.7257 H   0  0  0  0  0  0  0  0  0  0  0  0
   -5.3477   -2.3026   -1.8935 H   0  0  0  0  0  0  0  0  0  0  0  0
   -4.5784   -0.1560   -1.2975 H   0  0  0  0  0  0  0  0  0  0  0  0
   -3.0170   -0.8939   -1.9340 H   0  0  0  0  0  0  0  0  0  0  0  0
   -4.0186   -0.7381    0.9566 H   0  0  0  0  0  0  0  0  0  0  0  0
   -2.2577    0.6726    1.3346 H   0  0  0  0  0  0  0  0  0  0  0  0
   -0.7097   -1.3334   -0.3885 H   0  0  0  0  0  0  0  0  0  0  0  0
   -1.9330   -1.6019    2.2526 H   0  0  0  0  0  0  0  0  0  0  0  0
   -2.1222   -2.6890   -0.4626 H   0  0  0  0  0  0  0  0  0  0  0  0
   -3.3368   -4.1962    0.9002 H   0  0  0  0  0  0  0  0  0  0  0  0
   -3.9068   -2.9211    2.0280 H   0  0  0  0  0  0  0  0  0  0  0  0
    0.3027   -0.2629    2.2343 H   0  0  0  0  0  0  0  0  0  0  0  0
    0.4810    2.6524    1.8059 H   0  0  0  0  0  0  0  0  0  0  0  0
    3.0473    2.0929    2.1657 H   0  0  0  0  0  0  0  0  0  0  0  0
    2.5938    2.2219   -0.2919 H   0  0  0  0  0  0  0  0  0  0  0  0
    2.6246    3.5844    0.8467 H   0  0  0  0  0  0  0  0  0  0  0  0
    0.0048    2.4321   -1.9275 H   0  0  0  0  0  0  0  0  0  0  0  0
   -1.4569    3.8198    0.0535 H   0  0  0  0  0  0  0  0  0  0  0  0
   -0.9922    2.1353    0.9141 H   0  0  0  0  0  0  0  0  0  0  0  0
   -2.4026    1.6312   -0.8438 H   0  0  0  0  0  0  0  0  0  0  0  0
   -1.3037    0.3530   -1.5671 H   0  0  0  0  0  0  0  0  0  0  0  0
    0.2485    5.1863    0.5917 H   0  0  0  0  0  0  0  0  0  0  0  0
    0.4960    5.4455   -1.2255 H   0  0  0  0  0  0  0  0  0  0  0  0
    1.8867    5.3538   -0.1318 H   0  0  0  0  0  0  0  0  0  0  0  0
    0.9460   -2.4175    0.9590 H   0  0  0  0  0  0  0  0  0  0  0  0
    2.5638   -0.8342    2.4710 H   0  0  0  0  0  0  0  0  0  0  0  0
    3.0138   -2.3500    1.8008 H   0  0  0  0  0  0  0  0  0  0  0  0
    3.6599    0.2768    0.4725 H   0  0  0  0  0  0  0  0  0  0  0  0
    4.7120   -0.8546    1.3625 H   0  0  0  0  0  0  0  0  0  0  0  0
    4.2183   -2.6236   -0.3598 H   0  0  0  0  0  0  0  0  0  0  0  0
    4.8240    1.0914   -1.3269 H   0  0  0  0  0  0  0  0  0  0  0  0
    4.9143    0.2522   -2.8820 H   0  0  0  0  0  0  0  0  0  0  0  0
    2.9623   -1.9128   -2.3166 H   0  0  0  0  0  0  0  0  0  0  0  0
    0.8918   -0.5372   -1.2047 H   0  0  0  0  0  0  0  0  0  0  0  0
    1.0093   -2.2813   -1.2638 H   0  0  0  0  0  0  0  0  0  0  0  0
  1  2  1  0
  2  3  1  0
  3  4  1  0
  4  5  1  0
  5  6  1  0
  6  7  1  0
  4  8  1  0
  7  8  1  0
  1  9  1  0
  8  9  1  0
  6 10  1  0
 10 11  1  0
 11 12  1  0
 12 13  1  0
 12 14  1  0
 14 15  1  0
 15 16  1  0
 16 17  1  0
 11 18  1  0
 16 18  1  0
  5 19  1  0
 18 19  1  0
 15 20  1  0
 10 21  1  0
 21 22  1  0
 22 23  1  0
 23 24  1  0
 24 25  1  0
 25 26  1  0
 26 27  1  0
 24 28  1  0
 27 28  1  0
 21 29  1  0
 28 29  1  0
 30 31  1  0
 31 32  1  0
 32 33  1  0
 33 34  1  0
 34 35  1  0
 35 36  1  0
 33 37  1  0
 36 37  1  0
 30 38  1  0
 37 38  1  0
 35 39  1  0
 39 40  1  0
 40 41  1  0
 41 42  1  0
 41 43  1  0
 43 44  1  0
 44 45  1  0
 45 46  1  0
 40 47  1  0
 45 47  1  0
 34 48  1  0
 47 48  1  0
 44 49  1  0
 39 50  1  0
 50 51  1  0
 51 52  1  0
 52 53  1  0
 53 54  1  0
 54 55  1  0
 55 56  1  0
 53 57  1  0
 56 57  1  0
 50 58  1  0
 57 58  1  0
  1 59  1  0
  1 60  1  0
  2 61  1  0
  2 62  1  0
  3 63  1  0
  3 64  1  0
  4 65  1  0
  5 66  1  0
  6 67  1  0
  7 68  1  0
  8 69  1  0
  9 70  1  0
  9 71  1  0
 10 72  1  1
 12 73  1  0
 13 74  1  0
 14 75  1  0
 14 76  1  0
 16 77  1  0
 17 78  1  0
 18 79  1  1
 19 80  1  0
 19 81  1  0
 20 82  1  0
 20 83  1  0
 20 84  1  0
 21 85  1  0
 22 86  1  0
 22 87  1  0
 23 88  1  0
 23 89  1  0
 24 90  1  0
 26 91  1  0
 26 92  1  0
 28 93  1  0
 29 94  1  0
 29 95  1  0
 30 96  1  0
 30 97  1  0
 31 98  1  0
 31 99  1  0
 32100  1  0
 32101  1  0
 33102  1  0
 34103  1  0
 35104  1  0
 36105  1  0
 37106  1  0
 38107  1  0
 38108  1  0
 39109  1  1
 41110  1  0
 42111  1  0
 43112  1  0
 43113  1  0
 45114  1  0
 46115  1  0
 47116  1  1
 48117  1  0
 48118  1  0
 49119  1  0
 49120  1  0
 49121  1  0
 50122  1  0
 51123  1  0
 51124  1  0
 52125  1  0
 52126  1  0
 53127  1  0
 55128  1  0
 55129  1  0
 57130  1  0
 58131  1  0
 58132  1  0
M  END
>  <PDBID>  (1) 
1UDU

>  <PDB ID>  (1) 
1UDU

>  <Generic Name>  (1) 
Tadalafil

>  <Brand Name>  (1) 
Act Tadalafil#Adcirca#Apo-tadalafil#Apo-tadalafil Pah#Auro-tadalafil#Cialis#Dom-tadalafil#Ipg-tadalafil#Jamp-tadalafil#Mar-tadalafil#Mint-tadalafil#Mylan-tadalafil#PMS-tadalafil#Priva-tadalafil#Ran-tadalafil#Riva-tadalafil#Tadalafil#Teva-tadalafil

>  <DrugBank ID>  (1) 
DB00820

>  <ATC Codes>  (1) 
G04BE08

>  <Ligand ID>  (1) 
CIA

>  <Target Name>  (1) 
cGMP-specific 3',5'-cyclic phosphodiesterase

>  <UniProt ID>  (1) 
O76074

>  <PDB ID.1>  (1) 
1UDU

>  <Seq. Identity>  (1) 
94%

$$$$
