PDB_DB00380_07
     RDKit          3D

 43 44  0  0  0  0  0  0  0  0999 V2000
    4.0522    1.7243   -1.6335 O   0  0  0  0  0  0  0  0  0  0  0  0
    3.4139    0.6118   -1.0935 C   0  0  0  0  0  0  0  0  0  0  0  0
    4.3820   -0.2960   -0.5241 N   0  0  0  0  0  0  0  0  0  0  0  0
    3.5587   -1.4275   -0.0493 C   0  0  0  0  0  0  0  0  0  0  0  0
    4.3817   -2.5154    0.2571 O   0  0  0  0  0  0  0  0  0  0  0  0
    2.8119   -0.9179    1.1183 C   0  0  0  0  0  0  0  0  0  0  0  0
    2.3775    1.0971   -0.1179 C   0  0  0  0  0  0  0  0  0  0  0  0
    1.8702    0.1147    0.8016 N   0  0  0  0  0  0  0  0  0  0  0  0
    0.6139   -0.4631    0.3655 C   0  0  0  0  0  0  0  0  0  0  0  0
   -0.4645    0.5662    0.4737 C   0  0  2  0  0  0  0  0  0  0  0  0
   -0.6118    0.9945    1.9192 C   0  0  0  0  0  0  0  0  0  0  0  0
   -1.7053    0.1490   -0.1388 N   0  0  0  0  0  0  0  0  0  0  0  0
   -2.3131   -1.0135    0.4175 C   0  0  0  0  0  0  0  0  0  0  0  0
   -3.7675   -1.0143   -0.0564 C   0  0  0  0  0  0  0  0  0  0  0  0
   -4.1583   -2.3438   -0.3082 O   0  0  0  0  0  0  0  0  0  0  0  0
   -3.9611   -0.3023   -1.2905 N   0  0  0  0  0  0  0  0  0  0  0  0
   -3.5991    1.0967   -1.2114 C   0  0  0  0  0  0  0  0  0  0  0  0
   -2.6851    1.2309   -0.0133 C   0  0  0  0  0  0  0  0  0  0  0  0
   -4.6656    1.9567   -1.1802 O   0  0  0  0  0  0  0  0  0  0  0  0
    4.7427    1.4735   -2.3033 H   0  0  0  0  0  0  0  0  0  0  0  0
    2.9331    0.0693   -1.9621 H   0  0  0  0  0  0  0  0  0  0  0  0
    4.7440    0.1934    0.3394 H   0  0  0  0  0  0  0  0  0  0  0  0
    2.8593   -1.6714   -0.8722 H   0  0  0  0  0  0  0  0  0  0  0  0
    4.8650   -2.7471   -0.5697 H   0  0  0  0  0  0  0  0  0  0  0  0
    3.4733   -0.6154    1.9684 H   0  0  0  0  0  0  0  0  0  0  0  0
    2.2198   -1.7807    1.5479 H   0  0  0  0  0  0  0  0  0  0  0  0
    1.5415    1.4599   -0.7474 H   0  0  0  0  0  0  0  0  0  0  0  0
    2.7554    2.0099    0.4089 H   0  0  0  0  0  0  0  0  0  0  0  0
    0.3703   -1.3372    1.0380 H   0  0  0  0  0  0  0  0  0  0  0  0
    0.7301   -0.8435   -0.6722 H   0  0  0  0  0  0  0  0  0  0  0  0
   -0.1656    1.4716   -0.1004 H   0  0  0  0  0  0  0  0  0  0  0  0
   -0.1834    0.2125    2.6060 H   0  0  0  0  0  0  0  0  0  0  0  0
   -1.6442    1.1847    2.2192 H   0  0  0  0  0  0  0  0  0  0  0  0
   -0.0219    1.9164    2.0934 H   0  0  0  0  0  0  0  0  0  0  0  0
   -1.8389   -1.9696    0.0545 H   0  0  0  0  0  0  0  0  0  0  0  0
   -2.2941   -1.0621    1.5227 H   0  0  0  0  0  0  0  0  0  0  0  0
   -4.4264   -0.6404    0.7293 H   0  0  0  0  0  0  0  0  0  0  0  0
   -3.5910   -2.9892    0.1754 H   0  0  0  0  0  0  0  0  0  0  0  0
   -3.5871   -0.7756   -2.1182 H   0  0  0  0  0  0  0  0  0  0  0  0
   -2.9598    1.3505   -2.1074 H   0  0  0  0  0  0  0  0  0  0  0  0
   -3.2536    1.0379    0.9332 H   0  0  0  0  0  0  0  0  0  0  0  0
   -2.1555    2.1986    0.0247 H   0  0  0  0  0  0  0  0  0  0  0  0
   -4.6432    2.6060   -1.9435 H   0  0  0  0  0  0  0  0  0  0  0  0
  1  2  1  0
  2  3  1  0
  3  4  1  0
  4  5  1  0
  4  6  1  0
  2  7  1  0
  6  8  1  0
  7  8  1  0
  8  9  1  0
  9 10  1  0
 10 11  1  0
 10 12  1  0
 12 13  1  0
 13 14  1  0
 14 15  1  0
 14 16  1  0
 16 17  1  0
 12 18  1  0
 17 18  1  0
 17 19  1  0
  1 20  1  0
  2 21  1  0
  3 22  1  0
  4 23  1  0
  5 24  1  0
  6 25  1  0
  6 26  1  0
  7 27  1  0
  7 28  1  0
  9 29  1  0
  9 30  1  0
 10 31  1  6
 11 32  1  0
 11 33  1  0
 11 34  1  0
 13 35  1  0
 13 36  1  0
 14 37  1  0
 15 38  1  0
 16 39  1  0
 17 40  1  0
 18 41  1  0
 18 42  1  0
 19 43  1  0
M  END
>  <PDBID>  (1) 
1QZR

>  <PDB ID>  (1) 
1QZR

>  <Generic Name>  (1) 
Dexrazoxane

>  <Brand Name>  (1) 
Dexrazoxane#Dexrazoxane Hydrochloride#Zinecard#Ao Nuo Xian#Cardioxane#Dexrazoxane#Savene#Totect

>  <DrugBank ID>  (1) 
DB00380

>  <ATC Codes>  (1) 
V03AF02

>  <Ligand ID>  (1) 
CDX

>  <Target Name>  (1) 
DNA topoisomerase 2-alpha

>  <UniProt ID>  (1) 
P11388

>  <PDB ID.1>  (1) 
1QZR

>  <Seq. Identity>  (1) 
51%

$$$$
