PDB_DB00730_09
     RDKit          3D

 33 35  0  0  0  0  0  0  0  0999 V2000
   -1.0562   -0.9383    0.0331 C   0  0  0  0  0  0  0  0  0  0  0  0
    0.3100   -1.1641   -0.3589 N   0  0  0  0  0  0  0  0  0  0  0  0
    0.9241    0.0889   -0.6242 C   0  0  0  0  0  0  0  0  0  0  0  0
    2.3728    0.1907   -0.3969 C   0  0  0  0  0  0  0  0  0  0  0  0
    2.8702    1.6044   -0.7328 C   0  0  0  0  0  0  0  0  0  0  0  0
    4.5821    1.4380   -0.0721 S   0  0  0  0  0  0  0  0  0  0  0  0
    4.2964   -0.1467    0.8243 C   0  0  0  0  0  0  0  0  0  0  0  0
    2.8272   -0.0850    0.9208 N   0  0  0  0  0  0  0  0  0  0  0  0
    0.1198    1.0167    0.1539 N   0  0  0  0  0  0  0  0  0  0  0  0
   -1.1830    0.5710   -0.2183 C   0  0  0  0  0  0  0  0  0  0  0  0
   -2.3129    1.0600    0.5906 C   0  0  0  0  0  0  0  0  0  0  0  0
   -3.4964    0.1205    0.3146 C   0  0  0  0  0  0  0  0  0  0  0  0
   -3.2646   -0.6861   -0.9473 C   0  0  0  0  0  0  0  0  0  0  0  0
   -2.0708   -1.6090   -0.8189 C   0  0  0  0  0  0  0  0  0  0  0  0
   -1.2526   -1.0872    1.0935 H   0  0  0  0  0  0  0  0  0  0  0  0
    0.7744   -1.6668    0.4255 H   0  0  0  0  0  0  0  0  0  0  0  0
    0.7204    0.3466   -1.6981 H   0  0  0  0  0  0  0  0  0  0  0  0
    2.8945   -0.4730   -1.1166 H   0  0  0  0  0  0  0  0  0  0  0  0
    2.8714    1.7907   -1.8063 H   0  0  0  0  0  0  0  0  0  0  0  0
    2.2921    2.3250   -0.1412 H   0  0  0  0  0  0  0  0  0  0  0  0
    4.7729   -0.0351    1.7956 H   0  0  0  0  0  0  0  0  0  0  0  0
    4.6358   -0.9799    0.2085 H   0  0  0  0  0  0  0  0  0  0  0  0
    2.5280   -1.0107    1.2259 H   0  0  0  0  0  0  0  0  0  0  0  0
    0.2765    0.7680    1.1654 H   0  0  0  0  0  0  0  0  0  0  0  0
   -1.3418    0.7788   -1.2890 H   0  0  0  0  0  0  0  0  0  0  0  0
   -2.5532    2.1017    0.2901 H   0  0  0  0  0  0  0  0  0  0  0  0
   -2.0909    1.0902    1.6747 H   0  0  0  0  0  0  0  0  0  0  0  0
   -3.7352   -0.5008    1.1873 H   0  0  0  0  0  0  0  0  0  0  0  0
   -4.3712    0.7724    0.1112 H   0  0  0  0  0  0  0  0  0  0  0  0
   -3.1670    0.0084   -1.7919 H   0  0  0  0  0  0  0  0  0  0  0  0
   -4.1480   -1.3015   -1.1084 H   0  0  0  0  0  0  0  0  0  0  0  0
   -1.6455   -1.7820   -1.8238 H   0  0  0  0  0  0  0  0  0  0  0  0
   -2.3795   -2.6059   -0.4317 H   0  0  0  0  0  0  0  0  0  0  0  0
  1  2  1  0
  2  3  1  0
  3  4  1  0
  4  5  1  0
  5  6  1  0
  6  7  1  0
  4  8  1  0
  7  8  1  0
  3  9  1  0
  1 10  1  0
  9 10  1  0
 10 11  1  0
 11 12  1  0
 12 13  1  0
  1 14  1  0
 13 14  1  0
  1 15  1  0
  2 16  1  0
  3 17  1  0
  4 18  1  0
  5 19  1  0
  5 20  1  0
  7 21  1  0
  7 22  1  0
  8 23  1  0
  9 24  1  0
 10 25  1  0
 11 26  1  0
 11 27  1  0
 12 28  1  0
 12 29  1  0
 13 30  1  0
 13 31  1  0
 14 32  1  0
 14 33  1  0
M  END
>  <PDBID>  (1) 
3SFE

>  <PDB ID>  (1) 
3SFE

>  <Generic Name>  (1) 
Thiabendazole

>  <Brand Name>  (1) 
Mintezol Chewable Tab 500mg#Mintezol

>  <DrugBank ID>  (1) 
DB00730

>  <ATC Codes>  (1) 
D01AC06#P02CA02

>  <Ligand ID>  (1) 
TMG

>  <Target Name>  (1) 
Fumarate reductase flavoprotein subunit

>  <UniProt ID>  (1) 
P00363

>  <PDB ID.1>  (1) 
3SFE

>  <Seq. Identity>  (1) 
38%

$$$$
