PDB_DB00866_05
     RDKit          3D

 49 49  0  0  0  0  0  0  0  0999 V2000
    3.7337    1.1955   -1.3905 C   0  0  0  0  0  0  0  0  0  0  0  0
    3.4184   -0.5648    0.2524 N   0  0  0  0  0  0  0  0  0  0  0  0
    1.0136   -3.0978   -0.7116 O   0  0  0  0  0  0  0  0  0  0  0  0
    4.3810    0.2623   -0.4189 C   0  0  0  0  0  0  0  0  0  0  0  0
    0.1029   -0.5327   -0.1639 O   0  0  0  0  0  0  0  0  0  0  0  0
    5.1660    1.0546    0.6213 C   0  0  0  0  0  0  0  0  0  0  0  0
    2.7020   -1.4251   -0.6518 C   0  0  0  0  0  0  0  0  0  0  0  0
    1.7132   -2.2624    0.1482 C   0  0  1  0  0  0  0  0  0  0  0  0
    0.7398   -1.2972    0.8062 C   0  0  0  0  0  0  0  0  0  0  0  0
   -0.7897    0.3624    0.3668 C   0  0  0  0  0  0  0  0  0  0  0  0
   -0.4210    1.8007    0.0594 C   0  0  0  0  0  0  0  0  0  0  0  0
   -1.2305    2.6232    1.0771 C   0  0  0  0  0  0  0  0  0  0  0  0
   -2.6743    2.4454    0.7305 C   0  0  0  0  0  0  0  0  0  0  0  0
   -3.1178    0.9893    0.7242 C   0  0  0  0  0  0  0  0  0  0  0  0
   -2.2252    0.1561   -0.1433 C   0  0  0  0  0  0  0  0  0  0  0  0
   -2.5116   -1.3001   -0.1332 C   0  0  0  0  0  0  0  0  0  0  0  0
   -3.8467   -1.7184   -0.6069 C   0  0  0  0  0  0  0  0  0  0  0  0
   -5.0466   -1.2831    0.1372 C   0  0  0  0  0  0  0  0  0  0  0  0
    4.5071    1.8543   -1.8521 H   0  0  0  0  0  0  0  0  0  0  0  0
    3.2472    0.6236   -2.2002 H   0  0  0  0  0  0  0  0  0  0  0  0
    3.0136    1.8601   -0.8655 H   0  0  0  0  0  0  0  0  0  0  0  0
    3.8289   -1.1195    1.0340 H   0  0  0  0  0  0  0  0  0  0  0  0
    0.7130   -2.6183   -1.5225 H   0  0  0  0  0  0  0  0  0  0  0  0
    5.1392   -0.3435   -0.9837 H   0  0  0  0  0  0  0  0  0  0  0  0
    4.5484    1.9560    0.9080 H   0  0  0  0  0  0  0  0  0  0  0  0
    5.4223    0.4495    1.5056 H   0  0  0  0  0  0  0  0  0  0  0  0
    6.1043    1.4758    0.2075 H   0  0  0  0  0  0  0  0  0  0  0  0
    3.4056   -2.0560   -1.1991 H   0  0  0  0  0  0  0  0  0  0  0  0
    2.0853   -0.8141   -1.3568 H   0  0  0  0  0  0  0  0  0  0  0  0
    2.2467   -2.8767    0.8736 H   0  0  0  0  0  0  0  0  0  0  0  0
    0.0385   -1.8938    1.4002 H   0  0  0  0  0  0  0  0  0  0  0  0
    1.2909   -0.6238    1.5032 H   0  0  0  0  0  0  0  0  0  0  0  0
   -0.8344    0.2810    1.4655 H   0  0  0  0  0  0  0  0  0  0  0  0
   -0.7662    2.1053   -0.9480 H   0  0  0  0  0  0  0  0  0  0  0  0
    0.6449    1.9872    0.2044 H   0  0  0  0  0  0  0  0  0  0  0  0
   -0.9888    3.6934    1.0287 H   0  0  0  0  0  0  0  0  0  0  0  0
   -0.9993    2.1581    2.0588 H   0  0  0  0  0  0  0  0  0  0  0  0
   -2.8426    2.8123   -0.3110 H   0  0  0  0  0  0  0  0  0  0  0  0
   -3.3176    3.0169    1.4213 H   0  0  0  0  0  0  0  0  0  0  0  0
   -4.1646    1.0359    0.3169 H   0  0  0  0  0  0  0  0  0  0  0  0
   -3.1470    0.5989    1.7452 H   0  0  0  0  0  0  0  0  0  0  0  0
   -2.2276    0.5554   -1.1824 H   0  0  0  0  0  0  0  0  0  0  0  0
   -2.2762   -1.7625    0.8731 H   0  0  0  0  0  0  0  0  0  0  0  0
   -1.7623   -1.8306   -0.8083 H   0  0  0  0  0  0  0  0  0  0  0  0
   -3.8565   -2.8589   -0.6858 H   0  0  0  0  0  0  0  0  0  0  0  0
   -3.9474   -1.3303   -1.6789 H   0  0  0  0  0  0  0  0  0  0  0  0
   -5.7068   -2.2173    0.2639 H   0  0  0  0  0  0  0  0  0  0  0  0
   -5.6752   -0.5311   -0.3982 H   0  0  0  0  0  0  0  0  0  0  0  0
   -4.8306   -0.9951    1.1805 H   0  0  0  0  0  0  0  0  0  0  0  0
  1  4  1  0
  2  4  1  0
  4  6  1  0
  2  7  1  0
  3  8  1  0
  7  8  1  0
  5  9  1  0
  8  9  1  0
  5 10  1  0
 10 11  1  0
 11 12  1  0
 12 13  1  0
 13 14  1  0
 10 15  1  0
 14 15  1  0
 15 16  1  0
 16 17  1  0
 17 18  1  0
  1 19  1  0
  1 20  1  0
  1 21  1  0
  2 22  1  0
  3 23  1  0
  4 24  1  0
  6 25  1  0
  6 26  1  0
  6 27  1  0
  7 28  1  0
  7 29  1  0
  8 30  1  1
  9 31  1  0
  9 32  1  0
 10 33  1  0
 11 34  1  0
 11 35  1  0
 12 36  1  0
 12 37  1  0
 13 38  1  0
 13 39  1  0
 14 40  1  0
 14 41  1  0
 15 42  1  0
 16 43  1  0
 16 44  1  0
 17 45  1  0
 17 46  1  0
 18 47  1  0
 18 48  1  0
 18 49  1  0
M  END
>  <PDBID>  (1) 
3NYA

>  <PDB ID>  (1) 
3NYA

>  <Generic Name>  (1) 
Alprenolol

>  <Brand Name>  (1) 
Apllobal#Aptin#Aptine#Aptol Duriles#Atenenol#Elp#Gubernal#Regletin#Skajilol#Yobir

>  <DrugBank ID>  (1) 
DB00866

>  <ATC Codes>  (1) 
C07AA01

>  <Ligand ID>  (1) 
JTZ

>  <Target Name>  (1) 
Beta-1 adrenergic receptor

>  <UniProt ID>  (1) 
P08588

>  <PDB ID.1>  (1) 
3NYA

>  <Seq. Identity>  (1) 
67%

$$$$
