PDB_DB00328_09
     RDKit          3D

236244  0  0  0  0  0  0  0  0999 V2000
   -0.5927   -0.5547   -0.4361 C   0  0  0  0  0  0  0  0  0  0  0  0
   -1.9201    0.1921   -0.1861 C   0  0  0  0  0  0  0  0  0  0  0  0
   -2.6290   -0.5010    0.9237 C   0  0  0  0  0  0  0  0  0  0  0  0
   -2.9009   -1.9188    0.4011 C   0  0  0  0  0  0  0  0  0  0  0  0
   -1.5936   -2.6259    0.4338 C   0  0  0  0  0  0  0  0  0  0  0  0
   -0.4011   -1.6728    0.5075 C   0  0  0  0  0  0  0  0  0  0  0  0
   -4.9937   -2.8488    0.2707 C   0  0  0  0  0  0  0  0  0  0  0  0
   -1.4653    1.5740    0.0608 C   0  0  1  0  0  0  0  0  0  0  0  0
   -0.2091    1.6591   -0.8006 C   0  0  0  0  0  0  0  0  0  0  0  0
    1.6560    0.1921   -1.0313 C   0  0  0  0  0  0  0  0  0  0  0  0
    2.8062   -0.0913   -0.1814 C   0  0  0  0  0  0  0  0  0  0  0  0
    4.0127   -0.1804   -1.1707 C   0  0  0  0  0  0  0  0  0  0  0  0
    4.9663   -1.2829   -0.7481 C   0  0  0  0  0  0  0  0  0  0  0  0
    5.3881   -0.8965    0.6720 C   0  0  0  0  0  0  0  0  0  0  0  0
    4.1988   -1.1542    1.5351 C   0  0  0  0  0  0  0  0  0  0  0  0
    2.8823   -1.2409    0.7450 C   0  0  0  0  0  0  0  0  0  0  0  0
    0.6000    2.7848   -0.2293 C   0  0  0  0  0  0  0  0  0  0  0  0
   -2.4152    2.6570   -0.3641 C   0  0  0  0  0  0  0  0  0  0  0  0
   -3.7649    2.6270    0.2777 C   0  0  0  0  0  0  0  0  0  0  0  0
    0.3507    0.3701   -0.7540 N   0  0  0  0  0  0  0  0  0  0  0  0
   -3.9151   -2.5191    1.0944 O   0  0  0  0  0  0  0  0  0  0  0  0
    2.0522    1.3121   -1.8860 O   0  0  0  0  0  0  0  0  0  0  0  0
   -4.5102    3.7292   -0.2291 O   0  0  0  0  0  0  0  0  0  0  0  0
   -3.7077    2.7662    1.6452 O   0  0  0  0  0  0  0  0  0  0  0  0
    6.8404   -1.7668    1.1161 Cl  0  0  0  0  0  0  0  0  0  0  0  0
   -0.5927   -0.5547   -0.4361 C   0  0  0  0  0  0  0  0  0  0  0  0
   -1.9201    0.1921   -0.1861 C   0  0  0  0  0  0  0  0  0  0  0  0
   -2.6290   -0.5010    0.9237 C   0  0  0  0  0  0  0  0  0  0  0  0
   -2.9009   -1.9188    0.4011 C   0  0  0  0  0  0  0  0  0  0  0  0
   -1.5936   -2.6259    0.4338 C   0  0  0  0  0  0  0  0  0  0  0  0
   -0.4011   -1.6728    0.5075 C   0  0  0  0  0  0  0  0  0  0  0  0
   -4.9937   -2.8488    0.2707 C   0  0  0  0  0  0  0  0  0  0  0  0
   -1.4653    1.5740    0.0608 C   0  0  1  0  0  0  0  0  0  0  0  0
   -0.2091    1.6591   -0.8006 C   0  0  0  0  0  0  0  0  0  0  0  0
    1.6560    0.1921   -1.0313 C   0  0  0  0  0  0  0  0  0  0  0  0
    2.8062   -0.0913   -0.1814 C   0  0  0  0  0  0  0  0  0  0  0  0
    4.0127   -0.1804   -1.1707 C   0  0  0  0  0  0  0  0  0  0  0  0
    4.9663   -1.2829   -0.7481 C   0  0  0  0  0  0  0  0  0  0  0  0
    5.3881   -0.8965    0.6720 C   0  0  0  0  0  0  0  0  0  0  0  0
    4.1988   -1.1542    1.5351 C   0  0  0  0  0  0  0  0  0  0  0  0
    2.8823   -1.2409    0.7450 C   0  0  0  0  0  0  0  0  0  0  0  0
    0.6000    2.7848   -0.2293 C   0  0  0  0  0  0  0  0  0  0  0  0
   -2.4152    2.6570   -0.3641 C   0  0  0  0  0  0  0  0  0  0  0  0
   -3.7649    2.6270    0.2777 C   0  0  0  0  0  0  0  0  0  0  0  0
    0.3507    0.3701   -0.7540 N   0  0  0  0  0  0  0  0  0  0  0  0
   -3.9151   -2.5191    1.0944 O   0  0  0  0  0  0  0  0  0  0  0  0
    2.0522    1.3121   -1.8860 O   0  0  0  0  0  0  0  0  0  0  0  0
   -4.5102    3.7292   -0.2291 O   0  0  0  0  0  0  0  0  0  0  0  0
   -3.7077    2.7662    1.6452 O   0  0  0  0  0  0  0  0  0  0  0  0
    6.8404   -1.7668    1.1161 Cl  0  0  0  0  0  0  0  0  0  0  0  0
   -0.3364   -0.2568   -0.4581 C   0  0  0  0  0  0  0  0  0  0  0  0
   -1.7746    0.3227   -0.3529 C   0  0  0  0  0  0  0  0  0  0  0  0
   -2.5001   -0.2735    0.8393 C   0  0  0  0  0  0  0  0  0  0  0  0
   -2.8640   -1.6863    0.4791 C   0  0  0  0  0  0  0  0  0  0  0  0
   -1.8743   -2.1816   -0.5110 C   0  0  0  0  0  0  0  0  0  0  0  0
   -0.4379   -1.7138   -0.2364 C   0  0  0  0  0  0  0  0  0  0  0  0
   -4.3121   -2.8992    1.7718 C   0  0  0  0  0  0  0  0  0  0  0  0
   -1.4801    1.7452   -0.0571 C   0  0  0  0  0  0  0  0  0  0  0  0
   -0.0256    1.8544    0.3225 C   0  0  0  0  0  0  0  0  0  0  0  0
    1.6713    0.2014    0.8675 C   0  0  0  0  0  0  0  0  0  0  0  0
    2.8287    0.1362   -0.0568 C   0  0  0  0  0  0  0  0  0  0  0  0
    4.0770   -0.2292    0.7798 C   0  0  0  0  0  0  0  0  0  0  0  0
    4.4336   -1.6852    0.6389 C   0  0  0  0  0  0  0  0  0  0  0  0
    5.0793   -1.8367   -0.7374 C   0  0  0  0  0  0  0  0  0  0  0  0
    4.1995   -1.0530   -1.6962 C   0  0  0  0  0  0  0  0  0  0  0  0
    2.7777   -0.9331   -1.1228 C   0  0  0  0  0  0  0  0  0  0  0  0
    0.1655    2.7892    1.4287 C   0  0  0  0  0  0  0  0  0  0  0  0
   -1.8335    2.7005   -1.1762 C   0  0  0  0  0  0  0  0  0  0  0  0
   -3.3105    2.6057   -1.4521 C   0  0  0  0  0  0  0  0  0  0  0  0
    0.4116    0.5262    0.4341 N   0  0  0  0  0  0  0  0  0  0  0  0
   -3.0102   -2.4648    1.6028 O   0  0  0  0  0  0  0  0  0  0  0  0
    2.0691    0.8600    2.0642 O   0  0  0  0  0  0  0  0  0  0  0  0
   -3.6432    3.4969   -2.4957 O   0  0  0  0  0  0  0  0  0  0  0  0
   -4.0669    2.9650   -0.3522 O   0  0  0  0  0  0  0  0  0  0  0  0
    5.2944   -3.5135   -1.2087 Cl  0  0  0  0  0  0  0  0  0  0  0  0
   -0.5927   -0.5547   -0.4361 C   0  0  0  0  0  0  0  0  0  0  0  0
   -1.9201    0.1921   -0.1861 C   0  0  0  0  0  0  0  0  0  0  0  0
   -2.6290   -0.5010    0.9237 C   0  0  0  0  0  0  0  0  0  0  0  0
   -2.9009   -1.9188    0.4011 C   0  0  0  0  0  0  0  0  0  0  0  0
   -1.5936   -2.6259    0.4338 C   0  0  0  0  0  0  0  0  0  0  0  0
   -0.4011   -1.6728    0.5075 C   0  0  0  0  0  0  0  0  0  0  0  0
   -4.9937   -2.8488    0.2707 C   0  0  0  0  0  0  0  0  0  0  0  0
   -1.4653    1.5740    0.0608 C   0  0  1  0  0  0  0  0  0  0  0  0
   -0.2091    1.6591   -0.8006 C   0  0  0  0  0  0  0  0  0  0  0  0
    1.6560    0.1921   -1.0313 C   0  0  0  0  0  0  0  0  0  0  0  0
    2.8062   -0.0913   -0.1814 C   0  0  0  0  0  0  0  0  0  0  0  0
    4.0127   -0.1804   -1.1707 C   0  0  0  0  0  0  0  0  0  0  0  0
    4.9663   -1.2829   -0.7481 C   0  0  0  0  0  0  0  0  0  0  0  0
    5.3881   -0.8965    0.6720 C   0  0  0  0  0  0  0  0  0  0  0  0
    4.1988   -1.1542    1.5351 C   0  0  0  0  0  0  0  0  0  0  0  0
    2.8823   -1.2409    0.7450 C   0  0  0  0  0  0  0  0  0  0  0  0
    0.6000    2.7848   -0.2293 C   0  0  0  0  0  0  0  0  0  0  0  0
   -2.4152    2.6570   -0.3641 C   0  0  0  0  0  0  0  0  0  0  0  0
   -3.7649    2.6270    0.2777 C   0  0  0  0  0  0  0  0  0  0  0  0
    0.3507    0.3701   -0.7540 N   0  0  0  0  0  0  0  0  0  0  0  0
   -3.9151   -2.5191    1.0944 O   0  0  0  0  0  0  0  0  0  0  0  0
    2.0522    1.3121   -1.8860 O   0  0  0  0  0  0  0  0  0  0  0  0
   -4.5102    3.7292   -0.2291 O   0  0  0  0  0  0  0  0  0  0  0  0
   -3.7077    2.7662    1.6452 O   0  0  0  0  0  0  0  0  0  0  0  0
    6.8404   -1.7668    1.1161 Cl  0  0  0  0  0  0  0  0  0  0  0  0
   -0.8880   -1.1281   -1.4345 H   0  0  0  0  0  0  0  0  0  0  0  0
   -2.5756    0.1954   -1.0682 H   0  0  0  0  0  0  0  0  0  0  0  0
   -3.5904   -0.0877    1.2301 H   0  0  0  0  0  0  0  0  0  0  0  0
   -1.9292   -0.6319    1.7885 H   0  0  0  0  0  0  0  0  0  0  0  0
   -3.1777   -1.8055   -0.6854 H   0  0  0  0  0  0  0  0  0  0  0  0
   -1.4895   -3.3376   -0.3994 H   0  0  0  0  0  0  0  0  0  0  0  0
   -1.5597   -3.1992    1.3971 H   0  0  0  0  0  0  0  0  0  0  0  0
   -0.1320   -1.4417    1.5335 H   0  0  0  0  0  0  0  0  0  0  0  0
    0.4377   -2.3104    0.0815 H   0  0  0  0  0  0  0  0  0  0  0  0
   -5.7613   -3.3321    0.9302 H   0  0  0  0  0  0  0  0  0  0  0  0
   -5.4580   -1.9858   -0.2313 H   0  0  0  0  0  0  0  0  0  0  0  0
   -4.7114   -3.5722   -0.5206 H   0  0  0  0  0  0  0  0  0  0  0  0
   -1.1634    1.7244    1.1408 H   0  0  0  0  0  0  0  0  0  0  0  0
   -0.5820    1.8821   -1.8250 H   0  0  0  0  0  0  0  0  0  0  0  0
    1.7792   -0.6477   -1.8887 H   0  0  0  0  0  0  0  0  0  0  0  0
    3.0993    0.8050    0.4673 H   0  0  0  0  0  0  0  0  0  0  0  0
    4.5504    0.7634   -1.1843 H   0  0  0  0  0  0  0  0  0  0  0  0
    3.6604   -0.4517   -2.1809 H   0  0  0  0  0  0  0  0  0  0  0  0
    5.8103   -1.2372   -1.4631 H   0  0  0  0  0  0  0  0  0  0  0  0
    4.4850   -2.2637   -0.7212 H   0  0  0  0  0  0  0  0  0  0  0  0
    5.6234    0.2039    0.5970 H   0  0  0  0  0  0  0  0  0  0  0  0
    4.3197   -2.1419    2.0218 H   0  0  0  0  0  0  0  0  0  0  0  0
    4.1321   -0.3975    2.3362 H   0  0  0  0  0  0  0  0  0  0  0  0
    2.7494   -2.2344    0.3321 H   0  0  0  0  0  0  0  0  0  0  0  0
    2.1159   -1.0963    1.5603 H   0  0  0  0  0  0  0  0  0  0  0  0
    1.5090    2.5284    0.2924 H   0  0  0  0  0  0  0  0  0  0  0  0
    0.0030    3.4130    0.4930 H   0  0  0  0  0  0  0  0  0  0  0  0
    0.8388    3.4988   -1.0674 H   0  0  0  0  0  0  0  0  0  0  0  0
   -2.4855    2.6039   -1.4769 H   0  0  0  0  0  0  0  0  0  0  0  0
   -1.9060    3.6275   -0.1161 H   0  0  0  0  0  0  0  0  0  0  0  0
   -4.3357    1.7010    0.0161 H   0  0  0  0  0  0  0  0  0  0  0  0
    2.8359    1.7432   -1.5296 H   0  0  0  0  0  0  0  0  0  0  0  0
   -3.8252    4.4598   -0.3328 H   0  0  0  0  0  0  0  0  0  0  0  0
   -3.1144    3.5429    1.8752 H   0  0  0  0  0  0  0  0  0  0  0  0
   -0.8880   -1.1281   -1.4345 H   0  0  0  0  0  0  0  0  0  0  0  0
   -2.5756    0.1954   -1.0682 H   0  0  0  0  0  0  0  0  0  0  0  0
   -3.5904   -0.0877    1.2301 H   0  0  0  0  0  0  0  0  0  0  0  0
   -1.9292   -0.6319    1.7885 H   0  0  0  0  0  0  0  0  0  0  0  0
   -3.1777   -1.8055   -0.6854 H   0  0  0  0  0  0  0  0  0  0  0  0
   -1.4895   -3.3376   -0.3994 H   0  0  0  0  0  0  0  0  0  0  0  0
   -1.5597   -3.1992    1.3971 H   0  0  0  0  0  0  0  0  0  0  0  0
   -0.1320   -1.4417    1.5335 H   0  0  0  0  0  0  0  0  0  0  0  0
    0.4377   -2.3104    0.0815 H   0  0  0  0  0  0  0  0  0  0  0  0
   -5.7613   -3.3321    0.9302 H   0  0  0  0  0  0  0  0  0  0  0  0
   -5.4580   -1.9858   -0.2313 H   0  0  0  0  0  0  0  0  0  0  0  0
   -4.7114   -3.5722   -0.5206 H   0  0  0  0  0  0  0  0  0  0  0  0
   -1.1634    1.7244    1.1408 H   0  0  0  0  0  0  0  0  0  0  0  0
   -0.5820    1.8821   -1.8250 H   0  0  0  0  0  0  0  0  0  0  0  0
    1.7792   -0.6477   -1.8887 H   0  0  0  0  0  0  0  0  0  0  0  0
    3.0993    0.8050    0.4673 H   0  0  0  0  0  0  0  0  0  0  0  0
    4.5504    0.7634   -1.1843 H   0  0  0  0  0  0  0  0  0  0  0  0
    3.6604   -0.4517   -2.1809 H   0  0  0  0  0  0  0  0  0  0  0  0
    5.8103   -1.2372   -1.4631 H   0  0  0  0  0  0  0  0  0  0  0  0
    4.4850   -2.2637   -0.7212 H   0  0  0  0  0  0  0  0  0  0  0  0
    5.6234    0.2039    0.5970 H   0  0  0  0  0  0  0  0  0  0  0  0
    4.3197   -2.1419    2.0218 H   0  0  0  0  0  0  0  0  0  0  0  0
    4.1321   -0.3975    2.3362 H   0  0  0  0  0  0  0  0  0  0  0  0
    2.7494   -2.2344    0.3321 H   0  0  0  0  0  0  0  0  0  0  0  0
    2.1159   -1.0963    1.5603 H   0  0  0  0  0  0  0  0  0  0  0  0
    1.5090    2.5284    0.2924 H   0  0  0  0  0  0  0  0  0  0  0  0
    0.0030    3.4130    0.4930 H   0  0  0  0  0  0  0  0  0  0  0  0
    0.8388    3.4988   -1.0674 H   0  0  0  0  0  0  0  0  0  0  0  0
   -2.4855    2.6039   -1.4769 H   0  0  0  0  0  0  0  0  0  0  0  0
   -1.9060    3.6275   -0.1161 H   0  0  0  0  0  0  0  0  0  0  0  0
   -4.3357    1.7010    0.0161 H   0  0  0  0  0  0  0  0  0  0  0  0
    2.8359    1.7432   -1.5296 H   0  0  0  0  0  0  0  0  0  0  0  0
   -3.8252    4.4598   -0.3328 H   0  0  0  0  0  0  0  0  0  0  0  0
   -3.1144    3.5429    1.8752 H   0  0  0  0  0  0  0  0  0  0  0  0
   -0.0660   -0.0572   -1.5145 H   0  0  0  0  0  0  0  0  0  0  0  0
   -2.3408    0.1101   -1.2495 H   0  0  0  0  0  0  0  0  0  0  0  0
   -3.3775    0.3791    1.0194 H   0  0  0  0  0  0  0  0  0  0  0  0
   -1.9025   -0.2624    1.7616 H   0  0  0  0  0  0  0  0  0  0  0  0
   -3.8792   -1.6175   -0.0128 H   0  0  0  0  0  0  0  0  0  0  0  0
   -2.1805   -1.9014   -1.5270 H   0  0  0  0  0  0  0  0  0  0  0  0
   -1.8706   -3.3020   -0.4816 H   0  0  0  0  0  0  0  0  0  0  0  0
   -0.1053   -2.0764    0.7368 H   0  0  0  0  0  0  0  0  0  0  0  0
    0.1395   -2.2973   -1.0186 H   0  0  0  0  0  0  0  0  0  0  0  0
   -4.6786   -3.5087    0.9239 H   0  0  0  0  0  0  0  0  0  0  0  0
   -4.3796   -3.5511    2.6737 H   0  0  0  0  0  0  0  0  0  0  0  0
   -5.0203   -2.0333    1.9093 H   0  0  0  0  0  0  0  0  0  0  0  0
   -2.0528    2.0805    0.8416 H   0  0  0  0  0  0  0  0  0  0  0  0
    0.4789    2.2969   -0.5923 H   0  0  0  0  0  0  0  0  0  0  0  0
    1.5996   -0.8757    1.2614 H   0  0  0  0  0  0  0  0  0  0  0  0
    3.0470    1.0761   -0.5912 H   0  0  0  0  0  0  0  0  0  0  0  0
    4.9532    0.3420    0.3772 H   0  0  0  0  0  0  0  0  0  0  0  0
    3.9749    0.0509    1.8243 H   0  0  0  0  0  0  0  0  0  0  0  0
    3.6105   -2.3818    0.8110 H   0  0  0  0  0  0  0  0  0  0  0  0
    5.1847   -1.9096    1.4410 H   0  0  0  0  0  0  0  0  0  0  0  0
    6.0922   -1.3582   -0.6414 H   0  0  0  0  0  0  0  0  0  0  0  0
    4.1816   -1.5898   -2.6524 H   0  0  0  0  0  0  0  0  0  0  0  0
    4.5889   -0.0231   -1.7488 H   0  0  0  0  0  0  0  0  0  0  0  0
    2.1644   -0.6273   -1.9862 H   0  0  0  0  0  0  0  0  0  0  0  0
    2.4210   -1.8965   -0.7597 H   0  0  0  0  0  0  0  0  0  0  0  0
    1.1658    2.9815    1.7863 H   0  0  0  0  0  0  0  0  0  0  0  0
   -0.4242    2.4265    2.3246 H   0  0  0  0  0  0  0  0  0  0  0  0
   -0.3419    3.7709    1.1832 H   0  0  0  0  0  0  0  0  0  0  0  0
   -1.5348    3.7297   -0.9431 H   0  0  0  0  0  0  0  0  0  0  0  0
   -1.2826    2.3973   -2.1054 H   0  0  0  0  0  0  0  0  0  0  0  0
   -3.6232    1.5799   -1.7311 H   0  0  0  0  0  0  0  0  0  0  0  0
    1.4365    0.6836    2.7936 H   0  0  0  0  0  0  0  0  0  0  0  0
   -3.9225    4.3355   -2.0693 H   0  0  0  0  0  0  0  0  0  0  0  0
   -3.5940    3.5520    0.2750 H   0  0  0  0  0  0  0  0  0  0  0  0
   -0.8880   -1.1281   -1.4345 H   0  0  0  0  0  0  0  0  0  0  0  0
   -2.5756    0.1954   -1.0682 H   0  0  0  0  0  0  0  0  0  0  0  0
   -3.5904   -0.0877    1.2301 H   0  0  0  0  0  0  0  0  0  0  0  0
   -1.9292   -0.6319    1.7885 H   0  0  0  0  0  0  0  0  0  0  0  0
   -3.1777   -1.8055   -0.6854 H   0  0  0  0  0  0  0  0  0  0  0  0
   -1.4895   -3.3376   -0.3994 H   0  0  0  0  0  0  0  0  0  0  0  0
   -1.5597   -3.1992    1.3971 H   0  0  0  0  0  0  0  0  0  0  0  0
   -0.1320   -1.4417    1.5335 H   0  0  0  0  0  0  0  0  0  0  0  0
    0.4377   -2.3104    0.0815 H   0  0  0  0  0  0  0  0  0  0  0  0
   -5.7613   -3.3321    0.9302 H   0  0  0  0  0  0  0  0  0  0  0  0
   -5.4580   -1.9858   -0.2313 H   0  0  0  0  0  0  0  0  0  0  0  0
   -4.7114   -3.5722   -0.5206 H   0  0  0  0  0  0  0  0  0  0  0  0
   -1.1634    1.7244    1.1408 H   0  0  0  0  0  0  0  0  0  0  0  0
   -0.5820    1.8821   -1.8250 H   0  0  0  0  0  0  0  0  0  0  0  0
    1.7792   -0.6477   -1.8887 H   0  0  0  0  0  0  0  0  0  0  0  0
    3.0993    0.8050    0.4673 H   0  0  0  0  0  0  0  0  0  0  0  0
    4.5504    0.7634   -1.1843 H   0  0  0  0  0  0  0  0  0  0  0  0
    3.6604   -0.4517   -2.1809 H   0  0  0  0  0  0  0  0  0  0  0  0
    5.8103   -1.2372   -1.4631 H   0  0  0  0  0  0  0  0  0  0  0  0
    4.4850   -2.2637   -0.7212 H   0  0  0  0  0  0  0  0  0  0  0  0
    5.6234    0.2039    0.5970 H   0  0  0  0  0  0  0  0  0  0  0  0
    4.3197   -2.1419    2.0218 H   0  0  0  0  0  0  0  0  0  0  0  0
    4.1321   -0.3975    2.3362 H   0  0  0  0  0  0  0  0  0  0  0  0
    2.7494   -2.2344    0.3321 H   0  0  0  0  0  0  0  0  0  0  0  0
    2.1159   -1.0963    1.5603 H   0  0  0  0  0  0  0  0  0  0  0  0
    1.5090    2.5284    0.2924 H   0  0  0  0  0  0  0  0  0  0  0  0
    0.0030    3.4130    0.4930 H   0  0  0  0  0  0  0  0  0  0  0  0
    0.8388    3.4988   -1.0674 H   0  0  0  0  0  0  0  0  0  0  0  0
   -2.4855    2.6039   -1.4769 H   0  0  0  0  0  0  0  0  0  0  0  0
   -1.9060    3.6275   -0.1161 H   0  0  0  0  0  0  0  0  0  0  0  0
   -4.3357    1.7010    0.0161 H   0  0  0  0  0  0  0  0  0  0  0  0
    2.8359    1.7432   -1.5296 H   0  0  0  0  0  0  0  0  0  0  0  0
   -3.8252    4.4598   -0.3328 H   0  0  0  0  0  0  0  0  0  0  0  0
   -3.1144    3.5429    1.8752 H   0  0  0  0  0  0  0  0  0  0  0  0
  1  2  1  0
  2  3  1  0
  3  4  1  0
  4  5  1  0
  1  6  1  0
  5  6  1  0
  2  8  1  0
  8  9  1  0
 10 11  1  0
 11 12  1  0
 12 13  1  0
 13 14  1  0
 14 15  1  0
 11 16  1  0
 15 16  1  0
  9 17  1  0
  8 18  1  0
 18 19  1  0
  1 20  1  0
  9 20  1  0
 10 20  1  0
  4 21  1  0
  7 21  1  0
 10 22  1  0
 19 23  1  0
 19 24  1  0
 14 25  1  0
 26 27  1  0
 27 28  1  0
 28 29  1  0
 29 30  1  0
 26 31  1  0
 30 31  1  0
 27 33  1  0
 33 34  1  0
 35 36  1  0
 36 37  1  0
 37 38  1  0
 38 39  1  0
 39 40  1  0
 36 41  1  0
 40 41  1  0
 34 42  1  0
 33 43  1  0
 43 44  1  0
 26 45  1  0
 34 45  1  0
 35 45  1  0
 29 46  1  0
 32 46  1  0
 35 47  1  0
 44 48  1  0
 44 49  1  0
 39 50  1  0
 51 52  1  0
 52 53  1  0
 53 54  1  0
 54 55  1  0
 51 56  1  0
 55 56  1  0
 52 58  1  0
 58 59  1  0
 60 61  1  0
 61 62  1  0
 62 63  1  0
 63 64  1  0
 64 65  1  0
 61 66  1  0
 65 66  1  0
 59 67  1  0
 58 68  1  0
 68 69  1  0
 51 70  1  0
 59 70  1  0
 60 70  1  0
 54 71  1  0
 57 71  1  0
 60 72  1  0
 69 73  1  0
 69 74  1  0
 64 75  1  0
 76 77  1  0
 77 78  1  0
 78 79  1  0
 79 80  1  0
 76 81  1  0
 80 81  1  0
 77 83  1  0
 83 84  1  0
 85 86  1  0
 86 87  1  0
 87 88  1  0
 88 89  1  0
 89 90  1  0
 86 91  1  0
 90 91  1  0
 84 92  1  0
 83 93  1  0
 93 94  1  0
 76 95  1  0
 84 95  1  0
 85 95  1  0
 79 96  1  0
 82 96  1  0
 85 97  1  0
 94 98  1  0
 94 99  1  0
 89100  1  0
  1101  1  0
  2102  1  0
  3103  1  0
  3104  1  0
  4105  1  0
  5106  1  0
  5107  1  0
  6108  1  0
  6109  1  0
  7110  1  0
  7111  1  0
  7112  1  0
  8113  1  1
  9114  1  0
 10115  1  0
 11116  1  0
 12117  1  0
 12118  1  0
 13119  1  0
 13120  1  0
 14121  1  0
 15122  1  0
 15123  1  0
 16124  1  0
 16125  1  0
 17126  1  0
 17127  1  0
 17128  1  0
 18129  1  0
 18130  1  0
 19131  1  0
 22132  1  0
 23133  1  0
 24134  1  0
 26135  1  0
 27136  1  0
 28137  1  0
 28138  1  0
 29139  1  0
 30140  1  0
 30141  1  0
 31142  1  0
 31143  1  0
 32144  1  0
 32145  1  0
 32146  1  0
 33147  1  1
 34148  1  0
 35149  1  0
 36150  1  0
 37151  1  0
 37152  1  0
 38153  1  0
 38154  1  0
 39155  1  0
 40156  1  0
 40157  1  0
 41158  1  0
 41159  1  0
 42160  1  0
 42161  1  0
 42162  1  0
 43163  1  0
 43164  1  0
 44165  1  0
 47166  1  0
 48167  1  0
 49168  1  0
 51169  1  0
 52170  1  0
 53171  1  0
 53172  1  0
 54173  1  0
 55174  1  0
 55175  1  0
 56176  1  0
 56177  1  0
 57178  1  0
 57179  1  0
 57180  1  0
 58181  1  0
 59182  1  0
 60183  1  0
 61184  1  0
 62185  1  0
 62186  1  0
 63187  1  0
 63188  1  0
 64189  1  0
 65190  1  0
 65191  1  0
 66192  1  0
 66193  1  0
 67194  1  0
 67195  1  0
 67196  1  0
 68197  1  0
 68198  1  0
 69199  1  0
 72200  1  0
 73201  1  0
 74202  1  0
 76203  1  0
 77204  1  0
 78205  1  0
 78206  1  0
 79207  1  0
 80208  1  0
 80209  1  0
 81210  1  0
 81211  1  0
 82212  1  0
 82213  1  0
 82214  1  0
 83215  1  1
 84216  1  0
 85217  1  0
 86218  1  0
 87219  1  0
 87220  1  0
 88221  1  0
 88222  1  0
 89223  1  0
 90224  1  0
 90225  1  0
 91226  1  0
 91227  1  0
 92228  1  0
 92229  1  0
 92230  1  0
 93231  1  0
 93232  1  0
 94233  1  0
 97234  1  0
 98235  1  0
 99236  1  0
M  END
>  <PDBID>  (1) 
4COX

>  <PDB ID>  (1) 
4COX

>  <Generic Name>  (1) 
Indomethacin

>  <Brand Name>  (1) 
Apo Indomethacin Cap 25mg#Apo Indomethacin Cap 50mg#Ftp-indomethacin#Indocid Cap 25mg#Indocid Cap 50mg#Indocid SR 75mg#Indocid Sterile Oph Susp 1%#Indocid Sup 100mg#Indocid Sup 50mg#Indocin#Indocollyre#Indomethacin#Indomethacin ER#Indomethacin Extended-release#Mint-indomethacin#Novo-methacin - 100mg Sup#Novo-methacin - Sup 50mg#Ntp-indomethacin#Nu-indo Cap 25mg#Nu-indo Cap 50mg#Pro-indo 25 Cap 25mg#Pro-indo 50 Cap 50mg#Ratio-indomethacin#Rhodacine - Cap 25mg#Rhodacine - Cap 50mg#Rhodacine - Sup 100mg#Rhodacine - Sup 50mg#Sandoz Indomethacin#Teva-indomethacin#Tivorbex#Arthrexin#Elmetacin#Indaflex#Indocid#Indolar SR#Indomed#Indoxen#Metindol#Mikametan#Nu-Indo#Reumacide

>  <DrugBank ID>  (1) 
DB00328

>  <ATC Codes>  (1) 
S01CC02#M02AA23#M01AB01#M01AB51#S01BC01#C01EB03

>  <Ligand ID>  (1) 
IMN

>  <Target Name>  (1) 
Prostaglandin G/H synthase 2

>  <UniProt ID>  (1) 
P35354

>  <PDB ID.1>  (1) 
4COX

>  <Seq. Identity>  (1) 
84%

$$$$
