PDB_DB00864_05
     RDKit          3D

140143  0  0  0  0  0  0  0  0999 V2000
    1.2882   -1.2632   -0.7546 C   0  0  0  0  0  0  0  0  0  0  0  0
    1.1645   -2.7490   -0.5808 C   0  0  2  0  0  0  0  0  0  0  0  0
    2.2092   -3.4094   -1.4482 C   0  0  0  0  0  0  0  0  0  0  0  0
    2.4014   -4.8665   -1.0751 C   0  0  0  0  0  0  0  0  0  0  0  0
    1.0870   -5.3211   -0.4525 C   0  0  0  0  0  0  0  0  0  0  0  0
   -0.0245   -4.6081   -1.2369 C   0  0  0  0  0  0  0  0  0  0  0  0
   -1.0552   -2.8500    0.1196 C   0  0  0  0  0  0  0  0  0  0  0  0
   -2.1326   -3.7308    0.6094 C   0  0  0  0  0  0  0  0  0  0  0  0
   -3.4609   -3.5845   -0.1126 C   0  0  1  0  0  0  0  0  0  0  0  0
   -4.4841   -4.4790    0.4913 C   0  0  1  0  0  0  0  0  0  0  0  0
   -5.7235   -3.6943    0.9525 C   0  0  0  0  0  0  0  0  0  0  0  0
   -6.2078   -2.7915   -0.1751 C   0  0  1  0  0  0  0  0  0  0  0  0
   -5.0172   -1.9937   -0.6168 C   0  0  1  0  0  0  0  0  0  0  0  0
   -5.3754   -0.5210   -0.5438 C   0  0  2  0  0  0  0  0  0  0  0  0
   -4.7290    0.1650    0.6136 C   0  0  0  0  0  0  0  0  0  0  0  0
   -4.6377    1.6445    0.3219 C   0  0  2  0  0  0  0  0  0  0  0  0
   -3.3793    2.2750    0.8740 C   0  0  0  0  0  0  0  0  0  0  0  0
   -2.9069    3.4293    0.0309 C   0  0  0  0  0  0  0  0  0  0  0  0
   -2.0892    4.3556    0.9149 C   0  0  0  0  0  0  0  0  0  0  0  0
   -0.9332    4.9606    0.1920 C   0  0  2  0  0  0  0  0  0  0  0  0
    0.4095    4.5733    0.7784 C   0  0  0  0  0  0  0  0  0  0  0  0
    0.5167    3.0877    1.0392 C   0  0  0  0  0  0  0  0  0  0  0  0
    1.6603    2.5574    0.2088 C   0  0  1  0  0  0  0  0  0  0  0  0
    2.3677    1.3806    0.8698 C   0  0  2  0  0  0  0  0  0  0  0  0
    2.7934    0.4229   -0.1717 C   0  0  1  0  0  0  0  0  0  0  0  0
    4.3020    0.2864   -0.3727 C   0  0  0  0  0  0  0  0  0  0  0  0
    4.9085   -0.1874    0.8698 C   0  0  0  0  0  0  0  0  0  0  0  0
    6.3793   -0.4113    0.9392 C   0  0  1  0  0  0  0  0  0  0  0  0
    6.9216   -1.3987   -0.0347 C   0  0  0  0  0  0  0  0  0  0  0  0
    8.4260   -1.2552   -0.1834 C   0  0  2  0  0  0  0  0  0  0  0  0
    8.6246    0.1401   -0.7598 C   0  0  1  0  0  0  0  0  0  0  0  0
    8.3061    1.1029    0.3217 C   0  0  0  0  0  0  0  0  0  0  0  0
    7.0979    0.8583    1.1335 C   0  0  0  0  0  0  0  0  0  0  0  0
   -4.9792   -5.4905   -0.5108 C   0  0  0  0  0  0  0  0  0  0  0  0
   -5.7987    2.3922    0.9476 C   0  0  0  0  0  0  0  0  0  0  0  0
   -4.0205    4.2352   -0.5836 C   0  0  0  0  0  0  0  0  0  0  0  0
   -0.9963    6.4369   -0.0080 C   0  0  0  0  0  0  0  0  0  0  0  0
   -1.0606    7.1686    1.2968 C   0  0  0  0  0  0  0  0  0  0  0  0
   -1.1232    8.6547    0.9620 C   0  0  0  0  0  0  0  0  0  0  0  0
    1.3137    0.7400    1.7855 C   0  0  0  0  0  0  0  0  0  0  0  0
    4.8760    1.4901   -1.0357 C   0  0  0  0  0  0  0  0  0  0  0  0
   -8.1220   -3.3383   -1.3014 C   0  0  0  0  0  0  0  0  0  0  0  0
   -7.2763    0.3776   -1.5210 C   0  0  0  0  0  0  0  0  0  0  0  0
    9.8071   -3.0160   -0.7481 C   0  0  0  0  0  0  0  0  0  0  0  0
   -0.1837   -3.2539   -0.8895 N   0  0  0  0  0  0  0  0  0  0  0  0
    2.2575   -0.8353    0.1394 O   0  0  0  0  0  0  0  0  0  0  0  0
    1.6277   -0.8883   -2.0393 O   0  0  0  0  0  0  0  0  0  0  0  0
   -0.3263   -2.3939    1.2496 O   0  0  0  0  0  0  0  0  0  0  0  0
   -1.7653   -5.0377    0.8595 O   0  0  0  0  0  0  0  0  0  0  0  0
   -3.8781   -2.2597    0.1705 O   0  0  0  0  0  0  0  0  0  0  0  0
   -3.3958   -3.6715   -1.4715 O   0  0  0  0  0  0  0  0  0  0  0  0
   -6.7748   -3.5515   -1.1987 O   0  0  0  0  0  0  0  0  0  0  0  0
   -6.7492   -0.3308   -0.4682 O   0  0  0  0  0  0  0  0  0  0  0  0
    1.3651    4.9919   -0.1445 O   0  0  0  0  0  0  0  0  0  0  0  0
    1.1311    2.2106   -1.0335 O   0  0  0  0  0  0  0  0  0  0  0  0
    8.8174   -2.1484   -1.1719 O   0  0  0  0  0  0  0  0  0  0  0  0
    9.9649    0.3060   -1.1167 O   0  0  0  0  0  0  0  0  0  0  0  0
    0.2900   -0.8286   -0.5438 H   0  0  0  0  0  0  0  0  0  0  0  0
    1.4337   -3.0307    0.4800 H   0  0  0  0  0  0  0  0  0  0  0  0
    3.1699   -2.9020   -1.2215 H   0  0  0  0  0  0  0  0  0  0  0  0
    2.0315   -3.2757   -2.5288 H   0  0  0  0  0  0  0  0  0  0  0  0
    2.5112   -5.4213   -2.0306 H   0  0  0  0  0  0  0  0  0  0  0  0
    3.2587   -5.0079   -0.4050 H   0  0  0  0  0  0  0  0  0  0  0  0
    0.9489   -6.4158   -0.6189 H   0  0  0  0  0  0  0  0  0  0  0  0
    1.1026   -5.0393    0.5986 H   0  0  0  0  0  0  0  0  0  0  0  0
    0.3522   -4.6198   -2.3090 H   0  0  0  0  0  0  0  0  0  0  0  0
   -0.9007   -5.2527   -1.2775 H   0  0  0  0  0  0  0  0  0  0  0  0
   -1.5625   -1.8992   -0.2366 H   0  0  0  0  0  0  0  0  0  0  0  0
   -2.3984   -3.3429    1.6484 H   0  0  0  0  0  0  0  0  0  0  0  0
   -4.1230   -4.9820    1.4343 H   0  0  0  0  0  0  0  0  0  0  0  0
   -5.5038   -3.0617    1.8271 H   0  0  0  0  0  0  0  0  0  0  0  0
   -6.5135   -4.4453    1.1459 H   0  0  0  0  0  0  0  0  0  0  0  0
   -7.0252   -2.1912    0.2744 H   0  0  0  0  0  0  0  0  0  0  0  0
   -4.7591   -2.2223   -1.6650 H   0  0  0  0  0  0  0  0  0  0  0  0
   -5.0487    0.0009   -1.4844 H   0  0  0  0  0  0  0  0  0  0  0  0
   -3.7245   -0.2798    0.7654 H   0  0  0  0  0  0  0  0  0  0  0  0
   -5.3866    0.0470    1.4956 H   0  0  0  0  0  0  0  0  0  0  0  0
   -4.5847    1.7489   -0.7774 H   0  0  0  0  0  0  0  0  0  0  0  0
   -3.5839    2.6760    1.8962 H   0  0  0  0  0  0  0  0  0  0  0  0
   -2.5629    1.5265    0.9126 H   0  0  0  0  0  0  0  0  0  0  0  0
   -2.3059    3.0187   -0.8093 H   0  0  0  0  0  0  0  0  0  0  0  0
   -1.7356    3.8196    1.8307 H   0  0  0  0  0  0  0  0  0  0  0  0
   -2.7627    5.1687    1.2508 H   0  0  0  0  0  0  0  0  0  0  0  0
   -0.9339    4.5113   -0.8487 H   0  0  0  0  0  0  0  0  0  0  0  0
    0.6387    5.1523    1.7196 H   0  0  0  0  0  0  0  0  0  0  0  0
   -0.4513    2.6392    0.6667 H   0  0  0  0  0  0  0  0  0  0  0  0
    0.6482    2.8869    2.1224 H   0  0  0  0  0  0  0  0  0  0  0  0
    2.3973    3.4092    0.1173 H   0  0  0  0  0  0  0  0  0  0  0  0
    3.1491    1.7384    1.5692 H   0  0  0  0  0  0  0  0  0  0  0  0
    2.3002    0.6955   -1.1442 H   0  0  0  0  0  0  0  0  0  0  0  0
    4.3560   -0.5348   -1.1624 H   0  0  0  0  0  0  0  0  0  0  0  0
    4.3662   -1.1483    1.1478 H   0  0  0  0  0  0  0  0  0  0  0  0
    4.6347    0.4907    1.7200 H   0  0  0  0  0  0  0  0  0  0  0  0
    6.4968   -0.9704    1.9398 H   0  0  0  0  0  0  0  0  0  0  0  0
    6.5094   -1.3114   -1.0562 H   0  0  0  0  0  0  0  0  0  0  0  0
    6.7339   -2.4415    0.2864 H   0  0  0  0  0  0  0  0  0  0  0  0
    8.9607   -1.3804    0.7694 H   0  0  0  0  0  0  0  0  0  0  0  0
    7.9779    0.1945   -1.6527 H   0  0  0  0  0  0  0  0  0  0  0  0
    8.2746    2.1259   -0.1602 H   0  0  0  0  0  0  0  0  0  0  0  0
    9.2317    1.1706    0.9667 H   0  0  0  0  0  0  0  0  0  0  0  0
    7.4148    1.0044    2.2208 H   0  0  0  0  0  0  0  0  0  0  0  0
    6.4075    1.7477    1.0134 H   0  0  0  0  0  0  0  0  0  0  0  0
   -4.9971   -5.0090   -1.5051 H   0  0  0  0  0  0  0  0  0  0  0  0
   -4.3314   -6.3810   -0.6133 H   0  0  0  0  0  0  0  0  0  0  0  0
   -5.9748   -5.8804   -0.2102 H   0  0  0  0  0  0  0  0  0  0  0  0
   -6.5056    1.7008    1.4534 H   0  0  0  0  0  0  0  0  0  0  0  0
   -5.4764    3.1105    1.7288 H   0  0  0  0  0  0  0  0  0  0  0  0
   -6.2951    2.9830    0.1517 H   0  0  0  0  0  0  0  0  0  0  0  0
   -4.6640    4.7369    0.1675 H   0  0  0  0  0  0  0  0  0  0  0  0
   -3.5108    5.0827   -1.1237 H   0  0  0  0  0  0  0  0  0  0  0  0
   -4.5673    3.6862   -1.3572 H   0  0  0  0  0  0  0  0  0  0  0  0
   -0.0416    6.7190   -0.5397 H   0  0  0  0  0  0  0  0  0  0  0  0
   -1.8305    6.7336   -0.6922 H   0  0  0  0  0  0  0  0  0  0  0  0
   -0.1308    7.0153    1.8767 H   0  0  0  0  0  0  0  0  0  0  0  0
   -1.8952    6.8599    1.9301 H   0  0  0  0  0  0  0  0  0  0  0  0
   -0.0943    9.0552    0.8826 H   0  0  0  0  0  0  0  0  0  0  0  0
   -1.6276    8.8356   -0.0008 H   0  0  0  0  0  0  0  0  0  0  0  0
   -1.6219    9.1673    1.7985 H   0  0  0  0  0  0  0  0  0  0  0  0
    0.3132    0.7793    1.3588 H   0  0  0  0  0  0  0  0  0  0  0  0
    1.6048   -0.3367    1.8706 H   0  0  0  0  0  0  0  0  0  0  0  0
    1.3869    1.1274    2.8246 H   0  0  0  0  0  0  0  0  0  0  0  0
    4.3677    1.5415   -2.0541 H   0  0  0  0  0  0  0  0  0  0  0  0
    4.7458    2.4448   -0.5139 H   0  0  0  0  0  0  0  0  0  0  0  0
    5.9228    1.3523   -1.2781 H   0  0  0  0  0  0  0  0  0  0  0  0
   -8.5833   -3.9535   -2.1237 H   0  0  0  0  0  0  0  0  0  0  0  0
   -8.6434   -3.6567   -0.3526 H   0  0  0  0  0  0  0  0  0  0  0  0
   -8.4018   -2.2774   -1.4368 H   0  0  0  0  0  0  0  0  0  0  0  0
   -6.8054    1.3775   -1.5547 H   0  0  0  0  0  0  0  0  0  0  0  0
   -8.3638    0.5656   -1.3973 H   0  0  0  0  0  0  0  0  0  0  0  0
   -7.1413   -0.1846   -2.4696 H   0  0  0  0  0  0  0  0  0  0  0  0
    9.4201   -3.5829    0.0984 H   0  0  0  0  0  0  0  0  0  0  0  0
   10.7014   -2.3995   -0.5029 H   0  0  0  0  0  0  0  0  0  0  0  0
   10.0680   -3.6929   -1.5653 H   0  0  0  0  0  0  0  0  0  0  0  0
    2.4398   -1.2833   -2.3945 H   0  0  0  0  0  0  0  0  0  0  0  0
   -0.3601   -3.0860    1.9596 H   0  0  0  0  0  0  0  0  0  0  0  0
   -2.4024   -5.7244    0.6347 H   0  0  0  0  0  0  0  0  0  0  0  0
   -3.0753   -4.4998   -1.8611 H   0  0  0  0  0  0  0  0  0  0  0  0
    1.0214    4.8345   -1.0566 H   0  0  0  0  0  0  0  0  0  0  0  0
    1.7774    2.5856   -1.7094 H   0  0  0  0  0  0  0  0  0  0  0  0
   10.4241    0.9728   -0.5424 H   0  0  0  0  0  0  0  0  0  0  0  0
  1  2  1  0
  2  3  1  0
  3  4  1  0
  4  5  1  0
  5  6  1  0
  7  8  1  0
  8  9  1  0
  9 10  1  0
 10 11  1  0
 11 12  1  0
 12 13  1  0
 13 14  1  0
 14 15  1  0
 15 16  1  0
 16 17  1  0
 17 18  1  0
 18 19  1  0
 19 20  1  0
 20 21  1  0
 21 22  1  0
 22 23  1  0
 23 24  1  0
 24 25  1  0
 25 26  1  0
 26 27  1  0
 27 28  1  0
 28 29  1  0
 29 30  1  0
 30 31  1  0
 31 32  1  0
 28 33  1  0
 32 33  1  0
 10 34  1  0
 16 35  1  0
 18 36  1  0
 20 37  1  0
 37 38  1  0
 38 39  1  0
 24 40  1  0
 26 41  1  0
  2 45  1  0
  6 45  1  0
  7 45  1  0
  1 46  1  0
 25 46  1  0
  1 47  1  0
  7 48  1  0
  8 49  1  0
  9 50  1  0
 13 50  1  0
  9 51  1  6
 12 52  1  0
 42 52  1  0
 14 53  1  0
 43 53  1  0
 21 54  1  0
 23 55  1  0
 30 56  1  0
 44 56  1  0
 31 57  1  0
  1 58  1  0
  2 59  1  1
  3 60  1  0
  3 61  1  0
  4 62  1  0
  4 63  1  0
  5 64  1  0
  5 65  1  0
  6 66  1  0
  6 67  1  0
  7 68  1  0
  8 69  1  0
 10 70  1  1
 11 71  1  0
 11 72  1  0
 12 73  1  1
 13 74  1  6
 14 75  1  6
 15 76  1  0
 15 77  1  0
 16 78  1  6
 17 79  1  0
 17 80  1  0
 18 81  1  0
 19 82  1  0
 19 83  1  0
 20 84  1  6
 21 85  1  0
 22 86  1  0
 22 87  1  0
 23 88  1  6
 24 89  1  1
 25 90  1  6
 26 91  1  0
 27 92  1  0
 27 93  1  0
 28 94  1  1
 29 95  1  0
 29 96  1  0
 30 97  1  1
 31 98  1  6
 32 99  1  0
 32100  1  0
 33101  1  0
 33102  1  0
 34103  1  0
 34104  1  0
 34105  1  0
 35106  1  0
 35107  1  0
 35108  1  0
 36109  1  0
 36110  1  0
 36111  1  0
 37112  1  0
 37113  1  0
 38114  1  0
 38115  1  0
 39116  1  0
 39117  1  0
 39118  1  0
 40119  1  0
 40120  1  0
 40121  1  0
 41122  1  0
 41123  1  0
 41124  1  0
 42125  1  0
 42126  1  0
 42127  1  0
 43128  1  0
 43129  1  0
 43130  1  0
 44131  1  0
 44132  1  0
 44133  1  0
 47134  1  0
 48135  1  0
 49136  1  0
 51137  1  0
 54138  1  0
 55139  1  0
 57140  1  0
M  END
>  <PDBID>  (1) 
1FKF

>  <PDB ID>  (1) 
1FKF

>  <Generic Name>  (1) 
Tacrolimus

>  <Brand Name>  (1) 
Ach-tacrolimus#Advagraf#Astagraf XL#Envarsus XR#Hecoria#Prograf#Protopic#Ran-tacrolimus#Sandoz Tacrolimus#Tacrolimus

>  <DrugBank ID>  (1) 
DB00864

>  <ATC Codes>  (1) 
D11AH01#L04AD02

>  <Ligand ID>  (1) 
FK5

>  <Target Name>  (1) 
Peptidyl-prolyl cis-trans isomerase FKBP1A

>  <UniProt ID>  (1) 
P62942

>  <PDB ID.1>  (1) 
1FKF

>  <Seq. Identity>  (1) 
100%

$$$$
