PDB_DB09053_04
     RDKit          3D

 81 85  0  0  0  0  0  0  0  0999 V2000
   -1.1694   -4.7672   -0.7490 N   0  0  0  0  0  0  0  0  0  0  0  0
   -2.5542   -4.5268   -1.0135 C   0  0  0  0  0  0  0  0  0  0  0  0
   -2.9537   -3.2161   -0.6293 N   0  0  0  0  0  0  0  0  0  0  0  0
   -2.0248   -2.1612   -0.9450 C   0  0  0  0  0  0  0  0  0  0  0  0
   -0.5952   -2.4635   -0.4844 C   0  0  0  0  0  0  0  0  0  0  0  0
   -0.5991   -3.8242    0.1948 C   0  0  1  0  0  0  0  0  0  0  0  0
   -6.5228    4.2129    0.5911 C   0  0  0  0  0  0  0  0  0  0  0  0
   -1.3343   -3.7773    1.4427 N   0  0  0  0  0  0  0  0  0  0  0  0
   -7.2240    1.5347   -0.0787 O   0  0  0  0  0  0  0  0  0  0  0  0
   -6.3492    3.0179    1.4901 C   0  0  0  0  0  0  0  0  0  0  0  0
    7.7774    1.3107   -0.8947 C   0  0  0  0  0  0  0  0  0  0  0  0
    7.3561    0.0228   -0.2347 C   0  0  0  0  0  0  0  0  0  0  0  0
    7.5195    2.5031   -0.0003 C   0  0  0  0  0  0  0  0  0  0  0  0
    6.9448    0.3492    1.1891 C   0  0  0  0  0  0  0  0  0  0  0  0
    6.1182    2.5399    0.5253 C   0  0  0  0  0  0  0  0  0  0  0  0
    3.4938   -1.2529    0.7444 C   0  0  0  0  0  0  0  0  0  0  0  0
    2.6020    0.9345   -0.1586 C   0  0  0  0  0  0  0  0  0  0  0  0
    2.1287   -1.8453    0.8244 C   0  0  0  0  0  0  0  0  0  0  0  0
    1.5175   -0.0068   -0.6576 C   0  0  0  0  0  0  0  0  0  0  0  0
   -4.2967    1.3667   -2.2440 C   0  0  0  0  0  0  0  0  0  0  0  0
   -3.2621    0.3270   -1.8784 C   0  0  0  0  0  0  0  0  0  0  0  0
   -4.5683    2.3202   -1.0697 C   0  0  0  0  0  0  0  0  0  0  0  0
   -4.0101    0.6477    0.4886 C   0  0  0  0  0  0  0  0  0  0  0  0
   -1.1701   -0.2755   -0.0860 N   0  0  0  0  0  0  0  0  0  0  0  0
    4.8619    0.5322    0.1712 O   0  0  0  0  0  0  0  0  0  0  0  0
   -6.0987    1.7375    0.7630 C   0  0  0  0  0  0  0  0  0  0  0  0
    5.6669    1.1916    1.0775 C   0  0  0  0  0  0  0  0  0  0  0  0
    3.5802    0.2302    0.7035 C   0  0  0  0  0  0  0  0  0  0  0  0
    1.0689   -0.8224    0.5121 C   0  0  0  0  0  0  0  0  0  0  0  0
   -0.3055   -1.3531    0.4537 C   0  0  0  0  0  0  0  0  0  0  0  0
   -3.5132   -0.3108   -0.5599 C   0  0  2  0  0  0  0  0  0  0  0  0
   -2.3941   -1.0183   -0.0766 N   0  0  0  0  0  0  0  0  0  0  0  0
   -4.9387    1.5852    0.0326 N   0  0  0  0  0  0  0  0  0  0  0  0
   -0.9665   -5.7518   -0.4576 H   0  0  0  0  0  0  0  0  0  0  0  0
   -3.1654   -5.2439   -0.3974 H   0  0  0  0  0  0  0  0  0  0  0  0
   -2.7786   -4.7720   -2.0743 H   0  0  0  0  0  0  0  0  0  0  0  0
   -3.3027   -3.0971    0.3212 H   0  0  0  0  0  0  0  0  0  0  0  0
   -2.0483   -1.8869   -2.0034 H   0  0  0  0  0  0  0  0  0  0  0  0
    0.0227   -2.4919   -1.3849 H   0  0  0  0  0  0  0  0  0  0  0  0
    0.4124   -4.2020    0.4204 H   0  0  0  0  0  0  0  0  0  0  0  0
   -5.6063    4.6563    0.2104 H   0  0  0  0  0  0  0  0  0  0  0  0
   -7.0614    5.0394    1.1218 H   0  0  0  0  0  0  0  0  0  0  0  0
   -7.1520    3.9035   -0.2724 H   0  0  0  0  0  0  0  0  0  0  0  0
   -0.7198   -3.4676    2.2312 H   0  0  0  0  0  0  0  0  0  0  0  0
   -1.6295   -4.7512    1.6610 H   0  0  0  0  0  0  0  0  0  0  0  0
   -7.0062    1.7709   -1.0160 H   0  0  0  0  0  0  0  0  0  0  0  0
   -5.6216    3.2077    2.3081 H   0  0  0  0  0  0  0  0  0  0  0  0
   -7.3407    2.8955    2.0198 H   0  0  0  0  0  0  0  0  0  0  0  0
    8.8969    1.2652   -1.0221 H   0  0  0  0  0  0  0  0  0  0  0  0
    7.3599    1.4509   -1.8973 H   0  0  0  0  0  0  0  0  0  0  0  0
    8.1336   -0.7535   -0.2753 H   0  0  0  0  0  0  0  0  0  0  0  0
    6.4315   -0.3113   -0.7627 H   0  0  0  0  0  0  0  0  0  0  0  0
    7.6513    3.4189   -0.6334 H   0  0  0  0  0  0  0  0  0  0  0  0
    8.3000    2.5839    0.8038 H   0  0  0  0  0  0  0  0  0  0  0  0
    6.6725   -0.6078    1.7101 H   0  0  0  0  0  0  0  0  0  0  0  0
    7.7221    0.8739    1.7434 H   0  0  0  0  0  0  0  0  0  0  0  0
    6.0801    3.3345    1.3079 H   0  0  0  0  0  0  0  0  0  0  0  0
    5.4611    2.8850   -0.2983 H   0  0  0  0  0  0  0  0  0  0  0  0
    4.1108   -1.6732   -0.0922 H   0  0  0  0  0  0  0  0  0  0  0  0
    4.0717   -1.5721    1.6659 H   0  0  0  0  0  0  0  0  0  0  0  0
    3.0219    1.4752   -1.0087 H   0  0  0  0  0  0  0  0  0  0  0  0
    2.0663    1.7125    0.4629 H   0  0  0  0  0  0  0  0  0  0  0  0
    2.1064   -2.6452    0.0178 H   0  0  0  0  0  0  0  0  0  0  0  0
    1.9350   -2.2568    1.8222 H   0  0  0  0  0  0  0  0  0  0  0  0
    0.7523    0.6560   -1.1002 H   0  0  0  0  0  0  0  0  0  0  0  0
    1.9845   -0.6838   -1.3977 H   0  0  0  0  0  0  0  0  0  0  0  0
   -3.8700    2.0310   -3.0540 H   0  0  0  0  0  0  0  0  0  0  0  0
   -5.2519    0.9767   -2.5782 H   0  0  0  0  0  0  0  0  0  0  0  0
   -2.2886    0.8429   -1.9798 H   0  0  0  0  0  0  0  0  0  0  0  0
   -3.3052   -0.4438   -2.6763 H   0  0  0  0  0  0  0  0  0  0  0  0
   -3.5918    2.8373   -0.8836 H   0  0  0  0  0  0  0  0  0  0  0  0
   -5.3187    3.0309   -1.4842 H   0  0  0  0  0  0  0  0  0  0  0  0
   -3.1158    1.1729    0.9249 H   0  0  0  0  0  0  0  0  0  0  0  0
   -4.4528    0.0513    1.3308 H   0  0  0  0  0  0  0  0  0  0  0  0
   -0.9223   -0.3175   -1.1312 H   0  0  0  0  0  0  0  0  0  0  0  0
   -6.2158    0.8721    1.5105 H   0  0  0  0  0  0  0  0  0  0  0  0
    5.2176    1.3767    2.0553 H   0  0  0  0  0  0  0  0  0  0  0  0
    3.5755    0.6384    1.7501 H   0  0  0  0  0  0  0  0  0  0  0  0
    1.0915   -0.1144    1.4074 H   0  0  0  0  0  0  0  0  0  0  0  0
   -0.7498   -1.5865    1.4441 H   0  0  0  0  0  0  0  0  0  0  0  0
   -4.3477   -1.0721   -0.6787 H   0  0  0  0  0  0  0  0  0  0  0  0
  1  2  1  0
  2  3  1  0
  3  4  1  0
  4  5  1  0
  1  6  1  0
  5  6  1  0
  6  8  1  0
  7 10  1  0
 11 12  1  0
 11 13  1  0
 12 14  1  0
 13 15  1  0
 16 18  1  0
 17 19  1  0
 20 21  1  0
 20 22  1  0
  9 26  1  0
 10 26  1  0
 14 27  1  0
 15 27  1  0
 25 27  1  0
 16 28  1  0
 17 28  1  0
 25 28  1  0
 18 29  1  0
 19 29  1  0
  5 30  1  0
 24 30  1  0
 29 30  1  0
 21 31  1  0
 23 31  1  0
  4 32  1  0
 24 32  1  0
 31 32  1  0
 22 33  1  0
 23 33  1  0
 26 33  1  0
  1 34  1  0
  2 35  1  0
  2 36  1  0
  3 37  1  0
  4 38  1  0
  5 39  1  0
  6 40  1  1
  7 41  1  0
  7 42  1  0
  7 43  1  0
  8 44  1  0
  8 45  1  0
  9 46  1  0
 10 47  1  0
 10 48  1  0
 11 49  1  0
 11 50  1  0
 12 51  1  0
 12 52  1  0
 13 53  1  0
 13 54  1  0
 14 55  1  0
 14 56  1  0
 15 57  1  0
 15 58  1  0
 16 59  1  0
 16 60  1  0
 17 61  1  0
 17 62  1  0
 18 63  1  0
 18 64  1  0
 19 65  1  0
 19 66  1  0
 20 67  1  0
 20 68  1  0
 21 69  1  0
 21 70  1  0
 22 71  1  0
 22 72  1  0
 23 73  1  0
 23 74  1  0
 24 75  1  0
 26 76  1  0
 27 77  1  0
 28 78  1  0
 29 79  1  0
 30 80  1  0
 31 81  1  6
M  END
>  <PDBID>  (1) 
5P9I

>  <PDB ID>  (1) 
5P9I

>  <Generic Name>  (1) 
Ibrutinib

>  <Brand Name>  (1) 
Imbruvica

>  <DrugBank ID>  (1) 
DB09053

>  <ATC Codes>  (1) 
L01XE27

>  <Ligand ID>  (1) 
100000000

>  <Target Name>  (1) 
Tyrosine-protein kinase BTK

>  <UniProt ID>  (1) 
Q06187

>  <PDB ID.1>  (1) 
5P9I

>  <Seq. Identity>  (1) 
100%

$$$$
