PDB_DB00563_05
     RDKit          3D

 77 79  0  0  0  0  0  0  0  0999 V2000
   -7.4845    1.3157   -0.2708 N   0  0  0  0  0  0  0  0  0  0  0  0
   -8.3599    0.1854   -0.3870 C   0  0  0  0  0  0  0  0  0  0  0  0
   -9.7075    0.6757   -0.6238 N   0  0  0  0  0  0  0  0  0  0  0  0
   -7.8986   -0.6029   -1.5077 N   0  0  0  0  0  0  0  0  0  0  0  0
   -6.6551   -1.2564   -1.1776 C   0  0  2  0  0  0  0  0  0  0  0  0
   -7.0276   -2.5442   -0.5837 N   0  0  0  0  0  0  0  0  0  0  0  0
   -5.8290   -0.5194   -0.1712 C   0  0  0  0  0  0  0  0  0  0  0  0
   -4.3950   -0.6979   -0.3447 N   0  0  0  0  0  0  0  0  0  0  0  0
   -3.7272   -0.0823    0.7720 C   0  0  0  0  0  0  0  0  0  0  0  0
   -4.1253    1.3164    1.0779 C   0  0  0  0  0  0  0  0  0  0  0  0
   -5.5720    1.4984    1.0578 N   0  0  0  0  0  0  0  0  0  0  0  0
   -6.0971    0.9860   -0.1947 C   0  0  0  0  0  0  0  0  0  0  0  0
   -2.2647   -0.2804    0.8418 C   0  0  0  0  0  0  0  0  0  0  0  0
   -1.4498    0.1504   -0.2289 N   0  0  0  0  0  0  0  0  0  0  0  0
   -1.2996    1.5342   -0.4695 C   0  0  0  0  0  0  0  0  0  0  0  0
    2.7367   -0.2295   -0.4761 C   0  0  0  0  0  0  0  0  0  0  0  0
    1.8688   -1.3236   -1.0914 C   0  0  0  0  0  0  0  0  0  0  0  0
    0.5364   -0.6378   -1.4166 C   0  0  0  0  0  0  0  0  0  0  0  0
   -0.1563   -0.4993   -0.1001 C   0  0  0  0  0  0  0  0  0  0  0  0
    0.6674    0.1233    0.9602 C   0  0  0  0  0  0  0  0  0  0  0  0
    2.0203    0.5843    0.5294 C   0  0  0  0  0  0  0  0  0  0  0  0
    3.8694   -0.9703    0.2134 C   0  0  2  0  0  0  0  0  0  0  0  0
    3.1848   -1.8027    1.1632 O   0  0  0  0  0  0  0  0  0  0  0  0
    4.7641   -0.2012    0.9167 N   0  0  0  0  0  0  0  0  0  0  0  0
    5.6691    0.7293    0.4568 C   0  0  2  0  0  0  0  0  0  0  0  0
    5.2106    1.9647   -0.2454 C   0  0  0  0  0  0  0  0  0  0  0  0
    4.3685    2.7603    0.5487 O   0  0  0  0  0  0  0  0  0  0  0  0
    6.3875    2.7704   -0.3904 O   0  0  0  0  0  0  0  0  0  0  0  0
    6.8303    0.1411   -0.3489 C   0  0  0  0  0  0  0  0  0  0  0  0
    7.6054   -0.8491    0.4891 C   0  0  0  0  0  0  0  0  0  0  0  0
    8.7682   -1.4598   -0.2288 C   0  0  0  0  0  0  0  0  0  0  0  0
    8.3681   -2.1436   -1.3805 O   0  0  0  0  0  0  0  0  0  0  0  0
    9.8012   -0.5576   -0.4579 O   0  0  0  0  0  0  0  0  0  0  0  0
   -7.7952    2.0745    0.3459 H   0  0  0  0  0  0  0  0  0  0  0  0
   -8.3097   -0.3632    0.5722 H   0  0  0  0  0  0  0  0  0  0  0  0
  -10.4236   -0.0760   -0.6299 H   0  0  0  0  0  0  0  0  0  0  0  0
   -9.8928    1.4053    0.1179 H   0  0  0  0  0  0  0  0  0  0  0  0
   -7.8354    0.0359   -2.3150 H   0  0  0  0  0  0  0  0  0  0  0  0
   -6.0910   -1.5079   -2.0992 H   0  0  0  0  0  0  0  0  0  0  0  0
   -6.2055   -3.0117   -0.1371 H   0  0  0  0  0  0  0  0  0  0  0  0
   -7.8350   -2.4125    0.0411 H   0  0  0  0  0  0  0  0  0  0  0  0
   -6.0796   -0.8425    0.8647 H   0  0  0  0  0  0  0  0  0  0  0  0
   -4.1230   -1.6980   -0.3446 H   0  0  0  0  0  0  0  0  0  0  0  0
   -4.1500   -0.6846    1.6718 H   0  0  0  0  0  0  0  0  0  0  0  0
   -3.8316    1.5071    2.1566 H   0  0  0  0  0  0  0  0  0  0  0  0
   -3.6100    2.0806    0.4999 H   0  0  0  0  0  0  0  0  0  0  0  0
   -6.0230    1.0461    1.8834 H   0  0  0  0  0  0  0  0  0  0  0  0
   -5.5154    1.4862   -1.0060 H   0  0  0  0  0  0  0  0  0  0  0  0
   -2.0388   -1.3825    0.9844 H   0  0  0  0  0  0  0  0  0  0  0  0
   -1.8992    0.1507    1.8291 H   0  0  0  0  0  0  0  0  0  0  0  0
   -2.0079    1.9876   -1.1940 H   0  0  0  0  0  0  0  0  0  0  0  0
   -0.2929    1.6839   -0.9777 H   0  0  0  0  0  0  0  0  0  0  0  0
   -1.2494    2.1919    0.4079 H   0  0  0  0  0  0  0  0  0  0  0  0
    3.1397    0.3348   -1.3218 H   0  0  0  0  0  0  0  0  0  0  0  0
    2.3798   -1.6821   -1.9815 H   0  0  0  0  0  0  0  0  0  0  0  0
    1.6583   -2.1131   -0.3443 H   0  0  0  0  0  0  0  0  0  0  0  0
    0.7993    0.2959   -1.9258 H   0  0  0  0  0  0  0  0  0  0  0  0
   -0.0799   -1.3300   -2.0304 H   0  0  0  0  0  0  0  0  0  0  0  0
   -0.4087   -1.5521    0.2183 H   0  0  0  0  0  0  0  0  0  0  0  0
    0.1025    0.9774    1.4122 H   0  0  0  0  0  0  0  0  0  0  0  0
    0.8112   -0.5939    1.7925 H   0  0  0  0  0  0  0  0  0  0  0  0
    1.9095    1.6251    0.1319 H   0  0  0  0  0  0  0  0  0  0  0  0
    2.6843    0.6995    1.4367 H   0  0  0  0  0  0  0  0  0  0  0  0
    4.3379   -1.6722   -0.5396 H   0  0  0  0  0  0  0  0  0  0  0  0
    3.7050   -1.8427    2.0171 H   0  0  0  0  0  0  0  0  0  0  0  0
    4.7367   -0.3198    1.9683 H   0  0  0  0  0  0  0  0  0  0  0  0
    6.2280    1.1391    1.3901 H   0  0  0  0  0  0  0  0  0  0  0  0
    4.8645    1.8335   -1.2709 H   0  0  0  0  0  0  0  0  0  0  0  0
    4.5508    2.5672    1.4819 H   0  0  0  0  0  0  0  0  0  0  0  0
    6.8292    2.7939    0.5133 H   0  0  0  0  0  0  0  0  0  0  0  0
    6.5298   -0.3288   -1.2750 H   0  0  0  0  0  0  0  0  0  0  0  0
    7.5274    0.9729   -0.5888 H   0  0  0  0  0  0  0  0  0  0  0  0
    7.9922   -0.3064    1.3865 H   0  0  0  0  0  0  0  0  0  0  0  0
    6.9136   -1.6503    0.8564 H   0  0  0  0  0  0  0  0  0  0  0  0
    9.2013   -2.2284    0.4775 H   0  0  0  0  0  0  0  0  0  0  0  0
    8.7721   -1.6297   -2.1322 H   0  0  0  0  0  0  0  0  0  0  0  0
    9.4163    0.2616   -0.8696 H   0  0  0  0  0  0  0  0  0  0  0  0
  1  2  1  0
  2  3  1  0
  2  4  1  0
  4  5  1  0
  5  6  1  0
  5  7  1  0
  7  8  1  0
  8  9  1  0
  9 10  1  0
 10 11  1  0
  1 12  1  0
  7 12  1  0
 11 12  1  0
  9 13  1  0
 13 14  1  0
 14 15  1  0
 16 17  1  0
 17 18  1  0
 14 19  1  0
 18 19  1  0
 19 20  1  0
 16 21  1  0
 20 21  1  0
 16 22  1  0
 22 23  1  0
 22 24  1  0
 24 25  1  0
 25 26  1  0
 26 27  1  0
 26 28  1  0
 25 29  1  0
 29 30  1  0
 30 31  1  0
 31 32  1  0
 31 33  1  0
  1 34  1  0
  2 35  1  0
  3 36  1  0
  3 37  1  0
  4 38  1  0
  5 39  1  6
  6 40  1  0
  6 41  1  0
  7 42  1  0
  8 43  1  0
  9 44  1  0
 10 45  1  0
 10 46  1  0
 11 47  1  0
 12 48  1  0
 13 49  1  0
 13 50  1  0
 15 51  1  0
 15 52  1  0
 15 53  1  0
 16 54  1  0
 17 55  1  0
 17 56  1  0
 18 57  1  0
 18 58  1  0
 19 59  1  0
 20 60  1  0
 20 61  1  0
 21 62  1  0
 21 63  1  0
 22 64  1  6
 23 65  1  0
 24 66  1  0
 25 67  1  1
 26 68  1  0
 27 69  1  0
 28 70  1  0
 29 71  1  0
 29 72  1  0
 30 73  1  0
 30 74  1  0
 31 75  1  0
 32 76  1  0
 33 77  1  0
M  END
>  <PDBID>  (1) 
1U72

>  <PDB ID>  (1) 
1U72

>  <Generic Name>  (1) 
Methotrexate

>  <Brand Name>  (1) 
Apo-methotrexate#Jamp-methotrexate#Methotrexate#Methotrexate Dbl Inj 10mg/ml#Methotrexate Dbl Inj 2.5mg/ml#Methotrexate Dbl Inj 25mg/ml#Methotrexate Injection BP#Methotrexate Injection USP#Methotrexate Injection, BP#Methotrexate Injection, USP#Methotrexate PF/sa Injection#Methotrexate Sod Inj 25mg/ml USP#Methotrexate Sodium#Methotrexate Sodium Inj 20mg#Methotrexate Sodium Inj 25.0mg/ml#Methotrexate Sodium Inj 25mg/ml#Methotrexate Sodium Inj 25mg/ml USP#Methotrexate Sodium Injection#Methotrexate Sodium Injection USP#Methotrexate Tab 2.5mg#Methotrexate Tab 2.5mg USP#Methotrexate Tablets, USP#Methotrexate-liq Im IV Iar Int Ivr 25mg/ml#Methotrexate-pws Im IV Iar Int Ivr 20mg/vial#Metoject#Metoject Subcutaneous#Otrexup#Rasuvo#Ratio-methotrexate Sodium#Rheumatrex Dose Pack#Rheumatrex Tab 2.5mg#Rheumatrex-tab 2.5mg#Trexall#Abitrexate#Alltrex#Artrait#Atrexel#Bendatrexat#Carditrex#Dermotrex#Ebetrex#Emtexate#Ledertrexate#Maxtrex#Meisusheng#Mexate#Rheumatrex#Trexan#Zexate

>  <DrugBank ID>  (1) 
DB00563

>  <ATC Codes>  (1) 
L01BA01#L04AX03

>  <Ligand ID>  (1) 
MTX

>  <Target Name>  (1) 
Dihydrofolate reductase

>  <UniProt ID>  (1) 
P00374

>  <PDB ID.1>  (1) 
1U72

>  <Seq. Identity>  (1) 
100%

$$$$
