PDB_DB01586_02
     RDKit          3D

140146  0  0  0  0  0  0  0  0999 V2000
   -3.8943    1.3769   -0.1745 C   0  0  0  0  0  0  0  0  0  0  0  0
   -3.0052    0.2251    0.2890 C   0  0  1  0  0  0  0  0  0  0  0  0
   -0.9462    1.5108   -0.1067 C   0  0  0  0  0  0  0  0  0  0  0  0
    0.4470    1.5359   -0.7003 C   0  0  0  0  0  0  0  0  0  0  0  0
    1.1901    0.3393   -0.2100 C   0  0  1  0  0  0  0  0  0  0  0  0
    0.4240   -0.8963   -0.7631 C   0  0  1  0  0  0  0  0  0  0  0  0
    1.3692   -1.9838   -0.3141 C   0  0  0  0  0  0  0  0  0  0  0  0
    2.7554   -1.3352   -0.4788 C   0  0  0  0  0  0  0  0  0  0  0  0
    2.4733    0.0707   -0.9220 C   0  0  2  0  0  0  0  0  0  0  0  0
    1.2062    0.2833    1.2708 C   0  0  0  0  0  0  0  0  0  0  0  0
   -2.8299    0.2827    1.7906 C   0  0  0  0  0  0  0  0  0  0  0  0
   -1.4792   -3.3329   -0.5114 O   0  0  0  0  0  0  0  0  0  0  0  0
   -7.1910    0.2409    0.0457 O   0  0  0  0  0  0  0  0  0  0  0  0
   -5.1609    1.3490    0.6557 C   0  0  0  0  0  0  0  0  0  0  0  0
    3.5447    1.0495   -0.8985 C   0  0  2  0  0  0  0  0  0  0  0  0
    4.7052    0.4819   -1.7389 C   0  0  0  0  0  0  0  0  0  0  0  0
    4.0271    1.6667    0.3368 C   0  0  0  0  0  0  0  0  0  0  0  0
    4.6006    0.8621    1.4264 C   0  0  0  0  0  0  0  0  0  0  0  0
    5.8288    0.0646    1.1116 C   0  0  0  0  0  0  0  0  0  0  0  0
   -5.8854    0.0489    0.5592 C   0  0  2  0  0  0  0  0  0  0  0  0
   -5.1844   -0.8420   -0.4092 C   0  0  0  0  0  0  0  0  0  0  0  0
    6.1876   -0.6197    2.3063 O   0  0  0  0  0  0  0  0  0  0  0  0
    6.9497    0.8698    0.8409 O   0  0  0  0  0  0  0  0  0  0  0  0
   -3.7231   -1.0523   -0.0581 C   0  0  1  0  0  0  0  0  0  0  0  0
   -3.1107   -1.7337   -1.2653 C   0  0  0  0  0  0  0  0  0  0  0  0
   -1.6563   -2.0759   -1.0803 C   0  0  1  0  0  0  0  0  0  0  0  0
   -0.9558   -0.9993   -0.2356 C   0  0  2  0  0  0  0  0  0  0  0  0
   -1.7050    0.2688   -0.4662 C   0  0  1  0  0  0  0  0  0  0  0  0
   -3.8943    1.3769   -0.1745 C   0  0  0  0  0  0  0  0  0  0  0  0
   -3.0052    0.2251    0.2890 C   0  0  1  0  0  0  0  0  0  0  0  0
   -0.9462    1.5108   -0.1067 C   0  0  0  0  0  0  0  0  0  0  0  0
    0.4470    1.5359   -0.7003 C   0  0  0  0  0  0  0  0  0  0  0  0
    1.1901    0.3393   -0.2100 C   0  0  1  0  0  0  0  0  0  0  0  0
    0.4240   -0.8963   -0.7631 C   0  0  1  0  0  0  0  0  0  0  0  0
    1.3692   -1.9838   -0.3141 C   0  0  0  0  0  0  0  0  0  0  0  0
    2.7554   -1.3352   -0.4788 C   0  0  0  0  0  0  0  0  0  0  0  0
    2.4733    0.0707   -0.9220 C   0  0  2  0  0  0  0  0  0  0  0  0
    1.2062    0.2833    1.2708 C   0  0  0  0  0  0  0  0  0  0  0  0
   -2.8299    0.2827    1.7906 C   0  0  0  0  0  0  0  0  0  0  0  0
   -1.4792   -3.3329   -0.5114 O   0  0  0  0  0  0  0  0  0  0  0  0
   -7.1910    0.2409    0.0457 O   0  0  0  0  0  0  0  0  0  0  0  0
   -5.1609    1.3490    0.6557 C   0  0  0  0  0  0  0  0  0  0  0  0
    3.5447    1.0495   -0.8985 C   0  0  2  0  0  0  0  0  0  0  0  0
    4.7052    0.4819   -1.7389 C   0  0  0  0  0  0  0  0  0  0  0  0
    4.0271    1.6667    0.3368 C   0  0  0  0  0  0  0  0  0  0  0  0
    4.6006    0.8621    1.4264 C   0  0  0  0  0  0  0  0  0  0  0  0
    5.8288    0.0646    1.1116 C   0  0  0  0  0  0  0  0  0  0  0  0
   -5.8854    0.0489    0.5592 C   0  0  2  0  0  0  0  0  0  0  0  0
   -5.1844   -0.8420   -0.4092 C   0  0  0  0  0  0  0  0  0  0  0  0
    6.1876   -0.6197    2.3063 O   0  0  0  0  0  0  0  0  0  0  0  0
    6.9497    0.8698    0.8409 O   0  0  0  0  0  0  0  0  0  0  0  0
   -3.7231   -1.0523   -0.0581 C   0  0  1  0  0  0  0  0  0  0  0  0
   -3.1107   -1.7337   -1.2653 C   0  0  0  0  0  0  0  0  0  0  0  0
   -1.6563   -2.0759   -1.0803 C   0  0  1  0  0  0  0  0  0  0  0  0
   -0.9558   -0.9993   -0.2356 C   0  0  2  0  0  0  0  0  0  0  0  0
   -1.7050    0.2688   -0.4662 C   0  0  1  0  0  0  0  0  0  0  0  0
   -4.1100    1.2075   -1.2366 H   0  0  0  0  0  0  0  0  0  0  0  0
   -3.4148    2.3565    0.0396 H   0  0  0  0  0  0  0  0  0  0  0  0
   -0.9184    1.7294    0.9793 H   0  0  0  0  0  0  0  0  0  0  0  0
   -1.4808    2.3723   -0.5793 H   0  0  0  0  0  0  0  0  0  0  0  0
    0.3607    1.5619   -1.7986 H   0  0  0  0  0  0  0  0  0  0  0  0
    0.9466    2.4391   -0.2851 H   0  0  0  0  0  0  0  0  0  0  0  0
    0.4088   -0.8132   -1.8528 H   0  0  0  0  0  0  0  0  0  0  0  0
    1.2195   -2.8395   -0.9786 H   0  0  0  0  0  0  0  0  0  0  0  0
    1.1933   -2.3247    0.7100 H   0  0  0  0  0  0  0  0  0  0  0  0
    3.2308   -1.9147   -1.3123 H   0  0  0  0  0  0  0  0  0  0  0  0
    3.2643   -1.4544    0.4694 H   0  0  0  0  0  0  0  0  0  0  0  0
    2.1388   -0.0753   -2.0242 H   0  0  0  0  0  0  0  0  0  0  0  0
    1.7428   -0.6084    1.6545 H   0  0  0  0  0  0  0  0  0  0  0  0
    1.4853    1.2356    1.7061 H   0  0  0  0  0  0  0  0  0  0  0  0
    0.1326    0.0932    1.5900 H   0  0  0  0  0  0  0  0  0  0  0  0
   -3.8056    0.0703    2.2984 H   0  0  0  0  0  0  0  0  0  0  0  0
   -2.1194   -0.4391    2.1945 H   0  0  0  0  0  0  0  0  0  0  0  0
   -2.5554    1.3110    2.1090 H   0  0  0  0  0  0  0  0  0  0  0  0
   -1.4180   -3.9949   -1.2527 H   0  0  0  0  0  0  0  0  0  0  0  0
   -7.4871    1.1111    0.3769 H   0  0  0  0  0  0  0  0  0  0  0  0
   -5.8177    2.1528    0.2333 H   0  0  0  0  0  0  0  0  0  0  0  0
   -4.9413    1.6493    1.6870 H   0  0  0  0  0  0  0  0  0  0  0  0
    3.1752    1.9338   -1.5418 H   0  0  0  0  0  0  0  0  0  0  0  0
    4.4493    0.7631   -2.8068 H   0  0  0  0  0  0  0  0  0  0  0  0
    4.7148   -0.6150   -1.7551 H   0  0  0  0  0  0  0  0  0  0  0  0
    5.6540    0.9810   -1.5442 H   0  0  0  0  0  0  0  0  0  0  0  0
    3.2726    2.3954    0.7166 H   0  0  0  0  0  0  0  0  0  0  0  0
    4.8730    2.3801    0.0146 H   0  0  0  0  0  0  0  0  0  0  0  0
    4.9626    1.6269    2.2071 H   0  0  0  0  0  0  0  0  0  0  0  0
    3.9325    0.2222    2.0102 H   0  0  0  0  0  0  0  0  0  0  0  0
    5.6834   -0.7392    0.3721 H   0  0  0  0  0  0  0  0  0  0  0  0
   -6.0010   -0.4867    1.5374 H   0  0  0  0  0  0  0  0  0  0  0  0
   -5.6459   -1.8696   -0.3896 H   0  0  0  0  0  0  0  0  0  0  0  0
   -5.2999   -0.4388   -1.4515 H   0  0  0  0  0  0  0  0  0  0  0  0
    6.8673   -1.3027    2.1316 H   0  0  0  0  0  0  0  0  0  0  0  0
    7.1609    1.3206    1.7084 H   0  0  0  0  0  0  0  0  0  0  0  0
   -3.6949   -1.7803    0.7745 H   0  0  0  0  0  0  0  0  0  0  0  0
   -3.2895   -1.1044   -2.1612 H   0  0  0  0  0  0  0  0  0  0  0  0
   -3.6568   -2.6745   -1.4165 H   0  0  0  0  0  0  0  0  0  0  0  0
   -1.2034   -2.0431   -2.0923 H   0  0  0  0  0  0  0  0  0  0  0  0
   -1.0137   -1.3911    0.8042 H   0  0  0  0  0  0  0  0  0  0  0  0
   -1.9771    0.3408   -1.5495 H   0  0  0  0  0  0  0  0  0  0  0  0
   -4.1100    1.2075   -1.2366 H   0  0  0  0  0  0  0  0  0  0  0  0
   -3.4148    2.3565    0.0396 H   0  0  0  0  0  0  0  0  0  0  0  0
   -0.9184    1.7294    0.9793 H   0  0  0  0  0  0  0  0  0  0  0  0
   -1.4808    2.3723   -0.5793 H   0  0  0  0  0  0  0  0  0  0  0  0
    0.3607    1.5619   -1.7986 H   0  0  0  0  0  0  0  0  0  0  0  0
    0.9466    2.4391   -0.2851 H   0  0  0  0  0  0  0  0  0  0  0  0
    0.4088   -0.8132   -1.8528 H   0  0  0  0  0  0  0  0  0  0  0  0
    1.2195   -2.8395   -0.9786 H   0  0  0  0  0  0  0  0  0  0  0  0
    1.1933   -2.3247    0.7100 H   0  0  0  0  0  0  0  0  0  0  0  0
    3.2308   -1.9147   -1.3123 H   0  0  0  0  0  0  0  0  0  0  0  0
    3.2643   -1.4544    0.4694 H   0  0  0  0  0  0  0  0  0  0  0  0
    2.1388   -0.0753   -2.0242 H   0  0  0  0  0  0  0  0  0  0  0  0
    1.7428   -0.6084    1.6545 H   0  0  0  0  0  0  0  0  0  0  0  0
    1.4853    1.2356    1.7061 H   0  0  0  0  0  0  0  0  0  0  0  0
    0.1326    0.0932    1.5900 H   0  0  0  0  0  0  0  0  0  0  0  0
   -3.8056    0.0703    2.2984 H   0  0  0  0  0  0  0  0  0  0  0  0
   -2.1194   -0.4391    2.1945 H   0  0  0  0  0  0  0  0  0  0  0  0
   -2.5554    1.3110    2.1090 H   0  0  0  0  0  0  0  0  0  0  0  0
   -1.4180   -3.9949   -1.2527 H   0  0  0  0  0  0  0  0  0  0  0  0
   -7.4871    1.1111    0.3769 H   0  0  0  0  0  0  0  0  0  0  0  0
   -5.8177    2.1528    0.2333 H   0  0  0  0  0  0  0  0  0  0  0  0
   -4.9413    1.6493    1.6870 H   0  0  0  0  0  0  0  0  0  0  0  0
    3.1752    1.9338   -1.5418 H   0  0  0  0  0  0  0  0  0  0  0  0
    4.4493    0.7631   -2.8068 H   0  0  0  0  0  0  0  0  0  0  0  0
    4.7148   -0.6150   -1.7551 H   0  0  0  0  0  0  0  0  0  0  0  0
    5.6540    0.9810   -1.5442 H   0  0  0  0  0  0  0  0  0  0  0  0
    3.2726    2.3954    0.7166 H   0  0  0  0  0  0  0  0  0  0  0  0
    4.8730    2.3801    0.0146 H   0  0  0  0  0  0  0  0  0  0  0  0
    4.9626    1.6269    2.2071 H   0  0  0  0  0  0  0  0  0  0  0  0
    3.9325    0.2222    2.0102 H   0  0  0  0  0  0  0  0  0  0  0  0
    5.6834   -0.7392    0.3721 H   0  0  0  0  0  0  0  0  0  0  0  0
   -6.0010   -0.4867    1.5374 H   0  0  0  0  0  0  0  0  0  0  0  0
   -5.6459   -1.8696   -0.3896 H   0  0  0  0  0  0  0  0  0  0  0  0
   -5.2999   -0.4388   -1.4515 H   0  0  0  0  0  0  0  0  0  0  0  0
    6.8673   -1.3027    2.1316 H   0  0  0  0  0  0  0  0  0  0  0  0
    7.1609    1.3206    1.7084 H   0  0  0  0  0  0  0  0  0  0  0  0
   -3.6949   -1.7803    0.7745 H   0  0  0  0  0  0  0  0  0  0  0  0
   -3.2895   -1.1044   -2.1612 H   0  0  0  0  0  0  0  0  0  0  0  0
   -3.6568   -2.6745   -1.4165 H   0  0  0  0  0  0  0  0  0  0  0  0
   -1.2034   -2.0431   -2.0923 H   0  0  0  0  0  0  0  0  0  0  0  0
   -1.0137   -1.3911    0.8042 H   0  0  0  0  0  0  0  0  0  0  0  0
   -1.9771    0.3408   -1.5495 H   0  0  0  0  0  0  0  0  0  0  0  0
  1  2  1  0
  3  4  1  0
  4  5  1  0
  5  6  1  0
  6  7  1  0
  7  8  1  0
  5  9  1  0
  8  9  1  0
  5 10  1  1
  2 11  1  1
  1 14  1  0
  9 15  1  0
 15 16  1  0
 15 17  1  0
 17 18  1  0
 18 19  1  0
 13 20  1  0
 14 20  1  0
 20 21  1  0
 19 22  1  0
 19 23  1  0
  2 24  1  0
 21 24  1  0
 24 25  1  0
 12 26  1  0
 25 26  1  0
  6 27  1  0
 26 27  1  0
  2 28  1  0
  3 28  1  0
 27 28  1  0
 29 30  1  0
 31 32  1  0
 32 33  1  0
 33 34  1  0
 34 35  1  0
 35 36  1  0
 33 37  1  0
 36 37  1  0
 33 38  1  1
 30 39  1  1
 29 42  1  0
 37 43  1  0
 43 44  1  0
 43 45  1  0
 45 46  1  0
 46 47  1  0
 41 48  1  0
 42 48  1  0
 48 49  1  0
 47 50  1  0
 47 51  1  0
 30 52  1  0
 49 52  1  0
 52 53  1  0
 40 54  1  0
 53 54  1  0
 34 55  1  0
 54 55  1  0
 30 56  1  0
 31 56  1  0
 55 56  1  0
  1 57  1  0
  1 58  1  0
  3 59  1  0
  3 60  1  0
  4 61  1  0
  4 62  1  0
  6 63  1  6
  7 64  1  0
  7 65  1  0
  8 66  1  0
  8 67  1  0
  9 68  1  6
 10 69  1  0
 10 70  1  0
 10 71  1  0
 11 72  1  0
 11 73  1  0
 11 74  1  0
 12 75  1  0
 13 76  1  0
 14 77  1  0
 14 78  1  0
 15 79  1  6
 16 80  1  0
 16 81  1  0
 16 82  1  0
 17 83  1  0
 17 84  1  0
 18 85  1  0
 18 86  1  0
 19 87  1  0
 20 88  1  1
 21 89  1  0
 21 90  1  0
 22 91  1  0
 23 92  1  0
 24 93  1  1
 25 94  1  0
 25 95  1  0
 26 96  1  6
 27 97  1  1
 28 98  1  6
 29 99  1  0
 29100  1  0
 31101  1  0
 31102  1  0
 32103  1  0
 32104  1  0
 34105  1  6
 35106  1  0
 35107  1  0
 36108  1  0
 36109  1  0
 37110  1  6
 38111  1  0
 38112  1  0
 38113  1  0
 39114  1  0
 39115  1  0
 39116  1  0
 40117  1  0
 41118  1  0
 42119  1  0
 42120  1  0
 43121  1  6
 44122  1  0
 44123  1  0
 44124  1  0
 45125  1  0
 45126  1  0
 46127  1  0
 46128  1  0
 47129  1  0
 48130  1  1
 49131  1  0
 49132  1  0
 50133  1  0
 51134  1  0
 52135  1  1
 53136  1  0
 53137  1  0
 54138  1  6
 55139  1  1
 56140  1  6
M  END
>  <PDBID>  (1) 
1IHI

>  <PDB ID>  (1) 
1IHI

>  <Generic Name>  (1) 
Ursodeoxycholic acid

>  <Brand Name>  (1) 
Actigall#Dom-ursodiol C#Mint-ursodiol#Novo-ursodiol#PHL-ursodiol C#PMS-ursodiol#PMS-ursodiol C#Pendo-ursodiol C#Urso#Urso 250#Urso DS#Urso Forte#Ursodiol#Ursodiol Tablets USP#Ursodiol Tablets, 250 mg#Ursodiol Tablets, 500 mg#Ursofalk#Cholit-ursan#Delursan#Destolit#Deursil#Litursol#Solutrat#Ursacol#Ursochol#Ursolvan

>  <DrugBank ID>  (1) 
DB01586

>  <ATC Codes>  (1) 
A05AA02

>  <Ligand ID>  (1) 
IU5,JN3

>  <Target Name>  (1) 
Aldo-keto reductase family 1 member C2

>  <UniProt ID>  (1) 
P52895

>  <PDB ID.1>  (1) 
1IHI

>  <Seq. Identity>  (1) 
100%

$$$$
