PDB_DB00552_02
     RDKit          3D

164172  0  0  0  0  0  0  0  0999 V2000
   -1.7447   -0.2506    1.7890 N   0  0  0  0  0  0  0  0  0  0  0  0
   -0.3403   -0.4421    1.6202 C   0  0  0  0  0  0  0  0  0  0  0  0
    0.1291    0.5656    0.6587 N   0  0  0  0  0  0  0  0  0  0  0  0
   -2.1357    0.7608    0.8554 C   0  0  1  0  0  0  0  0  0  0  0  0
   -1.0651    0.6940   -0.1864 C   0  0  2  0  0  0  0  0  0  0  0  0
   -1.1290   -0.4476   -1.0390 N   0  0  0  0  0  0  0  0  0  0  0  0
   -2.3956   -0.6411   -1.6917 C   0  0  0  0  0  0  0  0  0  0  0  0
   -3.2183   -1.4496   -0.8325 N   0  0  0  0  0  0  0  0  0  0  0  0
   -4.0277   -0.7010    0.0747 C   0  0  0  0  0  0  0  0  0  0  0  0
   -3.5257    0.6819    0.3663 C   0  0  1  0  0  0  0  0  0  0  0  0
   -4.3600    1.1921    1.3919 O   0  0  0  0  0  0  0  0  0  0  0  0
    1.9802    0.9316   -0.9280 C   0  0  0  0  0  0  0  0  0  0  0  0
    3.2965    0.1564   -1.0844 C   0  0  2  0  0  0  0  0  0  0  0  0
    3.0930   -0.8775   -2.0079 O   0  0  0  0  0  0  0  0  0  0  0  0
    4.5771    1.3604    1.2722 O   0  0  0  0  0  0  0  0  0  0  0  0
    4.6112    0.0023    1.0136 C   0  0  0  0  0  0  0  0  0  0  0  0
    3.4016   -0.4902    0.2703 C   0  0  1  0  0  0  0  0  0  0  0  0
    2.2180   -0.2836    0.9472 O   0  0  0  0  0  0  0  0  0  0  0  0
    1.2381   -0.0094   -0.0204 C   0  0  1  0  0  0  0  0  0  0  0  0
   -1.5906    0.8851    1.9112 N   0  0  0  0  0  0  0  0  0  0  0  0
   -0.1765    0.5193    1.8253 C   0  0  0  0  0  0  0  0  0  0  0  0
    0.0831    0.7530    0.4198 N   0  0  0  0  0  0  0  0  0  0  0  0
   -2.1110    0.1521    0.7894 C   0  0  0  0  0  0  0  0  0  0  0  0
   -1.1319    0.5106   -0.3001 C   0  0  2  0  0  0  0  0  0  0  0  0
   -1.0716   -0.6173   -1.1947 N   0  0  0  0  0  0  0  0  0  0  0  0
   -2.3875   -0.9089   -1.7017 C   0  0  0  0  0  0  0  0  0  0  0  0
   -3.2261   -1.6277   -0.7890 N   0  0  0  0  0  0  0  0  0  0  0  0
   -4.1607   -0.8104   -0.0673 C   0  0  0  0  0  0  0  0  0  0  0  0
   -3.5263    0.4815    0.4352 C   0  0  1  0  0  0  0  0  0  0  0  0
   -4.2098    1.0205    1.5106 O   0  0  0  0  0  0  0  0  0  0  0  0
    2.0675    0.7955   -1.0399 C   0  0  0  0  0  0  0  0  0  0  0  0
    3.3297   -0.0582   -1.0368 C   0  0  2  0  0  0  0  0  0  0  0  0
    3.1049   -1.1102   -1.9235 O   0  0  0  0  0  0  0  0  0  0  0  0
    4.4617    1.3451    1.1717 O   0  0  0  0  0  0  0  0  0  0  0  0
    4.5635   -0.0505    1.0584 C   0  0  0  0  0  0  0  0  0  0  0  0
    3.3284   -0.5781    0.3720 C   0  0  1  0  0  0  0  0  0  0  0  0
    2.1539   -0.1768    0.9812 O   0  0  0  0  0  0  0  0  0  0  0  0
    1.2145    0.0067   -0.0522 C   0  0  1  0  0  0  0  0  0  0  0  0
   -1.7447   -0.2506    1.7890 N   0  0  0  0  0  0  0  0  0  0  0  0
   -0.3403   -0.4421    1.6202 C   0  0  0  0  0  0  0  0  0  0  0  0
    0.1291    0.5656    0.6587 N   0  0  0  0  0  0  0  0  0  0  0  0
   -2.1357    0.7608    0.8554 C   0  0  1  0  0  0  0  0  0  0  0  0
   -1.0651    0.6940   -0.1864 C   0  0  2  0  0  0  0  0  0  0  0  0
   -1.1290   -0.4476   -1.0390 N   0  0  0  0  0  0  0  0  0  0  0  0
   -2.3956   -0.6411   -1.6917 C   0  0  0  0  0  0  0  0  0  0  0  0
   -3.2183   -1.4496   -0.8325 N   0  0  0  0  0  0  0  0  0  0  0  0
   -4.0277   -0.7010    0.0747 C   0  0  0  0  0  0  0  0  0  0  0  0
   -3.5257    0.6819    0.3663 C   0  0  1  0  0  0  0  0  0  0  0  0
   -4.3600    1.1921    1.3919 O   0  0  0  0  0  0  0  0  0  0  0  0
    1.9802    0.9316   -0.9280 C   0  0  0  0  0  0  0  0  0  0  0  0
    3.2965    0.1564   -1.0844 C   0  0  2  0  0  0  0  0  0  0  0  0
    3.0930   -0.8775   -2.0079 O   0  0  0  0  0  0  0  0  0  0  0  0
    4.5771    1.3604    1.2722 O   0  0  0  0  0  0  0  0  0  0  0  0
    4.6112    0.0023    1.0136 C   0  0  0  0  0  0  0  0  0  0  0  0
    3.4016   -0.4902    0.2703 C   0  0  1  0  0  0  0  0  0  0  0  0
    2.2180   -0.2836    0.9472 O   0  0  0  0  0  0  0  0  0  0  0  0
    1.2381   -0.0094   -0.0204 C   0  0  1  0  0  0  0  0  0  0  0  0
   -1.7447   -0.2506    1.7890 N   0  0  0  0  0  0  0  0  0  0  0  0
   -0.3403   -0.4421    1.6202 C   0  0  0  0  0  0  0  0  0  0  0  0
    0.1291    0.5656    0.6587 N   0  0  0  0  0  0  0  0  0  0  0  0
   -2.1357    0.7608    0.8554 C   0  0  1  0  0  0  0  0  0  0  0  0
   -1.0651    0.6940   -0.1864 C   0  0  2  0  0  0  0  0  0  0  0  0
   -1.1290   -0.4476   -1.0390 N   0  0  0  0  0  0  0  0  0  0  0  0
   -2.3956   -0.6411   -1.6917 C   0  0  0  0  0  0  0  0  0  0  0  0
   -3.2183   -1.4496   -0.8325 N   0  0  0  0  0  0  0  0  0  0  0  0
   -4.0277   -0.7010    0.0747 C   0  0  0  0  0  0  0  0  0  0  0  0
   -3.5257    0.6819    0.3663 C   0  0  1  0  0  0  0  0  0  0  0  0
   -4.3600    1.1921    1.3919 O   0  0  0  0  0  0  0  0  0  0  0  0
    1.9802    0.9316   -0.9280 C   0  0  0  0  0  0  0  0  0  0  0  0
    3.2965    0.1564   -1.0844 C   0  0  2  0  0  0  0  0  0  0  0  0
    3.0930   -0.8775   -2.0079 O   0  0  0  0  0  0  0  0  0  0  0  0
    4.5771    1.3604    1.2722 O   0  0  0  0  0  0  0  0  0  0  0  0
    4.6112    0.0023    1.0136 C   0  0  0  0  0  0  0  0  0  0  0  0
    3.4016   -0.4902    0.2703 C   0  0  1  0  0  0  0  0  0  0  0  0
    2.2180   -0.2836    0.9472 O   0  0  0  0  0  0  0  0  0  0  0  0
    1.2381   -0.0094   -0.0204 C   0  0  1  0  0  0  0  0  0  0  0  0
   -2.2884   -1.1294    1.7088 H   0  0  0  0  0  0  0  0  0  0  0  0
    0.2480   -0.3985    2.5572 H   0  0  0  0  0  0  0  0  0  0  0  0
   -0.1955   -1.4352    1.1305 H   0  0  0  0  0  0  0  0  0  0  0  0
   -2.0117    1.7490    1.3799 H   0  0  0  0  0  0  0  0  0  0  0  0
   -0.9546    1.6535   -0.7472 H   0  0  0  0  0  0  0  0  0  0  0  0
   -0.4175   -0.3132   -1.7987 H   0  0  0  0  0  0  0  0  0  0  0  0
   -2.8922    0.2818   -2.0113 H   0  0  0  0  0  0  0  0  0  0  0  0
   -2.2269   -1.2394   -2.6267 H   0  0  0  0  0  0  0  0  0  0  0  0
   -2.6618   -2.2064   -0.4024 H   0  0  0  0  0  0  0  0  0  0  0  0
   -5.0345   -0.5810   -0.4092 H   0  0  0  0  0  0  0  0  0  0  0  0
   -4.2089   -1.2372    1.0193 H   0  0  0  0  0  0  0  0  0  0  0  0
   -3.6473    1.3904   -0.4773 H   0  0  0  0  0  0  0  0  0  0  0  0
   -4.4621    2.1607    1.3419 H   0  0  0  0  0  0  0  0  0  0  0  0
    2.2359    1.8589   -0.3793 H   0  0  0  0  0  0  0  0  0  0  0  0
    1.5275    1.0859   -1.9052 H   0  0  0  0  0  0  0  0  0  0  0  0
    4.1389    0.8020   -1.3292 H   0  0  0  0  0  0  0  0  0  0  0  0
    2.7625   -1.7062   -1.5542 H   0  0  0  0  0  0  0  0  0  0  0  0
    4.6738    1.8519    0.4286 H   0  0  0  0  0  0  0  0  0  0  0  0
    4.7664   -0.5823    1.9189 H   0  0  0  0  0  0  0  0  0  0  0  0
    5.4893   -0.1775    0.3369 H   0  0  0  0  0  0  0  0  0  0  0  0
    3.5204   -1.6113    0.1989 H   0  0  0  0  0  0  0  0  0  0  0  0
    1.0361   -0.9690   -0.5286 H   0  0  0  0  0  0  0  0  0  0  0  0
   -1.6317    1.9126    1.6814 H   0  0  0  0  0  0  0  0  0  0  0  0
    0.4566    1.1095    2.4979 H   0  0  0  0  0  0  0  0  0  0  0  0
   -0.1319   -0.5813    2.0297 H   0  0  0  0  0  0  0  0  0  0  0  0
   -1.9629   -0.9287    1.0072 H   0  0  0  0  0  0  0  0  0  0  0  0
   -1.4386    1.4447   -0.8000 H   0  0  0  0  0  0  0  0  0  0  0  0
   -0.4949   -0.3041   -2.0198 H   0  0  0  0  0  0  0  0  0  0  0  0
   -2.9142   -0.0066   -2.0469 H   0  0  0  0  0  0  0  0  0  0  0  0
   -2.2443   -1.5682   -2.5956 H   0  0  0  0  0  0  0  0  0  0  0  0
   -2.7495   -2.3485   -0.2262 H   0  0  0  0  0  0  0  0  0  0  0  0
   -5.0828   -0.6182   -0.6501 H   0  0  0  0  0  0  0  0  0  0  0  0
   -4.4914   -1.3669    0.8454 H   0  0  0  0  0  0  0  0  0  0  0  0
   -3.5480    1.1780   -0.4405 H   0  0  0  0  0  0  0  0  0  0  0  0
   -4.3756    1.9822    1.3283 H   0  0  0  0  0  0  0  0  0  0  0  0
    2.2348    1.7930   -0.6002 H   0  0  0  0  0  0  0  0  0  0  0  0
    1.6325    0.8158   -2.0492 H   0  0  0  0  0  0  0  0  0  0  0  0
    4.2326    0.5250   -1.2807 H   0  0  0  0  0  0  0  0  0  0  0  0
    2.7662   -1.9051   -1.4303 H   0  0  0  0  0  0  0  0  0  0  0  0
    4.6309    1.7782    0.2984 H   0  0  0  0  0  0  0  0  0  0  0  0
    4.6808   -0.4765    2.0622 H   0  0  0  0  0  0  0  0  0  0  0  0
    5.4227   -0.2959    0.3752 H   0  0  0  0  0  0  0  0  0  0  0  0
    3.3518   -1.6864    0.4052 H   0  0  0  0  0  0  0  0  0  0  0  0
    0.9416   -0.9839   -0.4406 H   0  0  0  0  0  0  0  0  0  0  0  0
   -2.2884   -1.1294    1.7088 H   0  0  0  0  0  0  0  0  0  0  0  0
    0.2480   -0.3985    2.5572 H   0  0  0  0  0  0  0  0  0  0  0  0
   -0.1955   -1.4352    1.1305 H   0  0  0  0  0  0  0  0  0  0  0  0
   -2.0117    1.7490    1.3799 H   0  0  0  0  0  0  0  0  0  0  0  0
   -0.9546    1.6535   -0.7472 H   0  0  0  0  0  0  0  0  0  0  0  0
   -0.4175   -0.3132   -1.7987 H   0  0  0  0  0  0  0  0  0  0  0  0
   -2.8922    0.2818   -2.0113 H   0  0  0  0  0  0  0  0  0  0  0  0
   -2.2269   -1.2394   -2.6267 H   0  0  0  0  0  0  0  0  0  0  0  0
   -2.6618   -2.2064   -0.4024 H   0  0  0  0  0  0  0  0  0  0  0  0
   -5.0345   -0.5810   -0.4092 H   0  0  0  0  0  0  0  0  0  0  0  0
   -4.2089   -1.2372    1.0193 H   0  0  0  0  0  0  0  0  0  0  0  0
   -3.6473    1.3904   -0.4773 H   0  0  0  0  0  0  0  0  0  0  0  0
   -4.4621    2.1607    1.3419 H   0  0  0  0  0  0  0  0  0  0  0  0
    2.2359    1.8589   -0.3793 H   0  0  0  0  0  0  0  0  0  0  0  0
    1.5275    1.0859   -1.9052 H   0  0  0  0  0  0  0  0  0  0  0  0
    4.1389    0.8020   -1.3292 H   0  0  0  0  0  0  0  0  0  0  0  0
    2.7625   -1.7062   -1.5542 H   0  0  0  0  0  0  0  0  0  0  0  0
    4.6738    1.8519    0.4286 H   0  0  0  0  0  0  0  0  0  0  0  0
    4.7664   -0.5823    1.9189 H   0  0  0  0  0  0  0  0  0  0  0  0
    5.4893   -0.1775    0.3369 H   0  0  0  0  0  0  0  0  0  0  0  0
    3.5204   -1.6113    0.1989 H   0  0  0  0  0  0  0  0  0  0  0  0
    1.0361   -0.9690   -0.5286 H   0  0  0  0  0  0  0  0  0  0  0  0
   -2.2884   -1.1294    1.7088 H   0  0  0  0  0  0  0  0  0  0  0  0
    0.2480   -0.3985    2.5572 H   0  0  0  0  0  0  0  0  0  0  0  0
   -0.1955   -1.4352    1.1305 H   0  0  0  0  0  0  0  0  0  0  0  0
   -2.0117    1.7490    1.3799 H   0  0  0  0  0  0  0  0  0  0  0  0
   -0.9546    1.6535   -0.7472 H   0  0  0  0  0  0  0  0  0  0  0  0
   -0.4175   -0.3132   -1.7987 H   0  0  0  0  0  0  0  0  0  0  0  0
   -2.8922    0.2818   -2.0113 H   0  0  0  0  0  0  0  0  0  0  0  0
   -2.2269   -1.2394   -2.6267 H   0  0  0  0  0  0  0  0  0  0  0  0
   -2.6618   -2.2064   -0.4024 H   0  0  0  0  0  0  0  0  0  0  0  0
   -5.0345   -0.5810   -0.4092 H   0  0  0  0  0  0  0  0  0  0  0  0
   -4.2089   -1.2372    1.0193 H   0  0  0  0  0  0  0  0  0  0  0  0
   -3.6473    1.3904   -0.4773 H   0  0  0  0  0  0  0  0  0  0  0  0
   -4.4621    2.1607    1.3419 H   0  0  0  0  0  0  0  0  0  0  0  0
    2.2359    1.8589   -0.3793 H   0  0  0  0  0  0  0  0  0  0  0  0
    1.5275    1.0859   -1.9052 H   0  0  0  0  0  0  0  0  0  0  0  0
    4.1389    0.8020   -1.3292 H   0  0  0  0  0  0  0  0  0  0  0  0
    2.7625   -1.7062   -1.5542 H   0  0  0  0  0  0  0  0  0  0  0  0
    4.6738    1.8519    0.4286 H   0  0  0  0  0  0  0  0  0  0  0  0
    4.7664   -0.5823    1.9189 H   0  0  0  0  0  0  0  0  0  0  0  0
    5.4893   -0.1775    0.3369 H   0  0  0  0  0  0  0  0  0  0  0  0
    3.5204   -1.6113    0.1989 H   0  0  0  0  0  0  0  0  0  0  0  0
    1.0361   -0.9690   -0.5286 H   0  0  0  0  0  0  0  0  0  0  0  0
  1  2  1  0
  2  3  1  0
  1  4  1  0
  3  5  1  0
  4  5  1  0
  5  6  1  0
  6  7  1  0
  7  8  1  0
  8  9  1  0
  4 10  1  0
  9 10  1  0
 10 11  1  0
 12 13  1  0
 13 14  1  0
 15 16  1  0
 13 17  1  0
 16 17  1  0
 17 18  1  0
  3 19  1  0
 12 19  1  0
 18 19  1  0
 20 21  1  0
 21 22  1  0
 20 23  1  0
 22 24  1  0
 23 24  1  0
 24 25  1  0
 25 26  1  0
 26 27  1  0
 27 28  1  0
 23 29  1  0
 28 29  1  0
 29 30  1  0
 31 32  1  0
 32 33  1  0
 34 35  1  0
 32 36  1  0
 35 36  1  0
 36 37  1  0
 22 38  1  0
 31 38  1  0
 37 38  1  0
 39 40  1  0
 40 41  1  0
 39 42  1  0
 41 43  1  0
 42 43  1  0
 43 44  1  0
 44 45  1  0
 45 46  1  0
 46 47  1  0
 42 48  1  0
 47 48  1  0
 48 49  1  0
 50 51  1  0
 51 52  1  0
 53 54  1  0
 51 55  1  0
 54 55  1  0
 55 56  1  0
 41 57  1  0
 50 57  1  0
 56 57  1  0
 58 59  1  0
 59 60  1  0
 58 61  1  0
 60 62  1  0
 61 62  1  0
 62 63  1  0
 63 64  1  0
 64 65  1  0
 65 66  1  0
 61 67  1  0
 66 67  1  0
 67 68  1  0
 69 70  1  0
 70 71  1  0
 72 73  1  0
 70 74  1  0
 73 74  1  0
 74 75  1  0
 60 76  1  0
 69 76  1  0
 75 76  1  0
  1 77  1  0
  2 78  1  0
  2 79  1  0
  4 80  1  1
  5 81  1  6
  6 82  1  0
  7 83  1  0
  7 84  1  0
  8 85  1  0
  9 86  1  0
  9 87  1  0
 10 88  1  6
 11 89  1  0
 12 90  1  0
 12 91  1  0
 13 92  1  6
 14 93  1  0
 15 94  1  0
 16 95  1  0
 16 96  1  0
 17 97  1  6
 19 98  1  6
 20 99  1  0
 21100  1  0
 21101  1  0
 23102  1  0
 24103  1  6
 25104  1  0
 26105  1  0
 26106  1  0
 27107  1  0
 28108  1  0
 28109  1  0
 29110  1  6
 30111  1  0
 31112  1  0
 31113  1  0
 32114  1  6
 33115  1  0
 34116  1  0
 35117  1  0
 35118  1  0
 36119  1  6
 38120  1  6
 39121  1  0
 40122  1  0
 40123  1  0
 42124  1  1
 43125  1  6
 44126  1  0
 45127  1  0
 45128  1  0
 46129  1  0
 47130  1  0
 47131  1  0
 48132  1  6
 49133  1  0
 50134  1  0
 50135  1  0
 51136  1  6
 52137  1  0
 53138  1  0
 54139  1  0
 54140  1  0
 55141  1  6
 57142  1  6
 58143  1  0
 59144  1  0
 59145  1  0
 61146  1  1
 62147  1  6
 63148  1  0
 64149  1  0
 64150  1  0
 65151  1  0
 66152  1  0
 66153  1  0
 67154  1  6
 68155  1  0
 69156  1  0
 69157  1  0
 70158  1  6
 71159  1  0
 72160  1  0
 73161  1  0
 73162  1  0
 74163  1  6
 76164  1  6
M  END
>  <PDBID>  (1) 
1A4L

>  <PDB ID>  (1) 
1A4L

>  <Generic Name>  (1) 
Pentostatin

>  <Brand Name>  (1) 
Nipent#Nipent Pws 10mg/vial

>  <DrugBank ID>  (1) 
DB00552

>  <ATC Codes>  (1) 
L01XX08

>  <Ligand ID>  (1) 
DCF

>  <Target Name>  (1) 
Adenosine deaminase

>  <UniProt ID>  (1) 
P00813

>  <PDB ID.1>  (1) 
1A4L

>  <Seq. Identity>  (1) 
83%

$$$$
