PDB_DB00367_07
     RDKit          3D

118124  0  0  0  0  0  0  0  0999 V2000
   -3.0830    1.5293   -0.5658 C   0  0  0  0  0  0  0  0  0  0  0  0
   -4.2939    1.8514    0.3060 C   0  0  0  0  0  0  0  0  0  0  0  0
   -5.0161    0.5715    0.5758 C   0  0  1  0  0  0  0  0  0  0  0  0
   -4.4641   -0.6050   -0.1711 C   0  0  0  0  0  0  0  0  0  0  0  0
   -3.0110   -0.8516    0.0785 C   0  0  1  0  0  0  0  0  0  0  0  0
   -2.4275   -1.7009   -1.0272 C   0  0  0  0  0  0  0  0  0  0  0  0
   -0.9971   -2.0628   -0.7470 C   0  0  0  0  0  0  0  0  0  0  0  0
   -0.2994   -0.9560    0.0623 C   0  0  2  0  0  0  0  0  0  0  0  0
   -0.9017    0.3398   -0.4347 C   0  0  1  0  0  0  0  0  0  0  0  0
   -2.2991    0.4643    0.1668 C   0  0  1  0  0  0  0  0  0  0  0  0
   -0.1426    1.5650   -0.0774 C   0  0  0  0  0  0  0  0  0  0  0  0
    1.3526    1.4309   -0.2662 C   0  0  0  0  0  0  0  0  0  0  0  0
    1.8590    0.1614    0.3828 C   0  0  1  0  0  0  0  0  0  0  0  0
    1.1246   -0.9743   -0.2847 C   0  0  1  0  0  0  0  0  0  0  0  0
    1.9134   -2.1641    0.1457 C   0  0  0  0  0  0  0  0  0  0  0  0
    3.3296   -1.6918   -0.1104 C   0  0  0  0  0  0  0  0  0  0  0  0
    3.2712   -0.1612   -0.0160 C   0  0  1  0  0  0  0  0  0  0  0  0
    1.6304    0.1549    1.8572 C   0  0  0  0  0  0  0  0  0  0  0  0
    2.3163    1.2816    2.5821 C   0  0  0  0  0  0  0  0  0  0  0  0
    3.5965    0.4597   -1.3588 C   0  0  0  0  0  0  0  0  0  0  0  0
    5.0490    0.0833   -1.6831 C   0  0  0  0  0  0  0  0  0  0  0  0
   -5.0466    0.2801    1.9376 O   0  0  0  0  0  0  0  0  0  0  0  0
    4.2259    0.2356    0.8821 O   0  0  0  0  0  0  0  0  0  0  0  0
   -3.0830    1.5293   -0.5658 C   0  0  0  0  0  0  0  0  0  0  0  0
   -4.2939    1.8514    0.3060 C   0  0  0  0  0  0  0  0  0  0  0  0
   -5.0161    0.5715    0.5758 C   0  0  1  0  0  0  0  0  0  0  0  0
   -4.4641   -0.6050   -0.1711 C   0  0  0  0  0  0  0  0  0  0  0  0
   -3.0110   -0.8516    0.0785 C   0  0  1  0  0  0  0  0  0  0  0  0
   -2.4275   -1.7009   -1.0272 C   0  0  0  0  0  0  0  0  0  0  0  0
   -0.9971   -2.0628   -0.7470 C   0  0  0  0  0  0  0  0  0  0  0  0
   -0.2994   -0.9560    0.0623 C   0  0  2  0  0  0  0  0  0  0  0  0
   -0.9017    0.3398   -0.4347 C   0  0  1  0  0  0  0  0  0  0  0  0
   -2.2991    0.4643    0.1668 C   0  0  1  0  0  0  0  0  0  0  0  0
   -0.1426    1.5650   -0.0774 C   0  0  0  0  0  0  0  0  0  0  0  0
    1.3526    1.4309   -0.2662 C   0  0  0  0  0  0  0  0  0  0  0  0
    1.8590    0.1614    0.3828 C   0  0  1  0  0  0  0  0  0  0  0  0
    1.1246   -0.9743   -0.2847 C   0  0  1  0  0  0  0  0  0  0  0  0
    1.9134   -2.1641    0.1457 C   0  0  0  0  0  0  0  0  0  0  0  0
    3.3296   -1.6918   -0.1104 C   0  0  0  0  0  0  0  0  0  0  0  0
    3.2712   -0.1612   -0.0160 C   0  0  1  0  0  0  0  0  0  0  0  0
    1.6304    0.1549    1.8572 C   0  0  0  0  0  0  0  0  0  0  0  0
    2.3163    1.2816    2.5821 C   0  0  0  0  0  0  0  0  0  0  0  0
    3.5965    0.4597   -1.3588 C   0  0  0  0  0  0  0  0  0  0  0  0
    5.0490    0.0833   -1.6831 C   0  0  0  0  0  0  0  0  0  0  0  0
   -5.0466    0.2801    1.9376 O   0  0  0  0  0  0  0  0  0  0  0  0
    4.2259    0.2356    0.8821 O   0  0  0  0  0  0  0  0  0  0  0  0
   -3.3947    1.1967   -1.5749 H   0  0  0  0  0  0  0  0  0  0  0  0
   -2.5184    2.4629   -0.6672 H   0  0  0  0  0  0  0  0  0  0  0  0
   -4.9080    2.6070   -0.2154 H   0  0  0  0  0  0  0  0  0  0  0  0
   -3.8922    2.3361    1.2140 H   0  0  0  0  0  0  0  0  0  0  0  0
   -6.0747    0.7012    0.2457 H   0  0  0  0  0  0  0  0  0  0  0  0
   -4.6993   -0.4473   -1.2524 H   0  0  0  0  0  0  0  0  0  0  0  0
   -5.0649   -1.4953    0.1293 H   0  0  0  0  0  0  0  0  0  0  0  0
   -2.9175   -1.4542    1.0160 H   0  0  0  0  0  0  0  0  0  0  0  0
   -3.0117   -2.6580   -1.0317 H   0  0  0  0  0  0  0  0  0  0  0  0
   -2.5704   -1.2583   -2.0257 H   0  0  0  0  0  0  0  0  0  0  0  0
   -0.4620   -2.1414   -1.7090 H   0  0  0  0  0  0  0  0  0  0  0  0
   -0.8650   -2.9875   -0.1802 H   0  0  0  0  0  0  0  0  0  0  0  0
   -0.5504   -1.1149    1.1280 H   0  0  0  0  0  0  0  0  0  0  0  0
   -1.0673    0.2925   -1.5492 H   0  0  0  0  0  0  0  0  0  0  0  0
   -2.1702    0.7956    1.2155 H   0  0  0  0  0  0  0  0  0  0  0  0
   -0.4671    2.3807   -0.7649 H   0  0  0  0  0  0  0  0  0  0  0  0
   -0.3953    1.9458    0.9534 H   0  0  0  0  0  0  0  0  0  0  0  0
    1.8248    2.3427    0.0950 H   0  0  0  0  0  0  0  0  0  0  0  0
    1.4877    1.2909   -1.3785 H   0  0  0  0  0  0  0  0  0  0  0  0
    1.2425   -0.8714   -1.3792 H   0  0  0  0  0  0  0  0  0  0  0  0
    1.6998   -3.0756   -0.4728 H   0  0  0  0  0  0  0  0  0  0  0  0
    1.7988   -2.4608    1.1842 H   0  0  0  0  0  0  0  0  0  0  0  0
    4.0543   -2.1100    0.5989 H   0  0  0  0  0  0  0  0  0  0  0  0
    3.5596   -1.9753   -1.1696 H   0  0  0  0  0  0  0  0  0  0  0  0
    0.5360    0.3157    2.0278 H   0  0  0  0  0  0  0  0  0  0  0  0
    1.8912   -0.7905    2.3491 H   0  0  0  0  0  0  0  0  0  0  0  0
    1.7598    1.4315    3.5552 H   0  0  0  0  0  0  0  0  0  0  0  0
    2.2822    2.2479    2.0743 H   0  0  0  0  0  0  0  0  0  0  0  0
    3.3450    0.9820    2.9116 H   0  0  0  0  0  0  0  0  0  0  0  0
    3.5941    1.5588   -1.2209 H   0  0  0  0  0  0  0  0  0  0  0  0
    2.9306    0.1040   -2.1699 H   0  0  0  0  0  0  0  0  0  0  0  0
    5.1207   -0.9414   -2.0471 H   0  0  0  0  0  0  0  0  0  0  0  0
    5.6298    0.2916   -0.7692 H   0  0  0  0  0  0  0  0  0  0  0  0
    5.3665    0.8293   -2.4592 H   0  0  0  0  0  0  0  0  0  0  0  0
   -5.7149    0.8882    2.3704 H   0  0  0  0  0  0  0  0  0  0  0  0
    4.9341   -0.4599    0.9954 H   0  0  0  0  0  0  0  0  0  0  0  0
   -3.3947    1.1967   -1.5749 H   0  0  0  0  0  0  0  0  0  0  0  0
   -2.5184    2.4629   -0.6672 H   0  0  0  0  0  0  0  0  0  0  0  0
   -4.9080    2.6070   -0.2154 H   0  0  0  0  0  0  0  0  0  0  0  0
   -3.8922    2.3361    1.2140 H   0  0  0  0  0  0  0  0  0  0  0  0
   -6.0747    0.7012    0.2457 H   0  0  0  0  0  0  0  0  0  0  0  0
   -4.6993   -0.4473   -1.2524 H   0  0  0  0  0  0  0  0  0  0  0  0
   -5.0649   -1.4953    0.1293 H   0  0  0  0  0  0  0  0  0  0  0  0
   -2.9175   -1.4542    1.0160 H   0  0  0  0  0  0  0  0  0  0  0  0
   -3.0117   -2.6580   -1.0317 H   0  0  0  0  0  0  0  0  0  0  0  0
   -2.5704   -1.2583   -2.0257 H   0  0  0  0  0  0  0  0  0  0  0  0
   -0.4620   -2.1414   -1.7090 H   0  0  0  0  0  0  0  0  0  0  0  0
   -0.8650   -2.9875   -0.1802 H   0  0  0  0  0  0  0  0  0  0  0  0
   -0.5504   -1.1149    1.1280 H   0  0  0  0  0  0  0  0  0  0  0  0
   -1.0673    0.2925   -1.5492 H   0  0  0  0  0  0  0  0  0  0  0  0
   -2.1702    0.7956    1.2155 H   0  0  0  0  0  0  0  0  0  0  0  0
   -0.4671    2.3807   -0.7649 H   0  0  0  0  0  0  0  0  0  0  0  0
   -0.3953    1.9458    0.9534 H   0  0  0  0  0  0  0  0  0  0  0  0
    1.8248    2.3427    0.0950 H   0  0  0  0  0  0  0  0  0  0  0  0
    1.4877    1.2909   -1.3785 H   0  0  0  0  0  0  0  0  0  0  0  0
    1.2425   -0.8714   -1.3792 H   0  0  0  0  0  0  0  0  0  0  0  0
    1.6998   -3.0756   -0.4728 H   0  0  0  0  0  0  0  0  0  0  0  0
    1.7988   -2.4608    1.1842 H   0  0  0  0  0  0  0  0  0  0  0  0
    4.0543   -2.1100    0.5989 H   0  0  0  0  0  0  0  0  0  0  0  0
    3.5596   -1.9753   -1.1696 H   0  0  0  0  0  0  0  0  0  0  0  0
    0.5360    0.3157    2.0278 H   0  0  0  0  0  0  0  0  0  0  0  0
    1.8912   -0.7905    2.3491 H   0  0  0  0  0  0  0  0  0  0  0  0
    1.7598    1.4315    3.5552 H   0  0  0  0  0  0  0  0  0  0  0  0
    2.2822    2.2479    2.0743 H   0  0  0  0  0  0  0  0  0  0  0  0
    3.3450    0.9820    2.9116 H   0  0  0  0  0  0  0  0  0  0  0  0
    3.5941    1.5588   -1.2209 H   0  0  0  0  0  0  0  0  0  0  0  0
    2.9306    0.1040   -2.1699 H   0  0  0  0  0  0  0  0  0  0  0  0
    5.1207   -0.9414   -2.0471 H   0  0  0  0  0  0  0  0  0  0  0  0
    5.6298    0.2916   -0.7692 H   0  0  0  0  0  0  0  0  0  0  0  0
    5.3665    0.8293   -2.4592 H   0  0  0  0  0  0  0  0  0  0  0  0
   -5.7149    0.8882    2.3704 H   0  0  0  0  0  0  0  0  0  0  0  0
    4.9341   -0.4599    0.9954 H   0  0  0  0  0  0  0  0  0  0  0  0
  1  2  1  0
  2  3  1  0
  3  4  1  0
  4  5  1  0
  5  6  1  0
  6  7  1  0
  7  8  1  0
  8  9  1  0
  1 10  1  0
  5 10  1  0
  9 10  1  0
  9 11  1  0
 11 12  1  0
 12 13  1  0
  8 14  1  0
 13 14  1  0
 14 15  1  0
 15 16  1  0
 13 17  1  0
 16 17  1  0
 13 18  1  1
 18 19  1  0
 17 20  1  0
 20 21  1  0
  3 22  1  0
 17 23  1  1
 24 25  1  0
 25 26  1  0
 26 27  1  0
 27 28  1  0
 28 29  1  0
 29 30  1  0
 30 31  1  0
 31 32  1  0
 24 33  1  0
 28 33  1  0
 32 33  1  0
 32 34  1  0
 34 35  1  0
 35 36  1  0
 31 37  1  0
 36 37  1  0
 37 38  1  0
 38 39  1  0
 36 40  1  0
 39 40  1  0
 36 41  1  1
 41 42  1  0
 40 43  1  0
 43 44  1  0
 26 45  1  0
 40 46  1  1
  1 47  1  0
  1 48  1  0
  2 49  1  0
  2 50  1  0
  3 51  1  6
  4 52  1  0
  4 53  1  0
  5 54  1  1
  6 55  1  0
  6 56  1  0
  7 57  1  0
  7 58  1  0
  8 59  1  1
  9 60  1  6
 10 61  1  1
 11 62  1  0
 11 63  1  0
 12 64  1  0
 12 65  1  0
 14 66  1  6
 15 67  1  0
 15 68  1  0
 16 69  1  0
 16 70  1  0
 18 71  1  0
 18 72  1  0
 19 73  1  0
 19 74  1  0
 19 75  1  0
 20 76  1  0
 20 77  1  0
 21 78  1  0
 21 79  1  0
 21 80  1  0
 22 81  1  0
 23 82  1  0
 24 83  1  0
 24 84  1  0
 25 85  1  0
 25 86  1  0
 26 87  1  6
 27 88  1  0
 27 89  1  0
 28 90  1  1
 29 91  1  0
 29 92  1  0
 30 93  1  0
 30 94  1  0
 31 95  1  1
 32 96  1  6
 33 97  1  1
 34 98  1  0
 34 99  1  0
 35100  1  0
 35101  1  0
 37102  1  6
 38103  1  0
 38104  1  0
 39105  1  0
 39106  1  0
 41107  1  0
 41108  1  0
 42109  1  0
 42110  1  0
 42111  1  0
 43112  1  0
 43113  1  0
 44114  1  0
 44115  1  0
 44116  1  0
 45117  1  0
 46118  1  0
M  END
>  <PDBID>  (1) 
3D90

>  <PDB ID>  (1) 
3D90

>  <Generic Name>  (1) 
Levonorgestrel

>  <Brand Name>  (1) 
Afirmelle#Aftera#Afterpill#Alesse 21#Alesse 28#Altavera#Alysena 21#Alysena 28#Amethia#Amethyst#Athentia Next#Aubra#Aviane#Aviane 21#Aviane 28#Aviane 28 Day#Ayuna#Backup Plan#Backup Plan Onestep#Camrese#Camrese Lo#Chateal#Climara Pro#Contingency#Contingency One#Daysee#Delyla#Econtra Ez#Enpresse#Esme 21#Esme 28#Falessa#Fallback Solo#Falmina#Her Style#Indayo#Introvale#Jaydess#Jolessa#Kurvelo#Kyleena#Larissia#Lessina#Levonest#Levonorgestrel#Levonorgestrel Emergency Contraceptive#Levonorgestrel Tablets, 0.75mg#Levonorgestrel and Ethinyl Estradiol#Levonorgestrel and Ethinyl Estradiol Tablets, 0.1 Mg/0.02 mg#Levonorgestrel and Ethinyl Estradiol and Ethinyl Estradiol#Levora#Liletta#Lillow#Lutera#Lutera 21#Lutera 28#Marlissa#Min-ovral 21#Min-ovral 21 Tab#Min-ovral 28#Min-ovral 28 Tab#Mirena#Morning After#My Way#Myzilra#Next Choice#Next Choice One Dose#Norlevo#Norplant System Kit 36mg/implant#Opcicon One-step#Option 2#Orsythia#Ovima 21#Ovima 28#Plan B#Plan B One-step#Portia#Portia 21#Portia 28#Preven Emergency Contraceptive#Preven Tablets#Quasense#React#Seasonale#Seasonique#Setlakin#Skyla#Sronyx#Take Action#Teva-levonorgestrel#Triphasil 21#Triphasil 21 Tab#Triphasil 28#Triphasil 28 Tab#Triquilar 21#Triquilar 28#Trivora#Vienva Tm#Jadelle#Levonelle#Medonor#Microlut#Microval#Neogest#Norgeston#Norplant#Postinor

>  <DrugBank ID>  (1) 
DB00367

>  <ATC Codes>  (1) 
G03FA11#G03FB09#G03AC03#G03AB03#G03AA07#G03AD01

>  <Ligand ID>  (1) 
NOG

>  <Target Name>  (1) 
Estrogen receptor

>  <UniProt ID>  (1) 
P03372

>  <PDB ID.1>  (1) 
3D90

>  <Seq. Identity>  (1) 
31%

$$$$
