PDB_DB00481_02
     RDKit          3D

166174  0  0  0  0  0  0  0  0999 V2000
   -3.9358    2.2459   -0.9959 C   0  0  0  0  0  0  0  0  0  0  0  0
   -5.3113    2.8009   -0.9893 C   0  0  0  0  0  0  0  0  0  0  0  0
   -5.8806    3.3028    0.2690 C   0  0  0  0  0  0  0  0  0  0  0  0
   -6.9451    2.4883    0.7378 O   0  0  0  0  0  0  0  0  0  0  0  0
   -4.9764    3.5137    1.4154 C   0  0  0  0  0  0  0  0  0  0  0  0
   -3.8661    2.5650    1.5218 C   0  0  0  0  0  0  0  0  0  0  0  0
   -4.2812    0.9413    2.2282 S   0  0  0  0  0  0  0  0  0  0  0  0
   -3.1516   -0.1005    1.1766 C   0  0  1  0  0  0  0  0  0  0  0  0
   -4.0062   -1.1604    0.7271 C   0  0  0  0  0  0  0  0  0  0  0  0
   -5.2490   -0.8362   -0.0727 C   0  0  0  0  0  0  0  0  0  0  0  0
   -6.3221   -1.9161    0.1381 C   0  0  0  0  0  0  0  0  0  0  0  0
   -5.7322   -3.2032   -0.3823 C   0  0  0  0  0  0  0  0  0  0  0  0
   -6.6021   -4.2481   -0.1752 O   0  0  0  0  0  0  0  0  0  0  0  0
   -4.4330   -3.5368    0.3155 C   0  0  0  0  0  0  0  0  0  0  0  0
   -3.4131   -2.3949    0.1100 C   0  0  0  0  0  0  0  0  0  0  0  0
   -3.1804    2.1989    0.2508 C   0  0  0  0  0  0  0  0  0  0  0  0
   -2.4061    0.9172    0.5397 C   0  0  0  0  0  0  0  0  0  0  0  0
   -1.4191    0.6748   -0.5363 C   0  0  0  0  0  0  0  0  0  0  0  0
   -1.8801    0.0803   -1.6841 O   0  0  0  0  0  0  0  0  0  0  0  0
   -0.1835   -0.1039   -0.1267 C   0  0  0  0  0  0  0  0  0  0  0  0
    0.7148   -0.2502   -1.3491 C   0  0  0  0  0  0  0  0  0  0  0  0
    1.8697    0.7644   -1.2423 C   0  0  0  0  0  0  0  0  0  0  0  0
    2.7230    0.3033   -0.1136 C   0  0  0  0  0  0  0  0  0  0  0  0
    1.9576    0.3020    1.1554 C   0  0  0  0  0  0  0  0  0  0  0  0
    0.5300    0.6861    0.9507 C   0  0  0  0  0  0  0  0  0  0  0  0
    3.9407    0.9642   -0.0330 O   0  0  0  0  0  0  0  0  0  0  0  0
    5.0280    0.1403   -0.2519 C   0  0  0  0  0  0  0  0  0  0  0  0
    6.3319    0.8837   -0.1608 C   0  0  0  0  0  0  0  0  0  0  0  0
    7.4746    0.0568   -0.3832 N   0  0  0  0  0  0  0  0  0  0  0  0
    7.6166   -0.4341   -1.7203 C   0  0  0  0  0  0  0  0  0  0  0  0
    8.5512   -1.6387   -1.7849 C   0  0  0  0  0  0  0  0  0  0  0  0
    9.7186   -1.4263   -0.8233 C   0  0  0  0  0  0  0  0  0  0  0  0
    9.2205   -1.2599    0.5811 C   0  0  0  0  0  0  0  0  0  0  0  0
    7.7403   -0.9110    0.6381 C   0  0  0  0  0  0  0  0  0  0  0  0
   -2.2592    1.3931    2.1134 C   0  0  0  0  0  0  0  0  0  0  0  0
   -3.1573    2.5248    2.6392 C   0  0  0  0  0  0  0  0  0  0  0  0
   -4.5964    2.1631    2.6846 C   0  0  0  0  0  0  0  0  0  0  0  0
   -5.3237    2.7334    1.6129 O   0  0  0  0  0  0  0  0  0  0  0  0
   -4.9225    0.7257    2.8035 C   0  0  0  0  0  0  0  0  0  0  0  0
   -4.0494   -0.2214    2.0599 C   0  0  0  0  0  0  0  0  0  0  0  0
   -4.9468   -1.0474    0.6843 S   0  0  0  0  0  0  0  0  0  0  0  0
   -3.5325   -1.0763   -0.4647 C   0  0  1  0  0  0  0  0  0  0  0  0
   -3.8725   -0.6725   -1.8357 C   0  0  0  0  0  0  0  0  0  0  0  0
   -4.4115    0.6815   -2.0647 C   0  0  0  0  0  0  0  0  0  0  0  0
   -5.8491    0.8841   -1.6258 C   0  0  0  0  0  0  0  0  0  0  0  0
   -6.7665   -0.0730   -2.3337 C   0  0  0  0  0  0  0  0  0  0  0  0
   -7.5666   -0.6933   -1.3883 O   0  0  0  0  0  0  0  0  0  0  0  0
   -5.9766   -1.0309   -3.1777 C   0  0  0  0  0  0  0  0  0  0  0  0
   -4.8776   -1.6777   -2.3798 C   0  0  0  0  0  0  0  0  0  0  0  0
   -3.0794    0.5721    1.2185 C   0  0  0  0  0  0  0  0  0  0  0  0
   -2.4410   -0.2552    0.2031 C   0  0  1  0  0  0  0  0  0  0  0  0
   -1.3403   -1.1633    0.5528 C   0  0  2  0  0  0  0  0  0  0  0  0
   -1.7223   -2.1908    1.4385 O   0  0  0  0  0  0  0  0  0  0  0  0
   -0.0526   -0.6121    1.0210 C   0  0  0  0  0  0  0  0  0  0  0  0
    0.8659   -1.8094    1.2885 C   0  0  0  0  0  0  0  0  0  0  0  0
    2.2342   -1.2742    1.6707 C   0  0  0  0  0  0  0  0  0  0  0  0
    2.8800   -0.7797    0.3946 C   0  0  0  0  0  0  0  0  0  0  0  0
    1.7851   -0.4409   -0.6279 C   0  0  0  0  0  0  0  0  0  0  0  0
    0.6562    0.2827    0.0703 C   0  0  0  0  0  0  0  0  0  0  0  0
    3.8272   -1.6036   -0.1054 O   0  0  0  0  0  0  0  0  0  0  0  0
    5.1040   -1.1581   -0.2329 C   0  0  0  0  0  0  0  0  0  0  0  0
    5.1483    0.0075   -1.1919 C   0  0  0  0  0  0  0  0  0  0  0  0
    6.5022    0.5078   -1.3546 N   0  0  0  0  0  0  0  0  0  0  0  0
    7.3843   -0.3908   -2.0288 C   0  0  0  0  0  0  0  0  0  0  0  0
    8.6726   -0.5622   -1.2517 C   0  0  0  0  0  0  0  0  0  0  0  0
    9.3417    0.7693   -0.9932 C   0  0  0  0  0  0  0  0  0  0  0  0
    8.3423    1.7911   -0.4950 C   0  0  0  0  0  0  0  0  0  0  0  0
    7.0332    1.0771   -0.1552 C   0  0  0  0  0  0  0  0  0  0  0  0
   -3.3910    2.8407   -1.8084 H   0  0  0  0  0  0  0  0  0  0  0  0
   -3.8794    1.2248   -1.4856 H   0  0  0  0  0  0  0  0  0  0  0  0
   -5.4824    3.5847   -1.7929 H   0  0  0  0  0  0  0  0  0  0  0  0
   -5.9923    1.9688   -1.3547 H   0  0  0  0  0  0  0  0  0  0  0  0
   -6.4054    4.2959    0.0908 H   0  0  0  0  0  0  0  0  0  0  0  0
   -7.8035    2.7501    0.3409 H   0  0  0  0  0  0  0  0  0  0  0  0
   -4.5558    4.5512    1.3641 H   0  0  0  0  0  0  0  0  0  0  0  0
   -5.5615    3.4918    2.3638 H   0  0  0  0  0  0  0  0  0  0  0  0
   -3.1210    3.0016    2.2574 H   0  0  0  0  0  0  0  0  0  0  0  0
   -2.4993   -0.5858    1.9934 H   0  0  0  0  0  0  0  0  0  0  0  0
   -4.4894   -1.5778    1.6820 H   0  0  0  0  0  0  0  0  0  0  0  0
   -5.6601    0.1487    0.1571 H   0  0  0  0  0  0  0  0  0  0  0  0
   -4.9640   -0.9441   -1.1522 H   0  0  0  0  0  0  0  0  0  0  0  0
   -6.5796   -2.0056    1.2027 H   0  0  0  0  0  0  0  0  0  0  0  0
   -7.1668   -1.6298   -0.5035 H   0  0  0  0  0  0  0  0  0  0  0  0
   -5.5572   -3.1184   -1.4760 H   0  0  0  0  0  0  0  0  0  0  0  0
   -7.5469   -3.9637   -0.2187 H   0  0  0  0  0  0  0  0  0  0  0  0
   -4.0447   -4.4671   -0.1527 H   0  0  0  0  0  0  0  0  0  0  0  0
   -4.6078   -3.7011    1.3789 H   0  0  0  0  0  0  0  0  0  0  0  0
   -3.3620   -2.3358   -1.0132 H   0  0  0  0  0  0  0  0  0  0  0  0
   -2.5051   -2.7637    0.5814 H   0  0  0  0  0  0  0  0  0  0  0  0
   -2.3696    2.9988    0.1422 H   0  0  0  0  0  0  0  0  0  0  0  0
   -1.7145    1.3282    1.3753 H   0  0  0  0  0  0  0  0  0  0  0  0
   -1.0199    1.6829   -0.8559 H   0  0  0  0  0  0  0  0  0  0  0  0
   -1.6438   -0.8647   -1.7403 H   0  0  0  0  0  0  0  0  0  0  0  0
   -0.5239   -1.0832    0.2468 H   0  0  0  0  0  0  0  0  0  0  0  0
    0.1127   -0.0163   -2.2463 H   0  0  0  0  0  0  0  0  0  0  0  0
    1.1985   -1.2457   -1.3766 H   0  0  0  0  0  0  0  0  0  0  0  0
    2.3986    0.8007   -2.2180 H   0  0  0  0  0  0  0  0  0  0  0  0
    1.3864    1.7318   -0.9937 H   0  0  0  0  0  0  0  0  0  0  0  0
    2.9897   -0.7723   -0.3447 H   0  0  0  0  0  0  0  0  0  0  0  0
    2.0656   -0.6673    1.6974 H   0  0  0  0  0  0  0  0  0  0  0  0
    2.3957    1.0856    1.8407 H   0  0  0  0  0  0  0  0  0  0  0  0
    0.3826    1.7658    0.7771 H   0  0  0  0  0  0  0  0  0  0  0  0
    0.0082    0.4512    1.9082 H   0  0  0  0  0  0  0  0  0  0  0  0
    5.0217   -0.6068    0.5955 H   0  0  0  0  0  0  0  0  0  0  0  0
    4.9642   -0.4497   -1.1685 H   0  0  0  0  0  0  0  0  0  0  0  0
    6.3708    1.7124   -0.9105 H   0  0  0  0  0  0  0  0  0  0  0  0
    6.4380    1.3626    0.8337 H   0  0  0  0  0  0  0  0  0  0  0  0
    8.1257    0.3772   -2.3170 H   0  0  0  0  0  0  0  0  0  0  0  0
    6.6868   -0.7376   -2.2135 H   0  0  0  0  0  0  0  0  0  0  0  0
    8.0475   -2.5637   -1.4846 H   0  0  0  0  0  0  0  0  0  0  0  0
    8.9806   -1.6934   -2.8071 H   0  0  0  0  0  0  0  0  0  0  0  0
   10.3875   -2.2988   -0.9494 H   0  0  0  0  0  0  0  0  0  0  0  0
   10.2915   -0.5197   -1.1681 H   0  0  0  0  0  0  0  0  0  0  0  0
    9.8152   -0.4385    1.0736 H   0  0  0  0  0  0  0  0  0  0  0  0
    9.3783   -2.1946    1.1524 H   0  0  0  0  0  0  0  0  0  0  0  0
    7.5644   -0.4500    1.6181 H   0  0  0  0  0  0  0  0  0  0  0  0
    7.1944   -1.8705    0.5001 H   0  0  0  0  0  0  0  0  0  0  0  0
   -1.3823    1.8812    1.6912 H   0  0  0  0  0  0  0  0  0  0  0  0
   -2.0484    0.7962    3.0472 H   0  0  0  0  0  0  0  0  0  0  0  0
   -2.7604    2.8891    3.6210 H   0  0  0  0  0  0  0  0  0  0  0  0
   -3.0403    3.3736    1.9337 H   0  0  0  0  0  0  0  0  0  0  0  0
   -5.0309    2.6778    3.5953 H   0  0  0  0  0  0  0  0  0  0  0  0
   -6.2396    2.3459    1.6422 H   0  0  0  0  0  0  0  0  0  0  0  0
   -5.0059    0.4337    3.8807 H   0  0  0  0  0  0  0  0  0  0  0  0
   -5.9702    0.5840    2.4037 H   0  0  0  0  0  0  0  0  0  0  0  0
   -3.6091   -0.9279    2.7515 H   0  0  0  0  0  0  0  0  0  0  0  0
   -3.2400   -2.1686   -0.5170 H   0  0  0  0  0  0  0  0  0  0  0  0
   -2.9630   -0.7912   -2.4689 H   0  0  0  0  0  0  0  0  0  0  0  0
   -3.7715    1.5168   -1.7190 H   0  0  0  0  0  0  0  0  0  0  0  0
   -4.4404    0.8282   -3.1887 H   0  0  0  0  0  0  0  0  0  0  0  0
   -5.9781    0.9267   -0.5427 H   0  0  0  0  0  0  0  0  0  0  0  0
   -6.1224    1.9151   -1.9990 H   0  0  0  0  0  0  0  0  0  0  0  0
   -7.4759    0.4476   -3.0360 H   0  0  0  0  0  0  0  0  0  0  0  0
   -7.2876   -1.5837   -1.1232 H   0  0  0  0  0  0  0  0  0  0  0  0
   -5.6324   -0.5491   -4.0976 H   0  0  0  0  0  0  0  0  0  0  0  0
   -6.6688   -1.8472   -3.4737 H   0  0  0  0  0  0  0  0  0  0  0  0
   -4.3763   -2.4769   -2.9474 H   0  0  0  0  0  0  0  0  0  0  0  0
   -5.3845   -2.1936   -1.5214 H   0  0  0  0  0  0  0  0  0  0  0  0
   -3.7547    1.2942    0.6581 H   0  0  0  0  0  0  0  0  0  0  0  0
   -2.0665    0.4215   -0.6061 H   0  0  0  0  0  0  0  0  0  0  0  0
   -1.0998   -1.7387   -0.3972 H   0  0  0  0  0  0  0  0  0  0  0  0
   -1.4950   -1.9682    2.3756 H   0  0  0  0  0  0  0  0  0  0  0  0
   -0.0992   -0.1036    2.0080 H   0  0  0  0  0  0  0  0  0  0  0  0
    0.8890   -2.4326    0.3740 H   0  0  0  0  0  0  0  0  0  0  0  0
    0.4527   -2.4495    2.0983 H   0  0  0  0  0  0  0  0  0  0  0  0
    2.0721   -0.4636    2.4063 H   0  0  0  0  0  0  0  0  0  0  0  0
    2.7823   -2.1161    2.1289 H   0  0  0  0  0  0  0  0  0  0  0  0
    3.3338    0.1962    0.6567 H   0  0  0  0  0  0  0  0  0  0  0  0
    2.2617    0.3239   -1.3116 H   0  0  0  0  0  0  0  0  0  0  0  0
    1.4606   -1.3036   -1.2052 H   0  0  0  0  0  0  0  0  0  0  0  0
   -0.0445    0.6015   -0.7386 H   0  0  0  0  0  0  0  0  0  0  0  0
    1.0212    1.2219    0.5315 H   0  0  0  0  0  0  0  0  0  0  0  0
    5.5330   -0.7572    0.7351 H   0  0  0  0  0  0  0  0  0  0  0  0
    5.7873   -1.9393   -0.6492 H   0  0  0  0  0  0  0  0  0  0  0  0
    4.7948   -0.2668   -2.2052 H   0  0  0  0  0  0  0  0  0  0  0  0
    4.5750    0.8394   -0.7442 H   0  0  0  0  0  0  0  0  0  0  0  0
    7.6830    0.1075   -2.9962 H   0  0  0  0  0  0  0  0  0  0  0  0
    6.9452   -1.3764   -2.2327 H   0  0  0  0  0  0  0  0  0  0  0  0
    8.4514   -1.0632   -0.3043 H   0  0  0  0  0  0  0  0  0  0  0  0
    9.3887   -1.1638   -1.8564 H   0  0  0  0  0  0  0  0  0  0  0  0
   10.1205    0.5784   -0.2091 H   0  0  0  0  0  0  0  0  0  0  0  0
    9.8579    1.1449   -1.8916 H   0  0  0  0  0  0  0  0  0  0  0  0
    8.2068    2.5506   -1.2702 H   0  0  0  0  0  0  0  0  0  0  0  0
    8.7444    2.2980    0.4082 H   0  0  0  0  0  0  0  0  0  0  0  0
    6.3123    1.7762    0.2906 H   0  0  0  0  0  0  0  0  0  0  0  0
    7.2805    0.3302    0.6177 H   0  0  0  0  0  0  0  0  0  0  0  0
  1  2  1  0
  2  3  1  0
  3  4  1  0
  3  5  1  0
  5  6  1  0
  6  7  1  0
  7  8  1  0
  8  9  1  0
  9 10  1  0
 10 11  1  0
 11 12  1  0
 12 13  1  0
 12 14  1  0
  9 15  1  0
 14 15  1  0
  1 16  1  0
  6 16  1  0
  8 17  1  0
 16 17  1  0
 17 18  1  0
 18 19  1  0
 18 20  1  0
 20 21  1  0
 21 22  1  0
 22 23  1  0
 23 24  1  0
 20 25  1  0
 24 25  1  0
 23 26  1  0
 26 27  1  0
 27 28  1  0
 28 29  1  0
 29 30  1  0
 30 31  1  0
 31 32  1  0
 32 33  1  0
 29 34  1  0
 33 34  1  0
 35 36  1  0
 36 37  1  0
 37 38  1  0
 37 39  1  0
 39 40  1  0
 40 41  1  0
 41 42  1  0
 42 43  1  0
 43 44  1  0
 44 45  1  0
 45 46  1  0
 46 47  1  0
 46 48  1  0
 43 49  1  0
 48 49  1  0
 35 50  1  0
 40 50  1  0
 42 51  1  0
 50 51  1  0
 51 52  1  0
 52 53  1  0
 52 54  1  0
 54 55  1  0
 55 56  1  0
 56 57  1  0
 57 58  1  0
 54 59  1  0
 58 59  1  0
 57 60  1  0
 60 61  1  0
 61 62  1  0
 62 63  1  0
 63 64  1  0
 64 65  1  0
 65 66  1  0
 66 67  1  0
 63 68  1  0
 67 68  1  0
  1 69  1  0
  1 70  1  0
  2 71  1  0
  2 72  1  0
  3 73  1  0
  4 74  1  0
  5 75  1  0
  5 76  1  0
  6 77  1  0
  8 78  1  1
  9 79  1  0
 10 80  1  0
 10 81  1  0
 11 82  1  0
 11 83  1  0
 12 84  1  0
 13 85  1  0
 14 86  1  0
 14 87  1  0
 15 88  1  0
 15 89  1  0
 16 90  1  0
 17 91  1  0
 18 92  1  0
 19 93  1  0
 20 94  1  0
 21 95  1  0
 21 96  1  0
 22 97  1  0
 22 98  1  0
 23 99  1  0
 24100  1  0
 24101  1  0
 25102  1  0
 25103  1  0
 27104  1  0
 27105  1  0
 28106  1  0
 28107  1  0
 30108  1  0
 30109  1  0
 31110  1  0
 31111  1  0
 32112  1  0
 32113  1  0
 33114  1  0
 33115  1  0
 34116  1  0
 34117  1  0
 35118  1  0
 35119  1  0
 36120  1  0
 36121  1  0
 37122  1  0
 38123  1  0
 39124  1  0
 39125  1  0
 40126  1  0
 42127  1  6
 43128  1  0
 44129  1  0
 44130  1  0
 45131  1  0
 45132  1  0
 46133  1  0
 47134  1  0
 48135  1  0
 48136  1  0
 49137  1  0
 49138  1  0
 50139  1  0
 51140  1  6
 52141  1  6
 53142  1  0
 54143  1  0
 55144  1  0
 55145  1  0
 56146  1  0
 56147  1  0
 57148  1  0
 58149  1  0
 58150  1  0
 59151  1  0
 59152  1  0
 61153  1  0
 61154  1  0
 62155  1  0
 62156  1  0
 64157  1  0
 64158  1  0
 65159  1  0
 65160  1  0
 66161  1  0
 66162  1  0
 67163  1  0
 67164  1  0
 68165  1  0
 68166  1  0
M  END
>  <PDBID>  (1) 
2QXS

>  <PDB ID>  (1) 
2QXS

>  <Generic Name>  (1) 
Raloxifene

>  <Brand Name>  (1) 
Act Raloxifene#Apo-raloxifene#Evista#Evista (60mg)#PMS-raloxifene#Raloxifene#Raloxifene Hydrochloride#Teva-raloxifene#Keoxifene

>  <DrugBank ID>  (1) 
DB00481

>  <ATC Codes>  (1) 
G03XC01

>  <Ligand ID>  (1) 
RAL

>  <Target Name>  (1) 
Estrogen receptor

>  <UniProt ID>  (1) 
P03372

>  <PDB ID.1>  (1) 
2QXS

>  <Seq. Identity>  (1) 
93%

$$$$
