PDB_DB00154_05
     RDKit          3D

 64 63  0  0  0  0  0  0  0  0999 V2000
   -7.7233    2.4769    1.1291 C   0  0  0  0  0  0  0  0  0  0  0  0
   -8.8333    2.8556    1.9211 O   0  0  0  0  0  0  0  0  0  0  0  0
   -7.1349    3.6327    0.6765 O   0  0  0  0  0  0  0  0  0  0  0  0
   -6.8367    1.6432    1.9937 C   0  0  0  0  0  0  0  0  0  0  0  0
   -5.5798    1.1533    1.2810 C   0  0  0  0  0  0  0  0  0  0  0  0
   -5.9870    0.3254    0.1140 C   0  0  0  0  0  0  0  0  0  0  0  0
   -4.7977   -0.1836   -0.6533 C   0  0  0  0  0  0  0  0  0  0  0  0
   -3.9554   -1.0286    0.2253 C   0  0  0  0  0  0  0  0  0  0  0  0
   -2.7405   -1.6100   -0.4597 C   0  0  0  0  0  0  0  0  0  0  0  0
   -1.8153   -0.5643   -0.9985 C   0  0  0  0  0  0  0  0  0  0  0  0
   -0.6095   -1.0873   -1.6788 C   0  0  0  0  0  0  0  0  0  0  0  0
    0.2957   -1.9323   -0.8534 C   0  0  0  0  0  0  0  0  0  0  0  0
    0.8448   -1.2192    0.3446 C   0  0  0  0  0  0  0  0  0  0  0  0
    1.7441   -2.0075    1.1934 C   0  0  0  0  0  0  0  0  0  0  0  0
    2.9602   -2.6294    0.6846 C   0  0  0  0  0  0  0  0  0  0  0  0
    4.0673   -1.8569    0.1074 C   0  0  0  0  0  0  0  0  0  0  0  0
    3.8739   -1.0546   -1.1118 C   0  0  0  0  0  0  0  0  0  0  0  0
    5.1927   -0.3864   -1.5537 C   0  0  0  0  0  0  0  0  0  0  0  0
    5.7538    0.5324   -0.5246 C   0  0  0  0  0  0  0  0  0  0  0  0
    7.0385    1.1755   -1.0168 C   0  0  0  0  0  0  0  0  0  0  0  0
    7.6182    2.1103    0.0177 C   0  0  0  0  0  0  0  0  0  0  0  0
    6.7002    3.2288    0.3857 C   0  0  0  0  0  0  0  0  0  0  0  0
   -8.1631    1.8681    0.3107 H   0  0  0  0  0  0  0  0  0  0  0  0
   -9.5494    2.1629    1.8703 H   0  0  0  0  0  0  0  0  0  0  0  0
   -7.6854    4.0055   -0.0633 H   0  0  0  0  0  0  0  0  0  0  0  0
   -6.5648    2.2323    2.9016 H   0  0  0  0  0  0  0  0  0  0  0  0
   -7.3888    0.7456    2.3391 H   0  0  0  0  0  0  0  0  0  0  0  0
   -5.0109    0.5886    2.0547 H   0  0  0  0  0  0  0  0  0  0  0  0
   -5.0167    2.0302    0.9325 H   0  0  0  0  0  0  0  0  0  0  0  0
   -6.6116   -0.5105    0.5113 H   0  0  0  0  0  0  0  0  0  0  0  0
   -6.6018    0.9436   -0.5763 H   0  0  0  0  0  0  0  0  0  0  0  0
   -4.2774    0.7157   -1.0483 H   0  0  0  0  0  0  0  0  0  0  0  0
   -5.2344   -0.7874   -1.5061 H   0  0  0  0  0  0  0  0  0  0  0  0
   -4.5748   -1.8364    0.6571 H   0  0  0  0  0  0  0  0  0  0  0  0
   -3.6152   -0.4010    1.0966 H   0  0  0  0  0  0  0  0  0  0  0  0
   -3.1046   -2.3160   -1.2188 H   0  0  0  0  0  0  0  0  0  0  0  0
   -2.1878   -2.1987    0.3005 H   0  0  0  0  0  0  0  0  0  0  0  0
   -1.5014    0.1422   -0.2027 H   0  0  0  0  0  0  0  0  0  0  0  0
   -2.3896    0.0417   -1.7310 H   0  0  0  0  0  0  0  0  0  0  0  0
   -0.8808   -1.6937   -2.5923 H   0  0  0  0  0  0  0  0  0  0  0  0
   -0.0173   -0.2372   -2.0763 H   0  0  0  0  0  0  0  0  0  0  0  0
    1.1837   -2.1693   -1.5135 H   0  0  0  0  0  0  0  0  0  0  0  0
   -0.1318   -2.9297   -0.6039 H   0  0  0  0  0  0  0  0  0  0  0  0
   -0.0744   -0.8964    0.9823 H   0  0  0  0  0  0  0  0  0  0  0  0
    1.2559   -0.2568    0.0513 H   0  0  0  0  0  0  0  0  0  0  0  0
    2.0645   -1.3901    2.1091 H   0  0  0  0  0  0  0  0  0  0  0  0
    1.0805   -2.7819    1.7233 H   0  0  0  0  0  0  0  0  0  0  0  0
    3.4201   -3.1897    1.5834 H   0  0  0  0  0  0  0  0  0  0  0  0
    2.7265   -3.5550    0.0273 H   0  0  0  0  0  0  0  0  0  0  0  0
    4.9445   -2.5488   -0.1007 H   0  0  0  0  0  0  0  0  0  0  0  0
    4.4753   -1.1273    0.8937 H   0  0  0  0  0  0  0  0  0  0  0  0
    3.1622   -0.2411   -1.0116 H   0  0  0  0  0  0  0  0  0  0  0  0
    3.5975   -1.6824   -2.0122 H   0  0  0  0  0  0  0  0  0  0  0  0
    5.8923   -1.1965   -1.8425 H   0  0  0  0  0  0  0  0  0  0  0  0
    4.9723    0.2080   -2.4712 H   0  0  0  0  0  0  0  0  0  0  0  0
    5.0562    1.2709   -0.1424 H   0  0  0  0  0  0  0  0  0  0  0  0
    6.0864   -0.0967    0.3547 H   0  0  0  0  0  0  0  0  0  0  0  0
    7.8071    0.4169   -1.2562 H   0  0  0  0  0  0  0  0  0  0  0  0
    6.8028    1.7140   -1.9555 H   0  0  0  0  0  0  0  0  0  0  0  0
    7.9806    1.6001    0.9075 H   0  0  0  0  0  0  0  0  0  0  0  0
    8.5217    2.5765   -0.4681 H   0  0  0  0  0  0  0  0  0  0  0  0
    7.3199    4.1120    0.6883 H   0  0  0  0  0  0  0  0  0  0  0  0
    6.1057    2.9669    1.3070 H   0  0  0  0  0  0  0  0  0  0  0  0
    6.0505    3.5683   -0.4334 H   0  0  0  0  0  0  0  0  0  0  0  0
  1  2  1  0
  1  3  1  0
  1  4  1  0
  4  5  1  0
  5  6  1  0
  6  7  1  0
  7  8  1  0
  8  9  1  0
  9 10  1  0
 10 11  1  0
 11 12  1  0
 12 13  1  0
 13 14  1  0
 14 15  1  0
 15 16  1  0
 16 17  1  0
 17 18  1  0
 18 19  1  0
 19 20  1  0
 20 21  1  0
 21 22  1  0
  1 23  1  0
  2 24  1  0
  3 25  1  0
  4 26  1  0
  4 27  1  0
  5 28  1  0
  5 29  1  0
  6 30  1  0
  6 31  1  0
  7 32  1  0
  7 33  1  0
  8 34  1  0
  8 35  1  0
  9 36  1  0
  9 37  1  0
 10 38  1  0
 10 39  1  0
 11 40  1  0
 11 41  1  0
 12 42  1  0
 12 43  1  0
 13 44  1  0
 13 45  1  0
 14 46  1  0
 14 47  1  0
 15 48  1  0
 15 49  1  0
 16 50  1  0
 16 51  1  0
 17 52  1  0
 17 53  1  0
 18 54  1  0
 18 55  1  0
 19 56  1  0
 19 57  1  0
 20 58  1  0
 20 59  1  0
 21 60  1  0
 21 61  1  0
 22 62  1  0
 22 63  1  0
 22 64  1  0
M  END
>  <PDBID>  (1) 
1FE2

>  <PDB ID>  (1) 
1FE2

>  <Generic Name>  (1) 
Dihomo-gamma-linolenic acid

>  <Brand Name>  (1) 
Star GLA#Tona-lean 1000 CLA

>  <DrugBank ID>  (1) 
DB00154

>  <ATC Codes>  (1) 
nan

>  <Ligand ID>  (1) 
LAX

>  <Target Name>  (1) 
Prostaglandin G/H synthase 1

>  <UniProt ID>  (1) 
P23219

>  <PDB ID.1>  (1) 
1FE2

>  <Seq. Identity>  (1) 
89%

$$$$
