PDB_DB00412_04
     RDKit          3D

 60 62  0  0  0  0  0  0  0  0999 V2000
   -5.2897    1.6037   -0.6371 S   0  0  0  0  0  0  0  0  0  0  0  0
   -7.7619    2.4046   -0.6669 O   0  0  0  0  0  0  0  0  0  0  0  0
   -5.8987   -0.7043    1.0898 O   0  0  0  0  0  0  0  0  0  0  0  0
    0.7937    0.2604    1.3624 O   0  0  0  0  0  0  0  0  0  0  0  0
   -7.3686    0.1738   -0.4012 N   0  0  0  0  0  0  0  0  0  0  0  0
    3.1640   -0.0046   -0.6587 N   0  0  0  0  0  0  0  0  0  0  0  0
    5.1604   -1.1729   -0.3598 N   0  0  0  0  0  0  0  0  0  0  0  0
   -6.9954    1.4886    0.0549 C   0  0  0  0  0  0  0  0  0  0  0  0
   -6.2313   -0.7147   -0.2431 C   0  0  0  0  0  0  0  0  0  0  0  0
   -5.1972   -0.1311   -1.1607 C   0  0  2  0  0  0  0  0  0  0  0  0
   -3.8970   -0.7449   -1.2042 C   0  0  0  0  0  0  0  0  0  0  0  0
   -3.0513   -0.8659    0.0038 C   0  0  0  0  0  0  0  0  0  0  0  0
   -2.7538    0.4932    0.5579 C   0  0  0  0  0  0  0  0  0  0  0  0
   -1.5743    0.5636    1.4818 C   0  0  0  0  0  0  0  0  0  0  0  0
   -0.3592    0.0240    0.6782 C   0  0  0  0  0  0  0  0  0  0  0  0
   -0.6470   -1.4322    0.5430 C   0  0  0  0  0  0  0  0  0  0  0  0
   -1.7623   -1.5512   -0.4811 C   0  0  0  0  0  0  0  0  0  0  0  0
    1.6408    1.2040    0.8944 C   0  0  0  0  0  0  0  0  0  0  0  0
    2.2966    1.0747   -0.4146 C   0  0  0  0  0  0  0  0  0  0  0  0
    2.6506   -1.3122   -0.7515 C   0  0  0  0  0  0  0  0  0  0  0  0
    4.4801    0.0770   -0.0859 C   0  0  0  0  0  0  0  0  0  0  0  0
    6.4066   -1.0057   -1.0468 C   0  0  0  0  0  0  0  0  0  0  0  0
    7.3757   -0.1244   -0.2918 C   0  0  0  0  0  0  0  0  0  0  0  0
    6.6654    1.1166    0.1379 C   0  0  0  0  0  0  0  0  0  0  0  0
    5.3197    1.2107   -0.5811 C   0  0  0  0  0  0  0  0  0  0  0  0
   -7.6365    2.1569   -1.6381 H   0  0  0  0  0  0  0  0  0  0  0  0
   -6.6105   -0.2979    1.6619 H   0  0  0  0  0  0  0  0  0  0  0  0
   -7.7582    0.1827   -1.3536 H   0  0  0  0  0  0  0  0  0  0  0  0
    5.3109   -1.7409    0.4836 H   0  0  0  0  0  0  0  0  0  0  0  0
   -7.0106    1.6361    1.1293 H   0  0  0  0  0  0  0  0  0  0  0  0
   -6.5596   -1.6992   -0.6139 H   0  0  0  0  0  0  0  0  0  0  0  0
   -5.6517   -0.1568   -2.1883 H   0  0  0  0  0  0  0  0  0  0  0  0
   -3.2710   -0.2002   -1.9760 H   0  0  0  0  0  0  0  0  0  0  0  0
   -3.9974   -1.7745   -1.6620 H   0  0  0  0  0  0  0  0  0  0  0  0
   -3.4551   -1.5638    0.7731 H   0  0  0  0  0  0  0  0  0  0  0  0
   -2.5782    1.1904   -0.2781 H   0  0  0  0  0  0  0  0  0  0  0  0
   -3.6469    0.8648    1.1086 H   0  0  0  0  0  0  0  0  0  0  0  0
   -1.4032    1.5942    1.7705 H   0  0  0  0  0  0  0  0  0  0  0  0
   -1.7758   -0.0465    2.3665 H   0  0  0  0  0  0  0  0  0  0  0  0
   -0.4543    0.5484   -0.2801 H   0  0  0  0  0  0  0  0  0  0  0  0
   -1.0991   -1.7860    1.5196 H   0  0  0  0  0  0  0  0  0  0  0  0
    0.1470   -2.0820    0.2096 H   0  0  0  0  0  0  0  0  0  0  0  0
   -1.4125   -1.1314   -1.4295 H   0  0  0  0  0  0  0  0  0  0  0  0
   -2.0052   -2.6279   -0.5677 H   0  0  0  0  0  0  0  0  0  0  0  0
    1.1737    2.2467    0.9768 H   0  0  0  0  0  0  0  0  0  0  0  0
    2.4669    1.2878    1.6824 H   0  0  0  0  0  0  0  0  0  0  0  0
    2.9030    2.0219   -0.5686 H   0  0  0  0  0  0  0  0  0  0  0  0
    1.5346    1.0823   -1.2436 H   0  0  0  0  0  0  0  0  0  0  0  0
    2.5004   -1.7075    0.2876 H   0  0  0  0  0  0  0  0  0  0  0  0
    3.4316   -1.9432   -1.2695 H   0  0  0  0  0  0  0  0  0  0  0  0
    1.7590   -1.3316   -1.3761 H   0  0  0  0  0  0  0  0  0  0  0  0
    4.4035    0.1856    1.0235 H   0  0  0  0  0  0  0  0  0  0  0  0
    6.3099   -0.6870   -2.0989 H   0  0  0  0  0  0  0  0  0  0  0  0
    6.8869   -2.0210   -1.0767 H   0  0  0  0  0  0  0  0  0  0  0  0
    7.8427   -0.6673    0.5666 H   0  0  0  0  0  0  0  0  0  0  0  0
    8.2288    0.1070   -0.9878 H   0  0  0  0  0  0  0  0  0  0  0  0
    7.2886    1.9831   -0.1370 H   0  0  0  0  0  0  0  0  0  0  0  0
    6.5470    1.1143    1.2402 H   0  0  0  0  0  0  0  0  0  0  0  0
    4.8880    2.1721   -0.2606 H   0  0  0  0  0  0  0  0  0  0  0  0
    5.5373    1.1595   -1.6652 H   0  0  0  0  0  0  0  0  0  0  0  0
  1  8  1  0
  2  8  1  0
  5  8  1  0
  3  9  1  0
  5  9  1  0
  1 10  1  0
  9 10  1  0
 10 11  1  0
 11 12  1  0
 12 13  1  0
 13 14  1  0
  4 15  1  0
 14 15  1  0
 15 16  1  0
 12 17  1  0
 16 17  1  0
  4 18  1  0
  6 19  1  0
 18 19  1  0
  6 20  1  0
  6 21  1  0
  7 21  1  0
  7 22  1  0
 22 23  1  0
 23 24  1  0
 21 25  1  0
 24 25  1  0
  2 26  1  0
  3 27  1  0
  5 28  1  0
  7 29  1  0
  8 30  1  0
  9 31  1  0
 10 32  1  6
 11 33  1  0
 11 34  1  0
 12 35  1  0
 13 36  1  0
 13 37  1  0
 14 38  1  0
 14 39  1  0
 15 40  1  0
 16 41  1  0
 16 42  1  0
 17 43  1  0
 17 44  1  0
 18 45  1  0
 18 46  1  0
 19 47  1  0
 19 48  1  0
 20 49  1  0
 20 50  1  0
 20 51  1  0
 21 52  1  0
 22 53  1  0
 22 54  1  0
 23 55  1  0
 23 56  1  0
 24 57  1  0
 24 58  1  0
 25 59  1  0
 25 60  1  0
M  END
>  <PDBID>  (1) 
3DZY

>  <PDB ID>  (1) 
3DZY

>  <Generic Name>  (1) 
Rosiglitazone

>  <Brand Name>  (1) 
Apo-rosiglitazone#Avandamet#Avandaryl#Avandia#Avandia 2mg#Avandia 4mg#Avandia 8mg#Dom-rosiglitazone#Mylan-rosiglitazone#PHL-rosiglitazone#PMS-rosiglitazone#PMS-rosiglitazone-metformin#Teva-rosiglitazone#Blutab#DH-Rosidia#Diaben#Diaglinex#Gaudil#Gliximina#Naidi#Rogelin#Roglit#Romerol#Rosit#Rosix#Rossini#Sensulin#Sheng Ao#Sheng Min

>  <DrugBank ID>  (1) 
DB00412

>  <ATC Codes>  (1) 
A10BD03#A10BG02#A10BD04

>  <Ligand ID>  (1) 
BRL,RGZ

>  <Target Name>  (1) 
Peroxisome proliferator-activated receptor gamma

>  <UniProt ID>  (1) 
P37231

>  <PDB ID.1>  (1) 
3DZY

>  <Seq. Identity>  (1) 
97%

$$$$
