PDB_DB01104_08
     RDKit          3D

 49 51  0  0  0  0  0  0  0  0999 V2000
    5.8627   -0.7018   -1.2860 Cl  0  0  0  0  0  0  0  0  0  0  0  0
    4.3934   -0.6786   -0.2454 C   0  0  0  0  0  0  0  0  0  0  0  0
    3.8537    0.7422   -0.3013 C   0  0  0  0  0  0  0  0  0  0  0  0
    3.6118    1.1353   -1.9929 Cl  0  0  0  0  0  0  0  0  0  0  0  0
    3.3947   -1.5683   -0.9015 C   0  0  0  0  0  0  0  0  0  0  0  0
    1.9731   -1.3547   -0.5501 C   0  0  0  0  0  0  0  0  0  0  0  0
    1.7610   -0.3722    0.5824 C   0  0  0  0  0  0  0  0  0  0  0  0
    2.6580    0.8151    0.5802 C   0  0  0  0  0  0  0  0  0  0  0  0
    0.3264   -0.1329    0.8689 C   0  0  1  0  0  0  0  0  0  0  0  0
   -0.5448    0.2937   -0.2207 C   0  0  0  0  0  0  0  0  0  0  0  0
   -0.1692    1.4432   -1.0721 C   0  0  0  0  0  0  0  0  0  0  0  0
   -0.4916    2.7881   -0.4118 C   0  0  0  0  0  0  0  0  0  0  0  0
   -1.9973    2.9418   -0.3678 C   0  0  0  0  0  0  0  0  0  0  0  0
   -2.6953    1.5773   -0.4544 C   0  0  0  0  0  0  0  0  0  0  0  0
   -1.8974    0.6427    0.3936 C   0  0  0  0  0  0  0  0  0  0  0  0
   -2.5491   -0.6562    0.7319 C   0  0  1  0  0  0  0  0  0  0  0  0
   -2.5797   -1.5117   -0.4262 N   0  0  0  0  0  0  0  0  0  0  0  0
   -3.8098   -2.3133   -0.4951 C   0  0  0  0  0  0  0  0  0  0  0  0
   -1.7206   -1.2529    1.8557 C   0  0  0  0  0  0  0  0  0  0  0  0
   -0.2676   -1.4160    1.4573 C   0  0  0  0  0  0  0  0  0  0  0  0
    4.6551   -0.9220    0.7881 H   0  0  0  0  0  0  0  0  0  0  0  0
    4.6134    1.4775    0.0993 H   0  0  0  0  0  0  0  0  0  0  0  0
    3.7380   -2.6260   -0.7272 H   0  0  0  0  0  0  0  0  0  0  0  0
    3.5098   -1.4476   -2.0180 H   0  0  0  0  0  0  0  0  0  0  0  0
    1.5554   -2.3277   -0.2196 H   0  0  0  0  0  0  0  0  0  0  0  0
    1.3660   -1.0854   -1.4599 H   0  0  0  0  0  0  0  0  0  0  0  0
    2.1096   -0.9923    1.4873 H   0  0  0  0  0  0  0  0  0  0  0  0
    3.0769    0.9952    1.6297 H   0  0  0  0  0  0  0  0  0  0  0  0
    2.1252    1.7984    0.4206 H   0  0  0  0  0  0  0  0  0  0  0  0
    0.2717    0.6062    1.7155 H   0  0  0  0  0  0  0  0  0  0  0  0
   -0.7167   -0.5973   -0.8919 H   0  0  0  0  0  0  0  0  0  0  0  0
   -0.8582    1.4055   -1.9728 H   0  0  0  0  0  0  0  0  0  0  0  0
    0.8222    1.4413   -1.5078 H   0  0  0  0  0  0  0  0  0  0  0  0
   -0.0177    2.8652    0.5680 H   0  0  0  0  0  0  0  0  0  0  0  0
   -0.0260    3.5615   -1.0608 H   0  0  0  0  0  0  0  0  0  0  0  0
   -2.3792    3.6432   -1.1405 H   0  0  0  0  0  0  0  0  0  0  0  0
   -2.2488    3.3653    0.6254 H   0  0  0  0  0  0  0  0  0  0  0  0
   -2.8093    1.2511   -1.4993 H   0  0  0  0  0  0  0  0  0  0  0  0
   -3.6709    1.7139    0.0085 H   0  0  0  0  0  0  0  0  0  0  0  0
   -1.7122    1.1773    1.3651 H   0  0  0  0  0  0  0  0  0  0  0  0
   -3.5745   -0.5191    1.1587 H   0  0  0  0  0  0  0  0  0  0  0  0
   -2.6758   -0.8674   -1.2746 H   0  0  0  0  0  0  0  0  0  0  0  0
   -3.7532   -3.1894    0.1735 H   0  0  0  0  0  0  0  0  0  0  0  0
   -4.6900   -1.7093   -0.2800 H   0  0  0  0  0  0  0  0  0  0  0  0
   -3.9002   -2.6817   -1.5466 H   0  0  0  0  0  0  0  0  0  0  0  0
   -2.1275   -2.2570    2.0450 H   0  0  0  0  0  0  0  0  0  0  0  0
   -1.8098   -0.5573    2.7085 H   0  0  0  0  0  0  0  0  0  0  0  0
   -0.2590   -2.2116    0.6801 H   0  0  0  0  0  0  0  0  0  0  0  0
    0.2732   -1.7310    2.3810 H   0  0  0  0  0  0  0  0  0  0  0  0
  1  2  1  0
  2  3  1  0
  3  4  1  0
  2  5  1  0
  5  6  1  0
  6  7  1  0
  3  8  1  0
  7  8  1  0
  7  9  1  0
  9 10  1  0
 10 11  1  0
 11 12  1  0
 12 13  1  0
 13 14  1  0
 10 15  1  0
 14 15  1  0
 15 16  1  0
 16 17  1  0
 17 18  1  0
 16 19  1  0
  9 20  1  0
 19 20  1  0
  2 21  1  0
  3 22  1  0
  5 23  1  0
  5 24  1  0
  6 25  1  0
  6 26  1  0
  7 27  1  0
  8 28  1  0
  8 29  1  0
  9 30  1  1
 10 31  1  0
 11 32  1  0
 11 33  1  0
 12 34  1  0
 12 35  1  0
 13 36  1  0
 13 37  1  0
 14 38  1  0
 14 39  1  0
 15 40  1  0
 16 41  1  1
 17 42  1  0
 18 43  1  0
 18 44  1  0
 18 45  1  0
 19 46  1  0
 19 47  1  0
 20 48  1  0
 20 49  1  0
M  END
>  <PDBID>  (1) 
6AWO

>  <PDB ID>  (1) 
6AWO

>  <Generic Name>  (1) 
Sertraline

>  <Brand Name>  (1) 
Act Sertraline#Apo-sertraline#Auro-sertraline#Bio-sertraline#Dom-sertraline#Gd-sertraline#Ipg-sertraline#Jamp-sertraline#Mar-sertraline#Mint-sertraline#Mylan-sertraline#Nu-sertraline Capsules#PHL-sertraline#PMS-sertraline#Priva-sertraline#Q-sertraline#Ran-sertraline#Ratio-sertraline#Riva-sertraline#Sandoz Sertraline#Sertraline#Sertraline Hydrochloride#Sertraline Hydrochloride Tablets#Sertraline-100#Sertraline-25#Sertraline-50#Teva-sertraline#Van-sertraline#Zoloft#Zoloft Cap 100mg#Zoloft Cap 50mg#Lustral

>  <DrugBank ID>  (1) 
DB01104

>  <ATC Codes>  (1) 
N06AB06

>  <Ligand ID>  (1) 
SRE

>  <Target Name>  (1) 
Sodium-dependent serotonin transporter

>  <UniProt ID>  (1) 
P31645

>  <PDB ID.1>  (1) 
6AWO

>  <Seq. Identity>  (1) 
99%

$$$$
