PDB_DB00755_05
     RDKit          3D

124124  0  0  0  0  0  0  0  0999 V2000
   -3.2930   -1.2398    0.0296 C   0  0  0  0  0  0  0  0  0  0  0  0
   -4.7427   -1.7502    0.0382 C   0  0  0  0  0  0  0  0  0  0  0  0
   -5.6288   -0.8440   -0.7849 C   0  0  0  0  0  0  0  0  0  0  0  0
   -5.7230    0.5444   -0.2139 C   0  0  0  0  0  0  0  0  0  0  0  0
   -4.5263    0.7389    0.7124 C   0  0  0  0  0  0  0  0  0  0  0  0
   -3.2513    0.2552    0.0464 C   0  0  0  0  0  0  0  0  0  0  0  0
   -2.0986    0.8907    0.7297 C   0  0  0  0  0  0  0  0  0  0  0  0
   -0.7610    0.5380    0.1490 C   0  0  0  0  0  0  0  0  0  0  0  0
    0.3878    1.1779    0.8498 C   0  0  1  0  0  0  0  0  0  0  0  0
    1.6956    0.7335    0.1567 C   0  0  0  0  0  0  0  0  0  0  0  0
    2.8730    1.3320    0.8024 C   0  0  0  0  0  0  0  0  0  0  0  0
    4.1698    1.0279    0.1948 C   0  0  0  0  0  0  0  0  0  0  0  0
    4.6419   -0.3817    0.0808 C   0  0  0  0  0  0  0  0  0  0  0  0
    6.0558   -0.2698   -0.5270 C   0  0  0  0  0  0  0  0  0  0  0  0
    6.7728   -1.5402   -0.7012 C   0  0  0  0  0  0  0  0  0  0  0  0
   -2.5629   -1.9105    1.1296 C   0  0  0  0  0  0  0  0  0  0  0  0
   -2.7036   -1.6949   -1.2928 C   0  0  0  0  0  0  0  0  0  0  0  0
   -4.4171    2.1783    1.1525 C   0  0  0  0  0  0  0  0  0  0  0  0
    0.3754    2.6643    0.8366 C   0  0  0  0  0  0  0  0  0  0  0  0
    3.7867   -1.2079   -0.8559 C   0  0  0  0  0  0  0  0  0  0  0  0
    8.0355   -1.2452   -1.2536 O   0  0  0  0  0  0  0  0  0  0  0  0
    7.0392   -2.0718    0.5818 O   0  0  0  0  0  0  0  0  0  0  0  0
   -2.9132   -0.8608    0.8455 C   0  0  0  0  0  0  0  0  0  0  0  0
   -4.1650   -1.5325    1.3739 C   0  0  0  0  0  0  0  0  0  0  0  0
   -5.2638   -1.4943    0.3536 C   0  0  0  0  0  0  0  0  0  0  0  0
   -5.6308   -0.0070    0.2382 C   0  0  0  0  0  0  0  0  0  0  0  0
   -4.4850    0.6672   -0.4137 C   0  0  0  0  0  0  0  0  0  0  0  0
   -3.1618    0.4916    0.2869 C   0  0  0  0  0  0  0  0  0  0  0  0
   -2.1210    0.9991   -0.6705 C   0  0  0  0  0  0  0  0  0  0  0  0
   -0.7312    1.1209   -0.0840 C   0  0  0  0  0  0  0  0  0  0  0  0
    0.1379    1.6372   -1.2072 C   0  0  0  0  0  0  0  0  0  0  0  0
    1.5447    1.8233   -0.7633 C   0  0  0  0  0  0  0  0  0  0  0  0
    2.1389    0.5143   -0.2945 C   0  0  0  0  0  0  0  0  0  0  0  0
    3.5735    0.8325    0.0945 C   0  0  0  0  0  0  0  0  0  0  0  0
    4.3291   -0.3371    0.6047 C   0  0  0  0  0  0  0  0  0  0  0  0
    5.7261    0.1489    0.9518 C   0  0  0  0  0  0  0  0  0  0  0  0
    6.6191   -0.9263    1.4834 C   0  0  0  0  0  0  0  0  0  0  0  0
   -1.9468   -0.8001    2.0156 C   0  0  0  0  0  0  0  0  0  0  0  0
   -2.3668   -1.8056   -0.2252 C   0  0  0  0  0  0  0  0  0  0  0  0
   -4.8062    2.1481   -0.5314 C   0  0  0  0  0  0  0  0  0  0  0  0
    0.0496    0.6990   -2.4158 C   0  0  0  0  0  0  0  0  0  0  0  0
    4.3495   -1.5530   -0.2501 C   0  0  0  0  0  0  0  0  0  0  0  0
    6.7527   -1.9199    0.5241 O   0  0  0  0  0  0  0  0  0  0  0  0
    7.8826   -0.4307    1.8055 O   0  0  0  0  0  0  0  0  0  0  0  0
   -5.1141   -1.9140    1.0489 H   0  0  0  0  0  0  0  0  0  0  0  0
   -4.7166   -2.7355   -0.4692 H   0  0  0  0  0  0  0  0  0  0  0  0
   -6.6389   -1.3044   -0.7786 H   0  0  0  0  0  0  0  0  0  0  0  0
   -5.2922   -0.8603   -1.8409 H   0  0  0  0  0  0  0  0  0  0  0  0
   -5.6837    1.3272   -0.9842 H   0  0  0  0  0  0  0  0  0  0  0  0
   -6.6218    0.6226    0.4479 H   0  0  0  0  0  0  0  0  0  0  0  0
   -4.6567    0.1286    1.6303 H   0  0  0  0  0  0  0  0  0  0  0  0
   -3.2909    0.6786   -0.9998 H   0  0  0  0  0  0  0  0  0  0  0  0
   -2.2206    2.0025    0.5391 H   0  0  0  0  0  0  0  0  0  0  0  0
   -2.1438    0.8013    1.8204 H   0  0  0  0  0  0  0  0  0  0  0  0
   -0.7012    0.8554   -0.9348 H   0  0  0  0  0  0  0  0  0  0  0  0
   -0.6759   -0.5648    0.1222 H   0  0  0  0  0  0  0  0  0  0  0  0
    0.4490    0.8078    1.8816 H   0  0  0  0  0  0  0  0  0  0  0  0
    1.6098    1.0595   -0.8864 H   0  0  0  0  0  0  0  0  0  0  0  0
    1.6831   -0.3948    0.1505 H   0  0  0  0  0  0  0  0  0  0  0  0
    2.7386    2.4673    0.7099 H   0  0  0  0  0  0  0  0  0  0  0  0
    2.8704    1.2086    1.9252 H   0  0  0  0  0  0  0  0  0  0  0  0
    4.2409    1.5001   -0.8454 H   0  0  0  0  0  0  0  0  0  0  0  0
    5.0216    1.5786    0.7260 H   0  0  0  0  0  0  0  0  0  0  0  0
    4.7635   -0.8894    1.0447 H   0  0  0  0  0  0  0  0  0  0  0  0
    5.9185    0.3022   -1.4780 H   0  0  0  0  0  0  0  0  0  0  0  0
    6.5802    0.4530    0.1540 H   0  0  0  0  0  0  0  0  0  0  0  0
    6.2546   -2.2531   -1.3253 H   0  0  0  0  0  0  0  0  0  0  0  0
   -2.1330   -1.2312    1.9001 H   0  0  0  0  0  0  0  0  0  0  0  0
   -1.7607   -2.6073    0.7429 H   0  0  0  0  0  0  0  0  0  0  0  0
   -3.2447   -2.5809    1.6926 H   0  0  0  0  0  0  0  0  0  0  0  0
   -2.1132   -0.8859   -1.7714 H   0  0  0  0  0  0  0  0  0  0  0  0
   -2.1082   -2.6139   -1.1350 H   0  0  0  0  0  0  0  0  0  0  0  0
   -3.5140   -1.9979   -2.0150 H   0  0  0  0  0  0  0  0  0  0  0  0
   -4.0879    2.8570    0.3595 H   0  0  0  0  0  0  0  0  0  0  0  0
   -3.7761    2.2293    2.0614 H   0  0  0  0  0  0  0  0  0  0  0  0
   -5.4344    2.4835    1.4907 H   0  0  0  0  0  0  0  0  0  0  0  0
    1.0354    3.0060    1.6887 H   0  0  0  0  0  0  0  0  0  0  0  0
   -0.6084    3.1268    1.0559 H   0  0  0  0  0  0  0  0  0  0  0  0
    0.8488    3.0985   -0.0710 H   0  0  0  0  0  0  0  0  0  0  0  0
    3.2558   -2.0137   -0.3261 H   0  0  0  0  0  0  0  0  0  0  0  0
    4.4859   -1.7549   -1.5555 H   0  0  0  0  0  0  0  0  0  0  0  0
    3.1629   -0.6111   -1.5448 H   0  0  0  0  0  0  0  0  0  0  0  0
    8.0071   -0.3644   -1.7153 H   0  0  0  0  0  0  0  0  0  0  0  0
    7.4854   -2.9421    0.4711 H   0  0  0  0  0  0  0  0  0  0  0  0
   -4.5003   -0.9148    2.2431 H   0  0  0  0  0  0  0  0  0  0  0  0
   -3.8782   -2.5560    1.6781 H   0  0  0  0  0  0  0  0  0  0  0  0
   -4.8979   -1.8687   -0.6405 H   0  0  0  0  0  0  0  0  0  0  0  0
   -6.1134   -2.0996    0.6838 H   0  0  0  0  0  0  0  0  0  0  0  0
   -5.8160    0.3622    1.2665 H   0  0  0  0  0  0  0  0  0  0  0  0
   -6.5013    0.0380   -0.4161 H   0  0  0  0  0  0  0  0  0  0  0  0
   -4.3634    0.2384   -1.4375 H   0  0  0  0  0  0  0  0  0  0  0  0
   -3.1775    1.2393    1.1361 H   0  0  0  0  0  0  0  0  0  0  0  0
   -2.4293    2.0594   -0.9149 H   0  0  0  0  0  0  0  0  0  0  0  0
   -2.0707    0.4813   -1.6241 H   0  0  0  0  0  0  0  0  0  0  0  0
   -0.3286    0.1630    0.2372 H   0  0  0  0  0  0  0  0  0  0  0  0
   -0.7376    1.8103    0.7820 H   0  0  0  0  0  0  0  0  0  0  0  0
   -0.2421    2.6213   -1.5927 H   0  0  0  0  0  0  0  0  0  0  0  0
    1.5033    2.5630    0.0924 H   0  0  0  0  0  0  0  0  0  0  0  0
    2.1508    2.2450   -1.5980 H   0  0  0  0  0  0  0  0  0  0  0  0
    1.5672    0.1673    0.5890 H   0  0  0  0  0  0  0  0  0  0  0  0
    2.1192   -0.2506   -1.0765 H   0  0  0  0  0  0  0  0  0  0  0  0
    4.1324    1.2812   -0.7434 H   0  0  0  0  0  0  0  0  0  0  0  0
    3.5437    1.5981    0.8979 H   0  0  0  0  0  0  0  0  0  0  0  0
    3.8497   -0.6314    1.5846 H   0  0  0  0  0  0  0  0  0  0  0  0
    5.6721    0.9474    1.7217 H   0  0  0  0  0  0  0  0  0  0  0  0
    6.2115    0.6083    0.0694 H   0  0  0  0  0  0  0  0  0  0  0  0
    6.2286   -1.3533    2.4545 H   0  0  0  0  0  0  0  0  0  0  0  0
   -1.0494   -1.4510    1.8459 H   0  0  0  0  0  0  0  0  0  0  0  0
   -1.6813    0.2344    2.3043 H   0  0  0  0  0  0  0  0  0  0  0  0
   -2.3921   -1.2331    2.9608 H   0  0  0  0  0  0  0  0  0  0  0  0
   -2.8415   -2.8209   -0.1534 H   0  0  0  0  0  0  0  0  0  0  0  0
   -2.6465   -1.4281   -1.2219 H   0  0  0  0  0  0  0  0  0  0  0  0
   -1.2844   -2.0000   -0.1008 H   0  0  0  0  0  0  0  0  0  0  0  0
   -5.9116    2.2585   -0.5775 H   0  0  0  0  0  0  0  0  0  0  0  0
   -4.4096    2.5874   -1.4606 H   0  0  0  0  0  0  0  0  0  0  0  0
   -4.4670    2.6699    0.3858 H   0  0  0  0  0  0  0  0  0  0  0  0
   -0.7056    1.0412   -3.1433 H   0  0  0  0  0  0  0  0  0  0  0  0
    1.0309    0.7113   -2.9220 H   0  0  0  0  0  0  0  0  0  0  0  0
   -0.2392   -0.3252   -2.0996 H   0  0  0  0  0  0  0  0  0  0  0  0
    4.5056   -2.4394    0.4135 H   0  0  0  0  0  0  0  0  0  0  0  0
    3.3723   -1.7227   -0.7315 H   0  0  0  0  0  0  0  0  0  0  0  0
    5.0958   -1.4986   -1.0687 H   0  0  0  0  0  0  0  0  0  0  0  0
    7.6023   -1.8244    0.0004 H   0  0  0  0  0  0  0  0  0  0  0  0
    8.5870   -0.9235    1.3022 H   0  0  0  0  0  0  0  0  0  0  0  0
  1  2  1  0
  2  3  1  0
  3  4  1  0
  4  5  1  0
  1  6  1  0
  5  6  1  0
  6  7  1  0
  7  8  1  0
  8  9  1  0
  9 10  1  0
 10 11  1  0
 11 12  1  0
 12 13  1  0
 13 14  1  0
 14 15  1  0
  1 16  1  0
  1 17  1  0
  5 18  1  0
  9 19  1  0
 13 20  1  0
 15 21  1  0
 15 22  1  0
 23 24  1  0
 24 25  1  0
 25 26  1  0
 26 27  1  0
 23 28  1  0
 27 28  1  0
 28 29  1  0
 29 30  1  0
 30 31  1  0
 31 32  1  0
 32 33  1  0
 33 34  1  0
 34 35  1  0
 35 36  1  0
 36 37  1  0
 23 38  1  0
 23 39  1  0
 27 40  1  0
 31 41  1  0
 35 42  1  0
 37 43  1  0
 37 44  1  0
  2 45  1  0
  2 46  1  0
  3 47  1  0
  3 48  1  0
  4 49  1  0
  4 50  1  0
  5 51  1  0
  6 52  1  0
  7 53  1  0
  7 54  1  0
  8 55  1  0
  8 56  1  0
  9 57  1  1
 10 58  1  0
 10 59  1  0
 11 60  1  0
 11 61  1  0
 12 62  1  0
 12 63  1  0
 13 64  1  0
 14 65  1  0
 14 66  1  0
 15 67  1  0
 16 68  1  0
 16 69  1  0
 16 70  1  0
 17 71  1  0
 17 72  1  0
 17 73  1  0
 18 74  1  0
 18 75  1  0
 18 76  1  0
 19 77  1  0
 19 78  1  0
 19 79  1  0
 20 80  1  0
 20 81  1  0
 20 82  1  0
 21 83  1  0
 22 84  1  0
 24 85  1  0
 24 86  1  0
 25 87  1  0
 25 88  1  0
 26 89  1  0
 26 90  1  0
 27 91  1  0
 28 92  1  0
 29 93  1  0
 29 94  1  0
 30 95  1  0
 30 96  1  0
 31 97  1  0
 32 98  1  0
 32 99  1  0
 33100  1  0
 33101  1  0
 34102  1  0
 34103  1  0
 35104  1  0
 36105  1  0
 36106  1  0
 37107  1  0
 38108  1  0
 38109  1  0
 38110  1  0
 39111  1  0
 39112  1  0
 39113  1  0
 40114  1  0
 40115  1  0
 40116  1  0
 41117  1  0
 41118  1  0
 41119  1  0
 42120  1  0
 42121  1  0
 42122  1  0
 43123  1  0
 44124  1  0
M  END
>  <PDBID>  (1) 
3FC6

>  <PDB ID>  (1) 
3FC6

>  <Generic Name>  (1) 
Tretinoin

>  <Brand Name>  (1) 
Atralin#Avita#Biacna Topical Gel#Clindamycin Phosphate and Tretinoin#Dr. Throwers Hydrotet#Dr. Throwers Pbc No. 1#Obagi#Refissa#Rejuva-A#Renova#Retin-A#Retin-A Micro#Retisol-A#Solagé#Stie Vaa Sol 0.05%#Stieva-A Cream#Stieva-A Gel#Stieva-A Solution#Stievaa Gel 0.01%#Stievamycin Forte#Stievamycin Mild#Stievamycin Regular#Tretin.x#Tretinoin#Tretinoin Cream#Tretinoin Gel#Tretinoin Gel Microsphere#Tretinx#Tri-luma#Veltin#Vesanoid#Vitamin A Acid 0.01% Cream#Vitamin A Acid 0.01% Gel#Vitamin A Acid 0.025% Cream#Vitamin A Acid 0.025% Gel#Vitamin A Acid 0.05% Cream#Vitamin A Acid 0.05% Gel#Vitamin A Acid 0.1% Cream#Vitinoin - Crm 0.025%#Vitinoin - Crm 0.05%#Vitinoin - Crm 0.1%#Vitinoin Gel - 0.025%#Ziana#Aberel#Aberela#Airol#Dermairol#Eudyna#Kétrel#Retisol-A#Sotret#Stieva-A#Vitinoin

>  <DrugBank ID>  (1) 
DB00755

>  <ATC Codes>  (1) 
L01XX14#D10AD01#D10AD51

>  <Ligand ID>  (1) 
3KV,REA

>  <Target Name>  (1) 
Retinoic acid receptor RXR-beta

>  <UniProt ID>  (1) 
P28702

>  <PDB ID.1>  (1) 
3FC6

>  <Seq. Identity>  (1) 
87%

$$$$
