PDB_DB06616_01
     RDKit          3D

170176  0  0  0  0  0  0  0  0999 V2000
    0.5244    0.5879   -3.4932 C   0  0  0  0  0  0  0  0  0  0  0  0
   -7.7468   -0.0917    0.0098 O   0  0  0  0  0  0  0  0  0  0  0  0
    5.9850    0.6502   -1.5030 C   0  0  0  0  0  0  0  0  0  0  0  0
   -4.0510   -1.2300   -1.6370 N   0  0  0  0  0  0  0  0  0  0  0  0
   -9.2169    1.5076    1.9219 Cl  0  0  0  0  0  0  0  0  0  0  0  0
   -4.5933    2.5878    2.1744 Cl  0  0  0  0  0  0  0  0  0  0  0  0
   -3.1536   -2.1249   -0.9797 C   0  0  0  0  0  0  0  0  0  0  0  0
   -2.0916   -2.7289    1.2070 C   0  0  0  0  0  0  0  0  0  0  0  0
   -6.6890    0.8863    2.4223 C   0  0  0  0  0  0  0  0  0  0  0  0
   -5.8314    1.3484   -0.1979 C   0  0  0  0  0  0  0  0  0  0  0  0
    0.9789   -0.6956    0.9807 C   0  0  0  0  0  0  0  0  0  0  0  0
   -0.9820    0.8786   -0.4952 C   0  0  0  0  0  0  0  0  0  0  0  0
    4.7780   -0.2462   -1.5330 C   0  0  0  0  0  0  0  0  0  0  0  0
    3.5856    0.3900   -0.8450 C   0  0  0  0  0  0  0  0  0  0  0  0
    9.3822    0.1758    1.8071 C   0  0  0  0  0  0  0  0  0  0  0  0
    7.5177    1.8553   -0.1234 C   0  0  0  0  0  0  0  0  0  0  0  0
    6.5991   -0.1903    0.6879 C   0  0  0  0  0  0  0  0  0  0  0  0
    8.8056    1.1107   -0.3297 C   0  0  0  0  0  0  0  0  0  0  0  0
    7.8405   -0.9373    0.3194 C   0  0  0  0  0  0  0  0  0  0  0  0
   -0.9503   -2.0184    1.8088 N   0  0  0  0  0  0  0  0  0  0  0  0
   -3.6529    0.5545    0.2501 N   0  0  0  0  0  0  0  0  0  0  0  0
    0.6554    1.1582   -2.2301 O   0  0  0  0  0  0  0  0  0  0  0  0
    2.4799   -0.4422   -0.8761 O   0  0  0  0  0  0  0  0  0  0  0  0
   -7.3032    1.2026    0.0915 C   0  0  0  0  0  0  0  0  0  0  0  0
   -7.5081    1.7417    1.5049 C   0  0  0  0  0  0  0  0  0  0  0  0
   -5.2047    0.9229    2.1150 C   0  0  0  0  0  0  0  0  0  0  0  0
   -3.0235   -1.8240    0.4678 C   0  0  0  0  0  0  0  0  0  0  0  0
   -4.9993    0.4235    0.6980 C   0  0  0  0  0  0  0  0  0  0  0  0
    0.2219    0.3089   -1.2127 C   0  0  0  0  0  0  0  0  0  0  0  0
    1.3628    0.1027   -0.2544 C   0  0  0  0  0  0  0  0  0  0  0  0
   -2.7347   -0.3941    0.8190 C   0  0  0  0  0  0  0  0  0  0  0  0
   -0.4010   -1.2100    0.7520 C   0  0  0  0  0  0  0  0  0  0  0  0
   -1.3039    0.0182    0.6683 C   0  0  0  0  0  0  0  0  0  0  0  0
    6.3636    0.9530   -0.1658 N   0  0  0  0  0  0  0  0  0  0  0  0
    8.9726   -0.0623    0.4591 N   0  0  0  0  0  0  0  0  0  0  0  0
   -8.7799   -0.2108   -0.9170 C   0  0  0  0  0  0  0  0  0  0  0  0
    0.5244    0.5879   -3.4932 C   0  0  0  0  0  0  0  0  0  0  0  0
   -7.7468   -0.0917    0.0098 O   0  0  0  0  0  0  0  0  0  0  0  0
    5.9850    0.6502   -1.5030 C   0  0  0  0  0  0  0  0  0  0  0  0
   -4.0510   -1.2300   -1.6370 N   0  0  0  0  0  0  0  0  0  0  0  0
   -9.2169    1.5076    1.9219 Cl  0  0  0  0  0  0  0  0  0  0  0  0
   -4.5933    2.5878    2.1744 Cl  0  0  0  0  0  0  0  0  0  0  0  0
   -3.1536   -2.1249   -0.9797 C   0  0  0  0  0  0  0  0  0  0  0  0
   -2.0916   -2.7289    1.2070 C   0  0  0  0  0  0  0  0  0  0  0  0
   -6.6890    0.8863    2.4223 C   0  0  0  0  0  0  0  0  0  0  0  0
   -5.8314    1.3484   -0.1979 C   0  0  0  0  0  0  0  0  0  0  0  0
    0.9789   -0.6956    0.9807 C   0  0  0  0  0  0  0  0  0  0  0  0
   -0.9820    0.8786   -0.4952 C   0  0  0  0  0  0  0  0  0  0  0  0
    4.7780   -0.2462   -1.5330 C   0  0  0  0  0  0  0  0  0  0  0  0
    3.5856    0.3900   -0.8450 C   0  0  0  0  0  0  0  0  0  0  0  0
    9.3822    0.1758    1.8071 C   0  0  0  0  0  0  0  0  0  0  0  0
    7.5177    1.8553   -0.1234 C   0  0  0  0  0  0  0  0  0  0  0  0
    6.5991   -0.1903    0.6879 C   0  0  0  0  0  0  0  0  0  0  0  0
    8.8056    1.1107   -0.3297 C   0  0  0  0  0  0  0  0  0  0  0  0
    7.8405   -0.9373    0.3194 C   0  0  0  0  0  0  0  0  0  0  0  0
   -0.9503   -2.0184    1.8088 N   0  0  0  0  0  0  0  0  0  0  0  0
   -3.6529    0.5545    0.2501 N   0  0  0  0  0  0  0  0  0  0  0  0
    0.6554    1.1582   -2.2301 O   0  0  0  0  0  0  0  0  0  0  0  0
    2.4799   -0.4422   -0.8761 O   0  0  0  0  0  0  0  0  0  0  0  0
   -7.3032    1.2026    0.0915 C   0  0  0  0  0  0  0  0  0  0  0  0
   -7.5081    1.7417    1.5049 C   0  0  0  0  0  0  0  0  0  0  0  0
   -5.2047    0.9229    2.1150 C   0  0  0  0  0  0  0  0  0  0  0  0
   -3.0235   -1.8240    0.4678 C   0  0  0  0  0  0  0  0  0  0  0  0
   -4.9993    0.4235    0.6980 C   0  0  0  0  0  0  0  0  0  0  0  0
    0.2219    0.3089   -1.2127 C   0  0  0  0  0  0  0  0  0  0  0  0
    1.3628    0.1027   -0.2544 C   0  0  0  0  0  0  0  0  0  0  0  0
   -2.7347   -0.3941    0.8190 C   0  0  0  0  0  0  0  0  0  0  0  0
   -0.4010   -1.2100    0.7520 C   0  0  0  0  0  0  0  0  0  0  0  0
   -1.3039    0.0182    0.6683 C   0  0  0  0  0  0  0  0  0  0  0  0
    6.3636    0.9530   -0.1658 N   0  0  0  0  0  0  0  0  0  0  0  0
    8.9726   -0.0623    0.4591 N   0  0  0  0  0  0  0  0  0  0  0  0
   -8.7799   -0.2108   -0.9170 C   0  0  0  0  0  0  0  0  0  0  0  0
    0.8579    1.2396   -4.2972 H   0  0  0  0  0  0  0  0  0  0  0  0
   -0.5694    0.3850   -3.6285 H   0  0  0  0  0  0  0  0  0  0  0  0
    1.0266   -0.4066   -3.5350 H   0  0  0  0  0  0  0  0  0  0  0  0
    5.8015    1.6086   -2.0367 H   0  0  0  0  0  0  0  0  0  0  0  0
    6.8544    0.1602   -2.0292 H   0  0  0  0  0  0  0  0  0  0  0  0
   -3.8786   -1.2730   -2.6773 H   0  0  0  0  0  0  0  0  0  0  0  0
   -5.0275   -1.5654   -1.4830 H   0  0  0  0  0  0  0  0  0  0  0  0
   -3.6150   -3.1461   -1.0537 H   0  0  0  0  0  0  0  0  0  0  0  0
   -2.2304   -2.1846   -1.5649 H   0  0  0  0  0  0  0  0  0  0  0  0
   -1.6223   -3.4175    0.4480 H   0  0  0  0  0  0  0  0  0  0  0  0
   -2.5761   -3.3876    1.9456 H   0  0  0  0  0  0  0  0  0  0  0  0
   -6.7895    1.1890    3.4926 H   0  0  0  0  0  0  0  0  0  0  0  0
   -7.0262   -0.1486    2.3179 H   0  0  0  0  0  0  0  0  0  0  0  0
   -5.5445    2.3868    0.0190 H   0  0  0  0  0  0  0  0  0  0  0  0
   -5.6292    1.0468   -1.2414 H   0  0  0  0  0  0  0  0  0  0  0  0
    0.9789   -0.0901    1.9017 H   0  0  0  0  0  0  0  0  0  0  0  0
    1.6541   -1.5610    1.1324 H   0  0  0  0  0  0  0  0  0  0  0  0
   -0.6655    1.9172   -0.1814 H   0  0  0  0  0  0  0  0  0  0  0  0
   -1.8314    1.0523   -1.1840 H   0  0  0  0  0  0  0  0  0  0  0  0
    4.4758   -0.3436   -2.6243 H   0  0  0  0  0  0  0  0  0  0  0  0
    4.9233   -1.2420   -1.0961 H   0  0  0  0  0  0  0  0  0  0  0  0
    3.3963    1.3874   -1.2814 H   0  0  0  0  0  0  0  0  0  0  0  0
    3.8548    0.5490    0.2177 H   0  0  0  0  0  0  0  0  0  0  0  0
    9.5052   -0.8080    2.3270 H   0  0  0  0  0  0  0  0  0  0  0  0
   10.3701    0.6443    1.8048 H   0  0  0  0  0  0  0  0  0  0  0  0
    8.6941    0.8180    2.3854 H   0  0  0  0  0  0  0  0  0  0  0  0
    7.4055    2.5822   -0.9508 H   0  0  0  0  0  0  0  0  0  0  0  0
    7.5294    2.3704    0.8338 H   0  0  0  0  0  0  0  0  0  0  0  0
    6.6842    0.1175    1.7577 H   0  0  0  0  0  0  0  0  0  0  0  0
    5.7360   -0.8574    0.6408 H   0  0  0  0  0  0  0  0  0  0  0  0
    9.6293    1.8250   -0.0341 H   0  0  0  0  0  0  0  0  0  0  0  0
    8.9948    0.8868   -1.4039 H   0  0  0  0  0  0  0  0  0  0  0  0
    7.9601   -1.7721    1.0436 H   0  0  0  0  0  0  0  0  0  0  0  0
    7.8304   -1.3388   -0.7034 H   0  0  0  0  0  0  0  0  0  0  0  0
   -0.2927   -2.7671    2.1264 H   0  0  0  0  0  0  0  0  0  0  0  0
   -3.3168    1.5031    0.4832 H   0  0  0  0  0  0  0  0  0  0  0  0
   -7.8497    1.8600   -0.5822 H   0  0  0  0  0  0  0  0  0  0  0  0
   -7.2856    2.8068    1.5519 H   0  0  0  0  0  0  0  0  0  0  0  0
   -4.7287    0.2640    2.8701 H   0  0  0  0  0  0  0  0  0  0  0  0
   -4.0473   -2.0269    0.9138 H   0  0  0  0  0  0  0  0  0  0  0  0
   -5.4492   -0.5641    0.6561 H   0  0  0  0  0  0  0  0  0  0  0  0
   -0.1148   -0.6141   -1.7242 H   0  0  0  0  0  0  0  0  0  0  0  0
    1.6598    1.1052    0.1174 H   0  0  0  0  0  0  0  0  0  0  0  0
   -2.9452   -0.3501    1.9404 H   0  0  0  0  0  0  0  0  0  0  0  0
   -0.3856   -1.8219   -0.1438 H   0  0  0  0  0  0  0  0  0  0  0  0
   -0.9930    0.6178    1.5846 H   0  0  0  0  0  0  0  0  0  0  0  0
   -9.6537    0.4386   -0.6265 H   0  0  0  0  0  0  0  0  0  0  0  0
   -9.1931   -1.2487   -0.9049 H   0  0  0  0  0  0  0  0  0  0  0  0
   -8.3976    0.0847   -1.8960 H   0  0  0  0  0  0  0  0  0  0  0  0
    0.8579    1.2396   -4.2972 H   0  0  0  0  0  0  0  0  0  0  0  0
   -0.5694    0.3850   -3.6285 H   0  0  0  0  0  0  0  0  0  0  0  0
    1.0266   -0.4066   -3.5350 H   0  0  0  0  0  0  0  0  0  0  0  0
    5.8015    1.6086   -2.0367 H   0  0  0  0  0  0  0  0  0  0  0  0
    6.8544    0.1602   -2.0292 H   0  0  0  0  0  0  0  0  0  0  0  0
   -3.8786   -1.2730   -2.6773 H   0  0  0  0  0  0  0  0  0  0  0  0
   -5.0275   -1.5654   -1.4830 H   0  0  0  0  0  0  0  0  0  0  0  0
   -3.6150   -3.1461   -1.0537 H   0  0  0  0  0  0  0  0  0  0  0  0
   -2.2304   -2.1846   -1.5649 H   0  0  0  0  0  0  0  0  0  0  0  0
   -1.6223   -3.4175    0.4480 H   0  0  0  0  0  0  0  0  0  0  0  0
   -2.5761   -3.3876    1.9456 H   0  0  0  0  0  0  0  0  0  0  0  0
   -6.7895    1.1890    3.4926 H   0  0  0  0  0  0  0  0  0  0  0  0
   -7.0262   -0.1486    2.3179 H   0  0  0  0  0  0  0  0  0  0  0  0
   -5.5445    2.3868    0.0190 H   0  0  0  0  0  0  0  0  0  0  0  0
   -5.6292    1.0468   -1.2414 H   0  0  0  0  0  0  0  0  0  0  0  0
    0.9789   -0.0901    1.9017 H   0  0  0  0  0  0  0  0  0  0  0  0
    1.6541   -1.5610    1.1324 H   0  0  0  0  0  0  0  0  0  0  0  0
   -0.6655    1.9172   -0.1814 H   0  0  0  0  0  0  0  0  0  0  0  0
   -1.8314    1.0523   -1.1840 H   0  0  0  0  0  0  0  0  0  0  0  0
    4.4758   -0.3436   -2.6243 H   0  0  0  0  0  0  0  0  0  0  0  0
    4.9233   -1.2420   -1.0961 H   0  0  0  0  0  0  0  0  0  0  0  0
    3.3963    1.3874   -1.2814 H   0  0  0  0  0  0  0  0  0  0  0  0
    3.8548    0.5490    0.2177 H   0  0  0  0  0  0  0  0  0  0  0  0
    9.5052   -0.8080    2.3270 H   0  0  0  0  0  0  0  0  0  0  0  0
   10.3701    0.6443    1.8048 H   0  0  0  0  0  0  0  0  0  0  0  0
    8.6941    0.8180    2.3854 H   0  0  0  0  0  0  0  0  0  0  0  0
    7.4055    2.5822   -0.9508 H   0  0  0  0  0  0  0  0  0  0  0  0
    7.5294    2.3704    0.8338 H   0  0  0  0  0  0  0  0  0  0  0  0
    6.6842    0.1175    1.7577 H   0  0  0  0  0  0  0  0  0  0  0  0
    5.7360   -0.8574    0.6408 H   0  0  0  0  0  0  0  0  0  0  0  0
    9.6293    1.8250   -0.0341 H   0  0  0  0  0  0  0  0  0  0  0  0
    8.9948    0.8868   -1.4039 H   0  0  0  0  0  0  0  0  0  0  0  0
    7.9601   -1.7721    1.0436 H   0  0  0  0  0  0  0  0  0  0  0  0
    7.8304   -1.3388   -0.7034 H   0  0  0  0  0  0  0  0  0  0  0  0
   -0.2927   -2.7671    2.1264 H   0  0  0  0  0  0  0  0  0  0  0  0
   -3.3168    1.5031    0.4832 H   0  0  0  0  0  0  0  0  0  0  0  0
   -7.8497    1.8600   -0.5822 H   0  0  0  0  0  0  0  0  0  0  0  0
   -7.2856    2.8068    1.5519 H   0  0  0  0  0  0  0  0  0  0  0  0
   -4.7287    0.2640    2.8701 H   0  0  0  0  0  0  0  0  0  0  0  0
   -4.0473   -2.0269    0.9138 H   0  0  0  0  0  0  0  0  0  0  0  0
   -5.4492   -0.5641    0.6561 H   0  0  0  0  0  0  0  0  0  0  0  0
   -0.1148   -0.6141   -1.7242 H   0  0  0  0  0  0  0  0  0  0  0  0
    1.6598    1.1052    0.1174 H   0  0  0  0  0  0  0  0  0  0  0  0
   -2.9452   -0.3501    1.9404 H   0  0  0  0  0  0  0  0  0  0  0  0
   -0.3856   -1.8219   -0.1438 H   0  0  0  0  0  0  0  0  0  0  0  0
   -0.9930    0.6178    1.5846 H   0  0  0  0  0  0  0  0  0  0  0  0
   -9.6537    0.4386   -0.6265 H   0  0  0  0  0  0  0  0  0  0  0  0
   -9.1931   -1.2487   -0.9049 H   0  0  0  0  0  0  0  0  0  0  0  0
   -8.3976    0.0847   -1.8960 H   0  0  0  0  0  0  0  0  0  0  0  0
  4  7  1  0
  3 13  1  0
 13 14  1  0
 16 18  1  0
 17 19  1  0
  8 20  1  0
  1 22  1  0
 14 23  1  0
  2 24  1  0
 10 24  1  0
  5 25  1  0
  9 25  1  0
 24 25  1  0
  6 26  1  0
  9 26  1  0
  7 27  1  0
  8 27  1  0
 10 28  1  0
 21 28  1  0
 26 28  1  0
 12 29  1  0
 22 29  1  0
 11 30  1  0
 23 30  1  0
 29 30  1  0
 21 31  1  0
 27 31  1  0
 11 32  1  0
 20 32  1  0
 12 33  1  0
 31 33  1  0
 32 33  1  0
  3 34  1  0
 16 34  1  0
 17 34  1  0
 15 35  1  0
 18 35  1  0
 19 35  1  0
  2 36  1  0
 40 43  1  0
 39 49  1  0
 49 50  1  0
 52 54  1  0
 53 55  1  0
 44 56  1  0
 37 58  1  0
 50 59  1  0
 38 60  1  0
 46 60  1  0
 41 61  1  0
 45 61  1  0
 60 61  1  0
 42 62  1  0
 45 62  1  0
 43 63  1  0
 44 63  1  0
 46 64  1  0
 57 64  1  0
 62 64  1  0
 48 65  1  0
 58 65  1  0
 47 66  1  0
 59 66  1  0
 65 66  1  0
 57 67  1  0
 63 67  1  0
 47 68  1  0
 56 68  1  0
 48 69  1  0
 67 69  1  0
 68 69  1  0
 39 70  1  0
 52 70  1  0
 53 70  1  0
 51 71  1  0
 54 71  1  0
 55 71  1  0
 38 72  1  0
  1 73  1  0
  1 74  1  0
  1 75  1  0
  3 76  1  0
  3 77  1  0
  4 78  1  0
  4 79  1  0
  7 80  1  0
  7 81  1  0
  8 82  1  0
  8 83  1  0
  9 84  1  0
  9 85  1  0
 10 86  1  0
 10 87  1  0
 11 88  1  0
 11 89  1  0
 12 90  1  0
 12 91  1  0
 13 92  1  0
 13 93  1  0
 14 94  1  0
 14 95  1  0
 15 96  1  0
 15 97  1  0
 15 98  1  0
 16 99  1  0
 16100  1  0
 17101  1  0
 17102  1  0
 18103  1  0
 18104  1  0
 19105  1  0
 19106  1  0
 20107  1  0
 21108  1  0
 24109  1  0
 25110  1  0
 26111  1  0
 27112  1  0
 28113  1  0
 29114  1  0
 30115  1  0
 31116  1  0
 32117  1  0
 33118  1  0
 36119  1  0
 36120  1  0
 36121  1  0
 37122  1  0
 37123  1  0
 37124  1  0
 39125  1  0
 39126  1  0
 40127  1  0
 40128  1  0
 43129  1  0
 43130  1  0
 44131  1  0
 44132  1  0
 45133  1  0
 45134  1  0
 46135  1  0
 46136  1  0
 47137  1  0
 47138  1  0
 48139  1  0
 48140  1  0
 49141  1  0
 49142  1  0
 50143  1  0
 50144  1  0
 51145  1  0
 51146  1  0
 51147  1  0
 52148  1  0
 52149  1  0
 53150  1  0
 53151  1  0
 54152  1  0
 54153  1  0
 55154  1  0
 55155  1  0
 56156  1  0
 57157  1  0
 60158  1  0
 61159  1  0
 62160  1  0
 63161  1  0
 64162  1  0
 65163  1  0
 66164  1  0
 67165  1  0
 68166  1  0
 69167  1  0
 72168  1  0
 72169  1  0
 72170  1  0
M  END
>  <PDBID>  (1) 
3UE4

>  <PDB ID>  (1) 
3UE4

>  <Generic Name>  (1) 
Bosutinib

>  <Brand Name>  (1) 
Bosulif

>  <DrugBank ID>  (1) 
DB06616

>  <ATC Codes>  (1) 
L01XE14

>  <Ligand ID>  (1) 
DB8

>  <Target Name>  (1) 
Tyrosine-protein kinase ABL1

>  <UniProt ID>  (1) 
P00519

>  <PDB ID.1>  (1) 
3UE4

>  <Seq. Identity>  (1) 
95%

$$$$
