PDB_DB00428_02
     RDKit          3D

 37 37  0  0  0  0  0  0  0  0999 V2000
    1.9699    1.7371   -0.9937 O   0  0  0  0  0  0  0  0  0  0  0  0
    1.2139    0.6484   -1.3525 C   0  0  1  0  0  0  0  0  0  0  0  0
    1.9461   -0.6662   -1.0878 C   0  0  2  0  0  0  0  0  0  0  0  0
    1.0747   -1.7408   -1.0499 O   0  0  0  0  0  0  0  0  0  0  0  0
    2.5838   -0.5258    0.2758 C   0  0  1  0  0  0  0  0  0  0  0  0
    4.0370   -0.1234    0.0274 C   0  0  0  0  0  0  0  0  0  0  0  0
    4.7300    0.0536    1.2228 O   0  0  0  0  0  0  0  0  0  0  0  0
    1.9723    0.4653    1.0008 O   0  0  0  0  0  0  0  0  0  0  0  0
    0.5825    0.4228    0.9808 C   0  0  1  0  0  0  0  0  0  0  0  0
    0.1748    1.5365    1.7546 O   0  0  0  0  0  0  0  0  0  0  0  0
   -0.0042    0.5955   -0.4002 C   0  0  2  0  0  0  0  0  0  0  0  0
   -0.7513   -0.5214   -0.8526 N   0  0  0  0  0  0  0  0  0  0  0  0
   -1.8325   -0.9887   -0.0808 C   0  0  0  0  0  0  0  0  0  0  0  0
   -2.3313   -2.1392   -0.7533 O   0  0  0  0  0  0  0  0  0  0  0  0
   -2.9374   -0.0522   -0.1237 N   0  0  0  0  0  0  0  0  0  0  0  0
   -4.0658   -0.5937    0.6296 C   0  0  0  0  0  0  0  0  0  0  0  0
   -2.6071    1.2266    0.3309 N   0  0  0  0  0  0  0  0  0  0  0  0
   -3.4284    2.1706   -0.1285 O   0  0  0  0  0  0  0  0  0  0  0  0
    1.5338    2.3320   -0.3455 H   0  0  0  0  0  0  0  0  0  0  0  0
    0.8273    0.6682   -2.3746 H   0  0  0  0  0  0  0  0  0  0  0  0
    2.6913   -0.8742   -1.8821 H   0  0  0  0  0  0  0  0  0  0  0  0
    1.3459   -2.4029   -0.3711 H   0  0  0  0  0  0  0  0  0  0  0  0
    2.6297   -1.4924    0.8246 H   0  0  0  0  0  0  0  0  0  0  0  0
    4.1065    0.8089   -0.5726 H   0  0  0  0  0  0  0  0  0  0  0  0
    4.5668   -0.9055   -0.5740 H   0  0  0  0  0  0  0  0  0  0  0  0
    4.1609    0.5698    1.8571 H   0  0  0  0  0  0  0  0  0  0  0  0
    0.1842   -0.4646    1.5108 H   0  0  0  0  0  0  0  0  0  0  0  0
    0.3987    1.3793    2.7248 H   0  0  0  0  0  0  0  0  0  0  0  0
   -0.4765    1.5852   -0.5264 H   0  0  0  0  0  0  0  0  0  0  0  0
   -0.9592   -0.4133   -1.8616 H   0  0  0  0  0  0  0  0  0  0  0  0
   -1.5828   -1.3050    0.9422 H   0  0  0  0  0  0  0  0  0  0  0  0
   -2.2919   -1.9153   -1.7342 H   0  0  0  0  0  0  0  0  0  0  0  0
   -4.1548   -1.6631    0.3542 H   0  0  0  0  0  0  0  0  0  0  0  0
   -4.9762   -0.0777    0.2824 H   0  0  0  0  0  0  0  0  0  0  0  0
   -3.8845   -0.4719    1.7188 H   0  0  0  0  0  0  0  0  0  0  0  0
   -2.5275    1.2202    1.3518 H   0  0  0  0  0  0  0  0  0  0  0  0
   -3.9187    1.9175   -0.9492 H   0  0  0  0  0  0  0  0  0  0  0  0
  1  2  1  0
  2  3  1  0
  3  4  1  0
  3  5  1  0
  5  6  1  0
  6  7  1  0
  5  8  1  0
  8  9  1  0
  9 10  1  0
  2 11  1  0
  9 11  1  0
 11 12  1  0
 12 13  1  0
 13 14  1  0
 13 15  1  0
 15 16  1  0
 15 17  1  0
 17 18  1  0
  1 19  1  0
  2 20  1  6
  3 21  1  6
  4 22  1  0
  5 23  1  1
  6 24  1  0
  6 25  1  0
  7 26  1  0
  9 27  1  1
 10 28  1  0
 11 29  1  1
 12 30  1  0
 13 31  1  0
 14 32  1  0
 16 33  1  0
 16 34  1  0
 16 35  1  0
 17 36  1  0
 18 37  1  0
M  END
>  <PDBID>  (1) 
2W4X

>  <PDB ID>  (1) 
2W4X

>  <Generic Name>  (1) 
Streptozocin

>  <Brand Name>  (1) 
Zanosar#Zanosar Sterile Powder

>  <DrugBank ID>  (1) 
DB00428

>  <ATC Codes>  (1) 
L01AD04

>  <Ligand ID>  (1) 
STZ

>  <Target Name>  (1) 
O-GlcNAcase BT_4395

>  <UniProt ID>  (1) 
Q89ZI2

>  <PDB ID.1>  (1) 
2W4X

>  <Seq. Identity>  (1) 
100%

$$$$
