PDB_DB06626_02
     RDKit          3D

 70 73  0  0  0  0  0  0  0  0999 V2000
   -3.6991    1.0212   -2.1573 O   0  0  0  0  0  0  0  0  0  0  0  0
   -3.9896   -0.0360   -1.2141 C   0  0  0  0  0  0  0  0  0  0  0  0
   -5.1611   -0.6943   -1.6453 N   0  0  0  0  0  0  0  0  0  0  0  0
   -5.6452   -1.8318   -0.9809 C   0  0  0  0  0  0  0  0  0  0  0  0
   -3.9644    0.6184    0.1114 C   0  0  0  0  0  0  0  0  0  0  0  0
   -5.0157    1.7113    0.2491 C   0  0  0  0  0  0  0  0  0  0  0  0
   -6.3407    1.2185    0.7204 C   0  0  0  0  0  0  0  0  0  0  0  0
   -6.3021    0.3097    1.8870 C   0  0  0  0  0  0  0  0  0  0  0  0
   -3.8533   -0.1346    1.3450 C   0  0  0  0  0  0  0  0  0  0  0  0
   -5.1060   -0.5078    2.0871 C   0  0  0  0  0  0  0  0  0  0  0  0
   -2.7158   -1.5126    1.2268 S   0  0  0  0  0  0  0  0  0  0  0  0
   -0.9951   -1.1178    1.0753 C   0  0  0  0  0  0  0  0  0  0  0  0
   -0.5376   -0.5276   -0.2215 C   0  0  0  0  0  0  0  0  0  0  0  0
    0.9862   -0.2917   -0.0266 C   0  0  0  0  0  0  0  0  0  0  0  0
   -0.4609   -0.3324    2.2639 C   0  0  0  0  0  0  0  0  0  0  0  0
    0.1322    0.9813    1.9109 C   0  0  0  0  0  0  0  0  0  0  0  0
    0.9683    1.3973    3.0384 N   0  0  0  0  0  0  0  0  0  0  0  0
    2.2503    0.8707    2.7166 N   0  0  0  0  0  0  0  0  0  0  0  0
    2.3607    1.3445    1.3543 C   0  0  0  0  0  0  0  0  0  0  0  0
    1.0832    0.9719    0.7346 C   0  0  0  0  0  0  0  0  0  0  0  0
    3.6319    1.1155    0.6863 C   0  0  0  0  0  0  0  0  0  0  0  0
    4.1603   -0.2460    0.5094 C   0  0  0  0  0  0  0  0  0  0  0  0
    5.5302   -0.2421   -0.2098 C   0  0  0  0  0  0  0  0  0  0  0  0
    5.9052   -1.6203   -0.3010 N   0  0  0  0  0  0  0  0  0  0  0  0
    6.7339   -1.9624   -1.4046 C   0  0  0  0  0  0  0  0  0  0  0  0
    7.3703   -0.7981   -2.0887 C   0  0  0  0  0  0  0  0  0  0  0  0
    6.2561    0.0886   -2.5973 C   0  0  0  0  0  0  0  0  0  0  0  0
    5.3308    0.4555   -1.5021 C   0  0  0  0  0  0  0  0  0  0  0  0
   -4.5785    1.3131   -2.5074 H   0  0  0  0  0  0  0  0  0  0  0  0
   -3.1387   -0.7295   -1.3693 H   0  0  0  0  0  0  0  0  0  0  0  0
   -5.0799   -0.8283   -2.6924 H   0  0  0  0  0  0  0  0  0  0  0  0
   -6.2192   -2.4640   -1.7497 H   0  0  0  0  0  0  0  0  0  0  0  0
   -6.4442   -1.5905   -0.2445 H   0  0  0  0  0  0  0  0  0  0  0  0
   -4.8309   -2.4562   -0.5599 H   0  0  0  0  0  0  0  0  0  0  0  0
   -3.0008    1.2706    0.0545 H   0  0  0  0  0  0  0  0  0  0  0  0
   -4.6174    2.4587    0.9656 H   0  0  0  0  0  0  0  0  0  0  0  0
   -5.1143    2.1898   -0.7455 H   0  0  0  0  0  0  0  0  0  0  0  0
   -6.8690    0.7566   -0.1382 H   0  0  0  0  0  0  0  0  0  0  0  0
   -6.9455    2.1501    0.9397 H   0  0  0  0  0  0  0  0  0  0  0  0
   -7.2324   -0.3366    1.8785 H   0  0  0  0  0  0  0  0  0  0  0  0
   -6.4681    0.9540    2.8045 H   0  0  0  0  0  0  0  0  0  0  0  0
   -3.3228    0.5842    2.0979 H   0  0  0  0  0  0  0  0  0  0  0  0
   -5.3242   -1.5680    1.8496 H   0  0  0  0  0  0  0  0  0  0  0  0
   -4.8704   -0.5638    3.2001 H   0  0  0  0  0  0  0  0  0  0  0  0
   -0.4360   -2.1126    1.1442 H   0  0  0  0  0  0  0  0  0  0  0  0
   -0.5611   -1.3433   -1.0045 H   0  0  0  0  0  0  0  0  0  0  0  0
   -1.0158    0.3733   -0.5623 H   0  0  0  0  0  0  0  0  0  0  0  0
    1.3262   -1.1659    0.5553 H   0  0  0  0  0  0  0  0  0  0  0  0
    1.4199   -0.2089   -1.0429 H   0  0  0  0  0  0  0  0  0  0  0  0
    0.1845   -0.9444    2.9232 H   0  0  0  0  0  0  0  0  0  0  0  0
   -1.3681   -0.1096    2.9013 H   0  0  0  0  0  0  0  0  0  0  0  0
   -0.6693    1.7439    1.8259 H   0  0  0  0  0  0  0  0  0  0  0  0
    0.9961    2.4426    3.0731 H   0  0  0  0  0  0  0  0  0  0  0  0
    2.1631   -0.1475    2.7973 H   0  0  0  0  0  0  0  0  0  0  0  0
    2.2949    2.4941    1.4925 H   0  0  0  0  0  0  0  0  0  0  0  0
    0.6860    1.7878    0.0476 H   0  0  0  0  0  0  0  0  0  0  0  0
    3.5743    1.6306   -0.3233 H   0  0  0  0  0  0  0  0  0  0  0  0
    4.4378    1.7199    1.2067 H   0  0  0  0  0  0  0  0  0  0  0  0
    4.3240   -0.8219    1.4243 H   0  0  0  0  0  0  0  0  0  0  0  0
    3.5261   -0.8249   -0.1904 H   0  0  0  0  0  0  0  0  0  0  0  0
    6.2153    0.3039    0.4677 H   0  0  0  0  0  0  0  0  0  0  0  0
    6.3110   -1.9061    0.6308 H   0  0  0  0  0  0  0  0  0  0  0  0
    7.4765   -2.7188   -1.0530 H   0  0  0  0  0  0  0  0  0  0  0  0
    6.1023   -2.4948   -2.1530 H   0  0  0  0  0  0  0  0  0  0  0  0
    7.9510   -1.1879   -2.9526 H   0  0  0  0  0  0  0  0  0  0  0  0
    8.0148   -0.2828   -1.3509 H   0  0  0  0  0  0  0  0  0  0  0  0
    6.7518    0.9652   -3.0810 H   0  0  0  0  0  0  0  0  0  0  0  0
    5.7189   -0.4856   -3.3742 H   0  0  0  0  0  0  0  0  0  0  0  0
    4.2788    0.3425   -1.8643 H   0  0  0  0  0  0  0  0  0  0  0  0
    5.4400    1.5620   -1.3217 H   0  0  0  0  0  0  0  0  0  0  0  0
  1  2  1  0
  2  3  1  0
  3  4  1  0
  2  5  1  0
  5  6  1  0
  6  7  1  0
  7  8  1  0
  5  9  1  0
  8 10  1  0
  9 10  1  0
  9 11  1  0
 11 12  1  0
 12 13  1  0
 13 14  1  0
 12 15  1  0
 15 16  1  0
 16 17  1  0
 17 18  1  0
 18 19  1  0
 14 20  1  0
 16 20  1  0
 19 20  1  0
 19 21  1  0
 21 22  1  0
 22 23  1  0
 23 24  1  0
 24 25  1  0
 25 26  1  0
 26 27  1  0
 23 28  1  0
 27 28  1  0
  1 29  1  0
  2 30  1  0
  3 31  1  0
  4 32  1  0
  4 33  1  0
  4 34  1  0
  5 35  1  0
  6 36  1  0
  6 37  1  0
  7 38  1  0
  7 39  1  0
  8 40  1  0
  8 41  1  0
  9 42  1  0
 10 43  1  0
 10 44  1  0
 12 45  1  0
 13 46  1  0
 13 47  1  0
 14 48  1  0
 14 49  1  0
 15 50  1  0
 15 51  1  0
 16 52  1  0
 17 53  1  0
 18 54  1  0
 19 55  1  0
 20 56  1  0
 21 57  1  0
 21 58  1  0
 22 59  1  0
 22 60  1  0
 23 61  1  0
 24 62  1  0
 25 63  1  0
 25 64  1  0
 26 65  1  0
 26 66  1  0
 27 67  1  0
 27 68  1  0
 28 69  1  0
 28 70  1  0
M  END
>  <PDBID>  (1) 
4AG8

>  <PDB ID>  (1) 
4AG8

>  <Generic Name>  (1) 
Axitinib

>  <Brand Name>  (1) 
Inlyta

>  <DrugBank ID>  (1) 
DB06626

>  <ATC Codes>  (1) 
L01XE17

>  <Ligand ID>  (1) 
AXI

>  <Target Name>  (1) 
Vascular endothelial growth factor receptor 3

>  <UniProt ID>  (1) 
P35916

>  <PDB ID.1>  (1) 
4AG8

>  <Seq. Identity>  (1) 
67%

$$$$
