PDB_DB00300_04
     RDKit          3D

 41 42  0  0  0  0  0  0  0  0999 V2000
    3.6165    0.4656    1.2288 P   0  0  0  0  0  0  0  0  0  0  0  0
    4.7033   -0.3796    2.1938 O   0  0  0  0  0  0  0  0  0  0  0  0
    3.8809    2.0905    1.3671 O   0  0  0  0  0  0  0  0  0  0  0  0
    3.9535   -0.0780   -0.4427 C   0  0  0  0  0  0  0  0  0  0  0  0
    2.9701    0.2397   -1.3626 O   0  0  0  0  0  0  0  0  0  0  0  0
    1.4211   -1.3000   -2.1336 C   0  0  0  0  0  0  0  0  0  0  0  0
    1.7304   -0.3132   -1.0410 C   0  0  2  0  0  0  0  0  0  0  0  0
    0.7319    0.7502   -0.8454 C   0  0  0  0  0  0  0  0  0  0  0  0
   -0.5744    0.4527   -0.5004 N   0  0  0  0  0  0  0  0  0  0  0  0
   -0.8496   -0.0727    0.7882 C   0  0  1  0  0  0  0  0  0  0  0  0
   -1.3210    0.9558    1.7218 N   0  0  0  0  0  0  0  0  0  0  0  0
   -2.3212    1.7601    1.0462 C   0  0  0  0  0  0  0  0  0  0  0  0
   -3.4573    0.9687    0.6452 N   0  0  0  0  0  0  0  0  0  0  0  0
   -3.3219   -0.4344    0.9895 C   0  0  0  0  0  0  0  0  0  0  0  0
   -4.4292   -1.1309    0.3891 N   0  0  0  0  0  0  0  0  0  0  0  0
   -2.0132   -1.0105    0.5511 C   0  0  0  0  0  0  0  0  0  0  0  0
   -2.0167   -1.2777   -0.8755 N   0  0  0  0  0  0  0  0  0  0  0  0
   -1.4826   -0.0535   -1.4483 C   0  0  0  0  0  0  0  0  0  0  0  0
    2.3279    0.1441    1.5886 H   0  0  0  0  0  0  0  0  0  0  0  0
    4.7784   -1.3146    1.8315 H   0  0  0  0  0  0  0  0  0  0  0  0
    4.5197    2.4328    0.6942 H   0  0  0  0  0  0  0  0  0  0  0  0
    4.8790    0.4548   -0.7755 H   0  0  0  0  0  0  0  0  0  0  0  0
    4.2150   -1.1559   -0.4114 H   0  0  0  0  0  0  0  0  0  0  0  0
    2.3741   -1.8988   -2.2597 H   0  0  0  0  0  0  0  0  0  0  0  0
    0.6507   -2.0419   -1.8852 H   0  0  0  0  0  0  0  0  0  0  0  0
    1.2274   -0.8143   -3.1057 H   0  0  0  0  0  0  0  0  0  0  0  0
    1.8691   -0.8821   -0.1026 H   0  0  0  0  0  0  0  0  0  0  0  0
    0.7312    1.4104   -1.7571 H   0  0  0  0  0  0  0  0  0  0  0  0
    1.1573    1.4337   -0.0465 H   0  0  0  0  0  0  0  0  0  0  0  0
    0.0260   -0.5471    1.2558 H   0  0  0  0  0  0  0  0  0  0  0  0
   -0.5415    1.6015    1.9856 H   0  0  0  0  0  0  0  0  0  0  0  0
   -1.8608    2.2095    0.1312 H   0  0  0  0  0  0  0  0  0  0  0  0
   -2.6458    2.5930    1.6784 H   0  0  0  0  0  0  0  0  0  0  0  0
   -4.3504    1.2903    1.0724 H   0  0  0  0  0  0  0  0  0  0  0  0
   -3.4303   -0.5439    2.1025 H   0  0  0  0  0  0  0  0  0  0  0  0
   -4.7105   -0.7355   -0.5350 H   0  0  0  0  0  0  0  0  0  0  0  0
   -4.3343   -2.1584    0.3881 H   0  0  0  0  0  0  0  0  0  0  0  0
   -1.8169   -1.9313    1.1271 H   0  0  0  0  0  0  0  0  0  0  0  0
   -2.9434   -1.5356   -1.2330 H   0  0  0  0  0  0  0  0  0  0  0  0
   -2.3586    0.6358   -1.6141 H   0  0  0  0  0  0  0  0  0  0  0  0
   -0.9839   -0.2792   -2.4009 H   0  0  0  0  0  0  0  0  0  0  0  0
  1  2  1  0
  1  3  1  0
  1  4  1  0
  4  5  1  0
  5  7  1  0
  6  7  1  0
  7  8  1  0
  8  9  1  0
  9 10  1  0
 10 11  1  0
 11 12  1  0
 12 13  1  0
 13 14  1  0
 14 15  1  0
 10 16  1  0
 14 16  1  0
 16 17  1  0
  9 18  1  0
 17 18  1  0
  1 19  1  0
  2 20  1  0
  3 21  1  0
  4 22  1  0
  4 23  1  0
  6 24  1  0
  6 25  1  0
  6 26  1  0
  7 27  1  1
  8 28  1  0
  8 29  1  0
 10 30  1  1
 11 31  1  0
 12 32  1  0
 12 33  1  0
 13 34  1  0
 14 35  1  0
 15 36  1  0
 15 37  1  0
 16 38  1  0
 17 39  1  0
 18 40  1  0
 18 41  1  0
M  END
>  <PDBID>  (1) 
1T03

>  <PDB ID>  (1) 
1T03

>  <Generic Name>  (1) 
Tenofovir

>  <Brand Name>  (1) 
Atripla#Complera#Stribild#Truvada#Viread

>  <DrugBank ID>  (1) 
DB00300

>  <ATC Codes>  (1) 
nan

>  <Ligand ID>  (1) 
TFO

>  <Target Name>  (1) 
Reverse transcriptase/RNaseH

>  <UniProt ID>  (1) 
Q72547

>  <PDB ID.1>  (1) 
1T03

>  <Seq. Identity>  (1) 
95%

$$$$
