PDB_DB01283_00
     RDKit          3D

 94 96  0  0  0  0  0  0  0  0999 V2000
   -2.3076    3.9837    0.7660 O   0  0  0  0  0  0  0  0  0  0  0  0
   -1.6741    2.9239    0.0431 C   0  0  0  0  0  0  0  0  0  0  0  0
   -2.0361    3.2124   -1.3009 O   0  0  0  0  0  0  0  0  0  0  0  0
   -2.2877    1.6708    0.5184 C   0  0  0  0  0  0  0  0  0  0  0  0
   -1.8469    0.3737   -0.0430 C   0  0  0  0  0  0  0  0  0  0  0  0
   -2.7556   -0.7005    0.6521 C   0  0  0  0  0  0  0  0  0  0  0  0
   -2.8377   -1.9349   -0.1974 C   0  0  0  0  0  0  0  0  0  0  0  0
   -3.1241   -3.1367    0.6993 C   0  0  0  0  0  0  0  0  0  0  0  0
   -1.4794   -2.0720   -0.8711 C   0  0  0  0  0  0  0  0  0  0  0  0
   -0.4624   -1.6031    0.1470 C   0  0  0  0  0  0  0  0  0  0  0  0
   -0.4510   -0.0962    0.3428 C   0  0  0  0  0  0  0  0  0  0  0  0
    0.5187    0.5991   -0.4097 N   0  0  0  0  0  0  0  0  0  0  0  0
    1.7955   -0.1054   -0.6229 C   0  0  0  0  0  0  0  0  0  0  0  0
    2.4675   -0.3193    0.6870 C   0  0  0  0  0  0  0  0  0  0  0  0
    2.3914    1.1722    1.6661 Cl  0  0  0  0  0  0  0  0  0  0  0  0
    3.9233   -0.6837    0.5209 C   0  0  0  0  0  0  0  0  0  0  0  0
    4.5892    0.5464   -0.0879 C   0  0  0  0  0  0  0  0  0  0  0  0
    4.0538    0.6052   -1.5141 C   0  0  0  0  0  0  0  0  0  0  0  0
    2.6047    0.9134   -1.4384 C   0  0  0  0  0  0  0  0  0  0  0  0
    2.0235    0.9079   -2.7034 F   0  0  0  0  0  0  0  0  0  0  0  0
   -2.3076    3.9837    0.7660 O   0  0  0  0  0  0  0  0  0  0  0  0
   -1.6741    2.9239    0.0431 C   0  0  0  0  0  0  0  0  0  0  0  0
   -2.0361    3.2124   -1.3009 O   0  0  0  0  0  0  0  0  0  0  0  0
   -2.2877    1.6708    0.5184 C   0  0  0  0  0  0  0  0  0  0  0  0
   -1.8469    0.3737   -0.0430 C   0  0  0  0  0  0  0  0  0  0  0  0
   -2.7556   -0.7005    0.6521 C   0  0  0  0  0  0  0  0  0  0  0  0
   -2.8377   -1.9349   -0.1974 C   0  0  0  0  0  0  0  0  0  0  0  0
   -3.1241   -3.1367    0.6993 C   0  0  0  0  0  0  0  0  0  0  0  0
   -1.4794   -2.0720   -0.8711 C   0  0  0  0  0  0  0  0  0  0  0  0
   -0.4624   -1.6031    0.1470 C   0  0  0  0  0  0  0  0  0  0  0  0
   -0.4510   -0.0962    0.3428 C   0  0  0  0  0  0  0  0  0  0  0  0
    0.5187    0.5991   -0.4097 N   0  0  0  0  0  0  0  0  0  0  0  0
    1.7955   -0.1054   -0.6229 C   0  0  0  0  0  0  0  0  0  0  0  0
    2.4675   -0.3193    0.6870 C   0  0  0  0  0  0  0  0  0  0  0  0
    2.3914    1.1722    1.6661 Cl  0  0  0  0  0  0  0  0  0  0  0  0
    3.9233   -0.6837    0.5209 C   0  0  0  0  0  0  0  0  0  0  0  0
    4.5892    0.5464   -0.0879 C   0  0  0  0  0  0  0  0  0  0  0  0
    4.0538    0.6052   -1.5141 C   0  0  0  0  0  0  0  0  0  0  0  0
    2.6047    0.9134   -1.4384 C   0  0  0  0  0  0  0  0  0  0  0  0
    2.0235    0.9079   -2.7034 F   0  0  0  0  0  0  0  0  0  0  0  0
   -3.2719    3.7562    0.8479 H   0  0  0  0  0  0  0  0  0  0  0  0
   -0.5997    3.0416    0.0679 H   0  0  0  0  0  0  0  0  0  0  0  0
   -2.9881    3.4173   -1.3832 H   0  0  0  0  0  0  0  0  0  0  0  0
   -3.4061    1.7410    0.3061 H   0  0  0  0  0  0  0  0  0  0  0  0
   -2.2791    1.5929    1.6558 H   0  0  0  0  0  0  0  0  0  0  0  0
   -2.0631    0.2966   -1.1053 H   0  0  0  0  0  0  0  0  0  0  0  0
   -3.7456   -0.2589    0.8281 H   0  0  0  0  0  0  0  0  0  0  0  0
   -2.3160   -0.9292    1.6310 H   0  0  0  0  0  0  0  0  0  0  0  0
   -3.6434   -1.8082   -0.9251 H   0  0  0  0  0  0  0  0  0  0  0  0
   -2.8558   -4.0860    0.2414 H   0  0  0  0  0  0  0  0  0  0  0  0
   -2.6107   -2.9850    1.6748 H   0  0  0  0  0  0  0  0  0  0  0  0
   -4.2153   -3.1129    0.8818 H   0  0  0  0  0  0  0  0  0  0  0  0
   -1.5009   -1.5006   -1.7985 H   0  0  0  0  0  0  0  0  0  0  0  0
   -1.2512   -3.1551   -1.0346 H   0  0  0  0  0  0  0  0  0  0  0  0
   -0.7198   -2.0715    1.1273 H   0  0  0  0  0  0  0  0  0  0  0  0
    0.4874   -2.0411   -0.1511 H   0  0  0  0  0  0  0  0  0  0  0  0
   -0.3483    0.1416    1.4415 H   0  0  0  0  0  0  0  0  0  0  0  0
    0.8572    1.4025    0.2340 H   0  0  0  0  0  0  0  0  0  0  0  0
    1.7269   -0.9835   -1.2428 H   0  0  0  0  0  0  0  0  0  0  0  0
    2.0202   -1.1056    1.3057 H   0  0  0  0  0  0  0  0  0  0  0  0
    4.0362   -1.4826   -0.2382 H   0  0  0  0  0  0  0  0  0  0  0  0
    4.3739   -0.9649    1.4840 H   0  0  0  0  0  0  0  0  0  0  0  0
    4.3205    1.4497    0.4593 H   0  0  0  0  0  0  0  0  0  0  0  0
    5.6811    0.4287   -0.1245 H   0  0  0  0  0  0  0  0  0  0  0  0
    4.5409    1.4223   -2.0769 H   0  0  0  0  0  0  0  0  0  0  0  0
    4.2290   -0.3760   -1.9614 H   0  0  0  0  0  0  0  0  0  0  0  0
    2.4369    1.9141   -0.9644 H   0  0  0  0  0  0  0  0  0  0  0  0
   -3.2719    3.7562    0.8479 H   0  0  0  0  0  0  0  0  0  0  0  0
   -0.5997    3.0416    0.0679 H   0  0  0  0  0  0  0  0  0  0  0  0
   -2.9881    3.4173   -1.3832 H   0  0  0  0  0  0  0  0  0  0  0  0
   -3.4061    1.7410    0.3061 H   0  0  0  0  0  0  0  0  0  0  0  0
   -2.2791    1.5929    1.6558 H   0  0  0  0  0  0  0  0  0  0  0  0
   -2.0631    0.2966   -1.1053 H   0  0  0  0  0  0  0  0  0  0  0  0
   -3.7456   -0.2589    0.8281 H   0  0  0  0  0  0  0  0  0  0  0  0
   -2.3160   -0.9292    1.6310 H   0  0  0  0  0  0  0  0  0  0  0  0
   -3.6434   -1.8082   -0.9251 H   0  0  0  0  0  0  0  0  0  0  0  0
   -2.8558   -4.0860    0.2414 H   0  0  0  0  0  0  0  0  0  0  0  0
   -2.6107   -2.9850    1.6748 H   0  0  0  0  0  0  0  0  0  0  0  0
   -4.2153   -3.1129    0.8818 H   0  0  0  0  0  0  0  0  0  0  0  0
   -1.5009   -1.5006   -1.7985 H   0  0  0  0  0  0  0  0  0  0  0  0
   -1.2512   -3.1551   -1.0346 H   0  0  0  0  0  0  0  0  0  0  0  0
   -0.7198   -2.0715    1.1273 H   0  0  0  0  0  0  0  0  0  0  0  0
    0.4874   -2.0411   -0.1511 H   0  0  0  0  0  0  0  0  0  0  0  0
   -0.3483    0.1416    1.4415 H   0  0  0  0  0  0  0  0  0  0  0  0
    0.8572    1.4025    0.2340 H   0  0  0  0  0  0  0  0  0  0  0  0
    1.7269   -0.9835   -1.2428 H   0  0  0  0  0  0  0  0  0  0  0  0
    2.0202   -1.1056    1.3057 H   0  0  0  0  0  0  0  0  0  0  0  0
    4.0362   -1.4826   -0.2382 H   0  0  0  0  0  0  0  0  0  0  0  0
    4.3739   -0.9649    1.4840 H   0  0  0  0  0  0  0  0  0  0  0  0
    4.3205    1.4497    0.4593 H   0  0  0  0  0  0  0  0  0  0  0  0
    5.6811    0.4287   -0.1245 H   0  0  0  0  0  0  0  0  0  0  0  0
    4.5409    1.4223   -2.0769 H   0  0  0  0  0  0  0  0  0  0  0  0
    4.2290   -0.3760   -1.9614 H   0  0  0  0  0  0  0  0  0  0  0  0
    2.4369    1.9141   -0.9644 H   0  0  0  0  0  0  0  0  0  0  0  0
  1  2  1  0
  2  3  1  0
  2  4  1  0
  4  5  1  0
  5  6  1  0
  6  7  1  0
  7  8  1  0
  7  9  1  0
  9 10  1  0
  5 11  1  0
 10 11  1  0
 11 12  1  0
 12 13  1  0
 13 14  1  0
 14 15  1  0
 14 16  1  0
 16 17  1  0
 17 18  1  0
 13 19  1  0
 18 19  1  0
 19 20  1  0
 21 22  1  0
 22 23  1  0
 22 24  1  0
 24 25  1  0
 25 26  1  0
 26 27  1  0
 27 28  1  0
 27 29  1  0
 29 30  1  0
 25 31  1  0
 30 31  1  0
 31 32  1  0
 32 33  1  0
 33 34  1  0
 34 35  1  0
 34 36  1  0
 36 37  1  0
 37 38  1  0
 33 39  1  0
 38 39  1  0
 39 40  1  0
  1 41  1  0
  2 42  1  0
  3 43  1  0
  4 44  1  0
  4 45  1  0
  5 46  1  0
  6 47  1  0
  6 48  1  0
  7 49  1  0
  8 50  1  0
  8 51  1  0
  8 52  1  0
  9 53  1  0
  9 54  1  0
 10 55  1  0
 10 56  1  0
 11 57  1  0
 12 58  1  0
 13 59  1  0
 14 60  1  0
 16 61  1  0
 16 62  1  0
 17 63  1  0
 17 64  1  0
 18 65  1  0
 18 66  1  0
 19 67  1  0
 21 68  1  0
 22 69  1  0
 23 70  1  0
 24 71  1  0
 24 72  1  0
 25 73  1  0
 26 74  1  0
 26 75  1  0
 27 76  1  0
 28 77  1  0
 28 78  1  0
 28 79  1  0
 29 80  1  0
 29 81  1  0
 30 82  1  0
 30 83  1  0
 31 84  1  0
 32 85  1  0
 33 86  1  0
 34 87  1  0
 36 88  1  0
 36 89  1  0
 37 90  1  0
 37 91  1  0
 38 92  1  0
 38 93  1  0
 39 94  1  0
M  END
>  <PDBID>  (1) 
4OTY

>  <PDB ID>  (1) 
4OTY

>  <Generic Name>  (1) 
Lumiracoxib

>  <Brand Name>  (1) 
Prexige

>  <DrugBank ID>  (1) 
DB01283

>  <ATC Codes>  (1) 
M01AH06

>  <Ligand ID>  (1) 
LUR

>  <Target Name>  (1) 
Prostaglandin G/H synthase 1

>  <UniProt ID>  (1) 
P23219

>  <PDB ID.1>  (1) 
4OTY

>  <Seq. Identity>  (1) 
62%

$$$$
