PDB_DB05812_04
     RDKit          3D

268284  0  0  0  0  0  0  0  0999 V2000
   -3.5419    1.5451   -0.7564 C   0  0  0  0  0  0  0  0  0  0  0  0
   -4.8358    1.0250   -1.3533 C   0  0  0  0  0  0  0  0  0  0  0  0
   -5.7737    0.4642   -0.3285 C   0  0  2  0  0  0  0  0  0  0  0  0
   -6.4571    1.5269    0.2856 O   0  0  0  0  0  0  0  0  0  0  0  0
   -5.0281   -0.3393    0.7009 C   0  0  0  0  0  0  0  0  0  0  0  0
   -3.6952   -0.7302    0.0654 C   0  0  0  0  0  0  0  0  0  0  0  0
   -3.0800   -1.9050    0.7688 C   0  0  0  0  0  0  0  0  0  0  0  0
   -1.7369   -2.1686    0.1148 C   0  0  0  0  0  0  0  0  0  0  0  0
   -0.9035   -0.9249    0.4688 C   0  0  2  0  0  0  0  0  0  0  0  0
   -1.4692    0.1807   -0.4110 C   0  0  1  0  0  0  0  0  0  0  0  0
   -2.8244    0.5074    0.0752 C   0  0  1  0  0  0  0  0  0  0  0  0
   -0.5507    1.3363   -0.5685 C   0  0  0  0  0  0  0  0  0  0  0  0
    0.8613    0.9758   -0.8865 C   0  0  0  0  0  0  0  0  0  0  0  0
    1.4149    0.0117    0.1439 C   0  0  1  0  0  0  0  0  0  0  0  0
    0.4594   -1.1772    0.0285 C   0  0  1  0  0  0  0  0  0  0  0  0
    1.2348   -2.2507    0.6887 C   0  0  0  0  0  0  0  0  0  0  0  0
    2.5249   -2.1360   -0.1060 C   0  0  0  0  0  0  0  0  0  0  0  0
    2.6909   -0.6302   -0.2301 C   0  0  0  0  0  0  0  0  0  0  0  0
    1.3728    0.6849    1.4579 C   0  0  0  0  0  0  0  0  0  0  0  0
   -2.7576    1.0372    1.4889 C   0  0  0  0  0  0  0  0  0  0  0  0
    3.9107   -0.2680    0.4897 C   0  0  0  0  0  0  0  0  0  0  0  0
    5.0660   -1.0832   -0.1060 C   0  0  0  0  0  0  0  0  0  0  0  0
    6.1298   -0.2695   -0.5911 N   0  0  0  0  0  0  0  0  0  0  0  0
    5.7631    0.7762   -1.4730 C   0  0  0  0  0  0  0  0  0  0  0  0
    4.5607    1.5889   -0.9775 C   0  0  0  0  0  0  0  0  0  0  0  0
    4.3620    1.1390    0.4737 C   0  0  0  0  0  0  0  0  0  0  0  0
   -3.5419    1.5451   -0.7564 C   0  0  0  0  0  0  0  0  0  0  0  0
   -4.8358    1.0250   -1.3533 C   0  0  0  0  0  0  0  0  0  0  0  0
   -5.7737    0.4642   -0.3285 C   0  0  2  0  0  0  0  0  0  0  0  0
   -6.4571    1.5269    0.2856 O   0  0  0  0  0  0  0  0  0  0  0  0
   -5.0281   -0.3393    0.7009 C   0  0  0  0  0  0  0  0  0  0  0  0
   -3.6952   -0.7302    0.0654 C   0  0  0  0  0  0  0  0  0  0  0  0
   -3.0800   -1.9050    0.7688 C   0  0  0  0  0  0  0  0  0  0  0  0
   -1.7369   -2.1686    0.1148 C   0  0  0  0  0  0  0  0  0  0  0  0
   -0.9035   -0.9249    0.4688 C   0  0  2  0  0  0  0  0  0  0  0  0
   -1.4692    0.1807   -0.4110 C   0  0  1  0  0  0  0  0  0  0  0  0
   -2.8244    0.5074    0.0752 C   0  0  1  0  0  0  0  0  0  0  0  0
   -0.5507    1.3363   -0.5685 C   0  0  0  0  0  0  0  0  0  0  0  0
    0.8613    0.9758   -0.8865 C   0  0  0  0  0  0  0  0  0  0  0  0
    1.4149    0.0117    0.1439 C   0  0  1  0  0  0  0  0  0  0  0  0
    0.4594   -1.1772    0.0285 C   0  0  1  0  0  0  0  0  0  0  0  0
    1.2348   -2.2507    0.6887 C   0  0  0  0  0  0  0  0  0  0  0  0
    2.5249   -2.1360   -0.1060 C   0  0  0  0  0  0  0  0  0  0  0  0
    2.6909   -0.6302   -0.2301 C   0  0  0  0  0  0  0  0  0  0  0  0
    1.3728    0.6849    1.4579 C   0  0  0  0  0  0  0  0  0  0  0  0
   -2.7576    1.0372    1.4889 C   0  0  0  0  0  0  0  0  0  0  0  0
    3.9107   -0.2680    0.4897 C   0  0  0  0  0  0  0  0  0  0  0  0
    5.0660   -1.0832   -0.1060 C   0  0  0  0  0  0  0  0  0  0  0  0
    6.1298   -0.2695   -0.5911 N   0  0  0  0  0  0  0  0  0  0  0  0
    5.7631    0.7762   -1.4730 C   0  0  0  0  0  0  0  0  0  0  0  0
    4.5607    1.5889   -0.9775 C   0  0  0  0  0  0  0  0  0  0  0  0
    4.3620    1.1390    0.4737 C   0  0  0  0  0  0  0  0  0  0  0  0
   -3.5246   -1.4138    0.4154 C   0  0  0  0  0  0  0  0  0  0  0  0
   -4.9470   -1.4210   -0.0374 C   0  0  0  0  0  0  0  0  0  0  0  0
   -5.5099   -0.0296    0.1295 C   0  0  2  0  0  0  0  0  0  0  0  0
   -6.8154   -0.0077   -0.3646 O   0  0  0  0  0  0  0  0  0  0  0  0
   -4.7127    0.9662   -0.6437 C   0  0  0  0  0  0  0  0  0  0  0  0
   -3.2281    0.9053   -0.3624 C   0  0  0  0  0  0  0  0  0  0  0  0
   -3.0146    1.5543    0.9848 C   0  0  0  0  0  0  0  0  0  0  0  0
   -1.5888    1.5296    1.4395 C   0  0  0  0  0  0  0  0  0  0  0  0
   -0.7504    0.9569    0.3534 C   0  0  2  0  0  0  0  0  0  0  0  0
   -1.2681   -0.4722    0.0587 C   0  0  1  0  0  0  0  0  0  0  0  0
   -2.6624   -0.4822   -0.4455 C   0  0  1  0  0  0  0  0  0  0  0  0
   -0.2606   -1.2199   -0.7732 C   0  0  0  0  0  0  0  0  0  0  0  0
    0.7355   -0.3031   -1.4558 C   0  0  0  0  0  0  0  0  0  0  0  0
    1.4107    0.6526   -0.6223 C   0  0  1  0  0  0  0  0  0  0  0  0
    0.6773    0.6884    0.7428 C   0  0  1  0  0  0  0  0  0  0  0  0
    1.4023    1.7279    1.4721 C   0  0  0  0  0  0  0  0  0  0  0  0
    2.7976    1.7179    0.8369 C   0  0  0  0  0  0  0  0  0  0  0  0
    2.7918    0.5607   -0.1426 C   0  0  1  0  0  0  0  0  0  0  0  0
    1.2805    2.0779   -1.2272 C   0  0  0  0  0  0  0  0  0  0  0  0
   -2.8135   -0.9652   -1.8637 C   0  0  0  0  0  0  0  0  0  0  0  0
    3.3470   -0.7061    0.3365 C   0  0  1  0  0  0  0  0  0  0  0  0
    3.4365   -1.7193   -0.7866 C   0  0  0  0  0  0  0  0  0  0  0  0
    4.6135   -2.5736   -0.6115 N   0  0  0  0  0  0  0  0  0  0  0  0
    5.7497   -1.6954   -0.8675 C   0  0  0  0  0  0  0  0  0  0  0  0
    5.8677   -0.7901    0.3312 C   0  0  0  0  0  0  0  0  0  0  0  0
    4.6040   -0.6778    1.1447 C   0  0  0  0  0  0  0  0  0  0  0  0
   -3.7671   -1.4750   -0.2635 C   0  0  0  0  0  0  0  0  0  0  0  0
   -4.6078   -1.2240    0.9704 C   0  0  0  0  0  0  0  0  0  0  0  0
   -5.4956   -0.0213    0.7610 C   0  0  2  0  0  0  0  0  0  0  0  0
   -6.7261   -0.4262    0.1987 O   0  0  0  0  0  0  0  0  0  0  0  0
   -4.9013    0.9830   -0.1725 C   0  0  0  0  0  0  0  0  0  0  0  0
   -3.3706    0.9983   -0.0569 C   0  0  1  0  0  0  0  0  0  0  0  0
   -3.0414    1.3769    1.3387 C   0  0  0  0  0  0  0  0  0  0  0  0
   -1.7648    0.8133    1.8719 C   0  0  0  0  0  0  0  0  0  0  0  0
   -0.8630    0.5559    0.6744 C   0  0  2  0  0  0  0  0  0  0  0  0
   -1.4834   -0.6559   -0.0279 C   0  0  1  0  0  0  0  0  0  0  0  0
   -2.8239   -0.2965   -0.5339 C   0  0  1  0  0  0  0  0  0  0  0  0
   -0.5880   -1.2509   -1.0542 C   0  0  0  0  0  0  0  0  0  0  0  0
    0.8330   -1.4027   -0.6548 C   0  0  0  0  0  0  0  0  0  0  0  0
    1.4261   -0.1920    0.0325 C   0  0  1  0  0  0  0  0  0  0  0  0
    0.4564    0.1182    1.1881 C   0  0  1  0  0  0  0  0  0  0  0  0
    1.2149    1.1067    1.9857 C   0  0  0  0  0  0  0  0  0  0  0  0
    2.6248    0.5151    1.9514 C   0  0  0  0  0  0  0  0  0  0  0  0
    2.6475   -0.4483    0.7866 C   0  0  0  0  0  0  0  0  0  0  0  0
    1.3872    0.9588   -0.8904 C   0  0  0  0  0  0  0  0  0  0  0  0
   -2.7438   -0.2145   -2.0670 C   0  0  0  0  0  0  0  0  0  0  0  0
    3.9680   -0.3530    0.1206 C   0  0  0  0  0  0  0  0  0  0  0  0
    4.1251   -1.3009   -1.0546 C   0  0  0  0  0  0  0  0  0  0  0  0
    5.5739   -1.3891   -1.3063 N   0  0  0  0  0  0  0  0  0  0  0  0
    6.1623   -0.1102   -1.5498 C   0  0  0  0  0  0  0  0  0  0  0  0
    5.1511    1.0053   -1.5352 C   0  0  0  0  0  0  0  0  0  0  0  0
    4.4635    1.0350   -0.1635 C   0  0  0  0  0  0  0  0  0  0  0  0
   -3.8323    2.4455   -0.1527 H   0  0  0  0  0  0  0  0  0  0  0  0
   -2.9488    1.9304   -1.5972 H   0  0  0  0  0  0  0  0  0  0  0  0
   -5.3463    1.9405   -1.7773 H   0  0  0  0  0  0  0  0  0  0  0  0
   -4.6719    0.3678   -2.2264 H   0  0  0  0  0  0  0  0  0  0  0  0
   -6.5087   -0.1912   -0.8451 H   0  0  0  0  0  0  0  0  0  0  0  0
   -6.4525    2.3176   -0.3300 H   0  0  0  0  0  0  0  0  0  0  0  0
   -4.9035    0.2805    1.5976 H   0  0  0  0  0  0  0  0  0  0  0  0
   -5.5866   -1.2471    1.0159 H   0  0  0  0  0  0  0  0  0  0  0  0
   -3.8984   -1.0454   -0.9790 H   0  0  0  0  0  0  0  0  0  0  0  0
   -2.8883   -1.7474    1.8374 H   0  0  0  0  0  0  0  0  0  0  0  0
   -3.7239   -2.7809    0.5613 H   0  0  0  0  0  0  0  0  0  0  0  0
   -1.8113   -2.3167   -0.9647 H   0  0  0  0  0  0  0  0  0  0  0  0
   -1.2661   -3.0132    0.6573 H   0  0  0  0  0  0  0  0  0  0  0  0
   -1.0778   -0.7596    1.5290 H   0  0  0  0  0  0  0  0  0  0  0  0
   -1.5790   -0.2926   -1.4316 H   0  0  0  0  0  0  0  0  0  0  0  0
   -0.9224    1.9334   -1.4539 H   0  0  0  0  0  0  0  0  0  0  0  0
   -0.5402    2.0530    0.2681 H   0  0  0  0  0  0  0  0  0  0  0  0
    1.0087    0.6051   -1.9198 H   0  0  0  0  0  0  0  0  0  0  0  0
    1.4699    1.9149   -0.7957 H   0  0  0  0  0  0  0  0  0  0  0  0
    0.4351   -1.4217   -1.0763 H   0  0  0  0  0  0  0  0  0  0  0  0
    1.5065   -1.9791    1.7416 H   0  0  0  0  0  0  0  0  0  0  0  0
    0.8045   -3.2608    0.6199 H   0  0  0  0  0  0  0  0  0  0  0  0
    3.3085   -2.6092    0.5005 H   0  0  0  0  0  0  0  0  0  0  0  0
    2.4411   -2.6363   -1.0933 H   0  0  0  0  0  0  0  0  0  0  0  0
    2.8569   -0.4361   -1.3317 H   0  0  0  0  0  0  0  0  0  0  0  0
    2.1281    0.3259    2.1861 H   0  0  0  0  0  0  0  0  0  0  0  0
    1.4308    1.7881    1.3048 H   0  0  0  0  0  0  0  0  0  0  0  0
    0.3907    0.5634    2.0028 H   0  0  0  0  0  0  0  0  0  0  0  0
   -3.5572    1.8104    1.6504 H   0  0  0  0  0  0  0  0  0  0  0  0
   -1.8046    1.4913    1.7597 H   0  0  0  0  0  0  0  0  0  0  0  0
   -2.9690    0.2481    2.2422 H   0  0  0  0  0  0  0  0  0  0  0  0
    3.8366   -0.5910    1.5695 H   0  0  0  0  0  0  0  0  0  0  0  0
    4.7214   -1.7125   -0.9604 H   0  0  0  0  0  0  0  0  0  0  0  0
    5.4886   -1.7956    0.6322 H   0  0  0  0  0  0  0  0  0  0  0  0
    6.8880   -0.0805    0.0649 H   0  0  0  0  0  0  0  0  0  0  0  0
    6.6383    1.4838   -1.5459 H   0  0  0  0  0  0  0  0  0  0  0  0
    5.5034    0.4233   -2.4870 H   0  0  0  0  0  0  0  0  0  0  0  0
    4.8293    2.6694   -0.9095 H   0  0  0  0  0  0  0  0  0  0  0  0
    3.6761    1.4132   -1.5942 H   0  0  0  0  0  0  0  0  0  0  0  0
    3.8143    1.8509    1.0719 H   0  0  0  0  0  0  0  0  0  0  0  0
    5.4147    1.1439    0.8949 H   0  0  0  0  0  0  0  0  0  0  0  0
   -3.8323    2.4455   -0.1527 H   0  0  0  0  0  0  0  0  0  0  0  0
   -2.9488    1.9304   -1.5972 H   0  0  0  0  0  0  0  0  0  0  0  0
   -5.3463    1.9405   -1.7773 H   0  0  0  0  0  0  0  0  0  0  0  0
   -4.6719    0.3678   -2.2264 H   0  0  0  0  0  0  0  0  0  0  0  0
   -6.5087   -0.1912   -0.8451 H   0  0  0  0  0  0  0  0  0  0  0  0
   -6.4525    2.3176   -0.3300 H   0  0  0  0  0  0  0  0  0  0  0  0
   -4.9035    0.2805    1.5976 H   0  0  0  0  0  0  0  0  0  0  0  0
   -5.5866   -1.2471    1.0159 H   0  0  0  0  0  0  0  0  0  0  0  0
   -3.8984   -1.0454   -0.9790 H   0  0  0  0  0  0  0  0  0  0  0  0
   -2.8883   -1.7474    1.8374 H   0  0  0  0  0  0  0  0  0  0  0  0
   -3.7239   -2.7809    0.5613 H   0  0  0  0  0  0  0  0  0  0  0  0
   -1.8113   -2.3167   -0.9647 H   0  0  0  0  0  0  0  0  0  0  0  0
   -1.2661   -3.0132    0.6573 H   0  0  0  0  0  0  0  0  0  0  0  0
   -1.0778   -0.7596    1.5290 H   0  0  0  0  0  0  0  0  0  0  0  0
   -1.5790   -0.2926   -1.4316 H   0  0  0  0  0  0  0  0  0  0  0  0
   -0.9224    1.9334   -1.4539 H   0  0  0  0  0  0  0  0  0  0  0  0
   -0.5402    2.0530    0.2681 H   0  0  0  0  0  0  0  0  0  0  0  0
    1.0087    0.6051   -1.9198 H   0  0  0  0  0  0  0  0  0  0  0  0
    1.4699    1.9149   -0.7957 H   0  0  0  0  0  0  0  0  0  0  0  0
    0.4351   -1.4217   -1.0763 H   0  0  0  0  0  0  0  0  0  0  0  0
    1.5065   -1.9791    1.7416 H   0  0  0  0  0  0  0  0  0  0  0  0
    0.8045   -3.2608    0.6199 H   0  0  0  0  0  0  0  0  0  0  0  0
    3.3085   -2.6092    0.5005 H   0  0  0  0  0  0  0  0  0  0  0  0
    2.4411   -2.6363   -1.0933 H   0  0  0  0  0  0  0  0  0  0  0  0
    2.8569   -0.4361   -1.3317 H   0  0  0  0  0  0  0  0  0  0  0  0
    2.1281    0.3259    2.1861 H   0  0  0  0  0  0  0  0  0  0  0  0
    1.4308    1.7881    1.3048 H   0  0  0  0  0  0  0  0  0  0  0  0
    0.3907    0.5634    2.0028 H   0  0  0  0  0  0  0  0  0  0  0  0
   -3.5572    1.8104    1.6504 H   0  0  0  0  0  0  0  0  0  0  0  0
   -1.8046    1.4913    1.7597 H   0  0  0  0  0  0  0  0  0  0  0  0
   -2.9690    0.2481    2.2422 H   0  0  0  0  0  0  0  0  0  0  0  0
    3.8366   -0.5910    1.5695 H   0  0  0  0  0  0  0  0  0  0  0  0
    4.7214   -1.7125   -0.9604 H   0  0  0  0  0  0  0  0  0  0  0  0
    5.4886   -1.7956    0.6322 H   0  0  0  0  0  0  0  0  0  0  0  0
    6.8880   -0.0805    0.0649 H   0  0  0  0  0  0  0  0  0  0  0  0
    6.6383    1.4838   -1.5459 H   0  0  0  0  0  0  0  0  0  0  0  0
    5.5034    0.4233   -2.4870 H   0  0  0  0  0  0  0  0  0  0  0  0
    4.8293    2.6694   -0.9095 H   0  0  0  0  0  0  0  0  0  0  0  0
    3.6761    1.4132   -1.5942 H   0  0  0  0  0  0  0  0  0  0  0  0
    3.8143    1.8509    1.0719 H   0  0  0  0  0  0  0  0  0  0  0  0
    5.4147    1.1439    0.8949 H   0  0  0  0  0  0  0  0  0  0  0  0
   -3.0762   -2.4247    0.3569 H   0  0  0  0  0  0  0  0  0  0  0  0
   -3.4834   -1.0098    1.4348 H   0  0  0  0  0  0  0  0  0  0  0  0
   -5.5084   -2.0677    0.6876 H   0  0  0  0  0  0  0  0  0  0  0  0
   -5.1226   -1.8507   -1.0263 H   0  0  0  0  0  0  0  0  0  0  0  0
   -5.5638    0.2331    1.1906 H   0  0  0  0  0  0  0  0  0  0  0  0
   -7.3115    0.7508    0.0336 H   0  0  0  0  0  0  0  0  0  0  0  0
   -5.0416    1.9887   -0.2894 H   0  0  0  0  0  0  0  0  0  0  0  0
   -4.9362    0.9641   -1.7296 H   0  0  0  0  0  0  0  0  0  0  0  0
   -2.7506    1.5426   -1.1639 H   0  0  0  0  0  0  0  0  0  0  0  0
   -3.3433    2.6200    0.8724 H   0  0  0  0  0  0  0  0  0  0  0  0
   -3.6496    1.1007    1.7439 H   0  0  0  0  0  0  0  0  0  0  0  0
   -1.4880    0.9052    2.3637 H   0  0  0  0  0  0  0  0  0  0  0  0
   -1.2139    2.5652    1.6465 H   0  0  0  0  0  0  0  0  0  0  0  0
   -0.8156    1.5897   -0.5301 H   0  0  0  0  0  0  0  0  0  0  0  0
   -1.2465   -0.9423    1.0668 H   0  0  0  0  0  0  0  0  0  0  0  0
   -0.7911   -1.7914   -1.5578 H   0  0  0  0  0  0  0  0  0  0  0  0
    0.3310   -1.9585   -0.1987 H   0  0  0  0  0  0  0  0  0  0  0  0
    0.0706    0.2837   -2.1907 H   0  0  0  0  0  0  0  0  0  0  0  0
    1.3631   -0.8802   -2.1399 H   0  0  0  0  0  0  0  0  0  0  0  0
    0.8154   -0.2785    1.2260 H   0  0  0  0  0  0  0  0  0  0  0  0
    1.4856    1.4064    2.5552 H   0  0  0  0  0  0  0  0  0  0  0  0
    0.9646    2.7289    1.5251 H   0  0  0  0  0  0  0  0  0  0  0  0
    2.8270    2.6892    0.2571 H   0  0  0  0  0  0  0  0  0  0  0  0
    3.6093    1.7710    1.5291 H   0  0  0  0  0  0  0  0  0  0  0  0
    3.4448    0.9534   -1.0043 H   0  0  0  0  0  0  0  0  0  0  0  0
    0.5530    2.0106   -2.0609 H   0  0  0  0  0  0  0  0  0  0  0  0
    0.9418    2.8063   -0.4984 H   0  0  0  0  0  0  0  0  0  0  0  0
    2.2292    2.4082   -1.6653 H   0  0  0  0  0  0  0  0  0  0  0  0
   -2.1715   -0.4660   -2.5873 H   0  0  0  0  0  0  0  0  0  0  0  0
   -3.8729   -0.7187   -2.1720 H   0  0  0  0  0  0  0  0  0  0  0  0
   -2.7756   -2.0866   -1.9240 H   0  0  0  0  0  0  0  0  0  0  0  0
    2.5767   -1.1630    1.0361 H   0  0  0  0  0  0  0  0  0  0  0  0
    3.5975   -1.2411   -1.7691 H   0  0  0  0  0  0  0  0  0  0  0  0
    2.5888   -2.4091   -0.8568 H   0  0  0  0  0  0  0  0  0  0  0  0
    4.6814   -3.0006    0.3138 H   0  0  0  0  0  0  0  0  0  0  0  0
    5.5991   -1.1279   -1.8101 H   0  0  0  0  0  0  0  0  0  0  0  0
    6.6512   -2.3257   -0.9607 H   0  0  0  0  0  0  0  0  0  0  0  0
    6.2421    0.2308    0.0173 H   0  0  0  0  0  0  0  0  0  0  0  0
    6.7094   -1.1945    0.9486 H   0  0  0  0  0  0  0  0  0  0  0  0
    4.6143   -1.6109    1.7946 H   0  0  0  0  0  0  0  0  0  0  0  0
    4.6485    0.1390    1.8452 H   0  0  0  0  0  0  0  0  0  0  0  0
   -3.2129   -2.4094   -0.1252 H   0  0  0  0  0  0  0  0  0  0  0  0
   -4.4810   -1.6038   -1.1085 H   0  0  0  0  0  0  0  0  0  0  0  0
   -4.0218   -1.1968    1.8878 H   0  0  0  0  0  0  0  0  0  0  0  0
   -5.2912   -2.1050    1.0518 H   0  0  0  0  0  0  0  0  0  0  0  0
   -5.7510    0.3833    1.7612 H   0  0  0  0  0  0  0  0  0  0  0  0
   -7.4530   -0.4293    0.8431 H   0  0  0  0  0  0  0  0  0  0  0  0
   -5.2248    0.8868   -1.2096 H   0  0  0  0  0  0  0  0  0  0  0  0
   -5.2273    2.0001    0.1858 H   0  0  0  0  0  0  0  0  0  0  0  0
   -3.0504    1.8070   -0.7774 H   0  0  0  0  0  0  0  0  0  0  0  0
   -3.9015    1.1935    2.0483 H   0  0  0  0  0  0  0  0  0  0  0  0
   -2.9280    2.5022    1.3624 H   0  0  0  0  0  0  0  0  0  0  0  0
   -1.2239    1.5438    2.5094 H   0  0  0  0  0  0  0  0  0  0  0  0
   -1.9691   -0.0886    2.4517 H   0  0  0  0  0  0  0  0  0  0  0  0
   -0.8747    1.4514    0.0636 H   0  0  0  0  0  0  0  0  0  0  0  0
   -1.5934   -1.4228    0.7947 H   0  0  0  0  0  0  0  0  0  0  0  0
   -0.9796   -2.2923   -1.2563 H   0  0  0  0  0  0  0  0  0  0  0  0
   -0.6170   -0.7480   -2.0445 H   0  0  0  0  0  0  0  0  0  0  0  0
    1.4285   -1.6137   -1.5668 H   0  0  0  0  0  0  0  0  0  0  0  0
    0.9220   -2.2960    0.0282 H   0  0  0  0  0  0  0  0  0  0  0  0
    0.3179   -0.8003    1.7868 H   0  0  0  0  0  0  0  0  0  0  0  0
    1.1838    2.1376    1.6408 H   0  0  0  0  0  0  0  0  0  0  0  0
    0.8268    1.1099    3.0449 H   0  0  0  0  0  0  0  0  0  0  0  0
    3.3984    1.2927    1.8773 H   0  0  0  0  0  0  0  0  0  0  0  0
    2.7845   -0.0016    2.9201 H   0  0  0  0  0  0  0  0  0  0  0  0
    2.5765   -1.4815    1.2348 H   0  0  0  0  0  0  0  0  0  0  0  0
    1.3439    1.9621   -0.3855 H   0  0  0  0  0  0  0  0  0  0  0  0
    2.1407    0.9723   -1.6870 H   0  0  0  0  0  0  0  0  0  0  0  0
    0.3963    0.9111   -1.4368 H   0  0  0  0  0  0  0  0  0  0  0  0
   -3.7865    0.0651   -2.4018 H   0  0  0  0  0  0  0  0  0  0  0  0
   -2.5480   -1.1932   -2.5191 H   0  0  0  0  0  0  0  0  0  0  0  0
   -2.1006    0.6023   -2.4020 H   0  0  0  0  0  0  0  0  0  0  0  0
    4.7087   -0.7708    0.8787 H   0  0  0  0  0  0  0  0  0  0  0  0
    3.6864   -0.9281   -1.9804 H   0  0  0  0  0  0  0  0  0  0  0  0
    3.8098   -2.2918   -0.7331 H   0  0  0  0  0  0  0  0  0  0  0  0
    6.0437   -1.9571   -0.5768 H   0  0  0  0  0  0  0  0  0  0  0  0
    6.9949    0.1268   -0.8517 H   0  0  0  0  0  0  0  0  0  0  0  0
    6.6372   -0.0945   -2.5733 H   0  0  0  0  0  0  0  0  0  0  0  0
    5.7313    1.9596   -1.6655 H   0  0  0  0  0  0  0  0  0  0  0  0
    4.4421    0.9256   -2.3602 H   0  0  0  0  0  0  0  0  0  0  0  0
    3.7150    1.8216   -0.0964 H   0  0  0  0  0  0  0  0  0  0  0  0
    5.2900    1.3638    0.5358 H   0  0  0  0  0  0  0  0  0  0  0  0
  1  2  1  0
  2  3  1  0
  3  4  1  0
  3  5  1  0
  5  6  1  0
  6  7  1  0
  7  8  1  0
  8  9  1  0
  9 10  1  0
  1 11  1  0
  6 11  1  0
 10 11  1  0
 10 12  1  0
 12 13  1  0
 13 14  1  0
  9 15  1  0
 14 15  1  0
 15 16  1  0
 16 17  1  0
 14 18  1  0
 17 18  1  0
 14 19  1  1
 11 20  1  1
 18 21  1  0
 21 22  1  0
 22 23  1  0
 24 23  1  0
 24 25  1  0
 21 26  1  0
 25 26  1  0
 27 28  1  0
 28 29  1  0
 29 30  1  0
 29 31  1  0
 31 32  1  0
 32 33  1  0
 33 34  1  0
 34 35  1  0
 35 36  1  0
 27 37  1  0
 32 37  1  0
 36 37  1  0
 36 38  1  0
 38 39  1  0
 39 40  1  0
 35 41  1  0
 40 41  1  0
 41 42  1  0
 42 43  1  0
 40 44  1  0
 43 44  1  0
 40 45  1  1
 37 46  1  1
 44 47  1  0
 47 48  1  0
 48 49  1  0
 50 49  1  0
 50 51  1  0
 47 52  1  0
 51 52  1  0
 53 54  1  0
 54 55  1  0
 55 56  1  0
 55 57  1  0
 57 58  1  0
 58 59  1  0
 59 60  1  0
 60 61  1  0
 61 62  1  0
 53 63  1  0
 58 63  1  0
 62 63  1  0
 62 64  1  0
 64 65  1  0
 65 66  1  0
 61 67  1  0
 66 67  1  0
 67 68  1  0
 68 69  1  0
 66 70  1  0
 69 70  1  0
 66 71  1  6
 63 72  1  6
 70 73  1  0
 73 74  1  0
 74 75  1  0
 76 75  1  0
 76 77  1  0
 73 78  1  0
 77 78  1  0
 79 80  1  0
 80 81  1  0
 81 82  1  0
 81 83  1  0
 83 84  1  0
 84 85  1  0
 85 86  1  0
 86 87  1  0
 87 88  1  0
 79 89  1  0
 84 89  1  0
 88 89  1  0
 88 90  1  0
 90 91  1  0
 91 92  1  0
 87 93  1  0
 92 93  1  0
 93 94  1  0
 94 95  1  0
 92 96  1  0
 95 96  1  0
 92 97  1  6
 89 98  1  6
 96 99  1  0
 99100  1  0
100101  1  0
102101  1  0
102103  1  0
 99104  1  0
103104  1  0
  1105  1  0
  1106  1  0
  2107  1  0
  2108  1  0
  3109  1  6
  4110  1  0
  5111  1  0
  5112  1  0
  6113  1  0
  7114  1  0
  7115  1  0
  8116  1  0
  8117  1  0
  9118  1  1
 10119  1  6
 12120  1  0
 12121  1  0
 13122  1  0
 13123  1  0
 15124  1  6
 16125  1  0
 16126  1  0
 17127  1  0
 17128  1  0
 18129  1  0
 19130  1  0
 19131  1  0
 19132  1  0
 20133  1  0
 20134  1  0
 20135  1  0
 21136  1  0
 22137  1  0
 22138  1  0
 23139  1  0
 24140  1  0
 24141  1  0
 25142  1  0
 25143  1  0
 26144  1  0
 26145  1  0
 27146  1  0
 27147  1  0
 28148  1  0
 28149  1  0
 29150  1  6
 30151  1  0
 31152  1  0
 31153  1  0
 32154  1  0
 33155  1  0
 33156  1  0
 34157  1  0
 34158  1  0
 35159  1  1
 36160  1  6
 38161  1  0
 38162  1  0
 39163  1  0
 39164  1  0
 41165  1  6
 42166  1  0
 42167  1  0
 43168  1  0
 43169  1  0
 44170  1  0
 45171  1  0
 45172  1  0
 45173  1  0
 46174  1  0
 46175  1  0
 46176  1  0
 47177  1  0
 48178  1  0
 48179  1  0
 49180  1  0
 50181  1  0
 50182  1  0
 51183  1  0
 51184  1  0
 52185  1  0
 52186  1  0
 53187  1  0
 53188  1  0
 54189  1  0
 54190  1  0
 55191  1  1
 56192  1  0
 57193  1  0
 57194  1  0
 58195  1  0
 59196  1  0
 59197  1  0
 60198  1  0
 60199  1  0
 61200  1  6
 62201  1  1
 64202  1  0
 64203  1  0
 65204  1  0
 65205  1  0
 67206  1  1
 68207  1  0
 68208  1  0
 69209  1  0
 69210  1  0
 70211  1  6
 71212  1  0
 71213  1  0
 71214  1  0
 72215  1  0
 72216  1  0
 72217  1  0
 73218  1  1
 74219  1  0
 74220  1  0
 75221  1  0
 76222  1  0
 76223  1  0
 77224  1  0
 77225  1  0
 78226  1  0
 78227  1  0
 79228  1  0
 79229  1  0
 80230  1  0
 80231  1  0
 81232  1  1
 82233  1  0
 83234  1  0
 83235  1  0
 84236  1  6
 85237  1  0
 85238  1  0
 86239  1  0
 86240  1  0
 87241  1  6
 88242  1  1
 90243  1  0
 90244  1  0
 91245  1  0
 91246  1  0
 93247  1  1
 94248  1  0
 94249  1  0
 95250  1  0
 95251  1  0
 96252  1  0
 97253  1  0
 97254  1  0
 97255  1  0
 98256  1  0
 98257  1  0
 98258  1  0
 99259  1  0
100260  1  0
100261  1  0
101262  1  0
102263  1  0
102264  1  0
103265  1  0
103266  1  0
104267  1  0
104268  1  0
M  END
>  <PDBID>  (1) 
3RUK

>  <PDB ID>  (1) 
3RUK

>  <Generic Name>  (1) 
Abiraterone

>  <Brand Name>  (1) 
Zytiga

>  <DrugBank ID>  (1) 
DB05812

>  <ATC Codes>  (1) 
L02BX03

>  <Ligand ID>  (1) 
AER

>  <Target Name>  (1) 
Steroid 17-alpha-hydroxylase/17,20 lyase

>  <UniProt ID>  (1) 
P05093

>  <PDB ID.1>  (1) 
3RUK

>  <Seq. Identity>  (1) 
97%

$$$$
