PDB_DB04854_08
     RDKit          3D

108110  0  0  0  0  0  0  0  0999 V2000
   -3.4936   -1.5361    0.6041 S   0  0  0  0  0  0  0  0  0  0  0  0
   -2.5226   -0.0242    0.8582 C   0  0  0  0  0  0  0  0  0  0  0  0
   -3.1437    0.9202    0.0040 N   0  0  0  0  0  0  0  0  0  0  0  0
   -3.7864    0.3211   -1.0976 C   0  0  0  0  0  0  0  0  0  0  0  0
   -4.6482   -0.8277   -0.6477 C   0  0  0  0  0  0  0  0  0  0  0  0
   -1.0576   -0.2340    0.6535 C   0  0  0  0  0  0  0  0  0  0  0  0
   -0.2502    1.0175    0.8649 C   0  0  0  0  0  0  0  0  0  0  0  0
    1.2039    0.6377    0.9900 C   0  0  0  0  0  0  0  0  0  0  0  0
    1.5927   -0.2005   -0.1924 C   0  0  0  0  0  0  0  0  0  0  0  0
    0.7316   -1.3996   -0.4270 C   0  0  0  0  0  0  0  0  0  0  0  0
   -0.6907   -0.8448   -0.6537 C   0  0  0  0  0  0  0  0  0  0  0  0
    1.5040    0.0109    2.3199 C   0  0  0  0  0  0  0  0  0  0  0  0
    2.9415   -0.3063    2.3087 N   0  0  0  0  0  0  0  0  0  0  0  0
    2.9386   -0.4537   -0.1270 O   0  0  0  0  0  0  0  0  0  0  0  0
    3.7089    0.1214   -1.0949 C   0  0  0  0  0  0  0  0  0  0  0  0
    5.1591   -0.2560   -0.8794 C   0  0  0  0  0  0  0  0  0  0  0  0
    6.0417    0.3816   -1.9590 C   0  0  0  0  0  0  0  0  0  0  0  0
    5.6573    0.1518    0.4928 C   0  0  0  0  0  0  0  0  0  0  0  0
   -4.5563    1.3707   -1.8527 C   0  0  0  0  0  0  0  0  0  0  0  0
   -5.9342   -0.4201   -0.0118 C   0  0  0  0  0  0  0  0  0  0  0  0
   -5.8158    0.5269    0.9688 O   0  0  0  0  0  0  0  0  0  0  0  0
   -6.4706   -1.5777    0.6010 O   0  0  0  0  0  0  0  0  0  0  0  0
   -3.4936   -1.5361    0.6041 S   0  0  0  0  0  0  0  0  0  0  0  0
   -2.5226   -0.0242    0.8582 C   0  0  0  0  0  0  0  0  0  0  0  0
   -3.1437    0.9202    0.0040 N   0  0  0  0  0  0  0  0  0  0  0  0
   -3.7864    0.3211   -1.0976 C   0  0  0  0  0  0  0  0  0  0  0  0
   -4.6482   -0.8277   -0.6477 C   0  0  0  0  0  0  0  0  0  0  0  0
   -1.0576   -0.2340    0.6535 C   0  0  0  0  0  0  0  0  0  0  0  0
   -0.2502    1.0175    0.8649 C   0  0  0  0  0  0  0  0  0  0  0  0
    1.2039    0.6377    0.9900 C   0  0  0  0  0  0  0  0  0  0  0  0
    1.5927   -0.2005   -0.1924 C   0  0  0  0  0  0  0  0  0  0  0  0
    0.7316   -1.3996   -0.4270 C   0  0  0  0  0  0  0  0  0  0  0  0
   -0.6907   -0.8448   -0.6537 C   0  0  0  0  0  0  0  0  0  0  0  0
    1.5040    0.0109    2.3199 C   0  0  0  0  0  0  0  0  0  0  0  0
    2.9415   -0.3063    2.3087 N   0  0  0  0  0  0  0  0  0  0  0  0
    2.9386   -0.4537   -0.1270 O   0  0  0  0  0  0  0  0  0  0  0  0
    3.7089    0.1214   -1.0949 C   0  0  0  0  0  0  0  0  0  0  0  0
    5.1591   -0.2560   -0.8794 C   0  0  0  0  0  0  0  0  0  0  0  0
    6.0417    0.3816   -1.9590 C   0  0  0  0  0  0  0  0  0  0  0  0
    5.6573    0.1518    0.4928 C   0  0  0  0  0  0  0  0  0  0  0  0
   -4.5563    1.3707   -1.8527 C   0  0  0  0  0  0  0  0  0  0  0  0
   -5.9342   -0.4201   -0.0118 C   0  0  0  0  0  0  0  0  0  0  0  0
   -5.8158    0.5269    0.9688 O   0  0  0  0  0  0  0  0  0  0  0  0
   -6.4706   -1.5777    0.6010 O   0  0  0  0  0  0  0  0  0  0  0  0
   -2.7261    0.2894    1.9161 H   0  0  0  0  0  0  0  0  0  0  0  0
   -3.6107    1.7106    0.4504 H   0  0  0  0  0  0  0  0  0  0  0  0
   -3.0452   -0.0966   -1.8044 H   0  0  0  0  0  0  0  0  0  0  0  0
   -4.7950   -1.5958   -1.4011 H   0  0  0  0  0  0  0  0  0  0  0  0
   -0.7399   -0.9670    1.4452 H   0  0  0  0  0  0  0  0  0  0  0  0
   -0.5839    1.5737    1.7646 H   0  0  0  0  0  0  0  0  0  0  0  0
   -0.3194    1.7190    0.0082 H   0  0  0  0  0  0  0  0  0  0  0  0
    1.7874    1.5999    0.8736 H   0  0  0  0  0  0  0  0  0  0  0  0
    1.4452    0.4688   -1.0945 H   0  0  0  0  0  0  0  0  0  0  0  0
    1.0321   -1.8749   -1.3543 H   0  0  0  0  0  0  0  0  0  0  0  0
    0.6292   -2.0610    0.4433 H   0  0  0  0  0  0  0  0  0  0  0  0
   -1.3414   -1.7223   -0.8448 H   0  0  0  0  0  0  0  0  0  0  0  0
   -0.6766   -0.1247   -1.4971 H   0  0  0  0  0  0  0  0  0  0  0  0
    0.9128   -0.8576    2.5833 H   0  0  0  0  0  0  0  0  0  0  0  0
    1.3903    0.8047    3.0902 H   0  0  0  0  0  0  0  0  0  0  0  0
    3.0166   -1.3233    2.1160 H   0  0  0  0  0  0  0  0  0  0  0  0
    3.4054   -0.0034    3.1878 H   0  0  0  0  0  0  0  0  0  0  0  0
    3.4453   -0.0908   -2.1213 H   0  0  0  0  0  0  0  0  0  0  0  0
    3.6540    1.2345   -0.9546 H   0  0  0  0  0  0  0  0  0  0  0  0
    5.2954   -1.3449   -0.9769 H   0  0  0  0  0  0  0  0  0  0  0  0
    6.6430    1.1732   -1.4703 H   0  0  0  0  0  0  0  0  0  0  0  0
    5.3980    0.8024   -2.7526 H   0  0  0  0  0  0  0  0  0  0  0  0
    6.7351   -0.3464   -2.3958 H   0  0  0  0  0  0  0  0  0  0  0  0
    5.6099   -0.7094    1.1631 H   0  0  0  0  0  0  0  0  0  0  0  0
    6.6581    0.6069    0.3903 H   0  0  0  0  0  0  0  0  0  0  0  0
    4.9675    0.9595    0.8460 H   0  0  0  0  0  0  0  0  0  0  0  0
   -3.9373    2.2962   -1.8367 H   0  0  0  0  0  0  0  0  0  0  0  0
   -5.5266    1.6176   -1.4129 H   0  0  0  0  0  0  0  0  0  0  0  0
   -4.6301    1.0892   -2.9426 H   0  0  0  0  0  0  0  0  0  0  0  0
   -6.6547   -0.1519   -0.8108 H   0  0  0  0  0  0  0  0  0  0  0  0
   -6.0127    0.1958    1.8859 H   0  0  0  0  0  0  0  0  0  0  0  0
   -6.5352   -2.2502   -0.1494 H   0  0  0  0  0  0  0  0  0  0  0  0
   -2.7261    0.2894    1.9161 H   0  0  0  0  0  0  0  0  0  0  0  0
   -3.6107    1.7106    0.4504 H   0  0  0  0  0  0  0  0  0  0  0  0
   -3.0452   -0.0966   -1.8044 H   0  0  0  0  0  0  0  0  0  0  0  0
   -4.7950   -1.5958   -1.4011 H   0  0  0  0  0  0  0  0  0  0  0  0
   -0.7399   -0.9670    1.4452 H   0  0  0  0  0  0  0  0  0  0  0  0
   -0.5839    1.5737    1.7646 H   0  0  0  0  0  0  0  0  0  0  0  0
   -0.3194    1.7190    0.0082 H   0  0  0  0  0  0  0  0  0  0  0  0
    1.7874    1.5999    0.8736 H   0  0  0  0  0  0  0  0  0  0  0  0
    1.4452    0.4688   -1.0945 H   0  0  0  0  0  0  0  0  0  0  0  0
    1.0321   -1.8749   -1.3543 H   0  0  0  0  0  0  0  0  0  0  0  0
    0.6292   -2.0610    0.4433 H   0  0  0  0  0  0  0  0  0  0  0  0
   -1.3414   -1.7223   -0.8448 H   0  0  0  0  0  0  0  0  0  0  0  0
   -0.6766   -0.1247   -1.4971 H   0  0  0  0  0  0  0  0  0  0  0  0
    0.9128   -0.8576    2.5833 H   0  0  0  0  0  0  0  0  0  0  0  0
    1.3903    0.8047    3.0902 H   0  0  0  0  0  0  0  0  0  0  0  0
    3.0166   -1.3233    2.1160 H   0  0  0  0  0  0  0  0  0  0  0  0
    3.4054   -0.0034    3.1878 H   0  0  0  0  0  0  0  0  0  0  0  0
    3.4453   -0.0908   -2.1213 H   0  0  0  0  0  0  0  0  0  0  0  0
    3.6540    1.2345   -0.9546 H   0  0  0  0  0  0  0  0  0  0  0  0
    5.2954   -1.3449   -0.9769 H   0  0  0  0  0  0  0  0  0  0  0  0
    6.6430    1.1732   -1.4703 H   0  0  0  0  0  0  0  0  0  0  0  0
    5.3980    0.8024   -2.7526 H   0  0  0  0  0  0  0  0  0  0  0  0
    6.7351   -0.3464   -2.3958 H   0  0  0  0  0  0  0  0  0  0  0  0
    5.6099   -0.7094    1.1631 H   0  0  0  0  0  0  0  0  0  0  0  0
    6.6581    0.6069    0.3903 H   0  0  0  0  0  0  0  0  0  0  0  0
    4.9675    0.9595    0.8460 H   0  0  0  0  0  0  0  0  0  0  0  0
   -3.9373    2.2962   -1.8367 H   0  0  0  0  0  0  0  0  0  0  0  0
   -5.5266    1.6176   -1.4129 H   0  0  0  0  0  0  0  0  0  0  0  0
   -4.6301    1.0892   -2.9426 H   0  0  0  0  0  0  0  0  0  0  0  0
   -6.6547   -0.1519   -0.8108 H   0  0  0  0  0  0  0  0  0  0  0  0
   -6.0127    0.1958    1.8859 H   0  0  0  0  0  0  0  0  0  0  0  0
   -6.5352   -2.2502   -0.1494 H   0  0  0  0  0  0  0  0  0  0  0  0
  1  2  1  0
  2  3  1  0
  3  4  1  0
  1  5  1  0
  4  5  1  0
  2  6  1  0
  6  7  1  0
  7  8  1  0
  8  9  1  0
  9 10  1  0
  6 11  1  0
 10 11  1  0
  8 12  1  0
 12 13  1  0
  9 14  1  0
 14 15  1  0
 15 16  1  0
 16 17  1  0
 16 18  1  0
  4 19  1  0
  5 20  1  0
 20 21  1  0
 20 22  1  0
 23 24  1  0
 24 25  1  0
 25 26  1  0
 23 27  1  0
 26 27  1  0
 24 28  1  0
 28 29  1  0
 29 30  1  0
 30 31  1  0
 31 32  1  0
 28 33  1  0
 32 33  1  0
 30 34  1  0
 34 35  1  0
 31 36  1  0
 36 37  1  0
 37 38  1  0
 38 39  1  0
 38 40  1  0
 26 41  1  0
 27 42  1  0
 42 43  1  0
 42 44  1  0
  2 45  1  0
  3 46  1  0
  4 47  1  0
  5 48  1  0
  6 49  1  0
  7 50  1  0
  7 51  1  0
  8 52  1  0
  9 53  1  0
 10 54  1  0
 10 55  1  0
 11 56  1  0
 11 57  1  0
 12 58  1  0
 12 59  1  0
 13 60  1  0
 13 61  1  0
 15 62  1  0
 15 63  1  0
 16 64  1  0
 17 65  1  0
 17 66  1  0
 17 67  1  0
 18 68  1  0
 18 69  1  0
 18 70  1  0
 19 71  1  0
 19 72  1  0
 19 73  1  0
 20 74  1  0
 21 75  1  0
 22 76  1  0
 24 77  1  0
 25 78  1  0
 26 79  1  0
 27 80  1  0
 28 81  1  0
 29 82  1  0
 29 83  1  0
 30 84  1  0
 31 85  1  0
 32 86  1  0
 32 87  1  0
 33 88  1  0
 33 89  1  0
 34 90  1  0
 34 91  1  0
 35 92  1  0
 35 93  1  0
 37 94  1  0
 37 95  1  0
 38 96  1  0
 39 97  1  0
 39 98  1  0
 39 99  1  0
 40100  1  0
 40101  1  0
 40102  1  0
 41103  1  0
 41104  1  0
 41105  1  0
 42106  1  0
 43107  1  0
 44108  1  0
M  END
>  <PDBID>  (1) 
1N5X

>  <PDB ID>  (1) 
1N5X

>  <Generic Name>  (1) 
Febuxostat

>  <Brand Name>  (1) 
Febuxostat#Uloric#Adenuric#Atenurix#Barif#Feburic

>  <DrugBank ID>  (1) 
DB04854

>  <ATC Codes>  (1) 
M04AA03

>  <Ligand ID>  (1) 
TEI

>  <Target Name>  (1) 
Xanthine dehydrogenase/oxidase

>  <UniProt ID>  (1) 
P47989

>  <PDB ID.1>  (1) 
1N5X

>  <Seq. Identity>  (1) 
85%

$$$$
