PDB_DB01044_01
     RDKit          3D

122128  0  0  0  0  0  0  0  0999 V2000
    5.8225    1.5649   -0.1529 C   0  0  0  0  0  0  0  0  0  0  0  0
    4.3516    1.2872    0.2138 C   0  0  1  0  0  0  0  0  0  0  0  0
    3.8265    0.3929   -0.8387 C   0  0  0  0  0  0  0  0  0  0  0  0
    2.7107   -0.4502   -0.4580 N   0  0  0  0  0  0  0  0  0  0  0  0
    3.1669   -1.1735    0.7113 C   0  0  0  0  0  0  0  0  0  0  0  0
    3.3874   -0.2195    1.8379 C   0  0  0  0  0  0  0  0  0  0  0  0
    4.3511    0.8020    1.5523 N   0  0  0  0  0  0  0  0  0  0  0  0
    1.5013    0.2725   -0.2458 C   0  0  0  0  0  0  0  0  0  0  0  0
    1.0568    1.0072   -1.4920 C   0  0  0  0  0  0  0  0  0  0  0  0
   -0.1889    1.8072   -1.1325 C   0  0  0  0  0  0  0  0  0  0  0  0
   -1.2906    0.7964   -0.8803 C   0  0  0  0  0  0  0  0  0  0  0  0
   -0.8778   -0.0535    0.2710 C   0  0  0  0  0  0  0  0  0  0  0  0
    0.3862   -0.7931   -0.0424 C   0  0  0  0  0  0  0  0  0  0  0  0
    0.3557   -1.4841   -1.2220 O   0  0  0  0  0  0  0  0  0  0  0  0
    0.7209   -2.8195   -1.1598 C   0  0  0  0  0  0  0  0  0  0  0  0
   -1.9155   -0.8750    0.8359 N   0  0  0  0  0  0  0  0  0  0  0  0
   -3.0267   -0.0060    1.2079 C   0  0  0  0  0  0  0  0  0  0  0  0
   -3.5734    0.6055   -0.0829 C   0  0  0  0  0  0  0  0  0  0  0  0
   -2.5213    1.6305   -0.4806 C   0  0  0  0  0  0  0  0  0  0  0  0
   -2.1660    2.3004    0.7002 O   0  0  0  0  0  0  0  0  0  0  0  0
   -4.9354    1.1796    0.0712 C   0  0  0  0  0  0  0  0  0  0  0  0
   -5.3265    1.7085   -1.1574 O   0  0  0  0  0  0  0  0  0  0  0  0
   -4.9752    2.1773    1.0124 O   0  0  0  0  0  0  0  0  0  0  0  0
   -2.3672   -1.9369   -0.0034 C   0  0  0  0  0  0  0  0  0  0  0  0
   -3.7398   -2.4393    0.1086 C   0  0  0  0  0  0  0  0  0  0  0  0
   -2.5975   -3.2759    0.6322 C   0  0  0  0  0  0  0  0  0  0  0  0
    0.7162    0.1612   -2.5156 F   0  0  0  0  0  0  0  0  0  0  0  0
    5.9049    2.3622   -0.9001 H   0  0  0  0  0  0  0  0  0  0  0  0
    6.3863    1.8543    0.7533 H   0  0  0  0  0  0  0  0  0  0  0  0
    6.2545    0.6185   -0.5840 H   0  0  0  0  0  0  0  0  0  0  0  0
    3.8761    2.3011    0.2289 H   0  0  0  0  0  0  0  0  0  0  0  0
    4.6514   -0.3323   -1.1067 H   0  0  0  0  0  0  0  0  0  0  0  0
    3.6584    0.9620   -1.7711 H   0  0  0  0  0  0  0  0  0  0  0  0
    2.5402   -1.9951    1.0313 H   0  0  0  0  0  0  0  0  0  0  0  0
    4.1643   -1.5997    0.4134 H   0  0  0  0  0  0  0  0  0  0  0  0
    2.4426    0.1929    2.2184 H   0  0  0  0  0  0  0  0  0  0  0  0
    3.8164   -0.8195    2.6967 H   0  0  0  0  0  0  0  0  0  0  0  0
    5.3046    0.5931    1.9295 H   0  0  0  0  0  0  0  0  0  0  0  0
   -0.4308    2.4879   -1.9802 H   0  0  0  0  0  0  0  0  0  0  0  0
    0.0688   -3.3981   -0.4690 H   0  0  0  0  0  0  0  0  0  0  0  0
    1.7858   -3.0076   -0.9837 H   0  0  0  0  0  0  0  0  0  0  0  0
    0.4464   -3.2449   -2.1801 H   0  0  0  0  0  0  0  0  0  0  0  0
   -3.8246   -0.5103    1.7191 H   0  0  0  0  0  0  0  0  0  0  0  0
   -1.9909   -1.8673   -1.0616 H   0  0  0  0  0  0  0  0  0  0  0  0
   -4.4707   -2.1885    0.8704 H   0  0  0  0  0  0  0  0  0  0  0  0
   -4.2262   -2.9131   -0.7924 H   0  0  0  0  0  0  0  0  0  0  0  0
   -2.3057   -4.2019    0.0980 H   0  0  0  0  0  0  0  0  0  0  0  0
   -2.4330   -3.3154    1.7469 H   0  0  0  0  0  0  0  0  0  0  0  0
    5.8225    1.5649   -0.1529 C   0  0  0  0  0  0  0  0  0  0  0  0
    4.3516    1.2872    0.2138 C   0  0  1  0  0  0  0  0  0  0  0  0
    3.8265    0.3929   -0.8387 C   0  0  0  0  0  0  0  0  0  0  0  0
    2.7107   -0.4502   -0.4580 N   0  0  0  0  0  0  0  0  0  0  0  0
    3.1669   -1.1735    0.7113 C   0  0  0  0  0  0  0  0  0  0  0  0
    3.3874   -0.2195    1.8379 C   0  0  0  0  0  0  0  0  0  0  0  0
    4.3511    0.8020    1.5523 N   0  0  0  0  0  0  0  0  0  0  0  0
    1.5013    0.2725   -0.2458 C   0  0  0  0  0  0  0  0  0  0  0  0
    1.0568    1.0072   -1.4920 C   0  0  0  0  0  0  0  0  0  0  0  0
   -0.1889    1.8072   -1.1325 C   0  0  0  0  0  0  0  0  0  0  0  0
   -1.2906    0.7964   -0.8803 C   0  0  0  0  0  0  0  0  0  0  0  0
   -0.8778   -0.0535    0.2710 C   0  0  0  0  0  0  0  0  0  0  0  0
    0.3862   -0.7931   -0.0424 C   0  0  0  0  0  0  0  0  0  0  0  0
    0.3557   -1.4841   -1.2220 O   0  0  0  0  0  0  0  0  0  0  0  0
    0.7209   -2.8195   -1.1598 C   0  0  0  0  0  0  0  0  0  0  0  0
   -1.9155   -0.8750    0.8359 N   0  0  0  0  0  0  0  0  0  0  0  0
   -3.0267   -0.0060    1.2079 C   0  0  0  0  0  0  0  0  0  0  0  0
   -3.5734    0.6055   -0.0829 C   0  0  0  0  0  0  0  0  0  0  0  0
   -2.5213    1.6305   -0.4806 C   0  0  0  0  0  0  0  0  0  0  0  0
   -2.1660    2.3004    0.7002 O   0  0  0  0  0  0  0  0  0  0  0  0
   -4.9354    1.1796    0.0712 C   0  0  0  0  0  0  0  0  0  0  0  0
   -5.3265    1.7085   -1.1574 O   0  0  0  0  0  0  0  0  0  0  0  0
   -4.9752    2.1773    1.0124 O   0  0  0  0  0  0  0  0  0  0  0  0
   -2.3672   -1.9369   -0.0034 C   0  0  0  0  0  0  0  0  0  0  0  0
   -3.7398   -2.4393    0.1086 C   0  0  0  0  0  0  0  0  0  0  0  0
   -2.5975   -3.2759    0.6322 C   0  0  0  0  0  0  0  0  0  0  0  0
    0.7162    0.1612   -2.5156 F   0  0  0  0  0  0  0  0  0  0  0  0
    5.9049    2.3622   -0.9001 H   0  0  0  0  0  0  0  0  0  0  0  0
    6.3863    1.8543    0.7533 H   0  0  0  0  0  0  0  0  0  0  0  0
    6.2545    0.6185   -0.5840 H   0  0  0  0  0  0  0  0  0  0  0  0
    3.8761    2.3011    0.2289 H   0  0  0  0  0  0  0  0  0  0  0  0
    4.6514   -0.3323   -1.1067 H   0  0  0  0  0  0  0  0  0  0  0  0
    3.6584    0.9620   -1.7711 H   0  0  0  0  0  0  0  0  0  0  0  0
    2.5402   -1.9951    1.0313 H   0  0  0  0  0  0  0  0  0  0  0  0
    4.1643   -1.5997    0.4134 H   0  0  0  0  0  0  0  0  0  0  0  0
    2.4426    0.1929    2.2184 H   0  0  0  0  0  0  0  0  0  0  0  0
    3.8164   -0.8195    2.6967 H   0  0  0  0  0  0  0  0  0  0  0  0
    5.3046    0.5931    1.9295 H   0  0  0  0  0  0  0  0  0  0  0  0
   -0.4308    2.4879   -1.9802 H   0  0  0  0  0  0  0  0  0  0  0  0
    0.0688   -3.3981   -0.4690 H   0  0  0  0  0  0  0  0  0  0  0  0
    1.7858   -3.0076   -0.9837 H   0  0  0  0  0  0  0  0  0  0  0  0
    0.4464   -3.2449   -2.1801 H   0  0  0  0  0  0  0  0  0  0  0  0
   -3.8246   -0.5103    1.7191 H   0  0  0  0  0  0  0  0  0  0  0  0
   -1.9909   -1.8673   -1.0616 H   0  0  0  0  0  0  0  0  0  0  0  0
   -4.4707   -2.1885    0.8704 H   0  0  0  0  0  0  0  0  0  0  0  0
   -4.2262   -2.9131   -0.7924 H   0  0  0  0  0  0  0  0  0  0  0  0
   -2.3057   -4.2019    0.0980 H   0  0  0  0  0  0  0  0  0  0  0  0
   -2.4330   -3.3154    1.7469 H   0  0  0  0  0  0  0  0  0  0  0  0
    1.4973    0.9667    0.5910 H   0  0  0  0  0  0  0  0  0  0  0  0
    1.7891    1.7473   -1.8504 H   0  0  0  0  0  0  0  0  0  0  0  0
   -0.0102    2.4044   -0.1923 H   0  0  0  0  0  0  0  0  0  0  0  0
   -1.4941    0.2418   -1.8040 H   0  0  0  0  0  0  0  0  0  0  0  0
   -0.6010    0.6694    1.0989 H   0  0  0  0  0  0  0  0  0  0  0  0
    0.6791   -1.3602    0.8478 H   0  0  0  0  0  0  0  0  0  0  0  0
   -2.6456    0.8161    1.8249 H   0  0  0  0  0  0  0  0  0  0  0  0
   -3.5513   -0.1601   -0.9110 H   0  0  0  0  0  0  0  0  0  0  0  0
   -2.8338    2.3075   -1.2725 H   0  0  0  0  0  0  0  0  0  0  0  0
   -2.0425    3.2559    0.5949 H   0  0  0  0  0  0  0  0  0  0  0  0
   -5.6278    0.3349    0.2765 H   0  0  0  0  0  0  0  0  0  0  0  0
   -4.6593    1.5594   -1.8734 H   0  0  0  0  0  0  0  0  0  0  0  0
   -4.9707    3.0712    0.5956 H   0  0  0  0  0  0  0  0  0  0  0  0
    1.4973    0.9667    0.5910 H   0  0  0  0  0  0  0  0  0  0  0  0
    1.7891    1.7473   -1.8504 H   0  0  0  0  0  0  0  0  0  0  0  0
   -0.0102    2.4044   -0.1923 H   0  0  0  0  0  0  0  0  0  0  0  0
   -1.4941    0.2418   -1.8040 H   0  0  0  0  0  0  0  0  0  0  0  0
   -0.6010    0.6694    1.0989 H   0  0  0  0  0  0  0  0  0  0  0  0
    0.6791   -1.3602    0.8478 H   0  0  0  0  0  0  0  0  0  0  0  0
   -2.6456    0.8161    1.8249 H   0  0  0  0  0  0  0  0  0  0  0  0
   -3.5513   -0.1601   -0.9110 H   0  0  0  0  0  0  0  0  0  0  0  0
   -2.8338    2.3075   -1.2725 H   0  0  0  0  0  0  0  0  0  0  0  0
   -2.0425    3.2559    0.5949 H   0  0  0  0  0  0  0  0  0  0  0  0
   -5.6278    0.3349    0.2765 H   0  0  0  0  0  0  0  0  0  0  0  0
   -4.6593    1.5594   -1.8734 H   0  0  0  0  0  0  0  0  0  0  0  0
   -4.9707    3.0712    0.5956 H   0  0  0  0  0  0  0  0  0  0  0  0
  1  2  1  0
  2  3  1  0
  3  4  1  0
  4  5  1  0
  5  6  1  0
  2  7  1  0
  6  7  1  0
  4  8  1  0
  8  9  1  0
  9 10  1  0
 10 11  1  0
 11 12  1  0
  8 13  1  0
 12 13  1  0
 13 14  1  0
 14 15  1  0
 12 16  1  0
 16 17  1  0
 17 18  1  0
 11 19  1  0
 18 19  1  0
 19 20  1  0
 18 21  1  0
 21 22  1  0
 21 23  1  0
 16 24  1  0
 24 25  1  0
 24 26  1  0
 25 26  1  0
  9 27  1  0
  1 28  1  0
  1 29  1  0
  1 30  1  0
  2 31  1  1
  3 32  1  0
  3 33  1  0
  5 34  1  0
  5 35  1  0
  6 36  1  0
  6 37  1  0
  7 38  1  0
 10 39  1  0
 15 40  1  0
 15 41  1  0
 15 42  1  0
 17 43  1  0
 24 44  1  0
 25 45  1  0
 25 46  1  0
 26 47  1  0
 26 48  1  0
 49 50  1  0
 50 51  1  0
 51 52  1  0
 52 53  1  0
 53 54  1  0
 50 55  1  0
 54 55  1  0
 52 56  1  0
 56 57  1  0
 57 58  1  0
 58 59  1  0
 59 60  1  0
 56 61  1  0
 60 61  1  0
 61 62  1  0
 62 63  1  0
 60 64  1  0
 64 65  1  0
 65 66  1  0
 59 67  1  0
 66 67  1  0
 67 68  1  0
 66 69  1  0
 69 70  1  0
 69 71  1  0
 64 72  1  0
 72 73  1  0
 72 74  1  0
 73 74  1  0
 57 75  1  0
 49 76  1  0
 49 77  1  0
 49 78  1  0
 50 79  1  1
 51 80  1  0
 51 81  1  0
 53 82  1  0
 53 83  1  0
 54 84  1  0
 54 85  1  0
 55 86  1  0
 58 87  1  0
 63 88  1  0
 63 89  1  0
 63 90  1  0
 65 91  1  0
 72 92  1  0
 73 93  1  0
 73 94  1  0
 74 95  1  0
 74 96  1  0
  8 97  1  0
  9 98  1  0
 10 99  1  0
 11100  1  0
 12101  1  0
 13102  1  0
 17103  1  0
 18104  1  0
 19105  1  0
 20106  1  0
 21107  1  0
 22108  1  0
 23109  1  0
 56110  1  0
 57111  1  0
 58112  1  0
 59113  1  0
 60114  1  0
 61115  1  0
 65116  1  0
 66117  1  0
 67118  1  0
 68119  1  0
 69120  1  0
 70121  1  0
 71122  1  0
M  END
>  <PDBID>  (1) 
5BTF

>  <PDB ID>  (1) 
5BTF

>  <Generic Name>  (1) 
Gatifloxacin

>  <Brand Name>  (1) 
Apo-gatifloxacin#Gatifloxacin#Tequin#Tequin IV#Zymar#Zymaxid

>  <DrugBank ID>  (1) 
DB01044

>  <ATC Codes>  (1) 
S01AE06#J01MA16

>  <Ligand ID>  (1) 
GFN

>  <Target Name>  (1) 
DNA gyrase subunit A

>  <UniProt ID>  (1) 
P72524

>  <PDB ID.1>  (1) 
5BTF

>  <Seq. Identity>  (1) 
53%

$$$$
