PDB_DB08910_08
     RDKit          3D

180188  0  0  0  0  0  0  0  0999 V2000
   -4.1356   -0.3889    0.1209 C   0  0  0  0  0  0  0  0  0  0  0  0
   -4.0207    1.0643   -0.2673 C   0  0  0  0  0  0  0  0  0  0  0  0
   -2.7640    1.7161    0.2897 C   0  0  0  0  0  0  0  0  0  0  0  0
   -1.5917    0.9247   -0.2148 C   0  0  0  0  0  0  0  0  0  0  0  0
   -1.7385   -0.5160    0.3066 C   0  0  0  0  0  0  0  0  0  0  0  0
   -2.8955   -1.1616   -0.3582 C   0  0  0  0  0  0  0  0  0  0  0  0
   -0.2915    1.2407    0.4749 C   0  0  0  0  0  0  0  0  0  0  0  0
    0.5018    0.0734    0.2764 N   0  0  0  0  0  0  0  0  0  0  0  0
   -0.3818   -1.0286   -0.0624 C   0  0  0  0  0  0  0  0  0  0  0  0
   -2.9006   -1.0451   -1.7964 N   0  0  0  0  0  0  0  0  0  0  0  0
   -0.0637   -2.1129    0.7582 O   0  0  0  0  0  0  0  0  0  0  0  0
    1.5365    0.1873   -0.7021 C   0  0  1  0  0  0  0  0  0  0  0  0
   -0.5709    1.3340    1.8484 O   0  0  0  0  0  0  0  0  0  0  0  0
    2.5805    1.2203   -0.3905 C   0  0  0  0  0  0  0  0  0  0  0  0
    2.2783   -1.1408   -0.7279 C   0  0  0  0  0  0  0  0  0  0  0  0
    3.7118   -0.9532   -0.8761 N   0  0  0  0  0  0  0  0  0  0  0  0
    4.2972   -0.3583    0.2813 C   0  0  0  0  0  0  0  0  0  0  0  0
    3.4283    0.7966    0.7992 C   0  0  0  0  0  0  0  0  0  0  0  0
    1.7989   -1.9546   -1.7503 O   0  0  0  0  0  0  0  0  0  0  0  0
    5.5633    0.1341   -0.0924 O   0  0  0  0  0  0  0  0  0  0  0  0
   -4.1356   -0.3889    0.1209 C   0  0  0  0  0  0  0  0  0  0  0  0
   -4.0207    1.0643   -0.2673 C   0  0  0  0  0  0  0  0  0  0  0  0
   -2.7640    1.7161    0.2897 C   0  0  0  0  0  0  0  0  0  0  0  0
   -1.5917    0.9247   -0.2148 C   0  0  0  0  0  0  0  0  0  0  0  0
   -1.7385   -0.5160    0.3066 C   0  0  0  0  0  0  0  0  0  0  0  0
   -2.8955   -1.1616   -0.3582 C   0  0  0  0  0  0  0  0  0  0  0  0
   -0.2915    1.2407    0.4749 C   0  0  0  0  0  0  0  0  0  0  0  0
    0.5018    0.0734    0.2764 N   0  0  0  0  0  0  0  0  0  0  0  0
   -0.3818   -1.0286   -0.0624 C   0  0  0  0  0  0  0  0  0  0  0  0
   -2.9006   -1.0451   -1.7964 N   0  0  0  0  0  0  0  0  0  0  0  0
   -0.0637   -2.1129    0.7582 O   0  0  0  0  0  0  0  0  0  0  0  0
    1.5365    0.1873   -0.7021 C   0  0  1  0  0  0  0  0  0  0  0  0
   -0.5709    1.3340    1.8484 O   0  0  0  0  0  0  0  0  0  0  0  0
    2.5805    1.2203   -0.3905 C   0  0  0  0  0  0  0  0  0  0  0  0
    2.2783   -1.1408   -0.7279 C   0  0  0  0  0  0  0  0  0  0  0  0
    3.7118   -0.9532   -0.8761 N   0  0  0  0  0  0  0  0  0  0  0  0
    4.2972   -0.3583    0.2813 C   0  0  0  0  0  0  0  0  0  0  0  0
    3.4283    0.7966    0.7992 C   0  0  0  0  0  0  0  0  0  0  0  0
    1.7989   -1.9546   -1.7503 O   0  0  0  0  0  0  0  0  0  0  0  0
    5.5633    0.1341   -0.0924 O   0  0  0  0  0  0  0  0  0  0  0  0
   -4.1356   -0.3889    0.1209 C   0  0  0  0  0  0  0  0  0  0  0  0
   -4.0207    1.0643   -0.2673 C   0  0  0  0  0  0  0  0  0  0  0  0
   -2.7640    1.7161    0.2897 C   0  0  0  0  0  0  0  0  0  0  0  0
   -1.5917    0.9247   -0.2148 C   0  0  0  0  0  0  0  0  0  0  0  0
   -1.7385   -0.5160    0.3066 C   0  0  0  0  0  0  0  0  0  0  0  0
   -2.8955   -1.1616   -0.3582 C   0  0  0  0  0  0  0  0  0  0  0  0
   -0.2915    1.2407    0.4749 C   0  0  0  0  0  0  0  0  0  0  0  0
    0.5018    0.0734    0.2764 N   0  0  0  0  0  0  0  0  0  0  0  0
   -0.3818   -1.0286   -0.0624 C   0  0  0  0  0  0  0  0  0  0  0  0
   -2.9006   -1.0451   -1.7964 N   0  0  0  0  0  0  0  0  0  0  0  0
   -0.0637   -2.1129    0.7582 O   0  0  0  0  0  0  0  0  0  0  0  0
    1.5365    0.1873   -0.7021 C   0  0  1  0  0  0  0  0  0  0  0  0
   -0.5709    1.3340    1.8484 O   0  0  0  0  0  0  0  0  0  0  0  0
    2.5805    1.2203   -0.3905 C   0  0  0  0  0  0  0  0  0  0  0  0
    2.2783   -1.1408   -0.7279 C   0  0  0  0  0  0  0  0  0  0  0  0
    3.7118   -0.9532   -0.8761 N   0  0  0  0  0  0  0  0  0  0  0  0
    4.2972   -0.3583    0.2813 C   0  0  0  0  0  0  0  0  0  0  0  0
    3.4283    0.7966    0.7992 C   0  0  0  0  0  0  0  0  0  0  0  0
    1.7989   -1.9546   -1.7503 O   0  0  0  0  0  0  0  0  0  0  0  0
    5.5633    0.1341   -0.0924 O   0  0  0  0  0  0  0  0  0  0  0  0
   -4.1356   -0.3889    0.1209 C   0  0  0  0  0  0  0  0  0  0  0  0
   -4.0207    1.0643   -0.2673 C   0  0  0  0  0  0  0  0  0  0  0  0
   -2.7640    1.7161    0.2897 C   0  0  0  0  0  0  0  0  0  0  0  0
   -1.5917    0.9247   -0.2148 C   0  0  0  0  0  0  0  0  0  0  0  0
   -1.7385   -0.5160    0.3066 C   0  0  0  0  0  0  0  0  0  0  0  0
   -2.8955   -1.1616   -0.3582 C   0  0  0  0  0  0  0  0  0  0  0  0
   -0.2915    1.2407    0.4749 C   0  0  0  0  0  0  0  0  0  0  0  0
    0.5018    0.0734    0.2764 N   0  0  0  0  0  0  0  0  0  0  0  0
   -0.3818   -1.0286   -0.0624 C   0  0  0  0  0  0  0  0  0  0  0  0
   -2.9006   -1.0451   -1.7964 N   0  0  0  0  0  0  0  0  0  0  0  0
   -0.0637   -2.1129    0.7582 O   0  0  0  0  0  0  0  0  0  0  0  0
    1.5365    0.1873   -0.7021 C   0  0  1  0  0  0  0  0  0  0  0  0
   -0.5709    1.3340    1.8484 O   0  0  0  0  0  0  0  0  0  0  0  0
    2.5805    1.2203   -0.3905 C   0  0  0  0  0  0  0  0  0  0  0  0
    2.2783   -1.1408   -0.7279 C   0  0  0  0  0  0  0  0  0  0  0  0
    3.7118   -0.9532   -0.8761 N   0  0  0  0  0  0  0  0  0  0  0  0
    4.2972   -0.3583    0.2813 C   0  0  0  0  0  0  0  0  0  0  0  0
    3.4283    0.7966    0.7992 C   0  0  0  0  0  0  0  0  0  0  0  0
    1.7989   -1.9546   -1.7503 O   0  0  0  0  0  0  0  0  0  0  0  0
    5.5633    0.1341   -0.0924 O   0  0  0  0  0  0  0  0  0  0  0  0
   -5.0539   -0.7777   -0.3315 H   0  0  0  0  0  0  0  0  0  0  0  0
   -4.1208   -0.4541    1.2159 H   0  0  0  0  0  0  0  0  0  0  0  0
   -4.9195    1.5883    0.0699 H   0  0  0  0  0  0  0  0  0  0  0  0
   -3.9486    1.1094   -1.3702 H   0  0  0  0  0  0  0  0  0  0  0  0
   -2.7141    2.7243   -0.1799 H   0  0  0  0  0  0  0  0  0  0  0  0
   -2.7834    1.7867    1.3878 H   0  0  0  0  0  0  0  0  0  0  0  0
   -1.5403    0.9656   -1.3030 H   0  0  0  0  0  0  0  0  0  0  0  0
   -1.8867   -0.4894    1.3827 H   0  0  0  0  0  0  0  0  0  0  0  0
   -3.0250   -2.1917   -0.0071 H   0  0  0  0  0  0  0  0  0  0  0  0
    0.1601    2.1856    0.1795 H   0  0  0  0  0  0  0  0  0  0  0  0
   -0.3370   -1.2914   -1.1384 H   0  0  0  0  0  0  0  0  0  0  0  0
   -1.9993   -0.8070   -2.2169 H   0  0  0  0  0  0  0  0  0  0  0  0
   -3.2898   -1.8936   -2.2297 H   0  0  0  0  0  0  0  0  0  0  0  0
   -0.7086   -2.1686    1.4944 H   0  0  0  0  0  0  0  0  0  0  0  0
    1.1750    0.3664   -1.7340 H   0  0  0  0  0  0  0  0  0  0  0  0
    0.1146    0.9104    2.3957 H   0  0  0  0  0  0  0  0  0  0  0  0
    2.1842    2.2406   -0.2786 H   0  0  0  0  0  0  0  0  0  0  0  0
    3.2719    1.2534   -1.2599 H   0  0  0  0  0  0  0  0  0  0  0  0
    2.1523   -1.6708    0.2386 H   0  0  0  0  0  0  0  0  0  0  0  0
    4.0045   -0.5780   -1.7812 H   0  0  0  0  0  0  0  0  0  0  0  0
    4.4889   -1.0638    1.1145 H   0  0  0  0  0  0  0  0  0  0  0  0
    2.7754    0.4334    1.6187 H   0  0  0  0  0  0  0  0  0  0  0  0
    4.0945    1.6097    1.1065 H   0  0  0  0  0  0  0  0  0  0  0  0
    2.1467   -2.8711   -1.5712 H   0  0  0  0  0  0  0  0  0  0  0  0
    5.4167    1.0520   -0.4468 H   0  0  0  0  0  0  0  0  0  0  0  0
   -5.0539   -0.7777   -0.3315 H   0  0  0  0  0  0  0  0  0  0  0  0
   -4.1208   -0.4541    1.2159 H   0  0  0  0  0  0  0  0  0  0  0  0
   -4.9195    1.5883    0.0699 H   0  0  0  0  0  0  0  0  0  0  0  0
   -3.9486    1.1094   -1.3702 H   0  0  0  0  0  0  0  0  0  0  0  0
   -2.7141    2.7243   -0.1799 H   0  0  0  0  0  0  0  0  0  0  0  0
   -2.7834    1.7867    1.3878 H   0  0  0  0  0  0  0  0  0  0  0  0
   -1.5403    0.9656   -1.3030 H   0  0  0  0  0  0  0  0  0  0  0  0
   -1.8867   -0.4894    1.3827 H   0  0  0  0  0  0  0  0  0  0  0  0
   -3.0250   -2.1917   -0.0071 H   0  0  0  0  0  0  0  0  0  0  0  0
    0.1601    2.1856    0.1795 H   0  0  0  0  0  0  0  0  0  0  0  0
   -0.3370   -1.2914   -1.1384 H   0  0  0  0  0  0  0  0  0  0  0  0
   -1.9993   -0.8070   -2.2169 H   0  0  0  0  0  0  0  0  0  0  0  0
   -3.2898   -1.8936   -2.2297 H   0  0  0  0  0  0  0  0  0  0  0  0
   -0.7086   -2.1686    1.4944 H   0  0  0  0  0  0  0  0  0  0  0  0
    1.1750    0.3664   -1.7340 H   0  0  0  0  0  0  0  0  0  0  0  0
    0.1146    0.9104    2.3957 H   0  0  0  0  0  0  0  0  0  0  0  0
    2.1842    2.2406   -0.2786 H   0  0  0  0  0  0  0  0  0  0  0  0
    3.2719    1.2534   -1.2599 H   0  0  0  0  0  0  0  0  0  0  0  0
    2.1523   -1.6708    0.2386 H   0  0  0  0  0  0  0  0  0  0  0  0
    4.0045   -0.5780   -1.7812 H   0  0  0  0  0  0  0  0  0  0  0  0
    4.4889   -1.0638    1.1145 H   0  0  0  0  0  0  0  0  0  0  0  0
    2.7754    0.4334    1.6187 H   0  0  0  0  0  0  0  0  0  0  0  0
    4.0945    1.6097    1.1065 H   0  0  0  0  0  0  0  0  0  0  0  0
    2.1467   -2.8711   -1.5712 H   0  0  0  0  0  0  0  0  0  0  0  0
    5.4167    1.0520   -0.4468 H   0  0  0  0  0  0  0  0  0  0  0  0
   -5.0539   -0.7777   -0.3315 H   0  0  0  0  0  0  0  0  0  0  0  0
   -4.1208   -0.4541    1.2159 H   0  0  0  0  0  0  0  0  0  0  0  0
   -4.9195    1.5883    0.0699 H   0  0  0  0  0  0  0  0  0  0  0  0
   -3.9486    1.1094   -1.3702 H   0  0  0  0  0  0  0  0  0  0  0  0
   -2.7141    2.7243   -0.1799 H   0  0  0  0  0  0  0  0  0  0  0  0
   -2.7834    1.7867    1.3878 H   0  0  0  0  0  0  0  0  0  0  0  0
   -1.5403    0.9656   -1.3030 H   0  0  0  0  0  0  0  0  0  0  0  0
   -1.8867   -0.4894    1.3827 H   0  0  0  0  0  0  0  0  0  0  0  0
   -3.0250   -2.1917   -0.0071 H   0  0  0  0  0  0  0  0  0  0  0  0
    0.1601    2.1856    0.1795 H   0  0  0  0  0  0  0  0  0  0  0  0
   -0.3370   -1.2914   -1.1384 H   0  0  0  0  0  0  0  0  0  0  0  0
   -1.9993   -0.8070   -2.2169 H   0  0  0  0  0  0  0  0  0  0  0  0
   -3.2898   -1.8936   -2.2297 H   0  0  0  0  0  0  0  0  0  0  0  0
   -0.7086   -2.1686    1.4944 H   0  0  0  0  0  0  0  0  0  0  0  0
    1.1750    0.3664   -1.7340 H   0  0  0  0  0  0  0  0  0  0  0  0
    0.1146    0.9104    2.3957 H   0  0  0  0  0  0  0  0  0  0  0  0
    2.1842    2.2406   -0.2786 H   0  0  0  0  0  0  0  0  0  0  0  0
    3.2719    1.2534   -1.2599 H   0  0  0  0  0  0  0  0  0  0  0  0
    2.1523   -1.6708    0.2386 H   0  0  0  0  0  0  0  0  0  0  0  0
    4.0045   -0.5780   -1.7812 H   0  0  0  0  0  0  0  0  0  0  0  0
    4.4889   -1.0638    1.1145 H   0  0  0  0  0  0  0  0  0  0  0  0
    2.7754    0.4334    1.6187 H   0  0  0  0  0  0  0  0  0  0  0  0
    4.0945    1.6097    1.1065 H   0  0  0  0  0  0  0  0  0  0  0  0
    2.1467   -2.8711   -1.5712 H   0  0  0  0  0  0  0  0  0  0  0  0
    5.4167    1.0520   -0.4468 H   0  0  0  0  0  0  0  0  0  0  0  0
   -5.0539   -0.7777   -0.3315 H   0  0  0  0  0  0  0  0  0  0  0  0
   -4.1208   -0.4541    1.2159 H   0  0  0  0  0  0  0  0  0  0  0  0
   -4.9195    1.5883    0.0699 H   0  0  0  0  0  0  0  0  0  0  0  0
   -3.9486    1.1094   -1.3702 H   0  0  0  0  0  0  0  0  0  0  0  0
   -2.7141    2.7243   -0.1799 H   0  0  0  0  0  0  0  0  0  0  0  0
   -2.7834    1.7867    1.3878 H   0  0  0  0  0  0  0  0  0  0  0  0
   -1.5403    0.9656   -1.3030 H   0  0  0  0  0  0  0  0  0  0  0  0
   -1.8867   -0.4894    1.3827 H   0  0  0  0  0  0  0  0  0  0  0  0
   -3.0250   -2.1917   -0.0071 H   0  0  0  0  0  0  0  0  0  0  0  0
    0.1601    2.1856    0.1795 H   0  0  0  0  0  0  0  0  0  0  0  0
   -0.3370   -1.2914   -1.1384 H   0  0  0  0  0  0  0  0  0  0  0  0
   -1.9993   -0.8070   -2.2169 H   0  0  0  0  0  0  0  0  0  0  0  0
   -3.2898   -1.8936   -2.2297 H   0  0  0  0  0  0  0  0  0  0  0  0
   -0.7086   -2.1686    1.4944 H   0  0  0  0  0  0  0  0  0  0  0  0
    1.1750    0.3664   -1.7340 H   0  0  0  0  0  0  0  0  0  0  0  0
    0.1146    0.9104    2.3957 H   0  0  0  0  0  0  0  0  0  0  0  0
    2.1842    2.2406   -0.2786 H   0  0  0  0  0  0  0  0  0  0  0  0
    3.2719    1.2534   -1.2599 H   0  0  0  0  0  0  0  0  0  0  0  0
    2.1523   -1.6708    0.2386 H   0  0  0  0  0  0  0  0  0  0  0  0
    4.0045   -0.5780   -1.7812 H   0  0  0  0  0  0  0  0  0  0  0  0
    4.4889   -1.0638    1.1145 H   0  0  0  0  0  0  0  0  0  0  0  0
    2.7754    0.4334    1.6187 H   0  0  0  0  0  0  0  0  0  0  0  0
    4.0945    1.6097    1.1065 H   0  0  0  0  0  0  0  0  0  0  0  0
    2.1467   -2.8711   -1.5712 H   0  0  0  0  0  0  0  0  0  0  0  0
    5.4167    1.0520   -0.4468 H   0  0  0  0  0  0  0  0  0  0  0  0
  1  2  1  0
  2  3  1  0
  3  4  1  0
  4  5  1  0
  1  6  1  0
  5  6  1  0
  4  7  1  0
  7  8  1  0
  5  9  1  0
  8  9  1  0
  6 10  1  0
  9 11  1  0
  8 12  1  0
  7 13  1  0
 12 14  1  0
 12 15  1  0
 15 16  1  0
 16 17  1  0
 14 18  1  0
 17 18  1  0
 15 19  1  0
 17 20  1  0
 21 22  1  0
 22 23  1  0
 23 24  1  0
 24 25  1  0
 21 26  1  0
 25 26  1  0
 24 27  1  0
 27 28  1  0
 25 29  1  0
 28 29  1  0
 26 30  1  0
 29 31  1  0
 28 32  1  0
 27 33  1  0
 32 34  1  0
 32 35  1  0
 35 36  1  0
 36 37  1  0
 34 38  1  0
 37 38  1  0
 35 39  1  0
 37 40  1  0
 41 42  1  0
 42 43  1  0
 43 44  1  0
 44 45  1  0
 41 46  1  0
 45 46  1  0
 44 47  1  0
 47 48  1  0
 45 49  1  0
 48 49  1  0
 46 50  1  0
 49 51  1  0
 48 52  1  0
 47 53  1  0
 52 54  1  0
 52 55  1  0
 55 56  1  0
 56 57  1  0
 54 58  1  0
 57 58  1  0
 55 59  1  0
 57 60  1  0
 61 62  1  0
 62 63  1  0
 63 64  1  0
 64 65  1  0
 61 66  1  0
 65 66  1  0
 64 67  1  0
 67 68  1  0
 65 69  1  0
 68 69  1  0
 66 70  1  0
 69 71  1  0
 68 72  1  0
 67 73  1  0
 72 74  1  0
 72 75  1  0
 75 76  1  0
 76 77  1  0
 74 78  1  0
 77 78  1  0
 75 79  1  0
 77 80  1  0
  1 81  1  0
  1 82  1  0
  2 83  1  0
  2 84  1  0
  3 85  1  0
  3 86  1  0
  4 87  1  0
  5 88  1  0
  6 89  1  0
  7 90  1  0
  9 91  1  0
 10 92  1  0
 10 93  1  0
 11 94  1  0
 12 95  1  6
 13 96  1  0
 14 97  1  0
 14 98  1  0
 15 99  1  0
 16100  1  0
 17101  1  0
 18102  1  0
 18103  1  0
 19104  1  0
 20105  1  0
 21106  1  0
 21107  1  0
 22108  1  0
 22109  1  0
 23110  1  0
 23111  1  0
 24112  1  0
 25113  1  0
 26114  1  0
 27115  1  0
 29116  1  0
 30117  1  0
 30118  1  0
 31119  1  0
 32120  1  6
 33121  1  0
 34122  1  0
 34123  1  0
 35124  1  0
 36125  1  0
 37126  1  0
 38127  1  0
 38128  1  0
 39129  1  0
 40130  1  0
 41131  1  0
 41132  1  0
 42133  1  0
 42134  1  0
 43135  1  0
 43136  1  0
 44137  1  0
 45138  1  0
 46139  1  0
 47140  1  0
 49141  1  0
 50142  1  0
 50143  1  0
 51144  1  0
 52145  1  6
 53146  1  0
 54147  1  0
 54148  1  0
 55149  1  0
 56150  1  0
 57151  1  0
 58152  1  0
 58153  1  0
 59154  1  0
 60155  1  0
 61156  1  0
 61157  1  0
 62158  1  0
 62159  1  0
 63160  1  0
 63161  1  0
 64162  1  0
 65163  1  0
 66164  1  0
 67165  1  0
 69166  1  0
 70167  1  0
 70168  1  0
 71169  1  0
 72170  1  6
 73171  1  0
 74172  1  0
 74173  1  0
 75174  1  0
 76175  1  0
 77176  1  0
 78177  1  0
 78178  1  0
 79179  1  0
 80180  1  0
M  END
>  <PDBID>  (1) 
4TZU

>  <PDB ID>  (1) 
4TZU

>  <Generic Name>  (1) 
Pomalidomide

>  <Brand Name>  (1) 
Pomalyst#Imnovid

>  <DrugBank ID>  (1) 
DB08910

>  <ATC Codes>  (1) 
L04AX06

>  <Ligand ID>  (1) 
Y70

>  <Target Name>  (1) 
Protein cereblon

>  <UniProt ID>  (1) 
Q96SW2

>  <PDB ID.1>  (1) 
4TZU

>  <Seq. Identity>  (1) 
97%

$$$$
