PDB_DB04743_07
     RDKit          3D

 96 98  0  0  0  0  0  0  0  0999 V2000
    2.0457    3.9800    1.0283 O   0  0  0  0  0  0  0  0  0  0  0  0
    1.4753    4.2721   -0.1491 N   0  0  0  0  0  0  0  0  0  0  0  0
    2.1450    5.1704   -0.8713 O   0  0  0  0  0  0  0  0  0  0  0  0
    1.1875    3.0553   -0.8814 C   0  0  0  0  0  0  0  0  0  0  0  0
    2.4941    2.3420   -1.1006 C   0  0  0  0  0  0  0  0  0  0  0  0
    2.5422    1.0418   -0.3140 C   0  0  0  0  0  0  0  0  0  0  0  0
    1.4550    0.1855   -0.9765 C   0  0  0  0  0  0  0  0  0  0  0  0
    1.5957   -1.1909   -0.6532 N   0  0  0  0  0  0  0  0  0  0  0  0
    1.6172   -1.8048    0.7326 S   0  0  0  0  0  0  0  0  0  0  0  0
    1.2983   -3.5673    0.4174 O   0  0  0  0  0  0  0  0  0  0  0  0
    0.9158   -1.4354    1.9747 O   0  0  0  0  0  0  0  0  0  0  0  0
    3.4225   -2.0307    1.1433 C   0  0  0  0  0  0  0  0  0  0  0  0
    0.1516    2.2178   -0.2045 C   0  0  0  0  0  0  0  0  0  0  0  0
    0.1462    0.7707   -0.6008 C   0  0  0  0  0  0  0  0  0  0  0  0
   -0.5374    0.0074    0.3479 O   0  0  0  0  0  0  0  0  0  0  0  0
   -1.7103   -0.5193   -0.0976 C   0  0  0  0  0  0  0  0  0  0  0  0
   -1.7721   -2.0302   -0.1107 C   0  0  0  0  0  0  0  0  0  0  0  0
   -3.0171   -2.5400   -0.7488 C   0  0  0  0  0  0  0  0  0  0  0  0
   -4.2692   -1.8202   -0.4333 C   0  0  0  0  0  0  0  0  0  0  0  0
   -4.1103   -0.3503   -0.1746 C   0  0  0  0  0  0  0  0  0  0  0  0
   -2.9161   -0.0781    0.7183 C   0  0  0  0  0  0  0  0  0  0  0  0
    2.0457    3.9800    1.0283 O   0  0  0  0  0  0  0  0  0  0  0  0
    1.4753    4.2721   -0.1491 N   0  0  0  0  0  0  0  0  0  0  0  0
    2.1450    5.1704   -0.8713 O   0  0  0  0  0  0  0  0  0  0  0  0
    1.1875    3.0553   -0.8814 C   0  0  0  0  0  0  0  0  0  0  0  0
    2.4941    2.3420   -1.1006 C   0  0  0  0  0  0  0  0  0  0  0  0
    2.5422    1.0418   -0.3140 C   0  0  0  0  0  0  0  0  0  0  0  0
    1.4550    0.1855   -0.9765 C   0  0  0  0  0  0  0  0  0  0  0  0
    1.5957   -1.1909   -0.6532 N   0  0  0  0  0  0  0  0  0  0  0  0
    1.6172   -1.8048    0.7326 S   0  0  0  0  0  0  0  0  0  0  0  0
    1.2983   -3.5673    0.4174 O   0  0  0  0  0  0  0  0  0  0  0  0
    0.9158   -1.4354    1.9747 O   0  0  0  0  0  0  0  0  0  0  0  0
    3.4225   -2.0307    1.1433 C   0  0  0  0  0  0  0  0  0  0  0  0
    0.1516    2.2178   -0.2045 C   0  0  0  0  0  0  0  0  0  0  0  0
    0.1462    0.7707   -0.6008 C   0  0  0  0  0  0  0  0  0  0  0  0
   -0.5374    0.0074    0.3479 O   0  0  0  0  0  0  0  0  0  0  0  0
   -1.7103   -0.5193   -0.0976 C   0  0  0  0  0  0  0  0  0  0  0  0
   -1.7721   -2.0302   -0.1107 C   0  0  0  0  0  0  0  0  0  0  0  0
   -3.0171   -2.5400   -0.7488 C   0  0  0  0  0  0  0  0  0  0  0  0
   -4.2692   -1.8202   -0.4333 C   0  0  0  0  0  0  0  0  0  0  0  0
   -4.1103   -0.3503   -0.1746 C   0  0  0  0  0  0  0  0  0  0  0  0
   -2.9161   -0.0781    0.7183 C   0  0  0  0  0  0  0  0  0  0  0  0
    1.9550    6.0694   -0.5046 H   0  0  0  0  0  0  0  0  0  0  0  0
    0.8061    3.3615   -1.8729 H   0  0  0  0  0  0  0  0  0  0  0  0
    2.6145    2.0656   -2.1666 H   0  0  0  0  0  0  0  0  0  0  0  0
    3.3589    2.9559   -0.8027 H   0  0  0  0  0  0  0  0  0  0  0  0
    2.2582    1.3077    0.7297 H   0  0  0  0  0  0  0  0  0  0  0  0
    3.5338    0.6081   -0.4156 H   0  0  0  0  0  0  0  0  0  0  0  0
    1.5965    0.3280   -2.0964 H   0  0  0  0  0  0  0  0  0  0  0  0
    1.8088   -1.7602   -1.5001 H   0  0  0  0  0  0  0  0  0  0  0  0
    1.5509   -3.9128    1.3265 H   0  0  0  0  0  0  0  0  0  0  0  0
    1.4043   -1.2921    2.8336 H   0  0  0  0  0  0  0  0  0  0  0  0
    3.6772   -1.1379    1.7543 H   0  0  0  0  0  0  0  0  0  0  0  0
    3.9473   -2.0308    0.1857 H   0  0  0  0  0  0  0  0  0  0  0  0
    3.4830   -2.9523    1.7229 H   0  0  0  0  0  0  0  0  0  0  0  0
   -0.8620    2.6447   -0.3418 H   0  0  0  0  0  0  0  0  0  0  0  0
    0.3503    2.2578    0.8861 H   0  0  0  0  0  0  0  0  0  0  0  0
   -0.5175    0.6960   -1.5238 H   0  0  0  0  0  0  0  0  0  0  0  0
   -1.8720   -0.2077   -1.1616 H   0  0  0  0  0  0  0  0  0  0  0  0
   -1.7172   -2.4192    0.9272 H   0  0  0  0  0  0  0  0  0  0  0  0
   -0.9144   -2.4241   -0.7328 H   0  0  0  0  0  0  0  0  0  0  0  0
   -2.8482   -2.6575   -1.8602 H   0  0  0  0  0  0  0  0  0  0  0  0
   -3.1458   -3.6084   -0.3979 H   0  0  0  0  0  0  0  0  0  0  0  0
   -4.8266   -2.2425    0.4496 H   0  0  0  0  0  0  0  0  0  0  0  0
   -4.9730   -1.9307   -1.2938 H   0  0  0  0  0  0  0  0  0  0  0  0
   -4.9969    0.0544    0.3286 H   0  0  0  0  0  0  0  0  0  0  0  0
   -3.9404    0.2392   -1.1047 H   0  0  0  0  0  0  0  0  0  0  0  0
   -2.9089    1.0034    0.9229 H   0  0  0  0  0  0  0  0  0  0  0  0
   -2.9813   -0.6912    1.6513 H   0  0  0  0  0  0  0  0  0  0  0  0
    1.9550    6.0694   -0.5046 H   0  0  0  0  0  0  0  0  0  0  0  0
    0.8061    3.3615   -1.8729 H   0  0  0  0  0  0  0  0  0  0  0  0
    2.6145    2.0656   -2.1666 H   0  0  0  0  0  0  0  0  0  0  0  0
    3.3589    2.9559   -0.8027 H   0  0  0  0  0  0  0  0  0  0  0  0
    2.2582    1.3077    0.7297 H   0  0  0  0  0  0  0  0  0  0  0  0
    3.5338    0.6081   -0.4156 H   0  0  0  0  0  0  0  0  0  0  0  0
    1.5965    0.3280   -2.0964 H   0  0  0  0  0  0  0  0  0  0  0  0
    1.8088   -1.7602   -1.5001 H   0  0  0  0  0  0  0  0  0  0  0  0
    1.5509   -3.9128    1.3265 H   0  0  0  0  0  0  0  0  0  0  0  0
    1.4043   -1.2921    2.8336 H   0  0  0  0  0  0  0  0  0  0  0  0
    3.6772   -1.1379    1.7543 H   0  0  0  0  0  0  0  0  0  0  0  0
    3.9473   -2.0308    0.1857 H   0  0  0  0  0  0  0  0  0  0  0  0
    3.4830   -2.9523    1.7229 H   0  0  0  0  0  0  0  0  0  0  0  0
   -0.8620    2.6447   -0.3418 H   0  0  0  0  0  0  0  0  0  0  0  0
    0.3503    2.2578    0.8861 H   0  0  0  0  0  0  0  0  0  0  0  0
   -0.5175    0.6960   -1.5238 H   0  0  0  0  0  0  0  0  0  0  0  0
   -1.8720   -0.2077   -1.1616 H   0  0  0  0  0  0  0  0  0  0  0  0
   -1.7172   -2.4192    0.9272 H   0  0  0  0  0  0  0  0  0  0  0  0
   -0.9144   -2.4241   -0.7328 H   0  0  0  0  0  0  0  0  0  0  0  0
   -2.8482   -2.6575   -1.8602 H   0  0  0  0  0  0  0  0  0  0  0  0
   -3.1458   -3.6084   -0.3979 H   0  0  0  0  0  0  0  0  0  0  0  0
   -4.8266   -2.2425    0.4496 H   0  0  0  0  0  0  0  0  0  0  0  0
   -4.9730   -1.9307   -1.2938 H   0  0  0  0  0  0  0  0  0  0  0  0
   -4.9969    0.0544    0.3286 H   0  0  0  0  0  0  0  0  0  0  0  0
   -3.9404    0.2392   -1.1047 H   0  0  0  0  0  0  0  0  0  0  0  0
   -2.9089    1.0034    0.9229 H   0  0  0  0  0  0  0  0  0  0  0  0
   -2.9813   -0.6912    1.6513 H   0  0  0  0  0  0  0  0  0  0  0  0
  1  2  1  0
  2  3  1  0
  2  4  1  0
  4  5  1  0
  5  6  1  0
  6  7  1  0
  7  8  1  0
  8  9  1  0
  9 10  1  0
  9 11  1  0
  9 12  1  0
  4 13  1  0
  7 14  1  0
 13 14  1  0
 14 15  1  0
 15 16  1  0
 16 17  1  0
 17 18  1  0
 18 19  1  0
 19 20  1  0
 16 21  1  0
 20 21  1  0
 22 23  1  0
 23 24  1  0
 23 25  1  0
 25 26  1  0
 26 27  1  0
 27 28  1  0
 28 29  1  0
 29 30  1  0
 30 31  1  0
 30 32  1  0
 30 33  1  0
 25 34  1  0
 28 35  1  0
 34 35  1  0
 35 36  1  0
 36 37  1  0
 37 38  1  0
 38 39  1  0
 39 40  1  0
 40 41  1  0
 37 42  1  0
 41 42  1  0
  3 43  1  0
  4 44  1  0
  5 45  1  0
  5 46  1  0
  6 47  1  0
  6 48  1  0
  7 49  1  0
  8 50  1  0
 10 51  1  0
 11 52  1  0
 12 53  1  0
 12 54  1  0
 12 55  1  0
 13 56  1  0
 13 57  1  0
 14 58  1  0
 16 59  1  0
 17 60  1  0
 17 61  1  0
 18 62  1  0
 18 63  1  0
 19 64  1  0
 19 65  1  0
 20 66  1  0
 20 67  1  0
 21 68  1  0
 21 69  1  0
 24 70  1  0
 25 71  1  0
 26 72  1  0
 26 73  1  0
 27 74  1  0
 27 75  1  0
 28 76  1  0
 29 77  1  0
 31 78  1  0
 32 79  1  0
 33 80  1  0
 33 81  1  0
 33 82  1  0
 34 83  1  0
 34 84  1  0
 35 85  1  0
 37 86  1  0
 38 87  1  0
 38 88  1  0
 39 89  1  0
 39 90  1  0
 40 91  1  0
 40 92  1  0
 41 93  1  0
 41 94  1  0
 42 95  1  0
 42 96  1  0
M  CHG  2   1  -1  22  -1
M  END
>  <PDBID>  (1) 
3N8X

>  <PDB ID>  (1) 
3N8X

>  <Generic Name>  (1) 
Nimesulide

>  <Brand Name>  (1) 
Ainex#Aulin#Coxtal#Eskaflam#Mesulid#Nilsid#Nimalox#Nimside#Nise#Octaprin#Sintalgin#Sulide

>  <DrugBank ID>  (1) 
DB04743

>  <ATC Codes>  (1) 
M02AA26#M01AX17

>  <Ligand ID>  (1) 
NIM

>  <Target Name>  (1) 
Prostaglandin G/H synthase 2

>  <UniProt ID>  (1) 
P35354

>  <PDB ID.1>  (1) 
3N8X

>  <Seq. Identity>  (1) 
61%

$$$$
