PDB_DB00820_02
     RDKit          3D

132142  0  0  0  0  0  0  0  0999 V2000
   -2.6399   -4.2015    0.5774 C   0  0  0  0  0  0  0  0  0  0  0  0
   -3.8944   -3.4125    0.1816 C   0  0  0  0  0  0  0  0  0  0  0  0
   -3.4837   -1.9375    0.2958 C   0  0  0  0  0  0  0  0  0  0  0  0
   -2.6405   -1.6301   -0.8961 C   0  0  0  0  0  0  0  0  0  0  0  0
   -2.0378   -0.2701   -0.9115 C   0  0  0  0  0  0  0  0  0  0  0  0
   -0.5763   -0.4845   -1.0727 C   0  0  0  0  0  0  0  0  0  0  0  0
   -0.3062   -1.8729   -1.2156 N   0  0  0  0  0  0  0  0  0  0  0  0
   -1.4939   -2.6109   -0.9411 C   0  0  0  0  0  0  0  0  0  0  0  0
   -1.3871   -3.3821    0.3512 C   0  0  0  0  0  0  0  0  0  0  0  0
    0.2314    0.1218    0.1004 C   0  0  2  0  0  0  0  0  0  0  0  0
   -0.0347    1.4590    0.0564 N   0  0  0  0  0  0  0  0  0  0  0  0
    0.7405    2.4560    0.6630 C   0  0  0  0  0  0  0  0  0  0  0  0
    1.0186    2.2821    2.0178 O   0  0  0  0  0  0  0  0  0  0  0  0
    0.0176    3.8118    0.6252 C   0  0  0  0  0  0  0  0  0  0  0  0
   -0.8963    3.9360   -0.4518 N   0  0  0  0  0  0  0  0  0  0  0  0
   -1.7840    2.8383   -0.6838 C   0  0  0  0  0  0  0  0  0  0  0  0
   -1.5832    2.4246   -2.0076 O   0  0  0  0  0  0  0  0  0  0  0  0
   -1.4186    1.7498    0.3017 C   0  0  1  0  0  0  0  0  0  0  0  0
   -2.3255    0.5745    0.2684 C   0  0  0  0  0  0  0  0  0  0  0  0
   -1.7218    5.1065   -0.2069 C   0  0  0  0  0  0  0  0  0  0  0  0
    1.5989   -0.4151   -0.0248 C   0  0  0  0  0  0  0  0  0  0  0  0
    2.3432   -0.0833   -1.2683 C   0  0  0  0  0  0  0  0  0  0  0  0
    3.4695   -1.1257   -1.3872 C   0  0  0  0  0  0  0  0  0  0  0  0
    4.3450   -1.1099   -0.1840 C   0  0  0  0  0  0  0  0  0  0  0  0
    5.0225    0.1005    0.0001 O   0  0  0  0  0  0  0  0  0  0  0  0
    5.4880   -0.0290    1.2990 C   0  0  0  0  0  0  0  0  0  0  0  0
    4.5952   -0.7862    2.0184 O   0  0  0  0  0  0  0  0  0  0  0  0
    3.6225   -1.2480    1.1162 C   0  0  0  0  0  0  0  0  0  0  0  0
    2.5202   -0.1728    1.1479 C   0  0  0  0  0  0  0  0  0  0  0  0
   -2.6399   -4.2015    0.5774 C   0  0  0  0  0  0  0  0  0  0  0  0
   -3.8944   -3.4125    0.1816 C   0  0  0  0  0  0  0  0  0  0  0  0
   -3.4837   -1.9375    0.2958 C   0  0  0  0  0  0  0  0  0  0  0  0
   -2.6405   -1.6301   -0.8961 C   0  0  0  0  0  0  0  0  0  0  0  0
   -2.0378   -0.2701   -0.9115 C   0  0  0  0  0  0  0  0  0  0  0  0
   -0.5763   -0.4845   -1.0727 C   0  0  0  0  0  0  0  0  0  0  0  0
   -0.3062   -1.8729   -1.2156 N   0  0  0  0  0  0  0  0  0  0  0  0
   -1.4939   -2.6109   -0.9411 C   0  0  0  0  0  0  0  0  0  0  0  0
   -1.3871   -3.3821    0.3512 C   0  0  0  0  0  0  0  0  0  0  0  0
    0.2314    0.1218    0.1004 C   0  0  2  0  0  0  0  0  0  0  0  0
   -0.0347    1.4590    0.0564 N   0  0  0  0  0  0  0  0  0  0  0  0
    0.7405    2.4560    0.6630 C   0  0  0  0  0  0  0  0  0  0  0  0
    1.0186    2.2821    2.0178 O   0  0  0  0  0  0  0  0  0  0  0  0
    0.0176    3.8118    0.6252 C   0  0  0  0  0  0  0  0  0  0  0  0
   -0.8963    3.9360   -0.4518 N   0  0  0  0  0  0  0  0  0  0  0  0
   -1.7840    2.8383   -0.6838 C   0  0  0  0  0  0  0  0  0  0  0  0
   -1.5832    2.4246   -2.0076 O   0  0  0  0  0  0  0  0  0  0  0  0
   -1.4186    1.7498    0.3017 C   0  0  1  0  0  0  0  0  0  0  0  0
   -2.3255    0.5745    0.2684 C   0  0  0  0  0  0  0  0  0  0  0  0
   -1.7218    5.1065   -0.2069 C   0  0  0  0  0  0  0  0  0  0  0  0
    1.5989   -0.4151   -0.0248 C   0  0  0  0  0  0  0  0  0  0  0  0
    2.3432   -0.0833   -1.2683 C   0  0  0  0  0  0  0  0  0  0  0  0
    3.4695   -1.1257   -1.3872 C   0  0  0  0  0  0  0  0  0  0  0  0
    4.3450   -1.1099   -0.1840 C   0  0  0  0  0  0  0  0  0  0  0  0
    5.0225    0.1005    0.0001 O   0  0  0  0  0  0  0  0  0  0  0  0
    5.4880   -0.0290    1.2990 C   0  0  0  0  0  0  0  0  0  0  0  0
    4.5952   -0.7862    2.0184 O   0  0  0  0  0  0  0  0  0  0  0  0
    3.6225   -1.2480    1.1162 C   0  0  0  0  0  0  0  0  0  0  0  0
    2.5202   -0.1728    1.1479 C   0  0  0  0  0  0  0  0  0  0  0  0
   -2.6174   -5.1179   -0.0418 H   0  0  0  0  0  0  0  0  0  0  0  0
   -2.7617   -4.4589    1.6511 H   0  0  0  0  0  0  0  0  0  0  0  0
   -4.7207   -3.5797    0.9005 H   0  0  0  0  0  0  0  0  0  0  0  0
   -4.1756   -3.6282   -0.8692 H   0  0  0  0  0  0  0  0  0  0  0  0
   -2.9348   -1.8647    1.2548 H   0  0  0  0  0  0  0  0  0  0  0  0
   -4.3820   -1.2847    0.2817 H   0  0  0  0  0  0  0  0  0  0  0  0
   -3.2630   -1.8371   -1.8037 H   0  0  0  0  0  0  0  0  0  0  0  0
   -2.4493    0.2632   -1.8179 H   0  0  0  0  0  0  0  0  0  0  0  0
   -0.2133    0.0525   -1.9716 H   0  0  0  0  0  0  0  0  0  0  0  0
    0.1552   -2.1250   -2.1232 H   0  0  0  0  0  0  0  0  0  0  0  0
   -1.6135   -3.3722   -1.7513 H   0  0  0  0  0  0  0  0  0  0  0  0
   -0.5490   -4.1235    0.2154 H   0  0  0  0  0  0  0  0  0  0  0  0
   -1.1049   -2.7637    1.2058 H   0  0  0  0  0  0  0  0  0  0  0  0
   -0.2347   -0.3504    1.0084 H   0  0  0  0  0  0  0  0  0  0  0  0
    1.6647    2.6105    0.0647 H   0  0  0  0  0  0  0  0  0  0  0  0
    0.1829    2.3087    2.5144 H   0  0  0  0  0  0  0  0  0  0  0  0
    0.7792    4.6134    0.5335 H   0  0  0  0  0  0  0  0  0  0  0  0
   -0.5015    4.0201    1.6022 H   0  0  0  0  0  0  0  0  0  0  0  0
   -2.8499    3.0980   -0.5069 H   0  0  0  0  0  0  0  0  0  0  0  0
   -1.1359    3.1286   -2.5456 H   0  0  0  0  0  0  0  0  0  0  0  0
   -1.4820    2.1900    1.3266 H   0  0  0  0  0  0  0  0  0  0  0  0
   -2.2858    0.0680    1.2438 H   0  0  0  0  0  0  0  0  0  0  0  0
   -3.3781    0.9681    0.1574 H   0  0  0  0  0  0  0  0  0  0  0  0
   -2.7235    5.0066   -0.7077 H   0  0  0  0  0  0  0  0  0  0  0  0
   -1.2157    6.0437   -0.4496 H   0  0  0  0  0  0  0  0  0  0  0  0
   -1.9568    5.0933    0.8891 H   0  0  0  0  0  0  0  0  0  0  0  0
    1.4891   -1.5486   -0.0414 H   0  0  0  0  0  0  0  0  0  0  0  0
    2.9094    0.8906   -1.1816 H   0  0  0  0  0  0  0  0  0  0  0  0
    1.7868   -0.1501   -2.2038 H   0  0  0  0  0  0  0  0  0  0  0  0
    4.0921   -0.9240   -2.2754 H   0  0  0  0  0  0  0  0  0  0  0  0
    3.0562   -2.1370   -1.5029 H   0  0  0  0  0  0  0  0  0  0  0  0
    5.1269   -1.8791   -0.3241 H   0  0  0  0  0  0  0  0  0  0  0  0
    6.4979   -0.5276    1.2173 H   0  0  0  0  0  0  0  0  0  0  0  0
    5.6836    0.9626    1.7609 H   0  0  0  0  0  0  0  0  0  0  0  0
    3.2447   -2.2361    1.3469 H   0  0  0  0  0  0  0  0  0  0  0  0
    1.9916   -0.2674    2.1205 H   0  0  0  0  0  0  0  0  0  0  0  0
    3.0995    0.7692    1.0537 H   0  0  0  0  0  0  0  0  0  0  0  0
   -2.6174   -5.1179   -0.0418 H   0  0  0  0  0  0  0  0  0  0  0  0
   -2.7617   -4.4589    1.6511 H   0  0  0  0  0  0  0  0  0  0  0  0
   -4.7207   -3.5797    0.9005 H   0  0  0  0  0  0  0  0  0  0  0  0
   -4.1756   -3.6282   -0.8692 H   0  0  0  0  0  0  0  0  0  0  0  0
   -2.9348   -1.8647    1.2548 H   0  0  0  0  0  0  0  0  0  0  0  0
   -4.3820   -1.2847    0.2817 H   0  0  0  0  0  0  0  0  0  0  0  0
   -3.2630   -1.8371   -1.8037 H   0  0  0  0  0  0  0  0  0  0  0  0
   -2.4493    0.2632   -1.8179 H   0  0  0  0  0  0  0  0  0  0  0  0
   -0.2133    0.0525   -1.9716 H   0  0  0  0  0  0  0  0  0  0  0  0
    0.1552   -2.1250   -2.1232 H   0  0  0  0  0  0  0  0  0  0  0  0
   -1.6135   -3.3722   -1.7513 H   0  0  0  0  0  0  0  0  0  0  0  0
   -0.5490   -4.1235    0.2154 H   0  0  0  0  0  0  0  0  0  0  0  0
   -1.1049   -2.7637    1.2058 H   0  0  0  0  0  0  0  0  0  0  0  0
   -0.2347   -0.3504    1.0084 H   0  0  0  0  0  0  0  0  0  0  0  0
    1.6647    2.6105    0.0647 H   0  0  0  0  0  0  0  0  0  0  0  0
    0.1829    2.3087    2.5144 H   0  0  0  0  0  0  0  0  0  0  0  0
    0.7792    4.6134    0.5335 H   0  0  0  0  0  0  0  0  0  0  0  0
   -0.5015    4.0201    1.6022 H   0  0  0  0  0  0  0  0  0  0  0  0
   -2.8499    3.0980   -0.5069 H   0  0  0  0  0  0  0  0  0  0  0  0
   -1.1359    3.1286   -2.5456 H   0  0  0  0  0  0  0  0  0  0  0  0
   -1.4820    2.1900    1.3266 H   0  0  0  0  0  0  0  0  0  0  0  0
   -2.2858    0.0680    1.2438 H   0  0  0  0  0  0  0  0  0  0  0  0
   -3.3781    0.9681    0.1574 H   0  0  0  0  0  0  0  0  0  0  0  0
   -2.7235    5.0066   -0.7077 H   0  0  0  0  0  0  0  0  0  0  0  0
   -1.2157    6.0437   -0.4496 H   0  0  0  0  0  0  0  0  0  0  0  0
   -1.9568    5.0933    0.8891 H   0  0  0  0  0  0  0  0  0  0  0  0
    1.4891   -1.5486   -0.0414 H   0  0  0  0  0  0  0  0  0  0  0  0
    2.9094    0.8906   -1.1816 H   0  0  0  0  0  0  0  0  0  0  0  0
    1.7868   -0.1501   -2.2038 H   0  0  0  0  0  0  0  0  0  0  0  0
    4.0921   -0.9240   -2.2754 H   0  0  0  0  0  0  0  0  0  0  0  0
    3.0562   -2.1370   -1.5029 H   0  0  0  0  0  0  0  0  0  0  0  0
    5.1269   -1.8791   -0.3241 H   0  0  0  0  0  0  0  0  0  0  0  0
    6.4979   -0.5276    1.2173 H   0  0  0  0  0  0  0  0  0  0  0  0
    5.6836    0.9626    1.7609 H   0  0  0  0  0  0  0  0  0  0  0  0
    3.2447   -2.2361    1.3469 H   0  0  0  0  0  0  0  0  0  0  0  0
    1.9916   -0.2674    2.1205 H   0  0  0  0  0  0  0  0  0  0  0  0
    3.0995    0.7692    1.0537 H   0  0  0  0  0  0  0  0  0  0  0  0
  1  2  1  0
  2  3  1  0
  3  4  1  0
  4  5  1  0
  5  6  1  0
  6  7  1  0
  4  8  1  0
  7  8  1  0
  1  9  1  0
  8  9  1  0
  6 10  1  0
 10 11  1  0
 11 12  1  0
 12 13  1  0
 12 14  1  0
 14 15  1  0
 15 16  1  0
 16 17  1  0
 11 18  1  0
 16 18  1  0
  5 19  1  0
 18 19  1  0
 15 20  1  0
 10 21  1  0
 21 22  1  0
 22 23  1  0
 23 24  1  0
 24 25  1  0
 25 26  1  0
 26 27  1  0
 24 28  1  0
 27 28  1  0
 21 29  1  0
 28 29  1  0
 30 31  1  0
 31 32  1  0
 32 33  1  0
 33 34  1  0
 34 35  1  0
 35 36  1  0
 33 37  1  0
 36 37  1  0
 30 38  1  0
 37 38  1  0
 35 39  1  0
 39 40  1  0
 40 41  1  0
 41 42  1  0
 41 43  1  0
 43 44  1  0
 44 45  1  0
 45 46  1  0
 40 47  1  0
 45 47  1  0
 34 48  1  0
 47 48  1  0
 44 49  1  0
 39 50  1  0
 50 51  1  0
 51 52  1  0
 52 53  1  0
 53 54  1  0
 54 55  1  0
 55 56  1  0
 53 57  1  0
 56 57  1  0
 50 58  1  0
 57 58  1  0
  1 59  1  0
  1 60  1  0
  2 61  1  0
  2 62  1  0
  3 63  1  0
  3 64  1  0
  4 65  1  0
  5 66  1  0
  6 67  1  0
  7 68  1  0
  8 69  1  0
  9 70  1  0
  9 71  1  0
 10 72  1  1
 12 73  1  0
 13 74  1  0
 14 75  1  0
 14 76  1  0
 16 77  1  0
 17 78  1  0
 18 79  1  1
 19 80  1  0
 19 81  1  0
 20 82  1  0
 20 83  1  0
 20 84  1  0
 21 85  1  0
 22 86  1  0
 22 87  1  0
 23 88  1  0
 23 89  1  0
 24 90  1  0
 26 91  1  0
 26 92  1  0
 28 93  1  0
 29 94  1  0
 29 95  1  0
 30 96  1  0
 30 97  1  0
 31 98  1  0
 31 99  1  0
 32100  1  0
 32101  1  0
 33102  1  0
 34103  1  0
 35104  1  0
 36105  1  0
 37106  1  0
 38107  1  0
 38108  1  0
 39109  1  1
 41110  1  0
 42111  1  0
 43112  1  0
 43113  1  0
 45114  1  0
 46115  1  0
 47116  1  1
 48117  1  0
 48118  1  0
 49119  1  0
 49120  1  0
 49121  1  0
 50122  1  0
 51123  1  0
 51124  1  0
 52125  1  0
 52126  1  0
 53127  1  0
 55128  1  0
 55129  1  0
 57130  1  0
 58131  1  0
 58132  1  0
M  END
>  <PDBID>  (1) 
1UDU

>  <PDB ID>  (1) 
1UDU

>  <Generic Name>  (1) 
Tadalafil

>  <Brand Name>  (1) 
Act Tadalafil#Adcirca#Apo-tadalafil#Apo-tadalafil Pah#Auro-tadalafil#Cialis#Dom-tadalafil#Ipg-tadalafil#Jamp-tadalafil#Mar-tadalafil#Mint-tadalafil#Mylan-tadalafil#PMS-tadalafil#Priva-tadalafil#Ran-tadalafil#Riva-tadalafil#Tadalafil#Teva-tadalafil

>  <DrugBank ID>  (1) 
DB00820

>  <ATC Codes>  (1) 
G04BE08

>  <Ligand ID>  (1) 
CIA

>  <Target Name>  (1) 
cGMP-specific 3',5'-cyclic phosphodiesterase

>  <UniProt ID>  (1) 
O76074

>  <PDB ID.1>  (1) 
1UDU

>  <Seq. Identity>  (1) 
94%

$$$$
