PDB_DB01034_05
     RDKit          3D

 82 82  0  0  0  0  0  0  0  0999 V2000
   -4.0716    2.2890   -0.5755 O   0  0  0  0  0  0  0  0  0  0  0  0
   -2.9690    1.4310   -0.3549 C   0  0  0  0  0  0  0  0  0  0  0  0
   -1.8048    2.2580   -0.3063 N   0  0  0  0  0  0  0  0  0  0  0  0
   -2.9419    0.4577   -1.4830 C   0  0  2  0  0  0  0  0  0  0  0  0
   -4.1618   -0.3553   -1.4728 O   0  0  0  0  0  0  0  0  0  0  0  0
   -2.9384   -0.9651   -1.3596 C   0  0  2  0  0  0  0  0  0  0  0  0
   -2.6344   -1.6720   -0.0769 C   0  0  1  0  0  0  0  0  0  0  0  0
   -3.5565   -2.7064    0.1749 O   0  0  0  0  0  0  0  0  0  0  0  0
   -1.2695   -2.3109   -0.0703 C   0  0  0  0  0  0  0  0  0  0  0  0
   -0.1603   -1.3017   -0.2680 C   0  0  0  0  0  0  0  0  0  0  0  0
    1.1365   -2.0787   -0.2390 C   0  0  0  0  0  0  0  0  0  0  0  0
    2.3577   -1.2390   -0.4259 C   0  0  0  0  0  0  0  0  0  0  0  0
    2.4741   -0.2006    0.6539 C   0  0  0  0  0  0  0  0  0  0  0  0
    3.7448    0.6312    0.4227 C   0  0  0  0  0  0  0  0  0  0  0  0
    3.8840    1.6859    1.4997 C   0  0  0  0  0  0  0  0  0  0  0  0
    2.7194    2.6252    1.5169 C   0  0  0  0  0  0  0  0  0  0  0  0
   -5.8463    0.4308    1.3776 O   0  0  0  0  0  0  0  0  0  0  0  0
   -5.1089    0.1311    0.2091 C   0  0  0  0  0  0  0  0  0  0  0  0
   -5.9001   -0.6067   -0.7348 N   0  0  0  0  0  0  0  0  0  0  0  0
   -3.9345   -0.6816    0.6293 C   0  0  2  0  0  0  0  0  0  0  0  0
   -3.1079    0.0682    1.6047 O   0  0  0  0  0  0  0  0  0  0  0  0
   -2.5506   -0.3285    0.4093 C   0  0  2  0  0  0  0  0  0  0  0  0
   -2.0974    0.7128   -0.5928 C   0  0  0  0  0  0  0  0  0  0  0  0
   -1.5803    0.0558   -1.6954 O   0  0  0  0  0  0  0  0  0  0  0  0
   -1.1729    1.7357    0.0088 C   0  0  0  0  0  0  0  0  0  0  0  0
    0.0347    1.0795    0.5568 C   0  0  0  0  0  0  0  0  0  0  0  0
    0.8765    0.3120   -0.4280 C   0  0  0  0  0  0  0  0  0  0  0  0
    2.0474   -0.2204    0.4334 C   0  0  0  0  0  0  0  0  0  0  0  0
    2.9965   -1.0175   -0.3929 C   0  0  0  0  0  0  0  0  0  0  0  0
    4.1072   -1.5230    0.4877 C   0  0  0  0  0  0  0  0  0  0  0  0
    4.8368   -0.3576    1.1021 C   0  0  0  0  0  0  0  0  0  0  0  0
    5.3913    0.4864   -0.0373 C   0  0  0  0  0  0  0  0  0  0  0  0
   -4.7972    1.8299   -1.0615 H   0  0  0  0  0  0  0  0  0  0  0  0
   -3.1290    0.9858    0.6305 H   0  0  0  0  0  0  0  0  0  0  0  0
   -1.9090    3.1001   -0.9041 H   0  0  0  0  0  0  0  0  0  0  0  0
   -1.5946    2.5201    0.6936 H   0  0  0  0  0  0  0  0  0  0  0  0
   -2.7174    0.9148   -2.4722 H   0  0  0  0  0  0  0  0  0  0  0  0
   -2.6534   -1.5629   -2.2676 H   0  0  0  0  0  0  0  0  0  0  0  0
   -2.6901   -0.9995    0.7897 H   0  0  0  0  0  0  0  0  0  0  0  0
   -4.0023   -3.0013   -0.6588 H   0  0  0  0  0  0  0  0  0  0  0  0
   -1.0871   -2.7997    0.9063 H   0  0  0  0  0  0  0  0  0  0  0  0
   -1.1692   -3.0722   -0.8621 H   0  0  0  0  0  0  0  0  0  0  0  0
   -0.1602   -0.5146    0.4876 H   0  0  0  0  0  0  0  0  0  0  0  0
   -0.2143   -0.8106   -1.2699 H   0  0  0  0  0  0  0  0  0  0  0  0
    1.1568   -2.8651   -1.0366 H   0  0  0  0  0  0  0  0  0  0  0  0
    1.1755   -2.6461    0.7289 H   0  0  0  0  0  0  0  0  0  0  0  0
    2.3252   -0.7831   -1.4385 H   0  0  0  0  0  0  0  0  0  0  0  0
    3.2700   -1.8672   -0.4137 H   0  0  0  0  0  0  0  0  0  0  0  0
    2.4948   -0.6765    1.6515 H   0  0  0  0  0  0  0  0  0  0  0  0
    1.5934    0.4742    0.6241 H   0  0  0  0  0  0  0  0  0  0  0  0
    4.6156   -0.0244    0.4160 H   0  0  0  0  0  0  0  0  0  0  0  0
    3.6402    1.1264   -0.5621 H   0  0  0  0  0  0  0  0  0  0  0  0
    4.8085    2.2570    1.3107 H   0  0  0  0  0  0  0  0  0  0  0  0
    3.9461    1.1932    2.4958 H   0  0  0  0  0  0  0  0  0  0  0  0
    2.2287    2.6698    0.5249 H   0  0  0  0  0  0  0  0  0  0  0  0
    1.9975    2.3425    2.3043 H   0  0  0  0  0  0  0  0  0  0  0  0
    3.0633    3.6614    1.7471 H   0  0  0  0  0  0  0  0  0  0  0  0
   -5.3739    1.1967    1.7916 H   0  0  0  0  0  0  0  0  0  0  0  0
   -4.8582    1.0998   -0.2394 H   0  0  0  0  0  0  0  0  0  0  0  0
   -6.9158   -0.5653   -0.5665 H   0  0  0  0  0  0  0  0  0  0  0  0
   -5.5232   -1.5599   -0.8797 H   0  0  0  0  0  0  0  0  0  0  0  0
   -4.1839   -1.7057    0.9742 H   0  0  0  0  0  0  0  0  0  0  0  0
   -1.8032   -1.1670    0.4993 H   0  0  0  0  0  0  0  0  0  0  0  0
   -2.9689    1.2994   -0.9791 H   0  0  0  0  0  0  0  0  0  0  0  0
   -1.8634   -0.8968   -1.7466 H   0  0  0  0  0  0  0  0  0  0  0  0
   -1.7196    2.2715    0.8132 H   0  0  0  0  0  0  0  0  0  0  0  0
   -0.8767    2.4246   -0.8166 H   0  0  0  0  0  0  0  0  0  0  0  0
    0.7146    1.8649    0.9797 H   0  0  0  0  0  0  0  0  0  0  0  0
   -0.2115    0.3529    1.3836 H   0  0  0  0  0  0  0  0  0  0  0  0
    1.2358    0.9060   -1.2668 H   0  0  0  0  0  0  0  0  0  0  0  0
    0.3919   -0.6180   -0.8004 H   0  0  0  0  0  0  0  0  0  0  0  0
    1.5847   -0.7793    1.2515 H   0  0  0  0  0  0  0  0  0  0  0  0
    2.5107    0.7072    0.8281 H   0  0  0  0  0  0  0  0  0  0  0  0
    2.4752   -1.9073   -0.8297 H   0  0  0  0  0  0  0  0  0  0  0  0
    3.4261   -0.4437   -1.2300 H   0  0  0  0  0  0  0  0  0  0  0  0
    4.7844   -2.2135   -0.0441 H   0  0  0  0  0  0  0  0  0  0  0  0
    3.6609   -2.1113    1.3448 H   0  0  0  0  0  0  0  0  0  0  0  0
    5.6961   -0.7238    1.7406 H   0  0  0  0  0  0  0  0  0  0  0  0
    4.2222    0.2727    1.7603 H   0  0  0  0  0  0  0  0  0  0  0  0
    5.5398   -0.1658   -0.9210 H   0  0  0  0  0  0  0  0  0  0  0  0
    6.3800    0.8659    0.2888 H   0  0  0  0  0  0  0  0  0  0  0  0
    4.6843    1.3190   -0.2547 H   0  0  0  0  0  0  0  0  0  0  0  0
  1  2  1  0
  2  3  1  0
  2  4  1  0
  4  5  1  0
  4  6  1  0
  5  6  1  0
  6  7  1  0
  7  8  1  0
  7  9  1  0
  9 10  1  0
 10 11  1  0
 11 12  1  0
 12 13  1  0
 13 14  1  0
 14 15  1  0
 15 16  1  0
 17 18  1  0
 18 19  1  0
 18 20  1  0
 20 21  1  0
 20 22  1  0
 21 22  1  0
 22 23  1  0
 23 24  1  0
 23 25  1  0
 25 26  1  0
 26 27  1  0
 27 28  1  0
 28 29  1  0
 29 30  1  0
 30 31  1  0
 31 32  1  0
  1 33  1  0
  2 34  1  0
  3 35  1  0
  3 36  1  0
  4 37  1  6
  6 38  1  6
  7 39  1  1
  8 40  1  0
  9 41  1  0
  9 42  1  0
 10 43  1  0
 10 44  1  0
 11 45  1  0
 11 46  1  0
 12 47  1  0
 12 48  1  0
 13 49  1  0
 13 50  1  0
 14 51  1  0
 14 52  1  0
 15 53  1  0
 15 54  1  0
 16 55  1  0
 16 56  1  0
 16 57  1  0
 17 58  1  0
 18 59  1  0
 19 60  1  0
 19 61  1  0
 20 62  1  1
 22 63  1  1
 23 64  1  0
 24 65  1  0
 25 66  1  0
 25 67  1  0
 26 68  1  0
 26 69  1  0
 27 70  1  0
 27 71  1  0
 28 72  1  0
 28 73  1  0
 29 74  1  0
 29 75  1  0
 30 76  1  0
 30 77  1  0
 31 78  1  0
 31 79  1  0
 32 80  1  0
 32 81  1  0
 32 82  1  0
M  END
>  <PDBID>  (1) 
4LS7

>  <PDB ID>  (1) 
4LS7

>  <Generic Name>  (1) 
Cerulenin

>  <Brand Name>  (1) 
Helicocerin

>  <DrugBank ID>  (1) 
DB01034

>  <ATC Codes>  (1) 
nan

>  <Ligand ID>  (1) 
1X9

>  <Target Name>  (1) 
3-oxoacyl-[acyl-carrier-protein] synthase 2

>  <UniProt ID>  (1) 
P0AAI5

>  <PDB ID.1>  (1) 
4LS7

>  <Seq. Identity>  (1) 
51%

$$$$
