PDB_DB00273_01
     RDKit          3D

 45 47  0  0  0  0  0  0  0  0999 V2000
    1.0317   -3.1349    0.7792 C   0  0  0  0  0  0  0  0  0  0  0  0
    0.8003   -2.4636   -0.5432 C   0  0  0  0  0  0  0  0  0  0  0  0
    1.2100   -3.3895   -1.6828 C   0  0  0  0  0  0  0  0  0  0  0  0
    1.5743   -1.3274   -0.5848 O   0  0  0  0  0  0  0  0  0  0  0  0
   -0.5131   -2.1145   -0.7749 O   0  0  0  0  0  0  0  0  0  0  0  0
   -0.6107   -0.7232   -0.6085 C   0  0  1  0  0  0  0  0  0  0  0  0
   -1.6026   -0.5405    0.5121 C   0  0  2  0  0  0  0  0  0  0  0  0
   -2.9125   -0.4335    0.0646 O   0  0  0  0  0  0  0  0  0  0  0  0
   -3.3087    0.8827    0.2275 C   0  0  0  0  0  0  0  0  0  0  0  0
   -3.9805    1.3134   -1.0517 C   0  0  0  0  0  0  0  0  0  0  0  0
   -4.3369    1.0375    1.3425 C   0  0  0  0  0  0  0  0  0  0  0  0
   -2.1525    1.6288    0.4987 O   0  0  0  0  0  0  0  0  0  0  0  0
   -1.4314    0.7414    1.2719 C   0  0  2  0  0  0  0  0  0  0  0  0
    0.0164    1.0904    1.4300 C   0  0  0  0  0  0  0  0  0  0  0  0
    0.8616    0.0601    1.0464 O   0  0  0  0  0  0  0  0  0  0  0  0
    0.7643   -0.2406   -0.2977 C   0  0  1  0  0  0  0  0  0  0  0  0
    1.2436    0.8953   -1.1551 C   0  0  0  0  0  0  0  0  0  0  0  0
    2.1024    1.6912   -0.3782 O   0  0  0  0  0  0  0  0  0  0  0  0
    3.4542    1.8151   -0.4085 S   0  0  0  0  0  0  0  0  0  0  0  0
    4.2023    3.2138   -0.8632 O   0  0  0  0  0  0  0  0  0  0  0  0
    4.3555    0.6038   -1.1800 O   0  0  0  0  0  0  0  0  0  0  0  0
    4.2561    1.6361    1.2523 N   0  0  0  0  0  0  0  0  0  0  0  0
    1.0065   -4.2459    0.6786 H   0  0  0  0  0  0  0  0  0  0  0  0
    2.0755   -2.8967    1.1032 H   0  0  0  0  0  0  0  0  0  0  0  0
    0.3640   -2.7691    1.5751 H   0  0  0  0  0  0  0  0  0  0  0  0
    2.3018   -3.3501   -1.7858 H   0  0  0  0  0  0  0  0  0  0  0  0
    0.8121   -4.4080   -1.4828 H   0  0  0  0  0  0  0  0  0  0  0  0
    0.7248   -2.9686   -2.5982 H   0  0  0  0  0  0  0  0  0  0  0  0
   -1.0611   -0.3010   -1.5171 H   0  0  0  0  0  0  0  0  0  0  0  0
   -1.5810   -1.3753    1.2439 H   0  0  0  0  0  0  0  0  0  0  0  0
   -4.8514    1.9681   -0.8311 H   0  0  0  0  0  0  0  0  0  0  0  0
   -4.3934    0.4441   -1.6107 H   0  0  0  0  0  0  0  0  0  0  0  0
   -3.2925    1.8683   -1.7301 H   0  0  0  0  0  0  0  0  0  0  0  0
   -4.9825    1.9087    1.0709 H   0  0  0  0  0  0  0  0  0  0  0  0
   -3.8566    1.2927    2.3136 H   0  0  0  0  0  0  0  0  0  0  0  0
   -4.9908    0.1598    1.4379 H   0  0  0  0  0  0  0  0  0  0  0  0
   -1.9303    0.6266    2.2441 H   0  0  0  0  0  0  0  0  0  0  0  0
    0.1954    2.0411    0.9116 H   0  0  0  0  0  0  0  0  0  0  0  0
    0.2409    1.2777    2.5110 H   0  0  0  0  0  0  0  0  0  0  0  0
    0.4429    1.4877   -1.6166 H   0  0  0  0  0  0  0  0  0  0  0  0
    1.8875    0.5397   -1.9994 H   0  0  0  0  0  0  0  0  0  0  0  0
    3.6641    3.7550   -1.5070 H   0  0  0  0  0  0  0  0  0  0  0  0
    4.5287   -0.1458   -0.5453 H   0  0  0  0  0  0  0  0  0  0  0  0
    3.6300    2.2283    1.8315 H   0  0  0  0  0  0  0  0  0  0  0  0
    4.0413    0.6208    1.4059 H   0  0  0  0  0  0  0  0  0  0  0  0
  2  1  1  0
  2  3  1  0
  2  4  1  0
  2  5  1  0
  5  6  1  0
  6  7  1  0
  7  8  1  0
  8  9  1  0
  9 10  1  0
  9 11  1  0
  9 12  1  0
  7 13  1  0
 12 13  1  0
 13 14  1  0
 14 15  1  0
  4 16  1  0
  6 16  1  0
 15 16  1  0
 16 17  1  6
 17 18  1  0
 19 18  1  0
 19 20  1  0
 19 21  1  0
 19 22  1  0
  1 23  1  0
  1 24  1  0
  1 25  1  0
  3 26  1  0
  3 27  1  0
  3 28  1  0
  6 29  1  6
  7 30  1  1
 10 31  1  0
 10 32  1  0
 10 33  1  0
 11 34  1  0
 11 35  1  0
 11 36  1  0
 13 37  1  1
 14 38  1  0
 14 39  1  0
 17 40  1  0
 17 41  1  0
 20 42  1  0
 21 43  1  0
 22 44  1  0
 22 45  1  0
M  END
>  <PDBID>  (1) 
3HKU

>  <PDB ID>  (1) 
3HKU

>  <Generic Name>  (1) 
Topiramate

>  <Brand Name>  (1) 
Abbott-topiramate#Accel-topiramate#Act Topiramate#Apo-topiramate#Auro-topiramate#Ava-topiramate#Dom-topiramate#Gd-topiramate#Ipg-topiramate#Jamp-topiramate#Mar-topiramate#Mint-topiramate#Mylan-topiramate#Nu-topiramate#PHL-topiramate#PMS-topiramate#Pro-topiramate#Q-topiramate#Qsymia#Qudexy XR#Ran-topiramate#Ratio-topiramate#Sandoz Topiramate#Sandoz Topiramate Tablets#Teva-topiramate#Topamax#Topamax 100mg#Topamax 200mg#Topamax 25mg#Topiramate#Topiramate Tablets#Topiramate Tablets USP#Trokendi XR#Van-topiramate#Zym-topiramate

>  <DrugBank ID>  (1) 
DB00273

>  <ATC Codes>  (1) 
N03AX11

>  <Ligand ID>  (1) 
TOR

>  <Target Name>  (1) 
Carbonic anhydrase 2

>  <UniProt ID>  (1) 
P00918

>  <PDB ID.1>  (1) 
3HKU

>  <Seq. Identity>  (1) 
100%

$$$$
