PDB_DB08916_08
     RDKit          3D

158164  0  0  0  0  0  0  0  0999 V2000
   -3.9961    2.1596   -0.3737 C   0  0  0  0  0  0  0  0  0  0  0  0
   -3.2657    1.6116   -1.4766 N   0  0  0  0  0  0  0  0  0  0  0  0
   -3.3093    1.8920    0.8744 N   0  0  0  0  0  0  0  0  0  0  0  0
   -2.8199    0.2574   -1.0724 C   0  0  0  0  0  0  0  0  0  0  0  0
   -1.8980    1.6437    0.6691 C   0  0  0  0  0  0  0  0  0  0  0  0
   -1.6642    0.3752   -0.1140 C   0  0  0  0  0  0  0  0  0  0  0  0
    0.5790    1.3806   -0.8024 C   0  0  0  0  0  0  0  0  0  0  0  0
   -0.3533    0.2670   -0.8143 C   0  0  0  0  0  0  0  0  0  0  0  0
    0.3225    2.4257    0.2798 C   0  0  0  0  0  0  0  0  0  0  0  0
   -1.1566    2.7891    0.0583 C   0  0  0  0  0  0  0  0  0  0  0  0
   -3.8769   -0.5968   -0.7886 N   0  0  0  0  0  0  0  0  0  0  0  0
   -3.3108   -4.0686    0.5782 C   0  0  0  0  0  0  0  0  0  0  0  0
   -4.6745   -4.1321    1.2135 C   0  0  0  0  0  0  0  0  0  0  0  0
   -2.9024   -2.5931    0.3439 C   0  0  0  0  0  0  0  0  0  0  0  0
   -5.4888   -2.9165    0.8048 C   0  0  0  0  0  0  0  0  0  0  0  0
   -3.7593   -1.9946   -0.7335 C   0  0  0  0  0  0  0  0  0  0  0  0
   -5.1719   -2.5903   -0.6433 C   0  0  0  0  0  0  0  0  0  0  0  0
   -4.4921   -4.0789    2.5865 F   0  0  0  0  0  0  0  0  0  0  0  0
   -3.2172   -4.8826   -0.9868 Cl  0  0  0  0  0  0  0  0  0  0  0  0
    1.1028    3.5362    0.0925 O   0  0  0  0  0  0  0  0  0  0  0  0
    1.8406    3.7645    1.2498 C   0  0  2  0  0  0  0  0  0  0  0  0
    1.6248    5.1862    1.7648 C   0  0  0  0  0  0  0  0  0  0  0  0
    2.7142    5.3960    2.5780 O   0  0  0  0  0  0  0  0  0  0  0  0
    3.8115    4.8074    1.9885 C   0  0  0  0  0  0  0  0  0  0  0  0
    3.3330    3.7843    1.0111 C   0  0  0  0  0  0  0  0  0  0  0  0
    1.9766    1.1166   -0.7851 N   0  0  0  0  0  0  0  0  0  0  0  0
    2.5838    0.4597   -1.8612 C   0  0  0  0  0  0  0  0  0  0  0  0
    2.2724   -0.9639   -2.1419 C   0  0  0  0  0  0  0  0  0  0  0  0
    2.2366    1.2033   -3.0315 O   0  0  0  0  0  0  0  0  0  0  0  0
    2.6455   -1.9238   -1.0316 C   0  0  0  0  0  0  0  0  0  0  0  0
    4.1448   -1.8908   -0.7660 C   0  0  0  0  0  0  0  0  0  0  0  0
    4.5422   -2.7701    0.2643 N   0  0  0  0  0  0  0  0  0  0  0  0
    4.1482   -2.4899    1.5893 C   0  0  0  0  0  0  0  0  0  0  0  0
    5.6943   -3.5664    0.0601 C   0  0  0  0  0  0  0  0  0  0  0  0
   -3.9961    2.1596   -0.3737 C   0  0  0  0  0  0  0  0  0  0  0  0
   -3.2657    1.6116   -1.4766 N   0  0  0  0  0  0  0  0  0  0  0  0
   -3.3093    1.8920    0.8744 N   0  0  0  0  0  0  0  0  0  0  0  0
   -2.8199    0.2574   -1.0724 C   0  0  0  0  0  0  0  0  0  0  0  0
   -1.8980    1.6437    0.6691 C   0  0  0  0  0  0  0  0  0  0  0  0
   -1.6642    0.3752   -0.1140 C   0  0  0  0  0  0  0  0  0  0  0  0
    0.5790    1.3806   -0.8024 C   0  0  0  0  0  0  0  0  0  0  0  0
   -0.3533    0.2670   -0.8143 C   0  0  0  0  0  0  0  0  0  0  0  0
    0.3225    2.4257    0.2798 C   0  0  0  0  0  0  0  0  0  0  0  0
   -1.1566    2.7891    0.0583 C   0  0  0  0  0  0  0  0  0  0  0  0
   -3.8769   -0.5968   -0.7886 N   0  0  0  0  0  0  0  0  0  0  0  0
   -3.3108   -4.0686    0.5782 C   0  0  0  0  0  0  0  0  0  0  0  0
   -4.6745   -4.1321    1.2135 C   0  0  0  0  0  0  0  0  0  0  0  0
   -2.9024   -2.5931    0.3439 C   0  0  0  0  0  0  0  0  0  0  0  0
   -5.4888   -2.9165    0.8048 C   0  0  0  0  0  0  0  0  0  0  0  0
   -3.7593   -1.9946   -0.7335 C   0  0  0  0  0  0  0  0  0  0  0  0
   -5.1719   -2.5903   -0.6433 C   0  0  0  0  0  0  0  0  0  0  0  0
   -4.4921   -4.0789    2.5865 F   0  0  0  0  0  0  0  0  0  0  0  0
   -3.2172   -4.8826   -0.9868 Cl  0  0  0  0  0  0  0  0  0  0  0  0
    1.1028    3.5362    0.0925 O   0  0  0  0  0  0  0  0  0  0  0  0
    1.8406    3.7645    1.2498 C   0  0  2  0  0  0  0  0  0  0  0  0
    1.6248    5.1862    1.7648 C   0  0  0  0  0  0  0  0  0  0  0  0
    2.7142    5.3960    2.5780 O   0  0  0  0  0  0  0  0  0  0  0  0
    3.8115    4.8074    1.9885 C   0  0  0  0  0  0  0  0  0  0  0  0
    3.3330    3.7843    1.0111 C   0  0  0  0  0  0  0  0  0  0  0  0
    1.9766    1.1166   -0.7851 N   0  0  0  0  0  0  0  0  0  0  0  0
    2.5838    0.4597   -1.8612 C   0  0  0  0  0  0  0  0  0  0  0  0
    2.2724   -0.9639   -2.1419 C   0  0  0  0  0  0  0  0  0  0  0  0
    2.2366    1.2033   -3.0315 O   0  0  0  0  0  0  0  0  0  0  0  0
    2.6455   -1.9238   -1.0316 C   0  0  0  0  0  0  0  0  0  0  0  0
    4.1448   -1.8908   -0.7660 C   0  0  0  0  0  0  0  0  0  0  0  0
    4.5422   -2.7701    0.2643 N   0  0  0  0  0  0  0  0  0  0  0  0
    4.1482   -2.4899    1.5893 C   0  0  0  0  0  0  0  0  0  0  0  0
    5.6943   -3.5664    0.0601 C   0  0  0  0  0  0  0  0  0  0  0  0
   -4.9883    1.6726   -0.3107 H   0  0  0  0  0  0  0  0  0  0  0  0
   -4.2154    3.2458   -0.4971 H   0  0  0  0  0  0  0  0  0  0  0  0
   -3.9390    1.4783   -2.2661 H   0  0  0  0  0  0  0  0  0  0  0  0
   -3.3713    2.7693    1.4466 H   0  0  0  0  0  0  0  0  0  0  0  0
   -2.3593   -0.1174   -2.0728 H   0  0  0  0  0  0  0  0  0  0  0  0
   -1.4633    1.4961    1.6832 H   0  0  0  0  0  0  0  0  0  0  0  0
   -1.7628   -0.4307    0.6313 H   0  0  0  0  0  0  0  0  0  0  0  0
    0.4312    2.0157   -1.7563 H   0  0  0  0  0  0  0  0  0  0  0  0
    0.1304   -0.6628   -0.4689 H   0  0  0  0  0  0  0  0  0  0  0  0
   -0.6126    0.0466   -1.9005 H   0  0  0  0  0  0  0  0  0  0  0  0
    0.4241    1.9402    1.2682 H   0  0  0  0  0  0  0  0  0  0  0  0
   -1.3010    2.8652   -1.0289 H   0  0  0  0  0  0  0  0  0  0  0  0
   -1.3896    3.7640    0.5250 H   0  0  0  0  0  0  0  0  0  0  0  0
   -4.4642   -0.2481    0.0044 H   0  0  0  0  0  0  0  0  0  0  0  0
   -2.5515   -4.4808    1.2602 H   0  0  0  0  0  0  0  0  0  0  0  0
   -5.2086   -5.0247    0.8752 H   0  0  0  0  0  0  0  0  0  0  0  0
   -3.0812   -2.1332    1.3463 H   0  0  0  0  0  0  0  0  0  0  0  0
   -1.8548   -2.6376    0.0460 H   0  0  0  0  0  0  0  0  0  0  0  0
   -5.1485   -2.0352    1.3861 H   0  0  0  0  0  0  0  0  0  0  0  0
   -6.5660   -3.0380    0.9358 H   0  0  0  0  0  0  0  0  0  0  0  0
   -3.3144   -2.3557   -1.7306 H   0  0  0  0  0  0  0  0  0  0  0  0
   -5.8817   -1.8208   -0.9940 H   0  0  0  0  0  0  0  0  0  0  0  0
   -5.3041   -3.4636   -1.2922 H   0  0  0  0  0  0  0  0  0  0  0  0
    1.6395    3.0174    2.0353 H   0  0  0  0  0  0  0  0  0  0  0  0
    0.6907    5.2512    2.3606 H   0  0  0  0  0  0  0  0  0  0  0  0
    1.6716    5.8649    0.9147 H   0  0  0  0  0  0  0  0  0  0  0  0
    4.3798    4.2739    2.7956 H   0  0  0  0  0  0  0  0  0  0  0  0
    4.5209    5.5463    1.5596 H   0  0  0  0  0  0  0  0  0  0  0  0
    3.5712    4.1735   -0.0200 H   0  0  0  0  0  0  0  0  0  0  0  0
    3.8044    2.7919    1.1700 H   0  0  0  0  0  0  0  0  0  0  0  0
    2.3797    0.9221    0.1660 H   0  0  0  0  0  0  0  0  0  0  0  0
    3.6984    0.5612   -1.7773 H   0  0  0  0  0  0  0  0  0  0  0  0
    1.2693   -1.1986   -2.4903 H   0  0  0  0  0  0  0  0  0  0  0  0
    2.9477   -1.2909   -3.0086 H   0  0  0  0  0  0  0  0  0  0  0  0
    2.9715    1.0479   -3.6828 H   0  0  0  0  0  0  0  0  0  0  0  0
    2.1232   -1.7457   -0.0772 H   0  0  0  0  0  0  0  0  0  0  0  0
    2.4171   -2.9466   -1.3994 H   0  0  0  0  0  0  0  0  0  0  0  0
    4.4308   -0.8557   -0.5058 H   0  0  0  0  0  0  0  0  0  0  0  0
    4.6199   -2.2291   -1.7139 H   0  0  0  0  0  0  0  0  0  0  0  0
    4.9650   -1.8846    2.0803 H   0  0  0  0  0  0  0  0  0  0  0  0
    3.2079   -1.9438    1.6716 H   0  0  0  0  0  0  0  0  0  0  0  0
    4.1401   -3.4460    2.1901 H   0  0  0  0  0  0  0  0  0  0  0  0
    5.7753   -4.4070    0.8042 H   0  0  0  0  0  0  0  0  0  0  0  0
    5.7478   -3.9915   -0.9676 H   0  0  0  0  0  0  0  0  0  0  0  0
    6.6041   -2.9535    0.2203 H   0  0  0  0  0  0  0  0  0  0  0  0
   -4.9883    1.6726   -0.3107 H   0  0  0  0  0  0  0  0  0  0  0  0
   -4.2154    3.2458   -0.4971 H   0  0  0  0  0  0  0  0  0  0  0  0
   -3.9390    1.4783   -2.2661 H   0  0  0  0  0  0  0  0  0  0  0  0
   -3.3713    2.7693    1.4466 H   0  0  0  0  0  0  0  0  0  0  0  0
   -2.3593   -0.1174   -2.0728 H   0  0  0  0  0  0  0  0  0  0  0  0
   -1.4633    1.4961    1.6832 H   0  0  0  0  0  0  0  0  0  0  0  0
   -1.7628   -0.4307    0.6313 H   0  0  0  0  0  0  0  0  0  0  0  0
    0.4312    2.0157   -1.7563 H   0  0  0  0  0  0  0  0  0  0  0  0
    0.1304   -0.6628   -0.4689 H   0  0  0  0  0  0  0  0  0  0  0  0
   -0.6126    0.0466   -1.9005 H   0  0  0  0  0  0  0  0  0  0  0  0
    0.4241    1.9402    1.2682 H   0  0  0  0  0  0  0  0  0  0  0  0
   -1.3010    2.8652   -1.0289 H   0  0  0  0  0  0  0  0  0  0  0  0
   -1.3896    3.7640    0.5250 H   0  0  0  0  0  0  0  0  0  0  0  0
   -4.4642   -0.2481    0.0044 H   0  0  0  0  0  0  0  0  0  0  0  0
   -2.5515   -4.4808    1.2602 H   0  0  0  0  0  0  0  0  0  0  0  0
   -5.2086   -5.0247    0.8752 H   0  0  0  0  0  0  0  0  0  0  0  0
   -3.0812   -2.1332    1.3463 H   0  0  0  0  0  0  0  0  0  0  0  0
   -1.8548   -2.6376    0.0460 H   0  0  0  0  0  0  0  0  0  0  0  0
   -5.1485   -2.0352    1.3861 H   0  0  0  0  0  0  0  0  0  0  0  0
   -6.5660   -3.0380    0.9358 H   0  0  0  0  0  0  0  0  0  0  0  0
   -3.3144   -2.3557   -1.7306 H   0  0  0  0  0  0  0  0  0  0  0  0
   -5.8817   -1.8208   -0.9940 H   0  0  0  0  0  0  0  0  0  0  0  0
   -5.3041   -3.4636   -1.2922 H   0  0  0  0  0  0  0  0  0  0  0  0
    1.6395    3.0174    2.0353 H   0  0  0  0  0  0  0  0  0  0  0  0
    0.6907    5.2512    2.3606 H   0  0  0  0  0  0  0  0  0  0  0  0
    1.6716    5.8649    0.9147 H   0  0  0  0  0  0  0  0  0  0  0  0
    4.3798    4.2739    2.7956 H   0  0  0  0  0  0  0  0  0  0  0  0
    4.5209    5.5463    1.5596 H   0  0  0  0  0  0  0  0  0  0  0  0
    3.5712    4.1735   -0.0200 H   0  0  0  0  0  0  0  0  0  0  0  0
    3.8044    2.7919    1.1700 H   0  0  0  0  0  0  0  0  0  0  0  0
    2.3797    0.9221    0.1660 H   0  0  0  0  0  0  0  0  0  0  0  0
    3.6984    0.5612   -1.7773 H   0  0  0  0  0  0  0  0  0  0  0  0
    1.2693   -1.1986   -2.4903 H   0  0  0  0  0  0  0  0  0  0  0  0
    2.9477   -1.2909   -3.0086 H   0  0  0  0  0  0  0  0  0  0  0  0
    2.9715    1.0479   -3.6828 H   0  0  0  0  0  0  0  0  0  0  0  0
    2.1232   -1.7457   -0.0772 H   0  0  0  0  0  0  0  0  0  0  0  0
    2.4171   -2.9466   -1.3994 H   0  0  0  0  0  0  0  0  0  0  0  0
    4.4308   -0.8557   -0.5058 H   0  0  0  0  0  0  0  0  0  0  0  0
    4.6199   -2.2291   -1.7139 H   0  0  0  0  0  0  0  0  0  0  0  0
    4.9650   -1.8846    2.0803 H   0  0  0  0  0  0  0  0  0  0  0  0
    3.2079   -1.9438    1.6716 H   0  0  0  0  0  0  0  0  0  0  0  0
    4.1401   -3.4460    2.1901 H   0  0  0  0  0  0  0  0  0  0  0  0
    5.7753   -4.4070    0.8042 H   0  0  0  0  0  0  0  0  0  0  0  0
    5.7478   -3.9915   -0.9676 H   0  0  0  0  0  0  0  0  0  0  0  0
    6.6041   -2.9535    0.2203 H   0  0  0  0  0  0  0  0  0  0  0  0
  1  2  1  0
  1  3  1  0
  2  4  1  0
  3  5  1  0
  4  6  1  0
  5  6  1  0
  6  8  1  0
  7  8  1  0
  7  9  1  0
  5 10  1  0
  9 10  1  0
  4 11  1  0
 12 13  1  0
 12 14  1  0
 13 15  1  0
 11 16  1  0
 14 16  1  0
 15 17  1  0
 16 17  1  0
 13 18  1  0
 12 19  1  0
  9 20  1  0
 20 21  1  0
 21 22  1  0
 22 23  1  0
 23 24  1  0
 21 25  1  0
 24 25  1  0
  7 26  1  0
 26 27  1  0
 27 28  1  0
 27 29  1  0
 28 30  1  0
 30 31  1  0
 31 32  1  0
 32 33  1  0
 32 34  1  0
 35 36  1  0
 35 37  1  0
 36 38  1  0
 37 39  1  0
 38 40  1  0
 39 40  1  0
 40 42  1  0
 41 42  1  0
 41 43  1  0
 39 44  1  0
 43 44  1  0
 38 45  1  0
 46 47  1  0
 46 48  1  0
 47 49  1  0
 45 50  1  0
 48 50  1  0
 49 51  1  0
 50 51  1  0
 47 52  1  0
 46 53  1  0
 43 54  1  0
 54 55  1  0
 55 56  1  0
 56 57  1  0
 57 58  1  0
 55 59  1  0
 58 59  1  0
 41 60  1  0
 60 61  1  0
 61 62  1  0
 61 63  1  0
 62 64  1  0
 64 65  1  0
 65 66  1  0
 66 67  1  0
 66 68  1  0
  1 69  1  0
  1 70  1  0
  2 71  1  0
  3 72  1  0
  4 73  1  0
  5 74  1  0
  6 75  1  0
  7 76  1  0
  8 77  1  0
  8 78  1  0
  9 79  1  0
 10 80  1  0
 10 81  1  0
 11 82  1  0
 12 83  1  0
 13 84  1  0
 14 85  1  0
 14 86  1  0
 15 87  1  0
 15 88  1  0
 16 89  1  0
 17 90  1  0
 17 91  1  0
 21 92  1  1
 22 93  1  0
 22 94  1  0
 24 95  1  0
 24 96  1  0
 25 97  1  0
 25 98  1  0
 26 99  1  0
 27100  1  0
 28101  1  0
 28102  1  0
 29103  1  0
 30104  1  0
 30105  1  0
 31106  1  0
 31107  1  0
 33108  1  0
 33109  1  0
 33110  1  0
 34111  1  0
 34112  1  0
 34113  1  0
 35114  1  0
 35115  1  0
 36116  1  0
 37117  1  0
 38118  1  0
 39119  1  0
 40120  1  0
 41121  1  0
 42122  1  0
 42123  1  0
 43124  1  0
 44125  1  0
 44126  1  0
 45127  1  0
 46128  1  0
 47129  1  0
 48130  1  0
 48131  1  0
 49132  1  0
 49133  1  0
 50134  1  0
 51135  1  0
 51136  1  0
 55137  1  1
 56138  1  0
 56139  1  0
 58140  1  0
 58141  1  0
 59142  1  0
 59143  1  0
 60144  1  0
 61145  1  0
 62146  1  0
 62147  1  0
 63148  1  0
 64149  1  0
 64150  1  0
 65151  1  0
 65152  1  0
 67153  1  0
 67154  1  0
 67155  1  0
 68156  1  0
 68157  1  0
 68158  1  0
M  END
>  <PDBID>  (1) 
4G5J

>  <PDB ID>  (1) 
4G5J

>  <Generic Name>  (1) 
Afatinib

>  <Brand Name>  (1) 
Gilotrif#Giotrif

>  <DrugBank ID>  (1) 
DB08916

>  <ATC Codes>  (1) 
L01XE13

>  <Ligand ID>  (1) 
0WM

>  <Target Name>  (1) 
Receptor tyrosine-protein kinase erbB-2

>  <UniProt ID>  (1) 
P04626

>  <PDB ID.1>  (1) 
4G5J

>  <Seq. Identity>  (1) 
78%

$$$$
