PDB_DB00523_02
     RDKit          3D

 62 62  0  0  0  0  0  0  0  0999 V2000
   -3.8024   -0.6873    0.7576 C   0  0  0  0  0  0  0  0  0  0  0  0
   -4.4485    0.5284    1.3258 C   0  0  0  0  0  0  0  0  0  0  0  0
   -4.8087    1.5768    0.3340 C   0  0  0  0  0  0  0  0  0  0  0  0
   -3.9867    1.5748   -0.9055 C   0  0  0  0  0  0  0  0  0  0  0  0
   -2.5880    1.0346   -0.6066 C   0  0  2  0  0  0  0  0  0  0  0  0
   -2.7521   -0.4208   -0.2700 C   0  0  1  0  0  0  0  0  0  0  0  0
   -1.4548   -1.1227    0.0120 C   0  0  0  0  0  0  0  0  0  0  0  0
   -0.4579   -0.7918   -1.0805 C   0  0  0  0  0  0  0  0  0  0  0  0
    0.8644   -1.5201   -0.7751 C   0  0  0  0  0  0  0  0  0  0  0  0
    1.8383   -1.1668   -1.8922 C   0  0  0  0  0  0  0  0  0  0  0  0
    2.1224    0.2775   -2.0044 C   0  0  0  0  0  0  0  0  0  0  0  0
    2.7156    1.0168   -0.9035 C   0  0  0  0  0  0  0  0  0  0  0  0
    4.1192    0.7420   -0.4414 C   0  0  0  0  0  0  0  0  0  0  0  0
    4.4584    1.6538    0.7026 C   0  0  0  0  0  0  0  0  0  0  0  0
    5.7989    1.5675    1.3069 C   0  0  0  0  0  0  0  0  0  0  0  0
   -4.9178   -1.5963    0.2301 C   0  0  0  0  0  0  0  0  0  0  0  0
   -3.1898   -1.4591    1.9363 C   0  0  0  0  0  0  0  0  0  0  0  0
   -1.9273    1.8604    0.4147 C   0  0  0  0  0  0  0  0  0  0  0  0
    0.6688   -3.0197   -0.8055 C   0  0  0  0  0  0  0  0  0  0  0  0
    4.3841   -0.6841   -0.1410 C   0  0  0  0  0  0  0  0  0  0  0  0
    5.9153    2.5667    2.3411 O   0  0  0  0  0  0  0  0  0  0  0  0
    6.0613    0.3731    1.9894 O   0  0  0  0  0  0  0  0  0  0  0  0
   -3.7972    0.9146    2.1620 H   0  0  0  0  0  0  0  0  0  0  0  0
   -5.3920    0.2058    1.8383 H   0  0  0  0  0  0  0  0  0  0  0  0
   -5.8875    1.4953    0.0194 H   0  0  0  0  0  0  0  0  0  0  0  0
   -4.7307    2.6042    0.7949 H   0  0  0  0  0  0  0  0  0  0  0  0
   -3.9455    2.5762   -1.3603 H   0  0  0  0  0  0  0  0  0  0  0  0
   -4.4356    0.8239   -1.6150 H   0  0  0  0  0  0  0  0  0  0  0  0
   -2.0446    1.0867   -1.5732 H   0  0  0  0  0  0  0  0  0  0  0  0
   -3.1241   -0.8918   -1.2319 H   0  0  0  0  0  0  0  0  0  0  0  0
   -1.0615   -0.9887    1.0124 H   0  0  0  0  0  0  0  0  0  0  0  0
   -1.6637   -2.2273   -0.1037 H   0  0  0  0  0  0  0  0  0  0  0  0
   -0.8240   -1.1835   -2.0509 H   0  0  0  0  0  0  0  0  0  0  0  0
   -0.2278    0.2735   -1.1351 H   0  0  0  0  0  0  0  0  0  0  0  0
    1.2305   -1.1528    0.1919 H   0  0  0  0  0  0  0  0  0  0  0  0
    1.3423   -1.4683   -2.8839 H   0  0  0  0  0  0  0  0  0  0  0  0
    2.7366   -1.7742   -1.8468 H   0  0  0  0  0  0  0  0  0  0  0  0
    2.8522    0.3666   -2.8911 H   0  0  0  0  0  0  0  0  0  0  0  0
    1.2222    0.8253   -2.4417 H   0  0  0  0  0  0  0  0  0  0  0  0
    2.0189    0.9855    0.0058 H   0  0  0  0  0  0  0  0  0  0  0  0
    2.6924    2.1263   -1.1833 H   0  0  0  0  0  0  0  0  0  0  0  0
    4.8459    1.0400   -1.2850 H   0  0  0  0  0  0  0  0  0  0  0  0
    3.7064    1.5125    1.5481 H   0  0  0  0  0  0  0  0  0  0  0  0
    4.2937    2.7165    0.3654 H   0  0  0  0  0  0  0  0  0  0  0  0
    6.5816    1.7534    0.5539 H   0  0  0  0  0  0  0  0  0  0  0  0
   -4.4421   -2.2720   -0.5381 H   0  0  0  0  0  0  0  0  0  0  0  0
   -5.6880   -0.9939   -0.3074 H   0  0  0  0  0  0  0  0  0  0  0  0
   -5.3892   -2.1784    1.0268 H   0  0  0  0  0  0  0  0  0  0  0  0
   -2.7666   -2.4076    1.6020 H   0  0  0  0  0  0  0  0  0  0  0  0
   -2.4933   -0.8156    2.5116 H   0  0  0  0  0  0  0  0  0  0  0  0
   -4.0255   -1.7166    2.6368 H   0  0  0  0  0  0  0  0  0  0  0  0
   -2.5889    2.6499    0.8676 H   0  0  0  0  0  0  0  0  0  0  0  0
   -1.0848    2.4231   -0.0400 H   0  0  0  0  0  0  0  0  0  0  0  0
   -1.5021    1.3118    1.2749 H   0  0  0  0  0  0  0  0  0  0  0  0
   -0.1086   -3.2704   -1.5569 H   0  0  0  0  0  0  0  0  0  0  0  0
    1.6162   -3.5339   -1.1238 H   0  0  0  0  0  0  0  0  0  0  0  0
    0.3939   -3.3620    0.2091 H   0  0  0  0  0  0  0  0  0  0  0  0
    3.5544   -1.2471    0.2847 H   0  0  0  0  0  0  0  0  0  0  0  0
    5.3103   -0.8164    0.4848 H   0  0  0  0  0  0  0  0  0  0  0  0
    4.7310   -1.1801   -1.1191 H   0  0  0  0  0  0  0  0  0  0  0  0
    6.8219    2.9794    2.2820 H   0  0  0  0  0  0  0  0  0  0  0  0
    6.6602    0.5065    2.7556 H   0  0  0  0  0  0  0  0  0  0  0  0
  1  2  1  0
  2  3  1  0
  3  4  1  0
  4  5  1  0
  1  6  1  0
  5  6  1  0
  6  7  1  0
  7  8  1  0
  8  9  1  0
  9 10  1  0
 10 11  1  0
 11 12  1  0
 12 13  1  0
 13 14  1  0
 14 15  1  0
  1 16  1  0
  1 17  1  0
  5 18  1  0
  9 19  1  0
 13 20  1  0
 15 21  1  0
 15 22  1  0
  2 23  1  0
  2 24  1  0
  3 25  1  0
  3 26  1  0
  4 27  1  0
  4 28  1  0
  5 29  1  6
  6 30  1  6
  7 31  1  0
  7 32  1  0
  8 33  1  0
  8 34  1  0
  9 35  1  0
 10 36  1  0
 10 37  1  0
 11 38  1  0
 11 39  1  0
 12 40  1  0
 12 41  1  0
 13 42  1  0
 14 43  1  0
 14 44  1  0
 15 45  1  0
 16 46  1  0
 16 47  1  0
 16 48  1  0
 17 49  1  0
 17 50  1  0
 17 51  1  0
 18 52  1  0
 18 53  1  0
 18 54  1  0
 19 55  1  0
 19 56  1  0
 19 57  1  0
 20 58  1  0
 20 59  1  0
 20 60  1  0
 21 61  1  0
 22 62  1  0
M  END
>  <PDBID>  (1) 
3OAP

>  <PDB ID>  (1) 
3OAP

>  <Generic Name>  (1) 
Alitretinoin

>  <Brand Name>  (1) 
Panretin#Toctino

>  <DrugBank ID>  (1) 
DB00523

>  <ATC Codes>  (1) 
D11AH04#L01XX22

>  <Ligand ID>  (1) 
9CR

>  <Target Name>  (1) 
Retinoic acid receptor RXR-beta

>  <UniProt ID>  (1) 
P28702

>  <PDB ID.1>  (1) 
3OAP

>  <Seq. Identity>  (1) 
87%

$$$$
