PDB_DB01136_04
     RDKit          3D

148154  0  0  0  0  0  0  0  0999 V2000
    1.0978    0.5653   -1.6031 O   0  0  0  0  0  0  0  0  0  0  0  0
    0.7771    0.2302   -0.2919 C   0  0  2  0  0  0  0  0  0  0  0  0
    1.1583   -1.1802    0.0700 C   0  0  0  0  0  0  0  0  0  0  0  0
    2.4135   -1.5722    0.0066 O   0  0  0  0  0  0  0  0  0  0  0  0
    3.2140   -1.5713   -1.0611 C   0  0  2  0  0  0  0  0  0  0  0  0
    3.4474   -3.0408   -1.5610 C   0  0  0  0  0  0  0  0  0  0  0  0
    4.5234   -3.6867   -0.7650 C   0  0  0  0  0  0  0  0  0  0  0  0
    4.7579   -3.1031    0.5845 C   0  0  0  0  0  0  0  0  0  0  0  0
    4.8619   -1.6241    0.6630 C   0  0  0  0  0  0  0  0  0  0  0  0
    4.5699   -1.1133   -0.7730 C   0  0  0  0  0  0  0  0  0  0  0  0
    5.0227    0.2463   -0.7517 C   0  0  0  0  0  0  0  0  0  0  0  0
    4.1406    1.4089   -0.6277 C   0  0  0  0  0  0  0  0  0  0  0  0
    5.0852    2.6300   -0.4832 C   0  0  0  0  0  0  0  0  0  0  0  0
    5.6437    2.5740    0.9167 C   0  0  0  0  0  0  0  0  0  0  0  0
    5.6168    1.1489    1.4563 C   0  0  0  0  0  0  0  0  0  0  0  0
    6.0849    0.2425    0.3621 C   0  0  0  0  0  0  0  0  0  0  0  0
    6.2162   -1.1343    0.7974 N   0  0  0  0  0  0  0  0  0  0  0  0
   -0.7296    0.4336   -0.0510 C   0  0  0  0  0  0  0  0  0  0  0  0
   -1.4499   -0.4121   -0.9628 N   0  0  0  0  0  0  0  0  0  0  0  0
   -2.8930   -0.2863   -0.8222 C   0  0  0  0  0  0  0  0  0  0  0  0
   -3.4204   -0.8288    0.4615 C   0  0  0  0  0  0  0  0  0  0  0  0
   -4.7837   -0.6815    0.5293 O   0  0  0  0  0  0  0  0  0  0  0  0
   -5.1743    0.6213    0.5358 C   0  0  0  0  0  0  0  0  0  0  0  0
   -6.0157    0.9221    1.7825 C   0  0  0  0  0  0  0  0  0  0  0  0
   -7.1539   -0.0635    1.7784 C   0  0  0  0  0  0  0  0  0  0  0  0
   -7.9986    0.0492    0.5436 C   0  0  0  0  0  0  0  0  0  0  0  0
   -7.1404   -0.0939   -0.7129 C   0  0  0  0  0  0  0  0  0  0  0  0
   -6.0649    0.9787   -0.6395 C   0  0  0  0  0  0  0  0  0  0  0  0
   -6.7110    2.1618   -0.2964 O   0  0  0  0  0  0  0  0  0  0  0  0
   -6.5139    3.1702   -1.2334 C   0  0  0  0  0  0  0  0  0  0  0  0
    1.3114    0.7756   -1.6383 O   0  0  0  0  0  0  0  0  0  0  0  0
    0.7631   -0.2374   -0.8636 C   0  0  2  0  0  0  0  0  0  0  0  0
    1.2246   -1.5593   -1.3495 C   0  0  0  0  0  0  0  0  0  0  0  0
    2.5523   -1.8481   -1.3156 O   0  0  0  0  0  0  0  0  0  0  0  0
    3.1547   -1.8321   -0.0953 C   0  0  1  0  0  0  0  0  0  0  0  0
    3.5103   -3.2779    0.3399 C   0  0  0  0  0  0  0  0  0  0  0  0
    4.9403   -3.4252    0.7657 C   0  0  0  0  0  0  0  0  0  0  0  0
    5.4073   -2.4099    1.7786 C   0  0  0  0  0  0  0  0  0  0  0  0
    4.7868   -1.1012    1.4882 C   0  0  0  0  0  0  0  0  0  0  0  0
    4.4358   -1.0948   -0.0253 C   0  0  2  0  0  0  0  0  0  0  0  0
    4.4445    0.3711   -0.2727 C   0  0  2  0  0  0  0  0  0  0  0  0
    4.6053    0.8299   -1.6687 C   0  0  0  0  0  0  0  0  0  0  0  0
    5.9752    1.4171   -1.9486 C   0  0  0  0  0  0  0  0  0  0  0  0
    6.3069    2.5525   -1.0029 C   0  0  0  0  0  0  0  0  0  0  0  0
    5.9430    2.1680    0.4313 C   0  0  0  0  0  0  0  0  0  0  0  0
    5.7823    0.6980    0.4445 C   0  0  0  0  0  0  0  0  0  0  0  0
    5.5979    0.0603    1.7059 N   0  0  0  0  0  0  0  0  0  0  0  0
   -0.7745   -0.1705   -0.9190 C   0  0  0  0  0  0  0  0  0  0  0  0
   -1.3497   -1.2107   -0.1095 N   0  0  0  0  0  0  0  0  0  0  0  0
   -2.7737   -1.1630   -0.2082 C   0  0  0  0  0  0  0  0  0  0  0  0
   -3.3895    0.0633    0.4239 C   0  0  0  0  0  0  0  0  0  0  0  0
   -4.7769   -0.0745    0.2275 O   0  0  0  0  0  0  0  0  0  0  0  0
   -5.5095    0.9705    0.7366 C   0  0  0  0  0  0  0  0  0  0  0  0
   -6.5656    0.4672    1.7006 C   0  0  0  0  0  0  0  0  0  0  0  0
   -7.2982   -0.6654    0.9916 C   0  0  0  0  0  0  0  0  0  0  0  0
   -7.8678   -0.2529   -0.3298 C   0  0  0  0  0  0  0  0  0  0  0  0
   -6.8769    0.4513   -1.2030 C   0  0  0  0  0  0  0  0  0  0  0  0
   -6.2901    1.6185   -0.4148 C   0  0  0  0  0  0  0  0  0  0  0  0
   -7.3758    2.2778    0.1603 O   0  0  0  0  0  0  0  0  0  0  0  0
   -7.4060    3.6290   -0.1919 C   0  0  0  0  0  0  0  0  0  0  0  0
    0.5743    1.3686   -1.8658 H   0  0  0  0  0  0  0  0  0  0  0  0
    1.2483    0.9873    0.3618 H   0  0  0  0  0  0  0  0  0  0  0  0
    0.4006   -1.9143   -0.3650 H   0  0  0  0  0  0  0  0  0  0  0  0
    0.8587   -1.2535    1.1755 H   0  0  0  0  0  0  0  0  0  0  0  0
    2.7498   -1.0461   -1.9098 H   0  0  0  0  0  0  0  0  0  0  0  0
    2.5463   -3.6226   -1.5688 H   0  0  0  0  0  0  0  0  0  0  0  0
    3.8047   -2.9120   -2.5954 H   0  0  0  0  0  0  0  0  0  0  0  0
    5.4924   -3.7518   -1.3407 H   0  0  0  0  0  0  0  0  0  0  0  0
    4.2449   -4.7698   -0.5990 H   0  0  0  0  0  0  0  0  0  0  0  0
    5.7430   -3.5242    0.9483 H   0  0  0  0  0  0  0  0  0  0  0  0
    4.0208   -3.4488    1.3411 H   0  0  0  0  0  0  0  0  0  0  0  0
    4.1631   -1.1789    1.3755 H   0  0  0  0  0  0  0  0  0  0  0  0
    5.2818   -1.7254   -1.4182 H   0  0  0  0  0  0  0  0  0  0  0  0
    5.6503    0.4376   -1.6891 H   0  0  0  0  0  0  0  0  0  0  0  0
    3.5799    1.6058   -1.5594 H   0  0  0  0  0  0  0  0  0  0  0  0
    3.5119    1.4761    0.2481 H   0  0  0  0  0  0  0  0  0  0  0  0
    4.5520    3.5672   -0.6989 H   0  0  0  0  0  0  0  0  0  0  0  0
    5.9077    2.4488   -1.1907 H   0  0  0  0  0  0  0  0  0  0  0  0
    5.1095    3.2823    1.5779 H   0  0  0  0  0  0  0  0  0  0  0  0
    6.7352    2.8597    0.9040 H   0  0  0  0  0  0  0  0  0  0  0  0
    4.6224    0.9509    1.8522 H   0  0  0  0  0  0  0  0  0  0  0  0
    6.3123    1.0874    2.3242 H   0  0  0  0  0  0  0  0  0  0  0  0
    7.0625    0.6156    0.0107 H   0  0  0  0  0  0  0  0  0  0  0  0
    6.4523   -1.1214    1.8307 H   0  0  0  0  0  0  0  0  0  0  0  0
   -0.9986    1.4842   -0.1852 H   0  0  0  0  0  0  0  0  0  0  0  0
   -0.9467    0.1023    0.9847 H   0  0  0  0  0  0  0  0  0  0  0  0
   -1.2419   -0.1852   -1.9622 H   0  0  0  0  0  0  0  0  0  0  0  0
   -3.3087   -0.9422   -1.6420 H   0  0  0  0  0  0  0  0  0  0  0  0
   -3.2384    0.7296   -0.9939 H   0  0  0  0  0  0  0  0  0  0  0  0
   -3.1092   -1.8998    0.5967 H   0  0  0  0  0  0  0  0  0  0  0  0
   -2.9046   -0.2670    1.2940 H   0  0  0  0  0  0  0  0  0  0  0  0
   -4.3237    1.3103    0.5155 H   0  0  0  0  0  0  0  0  0  0  0  0
   -5.4178    0.7654    2.7023 H   0  0  0  0  0  0  0  0  0  0  0  0
   -6.4155    1.9492    1.6836 H   0  0  0  0  0  0  0  0  0  0  0  0
   -7.7813    0.1232    2.6566 H   0  0  0  0  0  0  0  0  0  0  0  0
   -6.7375   -1.1081    1.7937 H   0  0  0  0  0  0  0  0  0  0  0  0
   -8.6976   -0.8270    0.5357 H   0  0  0  0  0  0  0  0  0  0  0  0
   -8.5835    0.9732    0.5352 H   0  0  0  0  0  0  0  0  0  0  0  0
   -6.6685   -1.0902   -0.6926 H   0  0  0  0  0  0  0  0  0  0  0  0
   -7.8111    0.0516   -1.5672 H   0  0  0  0  0  0  0  0  0  0  0  0
   -5.5270    1.0812   -1.5882 H   0  0  0  0  0  0  0  0  0  0  0  0
   -5.4595    3.4286   -1.3615 H   0  0  0  0  0  0  0  0  0  0  0  0
   -6.9838    2.8408   -2.1998 H   0  0  0  0  0  0  0  0  0  0  0  0
   -7.0519    4.0707   -0.8744 H   0  0  0  0  0  0  0  0  0  0  0  0
    1.1011    1.6317   -1.1852 H   0  0  0  0  0  0  0  0  0  0  0  0
    1.0235   -0.0227    0.1927 H   0  0  0  0  0  0  0  0  0  0  0  0
    0.9271   -1.6084   -2.4458 H   0  0  0  0  0  0  0  0  0  0  0  0
    0.5986   -2.4052   -0.9159 H   0  0  0  0  0  0  0  0  0  0  0  0
    2.4546   -1.4275    0.6980 H   0  0  0  0  0  0  0  0  0  0  0  0
    2.8622   -3.5633    1.1818 H   0  0  0  0  0  0  0  0  0  0  0  0
    3.3414   -3.9764   -0.4941 H   0  0  0  0  0  0  0  0  0  0  0  0
    5.6592   -3.4986   -0.1031 H   0  0  0  0  0  0  0  0  0  0  0  0
    4.9927   -4.4733    1.2253 H   0  0  0  0  0  0  0  0  0  0  0  0
    6.5163   -2.3546    1.7337 H   0  0  0  0  0  0  0  0  0  0  0  0
    5.0952   -2.8183    2.7854 H   0  0  0  0  0  0  0  0  0  0  0  0
    3.8121   -0.9838    2.0450 H   0  0  0  0  0  0  0  0  0  0  0  0
    5.2653   -1.6132   -0.5790 H   0  0  0  0  0  0  0  0  0  0  0  0
    3.6128    0.8292    0.2858 H   0  0  0  0  0  0  0  0  0  0  0  0
    3.8146    1.5938   -1.9035 H   0  0  0  0  0  0  0  0  0  0  0  0
    4.4662   -0.0153   -2.3711 H   0  0  0  0  0  0  0  0  0  0  0  0
    5.8955    1.9000   -2.9671 H   0  0  0  0  0  0  0  0  0  0  0  0
    6.7803    0.6940   -2.0212 H   0  0  0  0  0  0  0  0  0  0  0  0
    5.8568    3.4966   -1.3232 H   0  0  0  0  0  0  0  0  0  0  0  0
    7.4078    2.6765   -1.0188 H   0  0  0  0  0  0  0  0  0  0  0  0
    4.9700    2.6529    0.6450 H   0  0  0  0  0  0  0  0  0  0  0  0
    6.6808    2.5611    1.1518 H   0  0  0  0  0  0  0  0  0  0  0  0
    6.5896    0.1526   -0.0967 H   0  0  0  0  0  0  0  0  0  0  0  0
    5.1324    0.6897    2.4194 H   0  0  0  0  0  0  0  0  0  0  0  0
   -1.0585   -0.2355   -1.9722 H   0  0  0  0  0  0  0  0  0  0  0  0
   -1.1282    0.8036   -0.5306 H   0  0  0  0  0  0  0  0  0  0  0  0
   -1.0715   -1.1259    0.8907 H   0  0  0  0  0  0  0  0  0  0  0  0
   -3.1712   -2.0407    0.3468 H   0  0  0  0  0  0  0  0  0  0  0  0
   -3.1498   -1.2046   -1.2458 H   0  0  0  0  0  0  0  0  0  0  0  0
   -3.2382    0.1119    1.5175 H   0  0  0  0  0  0  0  0  0  0  0  0
   -3.0766    1.0084   -0.0415 H   0  0  0  0  0  0  0  0  0  0  0  0
   -4.8563    1.7238    1.2024 H   0  0  0  0  0  0  0  0  0  0  0  0
   -6.1647    0.0836    2.6393 H   0  0  0  0  0  0  0  0  0  0  0  0
   -7.2932    1.2952    1.8257 H   0  0  0  0  0  0  0  0  0  0  0  0
   -8.1365   -0.9441    1.6759 H   0  0  0  0  0  0  0  0  0  0  0  0
   -6.6471   -1.5448    0.8513 H   0  0  0  0  0  0  0  0  0  0  0  0
   -8.1718   -1.1847   -0.8604 H   0  0  0  0  0  0  0  0  0  0  0  0
   -8.7995    0.3514   -0.2352 H   0  0  0  0  0  0  0  0  0  0  0  0
   -6.0295   -0.2255   -1.4227 H   0  0  0  0  0  0  0  0  0  0  0  0
   -7.3979    0.8164   -2.1116 H   0  0  0  0  0  0  0  0  0  0  0  0
   -5.6556    2.2691   -1.0344 H   0  0  0  0  0  0  0  0  0  0  0  0
   -6.4925    4.1541    0.1364 H   0  0  0  0  0  0  0  0  0  0  0  0
   -7.5230    3.6724   -1.3093 H   0  0  0  0  0  0  0  0  0  0  0  0
   -8.2824    4.0716    0.3326 H   0  0  0  0  0  0  0  0  0  0  0  0
  1  2  1  0
  2  3  1  0
  3  4  1  0
  4  5  1  0
  5  6  1  0
  6  7  1  0
  7  8  1  0
  8  9  1  0
  5 10  1  0
  9 10  1  0
 10 11  1  0
 11 12  1  0
 12 13  1  0
 13 14  1  0
 14 15  1  0
 11 16  1  0
 15 16  1  0
  9 17  1  0
 16 17  1  0
  2 18  1  0
 18 19  1  0
 19 20  1  0
 20 21  1  0
 21 22  1  0
 22 23  1  0
 23 24  1  0
 24 25  1  0
 25 26  1  0
 26 27  1  0
 23 28  1  0
 27 28  1  0
 28 29  1  0
 29 30  1  0
 31 32  1  0
 32 33  1  0
 33 34  1  0
 34 35  1  0
 35 36  1  0
 36 37  1  0
 37 38  1  0
 38 39  1  0
 35 40  1  0
 39 40  1  0
 40 41  1  0
 41 42  1  0
 42 43  1  0
 43 44  1  0
 44 45  1  0
 41 46  1  0
 45 46  1  0
 39 47  1  0
 46 47  1  0
 32 48  1  0
 48 49  1  0
 49 50  1  0
 50 51  1  0
 51 52  1  0
 52 53  1  0
 53 54  1  0
 54 55  1  0
 55 56  1  0
 56 57  1  0
 53 58  1  0
 57 58  1  0
 58 59  1  0
 59 60  1  0
  1 61  1  0
  2 62  1  1
  3 63  1  0
  3 64  1  0
  5 65  1  6
  6 66  1  0
  6 67  1  0
  7 68  1  0
  7 69  1  0
  8 70  1  0
  8 71  1  0
  9 72  1  0
 10 73  1  0
 11 74  1  0
 12 75  1  0
 12 76  1  0
 13 77  1  0
 13 78  1  0
 14 79  1  0
 14 80  1  0
 15 81  1  0
 15 82  1  0
 16 83  1  0
 17 84  1  0
 18 85  1  0
 18 86  1  0
 19 87  1  0
 20 88  1  0
 20 89  1  0
 21 90  1  0
 21 91  1  0
 23 92  1  0
 24 93  1  0
 24 94  1  0
 25 95  1  0
 25 96  1  0
 26 97  1  0
 26 98  1  0
 27 99  1  0
 27100  1  0
 28101  1  0
 30102  1  0
 30103  1  0
 30104  1  0
 31105  1  0
 32106  1  1
 33107  1  0
 33108  1  0
 35109  1  1
 36110  1  0
 36111  1  0
 37112  1  0
 37113  1  0
 38114  1  0
 38115  1  0
 39116  1  0
 40117  1  6
 41118  1  1
 42119  1  0
 42120  1  0
 43121  1  0
 43122  1  0
 44123  1  0
 44124  1  0
 45125  1  0
 45126  1  0
 46127  1  0
 47128  1  0
 48129  1  0
 48130  1  0
 49131  1  0
 50132  1  0
 50133  1  0
 51134  1  0
 51135  1  0
 53136  1  0
 54137  1  0
 54138  1  0
 55139  1  0
 55140  1  0
 56141  1  0
 56142  1  0
 57143  1  0
 57144  1  0
 58145  1  0
 60146  1  0
 60147  1  0
 60148  1  0
M  END
>  <PDBID>  (1) 
4AMJ

>  <PDB ID>  (1) 
4AMJ

>  <Generic Name>  (1) 
Carvedilol

>  <Brand Name>  (1) 
Apo-carvedilol#Auro-carvedilol#Ava-carvedilol#Carvedilol#Coreg#Coreg (carvedilol) Tablets, 12.5mg#Coreg (carvedilol) Tablets, 25mg#Coreg (carvedilol) Tablets, 3.125 mg#Coreg (carvedilol) Tablets, 6.25mg#Coreg 12.5mg#Coreg 25mg#Coreg 3.125mg#Coreg 6.25mg#Coreg CR#Coregcr CR#Dilatrend - Tab 25mg#Dilatrend - Tab 50mg#Dom-carvedilol#Hypertenevide-12.5#Jamp-carvedilol#Mylan-carvedilol#Novo-carvedilol Tablets#Ntp-carvedilol#Nu-carvedilol#PMS-carvedilol#Ran-carvedilol#Ratio-carvedilol#Zym-carvedilol#COREGCR

>  <DrugBank ID>  (1) 
DB01136

>  <ATC Codes>  (1) 
C07AG02

>  <Ligand ID>  (1) 
CVD

>  <Target Name>  (1) 
Beta-1 adrenergic receptor

>  <UniProt ID>  (1) 
P08588

>  <PDB ID.1>  (1) 
4AMJ

>  <Seq. Identity>  (1) 
63%

$$$$
