PDB_DB01261_01
     RDKit          3D

110114  0  0  0  0  0  0  0  0999 V2000
   -4.5596    1.6496    0.5889 C   0  0  0  0  0  0  0  0  0  0  0  0
   -4.0522    0.4166    1.2564 C   0  0  0  0  0  0  0  0  0  0  0  0
   -3.7436   -0.7262    0.3278 C   0  0  0  0  0  0  0  0  0  0  0  0
   -4.9867   -1.0453   -0.5020 C   0  0  0  0  0  0  0  0  0  0  0  0
   -6.1233   -0.0986   -0.2582 C   0  0  0  0  0  0  0  0  0  0  0  0
   -5.6949    1.3391   -0.3663 C   0  0  0  0  0  0  0  0  0  0  0  0
   -7.0514   -0.3268   -1.2713 F   0  0  0  0  0  0  0  0  0  0  0  0
   -4.9578   -0.0763    2.2023 F   0  0  0  0  0  0  0  0  0  0  0  0
   -2.6500   -0.4294   -0.6627 C   0  0  0  0  0  0  0  0  0  0  0  0
   -1.3462   -0.0281   -0.0252 C   0  0  2  0  0  0  0  0  0  0  0  0
   -0.3363    0.2084   -1.0941 C   0  0  0  0  0  0  0  0  0  0  0  0
    0.9984    0.6738   -0.6534 C   0  0  1  0  0  0  0  0  0  0  0  0
    1.7444   -0.1023    0.2461 N   0  0  0  0  0  0  0  0  0  0  0  0
   -0.9079   -1.1191    0.8566 N   0  0  0  0  0  0  0  0  0  0  0  0
    1.7282    1.0687   -1.7824 O   0  0  0  0  0  0  0  0  0  0  0  0
    2.3762    0.6170    1.3100 C   0  0  0  0  0  0  0  0  0  0  0  0
    3.7598    0.1590    1.6430 C   0  0  0  0  0  0  0  0  0  0  0  0
    4.4393   -0.6186    0.7202 N   0  0  0  0  0  0  0  0  0  0  0  0
    3.7102   -1.5177   -0.0941 C   0  0  0  0  0  0  0  0  0  0  0  0
    2.2221   -1.3679   -0.0854 C   0  0  0  0  0  0  0  0  0  0  0  0
    5.5141   -0.1669   -0.0249 C   0  0  0  0  0  0  0  0  0  0  0  0
    5.1135   -0.3216   -1.4224 N   0  0  0  0  0  0  0  0  0  0  0  0
    4.2652   -1.4280   -1.4343 N   0  0  0  0  0  0  0  0  0  0  0  0
    6.0418    1.2017    0.1404 C   0  0  0  0  0  0  0  0  0  0  0  0
    6.5092    1.5068    1.3985 F   0  0  0  0  0  0  0  0  0  0  0  0
    5.1859    2.1734   -0.3432 F   0  0  0  0  0  0  0  0  0  0  0  0
    7.1769    1.3007   -0.6891 F   0  0  0  0  0  0  0  0  0  0  0  0
   -6.7720    2.1632   -0.1029 F   0  0  0  0  0  0  0  0  0  0  0  0
   -4.7659    1.5397    1.0911 C   0  0  0  0  0  0  0  0  0  0  0  0
   -4.3797    0.0763    1.2090 C   0  0  0  0  0  0  0  0  0  0  0  0
   -4.0937   -0.5622   -0.1130 C   0  0  0  0  0  0  0  0  0  0  0  0
   -5.2153   -0.3108   -1.0791 C   0  0  0  0  0  0  0  0  0  0  0  0
   -6.3257    0.5332   -0.5131 C   0  0  0  0  0  0  0  0  0  0  0  0
   -5.7115    1.8276   -0.0252 C   0  0  0  0  0  0  0  0  0  0  0  0
   -7.1727    0.8570   -1.5781 F   0  0  0  0  0  0  0  0  0  0  0  0
   -5.4204   -0.6521    1.8075 F   0  0  0  0  0  0  0  0  0  0  0  0
   -2.7841   -0.1968   -0.7294 C   0  0  0  0  0  0  0  0  0  0  0  0
   -1.6472   -0.5947    0.1516 C   0  0  2  0  0  0  0  0  0  0  0  0
   -0.2989   -0.2418   -0.4451 C   0  0  0  0  0  0  0  0  0  0  0  0
    0.7640   -0.7089    0.5531 C   0  0  0  0  0  0  0  0  0  0  0  0
    2.0778   -0.4472    0.1322 N   0  0  0  0  0  0  0  0  0  0  0  0
   -1.7698   -1.9935    0.4334 N   0  0  0  0  0  0  0  0  0  0  0  0
    0.5563   -2.0894    0.7062 O   0  0  0  0  0  0  0  0  0  0  0  0
    2.5181    0.8630   -0.0507 C   0  0  0  0  0  0  0  0  0  0  0  0
    3.8104    1.0833    0.6948 C   0  0  0  0  0  0  0  0  0  0  0  0
    4.7785    0.1014    0.5385 N   0  0  0  0  0  0  0  0  0  0  0  0
    4.4195   -1.2111    0.1501 C   0  0  0  0  0  0  0  0  0  0  0  0
    2.9781   -1.5035   -0.0612 C   0  0  0  0  0  0  0  0  0  0  0  0
    6.0158    0.3868   -0.0881 C   0  0  0  0  0  0  0  0  0  0  0  0
    5.8086   -0.2153   -1.4013 N   0  0  0  0  0  0  0  0  0  0  0  0
    5.1964   -1.4200   -1.0535 N   0  0  0  0  0  0  0  0  0  0  0  0
    6.5048    1.7726   -0.1182 C   0  0  0  0  0  0  0  0  0  0  0  0
    6.6499    2.2136    1.1836 F   0  0  0  0  0  0  0  0  0  0  0  0
    5.8618    2.6397   -0.9432 F   0  0  0  0  0  0  0  0  0  0  0  0
    7.8268    1.7134   -0.6061 F   0  0  0  0  0  0  0  0  0  0  0  0
   -6.6921    2.6713    0.4184 F   0  0  0  0  0  0  0  0  0  0  0  0
   -3.7320    2.1332    0.0140 H   0  0  0  0  0  0  0  0  0  0  0  0
   -4.8964    2.3503    1.4071 H   0  0  0  0  0  0  0  0  0  0  0  0
   -3.1273    0.6367    1.8355 H   0  0  0  0  0  0  0  0  0  0  0  0
   -3.4862   -1.6079    0.9269 H   0  0  0  0  0  0  0  0  0  0  0  0
   -4.7606   -1.0329   -1.5956 H   0  0  0  0  0  0  0  0  0  0  0  0
   -5.3583   -2.0896   -0.2790 H   0  0  0  0  0  0  0  0  0  0  0  0
   -6.6309   -0.3156    0.6950 H   0  0  0  0  0  0  0  0  0  0  0  0
   -5.3773    1.5517   -1.4156 H   0  0  0  0  0  0  0  0  0  0  0  0
   -2.4749   -1.3819   -1.2168 H   0  0  0  0  0  0  0  0  0  0  0  0
   -2.9847    0.3176   -1.3781 H   0  0  0  0  0  0  0  0  0  0  0  0
   -1.5143    0.8302    0.6311 H   0  0  0  0  0  0  0  0  0  0  0  0
   -0.1970   -0.6662   -1.7653 H   0  0  0  0  0  0  0  0  0  0  0  0
   -0.7561    1.0116   -1.7645 H   0  0  0  0  0  0  0  0  0  0  0  0
    0.8043    1.6751   -0.1221 H   0  0  0  0  0  0  0  0  0  0  0  0
   -0.1444   -0.8148    1.4992 H   0  0  0  0  0  0  0  0  0  0  0  0
   -0.5834   -1.9346    0.2617 H   0  0  0  0  0  0  0  0  0  0  0  0
    1.9814    0.2702   -2.2930 H   0  0  0  0  0  0  0  0  0  0  0  0
    2.3486    1.7050    0.9987 H   0  0  0  0  0  0  0  0  0  0  0  0
    1.7329    0.5554    2.2079 H   0  0  0  0  0  0  0  0  0  0  0  0
    3.7022   -0.4089    2.6204 H   0  0  0  0  0  0  0  0  0  0  0  0
    4.3327    1.0871    1.9209 H   0  0  0  0  0  0  0  0  0  0  0  0
    3.9410   -2.5646    0.2681 H   0  0  0  0  0  0  0  0  0  0  0  0
    1.8262   -1.6808   -1.0881 H   0  0  0  0  0  0  0  0  0  0  0  0
    1.7993   -2.1367    0.6329 H   0  0  0  0  0  0  0  0  0  0  0  0
    6.3804   -0.8788    0.1232 H   0  0  0  0  0  0  0  0  0  0  0  0
    4.6812    0.5452   -1.7905 H   0  0  0  0  0  0  0  0  0  0  0  0
    4.8905   -2.2609   -1.6613 H   0  0  0  0  0  0  0  0  0  0  0  0
   -3.8070    2.0977    0.9682 H   0  0  0  0  0  0  0  0  0  0  0  0
   -5.1470    1.8408    2.0951 H   0  0  0  0  0  0  0  0  0  0  0  0
   -3.5507    0.0278    1.9246 H   0  0  0  0  0  0  0  0  0  0  0  0
   -4.0608   -1.6646    0.0716 H   0  0  0  0  0  0  0  0  0  0  0  0
   -4.8643    0.1989   -2.0104 H   0  0  0  0  0  0  0  0  0  0  0  0
   -5.6750   -1.2681   -1.4390 H   0  0  0  0  0  0  0  0  0  0  0  0
   -6.9427    0.0370    0.2416 H   0  0  0  0  0  0  0  0  0  0  0  0
   -5.1306    2.2436   -0.8800 H   0  0  0  0  0  0  0  0  0  0  0  0
   -2.7194   -0.7766   -1.6928 H   0  0  0  0  0  0  0  0  0  0  0  0
   -2.7813    0.8811   -0.9884 H   0  0  0  0  0  0  0  0  0  0  0  0
   -1.7140   -0.0336    1.0999 H   0  0  0  0  0  0  0  0  0  0  0  0
   -0.1564   -0.7830   -1.3830 H   0  0  0  0  0  0  0  0  0  0  0  0
   -0.2190    0.8240   -0.6526 H   0  0  0  0  0  0  0  0  0  0  0  0
    0.4762   -0.1900    1.5144 H   0  0  0  0  0  0  0  0  0  0  0  0
   -2.0027   -2.2477    1.3954 H   0  0  0  0  0  0  0  0  0  0  0  0
   -2.1190   -2.5828   -0.3241 H   0  0  0  0  0  0  0  0  0  0  0  0
    0.5801   -2.5070   -0.1930 H   0  0  0  0  0  0  0  0  0  0  0  0
    2.5495    1.1352   -1.1061 H   0  0  0  0  0  0  0  0  0  0  0  0
    1.7765    1.5687    0.4253 H   0  0  0  0  0  0  0  0  0  0  0  0
    3.5082    1.0952    1.7881 H   0  0  0  0  0  0  0  0  0  0  0  0
    4.2004    2.1019    0.5232 H   0  0  0  0  0  0  0  0  0  0  0  0
    4.8636   -1.9162    0.9152 H   0  0  0  0  0  0  0  0  0  0  0  0
    2.8523   -1.8827   -1.1200 H   0  0  0  0  0  0  0  0  0  0  0  0
    2.6894   -2.3695    0.5700 H   0  0  0  0  0  0  0  0  0  0  0  0
    6.8018   -0.2516    0.4072 H   0  0  0  0  0  0  0  0  0  0  0  0
    5.1533    0.4226   -1.9128 H   0  0  0  0  0  0  0  0  0  0  0  0
    5.9489   -2.1328   -0.9503 H   0  0  0  0  0  0  0  0  0  0  0  0
  1  2  1  0
  2  3  1  0
  3  4  1  0
  4  5  1  0
  1  6  1  0
  5  6  1  0
  5  7  1  0
  2  8  1  0
  3  9  1  0
  9 10  1  0
 10 11  1  0
 11 12  1  0
 12 13  1  0
 10 14  1  0
 12 15  1  0
 13 16  1  0
 16 17  1  0
 17 18  1  0
 18 19  1  0
 13 20  1  0
 19 20  1  0
 18 21  1  0
 21 22  1  0
 19 23  1  0
 22 23  1  0
 21 24  1  0
 24 25  1  0
 24 26  1  0
 24 27  1  0
  6 28  1  0
 29 30  1  0
 30 31  1  0
 31 32  1  0
 32 33  1  0
 29 34  1  0
 33 34  1  0
 33 35  1  0
 30 36  1  0
 31 37  1  0
 37 38  1  0
 38 39  1  0
 39 40  1  0
 40 41  1  0
 38 42  1  0
 40 43  1  0
 41 44  1  0
 44 45  1  0
 45 46  1  0
 46 47  1  0
 41 48  1  0
 47 48  1  0
 46 49  1  0
 49 50  1  0
 47 51  1  0
 50 51  1  0
 49 52  1  0
 52 53  1  0
 52 54  1  0
 52 55  1  0
 34 56  1  0
  1 57  1  0
  1 58  1  0
  2 59  1  0
  3 60  1  0
  4 61  1  0
  4 62  1  0
  5 63  1  0
  6 64  1  0
  9 65  1  0
  9 66  1  0
 10 67  1  1
 11 68  1  0
 11 69  1  0
 12 70  1  1
 14 71  1  0
 14 72  1  0
 15 73  1  0
 16 74  1  0
 16 75  1  0
 17 76  1  0
 17 77  1  0
 19 78  1  0
 20 79  1  0
 20 80  1  0
 21 81  1  0
 22 82  1  0
 23 83  1  0
 29 84  1  0
 29 85  1  0
 30 86  1  0
 31 87  1  0
 32 88  1  0
 32 89  1  0
 33 90  1  0
 34 91  1  0
 37 92  1  0
 37 93  1  0
 38 94  1  1
 39 95  1  0
 39 96  1  0
 40 97  1  0
 42 98  1  0
 42 99  1  0
 43100  1  0
 44101  1  0
 44102  1  0
 45103  1  0
 45104  1  0
 47105  1  0
 48106  1  0
 48107  1  0
 49108  1  0
 50109  1  0
 51110  1  0
M  END
>  <PDBID>  (1) 
1X70

>  <PDB ID>  (1) 
1X70

>  <Generic Name>  (1) 
Sitagliptin

>  <Brand Name>  (1) 
Janumet#Janumet XR#Januvia#Xelevia

>  <DrugBank ID>  (1) 
DB01261

>  <ATC Codes>  (1) 
A10BD12#A10BH51#A10BH01#A10BD07

>  <Ligand ID>  (1) 
715

>  <Target Name>  (1) 
Dipeptidyl peptidase 4

>  <UniProt ID>  (1) 
P27487

>  <PDB ID.1>  (1) 
1X70

>  <Seq. Identity>  (1) 
100%

$$$$
