PDB_DB01137_02
     RDKit          3D

116122  0  0  0  0  0  0  0  0999 V2000
   -4.9237    1.2832   -0.5896 C   0  0  0  0  0  0  0  0  0  0  0  0
    0.5339    1.5540    2.2726 F   0  0  0  0  0  0  0  0  0  0  0  0
    4.9598   -0.2712   -0.8317 N   0  0  0  0  0  0  0  0  0  0  0  0
   -5.3409    2.5260   -0.1749 O   0  0  0  0  0  0  0  0  0  0  0  0
    2.9229   -1.3147    0.1023 C   0  0  0  0  0  0  0  0  0  0  0  0
    2.5185   -0.0918    0.7095 N   0  0  0  0  0  0  0  0  0  0  0  0
    0.4671   -1.7841    0.2515 O   0  0  0  0  0  0  0  0  0  0  0  0
    3.6112    0.8011    0.8085 C   0  0  0  0  0  0  0  0  0  0  0  0
   -2.0323   -0.9853   -0.1338 N   0  0  0  0  0  0  0  0  0  0  0  0
   -2.9653    2.8890   -0.6784 O   0  0  0  0  0  0  0  0  0  0  0  0
   -1.8957   -2.2275    0.6050 C   0  0  2  0  0  0  0  0  0  0  0  0
   -4.5281    1.2521   -1.9172 O   0  0  0  0  0  0  0  0  0  0  0  0
    1.2470    0.4174    0.3472 C   0  0  0  0  0  0  0  0  0  0  0  0
   -1.1719   -0.0342    0.5983 C   0  0  0  0  0  0  0  0  0  0  0  0
    0.1906   -0.5691    0.8058 C   0  0  0  0  0  0  0  0  0  0  0  0
    4.4357   -1.3807   -0.1004 C   0  0  0  0  0  0  0  0  0  0  0  0
    4.3295    0.9864   -0.5356 C   0  0  0  0  0  0  0  0  0  0  0  0
   -0.5114   -2.7275    0.2892 C   0  0  0  0  0  0  0  0  0  0  0  0
   -1.2770    1.2428   -0.1794 C   0  0  0  0  0  0  0  0  0  0  0  0
    0.9053    1.7426    0.9536 C   0  0  0  0  0  0  0  0  0  0  0  0
   -3.3585   -0.5546   -0.3032 C   0  0  0  0  0  0  0  0  0  0  0  0
   -0.2972    2.2918    0.2169 C   0  0  0  0  0  0  0  0  0  0  0  0
   -2.9162   -3.2548    0.2387 C   0  0  0  0  0  0  0  0  0  0  0  0
   -2.6659    1.8194    0.1395 C   0  0  0  0  0  0  0  0  0  0  0  0
    6.3951   -0.2241   -0.5861 C   0  0  0  0  0  0  0  0  0  0  0  0
   -3.7207    0.7785    0.2222 C   0  0  0  0  0  0  0  0  0  0  0  0
    2.4586   -1.5223   -0.8881 H   0  0  0  0  0  0  0  0  0  0  0  0
    2.6918   -2.1550    0.7869 H   0  0  0  0  0  0  0  0  0  0  0  0
    3.4587    1.7427    1.3346 H   0  0  0  0  0  0  0  0  0  0  0  0
    4.3964    0.2656    1.4341 H   0  0  0  0  0  0  0  0  0  0  0  0
   -1.9189   -1.9554    1.6947 H   0  0  0  0  0  0  0  0  0  0  0  0
    4.9339   -1.6040    0.8544 H   0  0  0  0  0  0  0  0  0  0  0  0
    4.5889   -2.2889   -0.7479 H   0  0  0  0  0  0  0  0  0  0  0  0
    3.6675    1.3649   -1.3160 H   0  0  0  0  0  0  0  0  0  0  0  0
    5.1354    1.7276   -0.3583 H   0  0  0  0  0  0  0  0  0  0  0  0
   -0.5569   -3.2425   -0.6965 H   0  0  0  0  0  0  0  0  0  0  0  0
   -0.2455   -3.5168    1.0298 H   0  0  0  0  0  0  0  0  0  0  0  0
   -4.0308   -1.3176    0.1898 H   0  0  0  0  0  0  0  0  0  0  0  0
   -0.7497    3.0996    0.8266 H   0  0  0  0  0  0  0  0  0  0  0  0
   -3.2461   -3.1553   -0.8033 H   0  0  0  0  0  0  0  0  0  0  0  0
   -3.7602   -3.1856    0.9712 H   0  0  0  0  0  0  0  0  0  0  0  0
   -2.4548   -4.2586    0.4442 H   0  0  0  0  0  0  0  0  0  0  0  0
    6.9737    0.1056   -1.4590 H   0  0  0  0  0  0  0  0  0  0  0  0
    6.5502    0.3800    0.3243 H   0  0  0  0  0  0  0  0  0  0  0  0
    6.7723   -1.2533   -0.3320 H   0  0  0  0  0  0  0  0  0  0  0  0
   -4.9237    1.2832   -0.5896 C   0  0  0  0  0  0  0  0  0  0  0  0
    0.5339    1.5540    2.2726 F   0  0  0  0  0  0  0  0  0  0  0  0
    4.9598   -0.2712   -0.8317 N   0  0  0  0  0  0  0  0  0  0  0  0
   -5.3409    2.5260   -0.1749 O   0  0  0  0  0  0  0  0  0  0  0  0
    2.9229   -1.3147    0.1023 C   0  0  0  0  0  0  0  0  0  0  0  0
    2.5185   -0.0918    0.7095 N   0  0  0  0  0  0  0  0  0  0  0  0
    0.4671   -1.7841    0.2515 O   0  0  0  0  0  0  0  0  0  0  0  0
    3.6112    0.8011    0.8085 C   0  0  0  0  0  0  0  0  0  0  0  0
   -2.0323   -0.9853   -0.1338 N   0  0  0  0  0  0  0  0  0  0  0  0
   -2.9653    2.8890   -0.6784 O   0  0  0  0  0  0  0  0  0  0  0  0
   -1.8957   -2.2275    0.6050 C   0  0  2  0  0  0  0  0  0  0  0  0
   -4.5281    1.2521   -1.9172 O   0  0  0  0  0  0  0  0  0  0  0  0
    1.2470    0.4174    0.3472 C   0  0  0  0  0  0  0  0  0  0  0  0
   -1.1719   -0.0342    0.5983 C   0  0  0  0  0  0  0  0  0  0  0  0
    0.1906   -0.5691    0.8058 C   0  0  0  0  0  0  0  0  0  0  0  0
    4.4357   -1.3807   -0.1004 C   0  0  0  0  0  0  0  0  0  0  0  0
    4.3295    0.9864   -0.5356 C   0  0  0  0  0  0  0  0  0  0  0  0
   -0.5114   -2.7275    0.2892 C   0  0  0  0  0  0  0  0  0  0  0  0
   -1.2770    1.2428   -0.1794 C   0  0  0  0  0  0  0  0  0  0  0  0
    0.9053    1.7426    0.9536 C   0  0  0  0  0  0  0  0  0  0  0  0
   -3.3585   -0.5546   -0.3032 C   0  0  0  0  0  0  0  0  0  0  0  0
   -0.2972    2.2918    0.2169 C   0  0  0  0  0  0  0  0  0  0  0  0
   -2.9162   -3.2548    0.2387 C   0  0  0  0  0  0  0  0  0  0  0  0
   -2.6659    1.8194    0.1395 C   0  0  0  0  0  0  0  0  0  0  0  0
    6.3951   -0.2241   -0.5861 C   0  0  0  0  0  0  0  0  0  0  0  0
   -3.7207    0.7785    0.2222 C   0  0  0  0  0  0  0  0  0  0  0  0
    2.4586   -1.5223   -0.8881 H   0  0  0  0  0  0  0  0  0  0  0  0
    2.6918   -2.1550    0.7869 H   0  0  0  0  0  0  0  0  0  0  0  0
    3.4587    1.7427    1.3346 H   0  0  0  0  0  0  0  0  0  0  0  0
    4.3964    0.2656    1.4341 H   0  0  0  0  0  0  0  0  0  0  0  0
   -1.9189   -1.9554    1.6947 H   0  0  0  0  0  0  0  0  0  0  0  0
    4.9339   -1.6040    0.8544 H   0  0  0  0  0  0  0  0  0  0  0  0
    4.5889   -2.2889   -0.7479 H   0  0  0  0  0  0  0  0  0  0  0  0
    3.6675    1.3649   -1.3160 H   0  0  0  0  0  0  0  0  0  0  0  0
    5.1354    1.7276   -0.3583 H   0  0  0  0  0  0  0  0  0  0  0  0
   -0.5569   -3.2425   -0.6965 H   0  0  0  0  0  0  0  0  0  0  0  0
   -0.2455   -3.5168    1.0298 H   0  0  0  0  0  0  0  0  0  0  0  0
   -4.0308   -1.3176    0.1898 H   0  0  0  0  0  0  0  0  0  0  0  0
   -0.7497    3.0996    0.8266 H   0  0  0  0  0  0  0  0  0  0  0  0
   -3.2461   -3.1553   -0.8033 H   0  0  0  0  0  0  0  0  0  0  0  0
   -3.7602   -3.1856    0.9712 H   0  0  0  0  0  0  0  0  0  0  0  0
   -2.4548   -4.2586    0.4442 H   0  0  0  0  0  0  0  0  0  0  0  0
    6.9737    0.1056   -1.4590 H   0  0  0  0  0  0  0  0  0  0  0  0
    6.5502    0.3800    0.3243 H   0  0  0  0  0  0  0  0  0  0  0  0
    6.7723   -1.2533   -0.3320 H   0  0  0  0  0  0  0  0  0  0  0  0
   -5.7122    0.4938   -0.4802 H   0  0  0  0  0  0  0  0  0  0  0  0
   -5.4918    3.1166   -0.9719 H   0  0  0  0  0  0  0  0  0  0  0  0
   -3.2473    3.6983   -0.1505 H   0  0  0  0  0  0  0  0  0  0  0  0
   -5.1383    0.7508   -2.4960 H   0  0  0  0  0  0  0  0  0  0  0  0
    1.2105    0.4592   -0.7676 H   0  0  0  0  0  0  0  0  0  0  0  0
   -1.6935    0.0971    1.5734 H   0  0  0  0  0  0  0  0  0  0  0  0
    0.3684   -0.6765    1.9143 H   0  0  0  0  0  0  0  0  0  0  0  0
   -1.2933    1.0637   -1.2889 H   0  0  0  0  0  0  0  0  0  0  0  0
    1.6892    2.5218    0.8440 H   0  0  0  0  0  0  0  0  0  0  0  0
   -3.6501   -0.6156   -1.3908 H   0  0  0  0  0  0  0  0  0  0  0  0
    0.0510    2.7963   -0.7224 H   0  0  0  0  0  0  0  0  0  0  0  0
   -2.5363    2.2426    1.1804 H   0  0  0  0  0  0  0  0  0  0  0  0
   -4.1325    0.6565    1.2675 H   0  0  0  0  0  0  0  0  0  0  0  0
   -5.7122    0.4938   -0.4802 H   0  0  0  0  0  0  0  0  0  0  0  0
   -5.4918    3.1166   -0.9719 H   0  0  0  0  0  0  0  0  0  0  0  0
   -3.2473    3.6983   -0.1505 H   0  0  0  0  0  0  0  0  0  0  0  0
   -5.1383    0.7508   -2.4960 H   0  0  0  0  0  0  0  0  0  0  0  0
    1.2105    0.4592   -0.7676 H   0  0  0  0  0  0  0  0  0  0  0  0
   -1.6935    0.0971    1.5734 H   0  0  0  0  0  0  0  0  0  0  0  0
    0.3684   -0.6765    1.9143 H   0  0  0  0  0  0  0  0  0  0  0  0
   -1.2933    1.0637   -1.2889 H   0  0  0  0  0  0  0  0  0  0  0  0
    1.6892    2.5218    0.8440 H   0  0  0  0  0  0  0  0  0  0  0  0
   -3.6501   -0.6156   -1.3908 H   0  0  0  0  0  0  0  0  0  0  0  0
    0.0510    2.7963   -0.7224 H   0  0  0  0  0  0  0  0  0  0  0  0
   -2.5363    2.2426    1.1804 H   0  0  0  0  0  0  0  0  0  0  0  0
   -4.1325    0.6565    1.2675 H   0  0  0  0  0  0  0  0  0  0  0  0
  1  4  1  0
  5  6  1  0
  6  8  1  0
  9 11  1  0
  1 12  1  0
  6 13  1  0
  9 14  1  0
  7 15  1  0
 13 15  1  0
 14 15  1  0
  3 16  1  0
  5 16  1  0
  3 17  1  0
  8 17  1  0
  7 18  1  0
 11 18  1  0
 14 19  1  0
  2 20  1  0
 13 20  1  0
  9 21  1  0
 19 22  1  0
 20 22  1  0
 11 23  1  0
 19 24  1  0
 24 10  1  0
  3 25  1  0
  1 26  1  0
 21 26  1  0
 24 26  1  0
  5 27  1  0
  5 28  1  0
  8 29  1  0
  8 30  1  0
 11 31  1  1
 16 32  1  0
 16 33  1  0
 17 34  1  0
 17 35  1  0
 18 36  1  0
 18 37  1  0
 21 38  1  0
 22 39  1  0
 23 40  1  0
 23 41  1  0
 23 42  1  0
 25 43  1  0
 25 44  1  0
 25 45  1  0
 46 49  1  0
 50 51  1  0
 51 53  1  0
 54 56  1  0
 46 57  1  0
 51 58  1  0
 54 59  1  0
 52 60  1  0
 58 60  1  0
 59 60  1  0
 48 61  1  0
 50 61  1  0
 48 62  1  0
 53 62  1  0
 52 63  1  0
 56 63  1  0
 59 64  1  0
 47 65  1  0
 58 65  1  0
 54 66  1  0
 64 67  1  0
 65 67  1  0
 56 68  1  0
 64 69  1  0
 69 55  1  0
 48 70  1  0
 46 71  1  0
 66 71  1  0
 69 71  1  0
 50 72  1  0
 50 73  1  0
 53 74  1  0
 53 75  1  0
 56 76  1  1
 61 77  1  0
 61 78  1  0
 62 79  1  0
 62 80  1  0
 63 81  1  0
 63 82  1  0
 66 83  1  0
 67 84  1  0
 68 85  1  0
 68 86  1  0
 68 87  1  0
 70 88  1  0
 70 89  1  0
 70 90  1  0
  1 91  1  0
  4 92  1  0
 10 93  1  0
 12 94  1  0
 13 95  1  0
 14 96  1  0
 15 97  1  0
 19 98  1  0
 20 99  1  0
 21100  1  0
 22101  1  0
 24102  1  0
 26103  1  0
 46104  1  0
 49105  1  0
 55106  1  0
 57107  1  0
 58108  1  0
 59109  1  0
 60110  1  0
 64111  1  0
 65112  1  0
 66113  1  0
 67114  1  0
 69115  1  0
 71116  1  0
M  END
>  <PDBID>  (1) 
4Z2D

>  <PDB ID>  (1) 
4Z2D

>  <Generic Name>  (1) 
Levofloxacin

>  <Brand Name>  (1) 
Act Levofloxacin#Apo-levofloxacin#Auro-levofloxacin#Ava-levofloxacin#Dom-levofloxacin#Iquix#Levaquin#Levaquin 25mg/ml#Levaquin 500mg#Levaquin 5mg/ml#Levaquin 750mg#Levofloxacin#Levofloxacin In 5% Dextrose Injection#Levofloxacin Injection#Mylan-levofloxacin#Ntp-levofloxacin#PHL-levofloxacin#PMS-levofloxacin#Quinsair#Quixin#Sandoz Levofloxacin#Teva-levofloxacin#Cravit#Elequine#Floxel#Leroxacin#Levokacin#Levox#Levoxacin#Mosardal#Nofaxin#Reskuin#Tavanic

>  <DrugBank ID>  (1) 
DB01137

>  <ATC Codes>  (1) 
A02BD10#J01RA05#S01AE05#J01MA12

>  <Ligand ID>  (1) 
LFX

>  <Target Name>  (1) 
DNA gyrase subunit A

>  <UniProt ID>  (1) 
P43700

>  <PDB ID.1>  (1) 
4Z2D

>  <Seq. Identity>  (1) 
50%

$$$$
