PDB_DB00481_03
     RDKit          3D

166174  0  0  0  0  0  0  0  0999 V2000
   -4.3202    2.6641   -0.7492 C   0  0  0  0  0  0  0  0  0  0  0  0
   -5.6149    2.5034   -0.0109 C   0  0  0  0  0  0  0  0  0  0  0  0
   -5.6026    3.1299    1.3468 C   0  0  0  0  0  0  0  0  0  0  0  0
   -5.9442    4.4975    1.1984 O   0  0  0  0  0  0  0  0  0  0  0  0
   -4.2401    3.0752    1.9510 C   0  0  0  0  0  0  0  0  0  0  0  0
   -3.3235    2.0429    1.4102 C   0  0  0  0  0  0  0  0  0  0  0  0
   -4.0195    0.3757    1.7437 S   0  0  0  0  0  0  0  0  0  0  0  0
   -3.0886   -0.4269    0.3736 C   0  0  1  0  0  0  0  0  0  0  0  0
   -3.8743   -1.5899   -0.2006 C   0  0  0  0  0  0  0  0  0  0  0  0
   -4.0533   -2.5707    0.9543 C   0  0  0  0  0  0  0  0  0  0  0  0
   -4.6637   -3.8331    0.4184 C   0  0  0  0  0  0  0  0  0  0  0  0
   -6.0367   -3.4792   -0.1305 C   0  0  0  0  0  0  0  0  0  0  0  0
   -6.6257   -4.6565   -0.5773 O   0  0  0  0  0  0  0  0  0  0  0  0
   -5.8357   -2.5278   -1.2657 C   0  0  0  0  0  0  0  0  0  0  0  0
   -5.2317   -1.2341   -0.7001 C   0  0  0  0  0  0  0  0  0  0  0  0
   -3.1556    2.0063   -0.0450 C   0  0  0  0  0  0  0  0  0  0  0  0
   -2.7979    0.6649   -0.5764 C   0  0  0  0  0  0  0  0  0  0  0  0
   -1.4862    0.6203   -1.2862 C   0  0  0  0  0  0  0  0  0  0  0  0
   -1.4097   -0.5819   -2.0108 O   0  0  0  0  0  0  0  0  0  0  0  0
   -0.2631    1.0328   -0.6033 C   0  0  0  0  0  0  0  0  0  0  0  0
    0.1444    0.2928    0.6321 C   0  0  0  0  0  0  0  0  0  0  0  0
    1.5628    0.6387    1.0551 C   0  0  0  0  0  0  0  0  0  0  0  0
    2.4956   -0.0224    0.1125 C   0  0  0  0  0  0  0  0  0  0  0  0
    1.7862   -0.2749   -1.1957 C   0  0  0  0  0  0  0  0  0  0  0  0
    0.9037    0.8881   -1.5914 C   0  0  0  0  0  0  0  0  0  0  0  0
    3.7046    0.6121   -0.0548 O   0  0  0  0  0  0  0  0  0  0  0  0
    4.8317   -0.0875    0.2469 C   0  0  0  0  0  0  0  0  0  0  0  0
    6.0534    0.7538    0.0190 C   0  0  0  0  0  0  0  0  0  0  0  0
    7.2929    0.1799    0.2726 N   0  0  0  0  0  0  0  0  0  0  0  0
    7.7495   -0.8566   -0.5682 C   0  0  0  0  0  0  0  0  0  0  0  0
    8.5804   -1.8609    0.1829 C   0  0  0  0  0  0  0  0  0  0  0  0
    9.8138   -1.1250    0.7025 C   0  0  0  0  0  0  0  0  0  0  0  0
    9.4983    0.2929    1.1221 C   0  0  0  0  0  0  0  0  0  0  0  0
    8.0038    0.4357    1.4509 C   0  0  0  0  0  0  0  0  0  0  0  0
   -4.3735    2.6413   -0.7084 C   0  0  0  0  0  0  0  0  0  0  0  0
   -5.6327    2.4589    0.0701 C   0  0  0  0  0  0  0  0  0  0  0  0
   -5.5966    2.8933    1.4928 C   0  0  0  0  0  0  0  0  0  0  0  0
   -6.2387    4.1248    1.6732 O   0  0  0  0  0  0  0  0  0  0  0  0
   -4.1878    3.0566    1.9475 C   0  0  0  0  0  0  0  0  0  0  0  0
   -3.2157    2.0896    1.3634 C   0  0  0  0  0  0  0  0  0  0  0  0
   -3.7435    0.3886    1.7967 S   0  0  0  0  0  0  0  0  0  0  0  0
   -2.9451   -0.3858    0.3336 C   0  0  1  0  0  0  0  0  0  0  0  0
   -3.7529   -1.5778   -0.1535 C   0  0  0  0  0  0  0  0  0  0  0  0
   -3.7818   -2.5727    0.9925 C   0  0  0  0  0  0  0  0  0  0  0  0
   -4.4286   -3.8434    0.5116 C   0  0  0  0  0  0  0  0  0  0  0  0
   -5.8375   -3.5392    0.0904 C   0  0  0  0  0  0  0  0  0  0  0  0
   -6.5364   -4.6577   -0.3272 O   0  0  0  0  0  0  0  0  0  0  0  0
   -5.7830   -2.5602   -1.0394 C   0  0  0  0  0  0  0  0  0  0  0  0
   -5.1622   -1.2581   -0.5139 C   0  0  0  0  0  0  0  0  0  0  0  0
   -3.1407    2.0319   -0.0929 C   0  0  0  0  0  0  0  0  0  0  0  0
   -2.7918    0.7045   -0.6465 C   0  0  1  0  0  0  0  0  0  0  0  0
   -1.5047    0.7039   -1.4350 C   0  0  2  0  0  0  0  0  0  0  0  0
   -1.3462   -0.4793   -2.1386 O   0  0  0  0  0  0  0  0  0  0  0  0
   -0.2875    1.2083   -0.7879 C   0  0  0  0  0  0  0  0  0  0  0  0
    0.1733    0.4989    0.4640 C   0  0  0  0  0  0  0  0  0  0  0  0
    1.6217    0.9780    0.7162 C   0  0  0  0  0  0  0  0  0  0  0  0
    2.4882    0.2114   -0.2216 C   0  0  0  0  0  0  0  0  0  0  0  0
    1.7802    0.0098   -1.5219 C   0  0  0  0  0  0  0  0  0  0  0  0
    0.8440    1.1705   -1.8359 C   0  0  0  0  0  0  0  0  0  0  0  0
    3.7618    0.7267   -0.3602 O   0  0  0  0  0  0  0  0  0  0  0  0
    4.7913   -0.0553    0.0783 C   0  0  0  0  0  0  0  0  0  0  0  0
    6.0750    0.7027   -0.1704 C   0  0  0  0  0  0  0  0  0  0  0  0
    7.2551    0.0497    0.2261 N   0  0  0  0  0  0  0  0  0  0  0  0
    7.6560   -1.1102   -0.4806 C   0  0  0  0  0  0  0  0  0  0  0  0
    8.5182   -2.0473    0.3612 C   0  0  0  0  0  0  0  0  0  0  0  0
    9.6569   -1.2670    0.9451 C   0  0  0  0  0  0  0  0  0  0  0  0
    9.2435    0.0663    1.5265 C   0  0  0  0  0  0  0  0  0  0  0  0
    7.7249    0.2131    1.5447 C   0  0  0  0  0  0  0  0  0  0  0  0
   -4.4598    2.2373   -1.7691 H   0  0  0  0  0  0  0  0  0  0  0  0
   -4.1612    3.7805   -0.8307 H   0  0  0  0  0  0  0  0  0  0  0  0
   -6.0024    1.4634   -0.0077 H   0  0  0  0  0  0  0  0  0  0  0  0
   -6.3824    3.0642   -0.6249 H   0  0  0  0  0  0  0  0  0  0  0  0
   -6.3876    2.7054    2.0042 H   0  0  0  0  0  0  0  0  0  0  0  0
   -5.2086    4.9846    0.7354 H   0  0  0  0  0  0  0  0  0  0  0  0
   -4.3882    2.8493    3.0471 H   0  0  0  0  0  0  0  0  0  0  0  0
   -3.7512    4.0802    1.9536 H   0  0  0  0  0  0  0  0  0  0  0  0
   -2.3850    2.0892    1.9985 H   0  0  0  0  0  0  0  0  0  0  0  0
   -2.2187   -0.8991    0.8731 H   0  0  0  0  0  0  0  0  0  0  0  0
   -3.2912   -2.0108   -1.0177 H   0  0  0  0  0  0  0  0  0  0  0  0
   -3.0414   -2.7294    1.3875 H   0  0  0  0  0  0  0  0  0  0  0  0
   -4.7414   -2.0660    1.6734 H   0  0  0  0  0  0  0  0  0  0  0  0
   -4.0173   -4.2242   -0.3890 H   0  0  0  0  0  0  0  0  0  0  0  0
   -4.7431   -4.5589    1.2550 H   0  0  0  0  0  0  0  0  0  0  0  0
   -6.6229   -3.0406    0.6978 H   0  0  0  0  0  0  0  0  0  0  0  0
   -7.4072   -4.8551    0.0047 H   0  0  0  0  0  0  0  0  0  0  0  0
   -5.1670   -2.9925   -2.0044 H   0  0  0  0  0  0  0  0  0  0  0  0
   -6.8132   -2.3331   -1.7534 H   0  0  0  0  0  0  0  0  0  0  0  0
   -5.9291   -0.9256    0.1093 H   0  0  0  0  0  0  0  0  0  0  0  0
   -5.2766   -0.5161   -1.5157 H   0  0  0  0  0  0  0  0  0  0  0  0
   -2.2719    2.6756   -0.2918 H   0  0  0  0  0  0  0  0  0  0  0  0
   -3.5413    0.4925   -1.4265 H   0  0  0  0  0  0  0  0  0  0  0  0
   -1.6221    1.3899   -2.1432 H   0  0  0  0  0  0  0  0  0  0  0  0
   -2.2098   -0.5807   -2.6117 H   0  0  0  0  0  0  0  0  0  0  0  0
   -0.3202    2.1405   -0.4179 H   0  0  0  0  0  0  0  0  0  0  0  0
   -0.5588    0.6343    1.4370 H   0  0  0  0  0  0  0  0  0  0  0  0
    0.1260   -0.8030    0.4870 H   0  0  0  0  0  0  0  0  0  0  0  0
    1.6109    1.7485    1.0423 H   0  0  0  0  0  0  0  0  0  0  0  0
    1.6620    0.3074    2.1113 H   0  0  0  0  0  0  0  0  0  0  0  0
    2.7224   -1.0379    0.5119 H   0  0  0  0  0  0  0  0  0  0  0  0
    2.5396   -0.3862   -1.9934 H   0  0  0  0  0  0  0  0  0  0  0  0
    1.1624   -1.1874   -1.2059 H   0  0  0  0  0  0  0  0  0  0  0  0
    0.4732    0.6463   -2.5782 H   0  0  0  0  0  0  0  0  0  0  0  0
    1.4732    1.8165   -1.7145 H   0  0  0  0  0  0  0  0  0  0  0  0
    4.9002   -0.9344   -0.4992 H   0  0  0  0  0  0  0  0  0  0  0  0
    4.8509   -0.5711    1.2375 H   0  0  0  0  0  0  0  0  0  0  0  0
    6.0221    1.1339   -1.0371 H   0  0  0  0  0  0  0  0  0  0  0  0
    5.9302    1.6785    0.6523 H   0  0  0  0  0  0  0  0  0  0  0  0
    8.4429   -0.4182   -1.3468 H   0  0  0  0  0  0  0  0  0  0  0  0
    6.9292   -1.3100   -1.1631 H   0  0  0  0  0  0  0  0  0  0  0  0
    7.9743   -2.2357    1.0316 H   0  0  0  0  0  0  0  0  0  0  0  0
    8.8903   -2.6967   -0.4842 H   0  0  0  0  0  0  0  0  0  0  0  0
   10.6182   -1.1799   -0.0560 H   0  0  0  0  0  0  0  0  0  0  0  0
   10.1789   -1.7222    1.5799 H   0  0  0  0  0  0  0  0  0  0  0  0
   10.1175    0.5251    2.0077 H   0  0  0  0  0  0  0  0  0  0  0  0
    9.7545    0.9768    0.2672 H   0  0  0  0  0  0  0  0  0  0  0  0
    7.8793    1.4766    1.8184 H   0  0  0  0  0  0  0  0  0  0  0  0
    7.8276   -0.2613    2.2879 H   0  0  0  0  0  0  0  0  0  0  0  0
   -4.5271    2.0871   -1.6776 H   0  0  0  0  0  0  0  0  0  0  0  0
   -4.2367    3.7119   -0.9749 H   0  0  0  0  0  0  0  0  0  0  0  0
   -6.0515    1.4290   -0.0593 H   0  0  0  0  0  0  0  0  0  0  0  0
   -6.3996    3.1094   -0.4387 H   0  0  0  0  0  0  0  0  0  0  0  0
   -6.1658    2.1557    2.1197 H   0  0  0  0  0  0  0  0  0  0  0  0
   -5.8299    4.7895    1.0529 H   0  0  0  0  0  0  0  0  0  0  0  0
   -4.1840    2.8851    3.0642 H   0  0  0  0  0  0  0  0  0  0  0  0
   -3.8672    4.1140    1.8300 H   0  0  0  0  0  0  0  0  0  0  0  0
   -2.2544    2.2305    1.8974 H   0  0  0  0  0  0  0  0  0  0  0  0
   -2.0132   -0.8278    0.7379 H   0  0  0  0  0  0  0  0  0  0  0  0
   -3.2283   -1.9957   -1.0108 H   0  0  0  0  0  0  0  0  0  0  0  0
   -2.7456   -2.7356    1.3167 H   0  0  0  0  0  0  0  0  0  0  0  0
   -4.4118   -2.1311    1.7825 H   0  0  0  0  0  0  0  0  0  0  0  0
   -3.8454   -4.1901   -0.3865 H   0  0  0  0  0  0  0  0  0  0  0  0
   -4.4159   -4.6170    1.3169 H   0  0  0  0  0  0  0  0  0  0  0  0
   -6.3426   -3.0435    0.9510 H   0  0  0  0  0  0  0  0  0  0  0  0
   -7.4083   -4.6602    0.1321 H   0  0  0  0  0  0  0  0  0  0  0  0
   -5.1252   -2.9540   -1.8310 H   0  0  0  0  0  0  0  0  0  0  0  0
   -6.7794   -2.3553   -1.4907 H   0  0  0  0  0  0  0  0  0  0  0  0
   -5.7587   -0.9079    0.3650 H   0  0  0  0  0  0  0  0  0  0  0  0
   -5.3089   -0.5268   -1.3129 H   0  0  0  0  0  0  0  0  0  0  0  0
   -2.2987    2.7309   -0.4136 H   0  0  0  0  0  0  0  0  0  0  0  0
   -3.5740    0.4901   -1.4466 H   0  0  0  0  0  0  0  0  0  0  0  0
   -1.7430    1.4582   -2.2970 H   0  0  0  0  0  0  0  0  0  0  0  0
   -2.1345   -0.5957   -2.7289 H   0  0  0  0  0  0  0  0  0  0  0  0
   -0.3274    2.2858   -0.5023 H   0  0  0  0  0  0  0  0  0  0  0  0
   -0.4495    0.7684    1.3453 H   0  0  0  0  0  0  0  0  0  0  0  0
    0.2834   -0.5876    0.3019 H   0  0  0  0  0  0  0  0  0  0  0  0
    1.5905    2.0625    0.5420 H   0  0  0  0  0  0  0  0  0  0  0  0
    1.8364    0.7430    1.7947 H   0  0  0  0  0  0  0  0  0  0  0  0
    2.6185   -0.8077    0.2468 H   0  0  0  0  0  0  0  0  0  0  0  0
    2.4464   -0.0904   -2.4007 H   0  0  0  0  0  0  0  0  0  0  0  0
    1.1375   -0.9067   -1.5345 H   0  0  0  0  0  0  0  0  0  0  0  0
    0.3748    0.9513   -2.8079 H   0  0  0  0  0  0  0  0  0  0  0  0
    1.3715    2.1173   -1.9294 H   0  0  0  0  0  0  0  0  0  0  0  0
    4.7571   -1.0133   -0.4811 H   0  0  0  0  0  0  0  0  0  0  0  0
    4.7708   -0.3142    1.1514 H   0  0  0  0  0  0  0  0  0  0  0  0
    6.1705    0.9561   -1.2688 H   0  0  0  0  0  0  0  0  0  0  0  0
    6.0203    1.6913    0.3299 H   0  0  0  0  0  0  0  0  0  0  0  0
    8.2971   -0.8180   -1.3466 H   0  0  0  0  0  0  0  0  0  0  0  0
    6.7994   -1.6649   -0.9242 H   0  0  0  0  0  0  0  0  0  0  0  0
    7.9047   -2.5393    1.1455 H   0  0  0  0  0  0  0  0  0  0  0  0
    8.9102   -2.8012   -0.3561 H   0  0  0  0  0  0  0  0  0  0  0  0
   10.4576   -1.1387    0.1711 H   0  0  0  0  0  0  0  0  0  0  0  0
   10.1256   -1.9244    1.7288 H   0  0  0  0  0  0  0  0  0  0  0  0
    9.6722    0.1570    2.5422 H   0  0  0  0  0  0  0  0  0  0  0  0
    9.6892    0.8587    0.8711 H   0  0  0  0  0  0  0  0  0  0  0  0
    7.5380    1.2789    1.8488 H   0  0  0  0  0  0  0  0  0  0  0  0
    7.3515   -0.4890    2.2909 H   0  0  0  0  0  0  0  0  0  0  0  0
  1  2  1  0
  2  3  1  0
  3  4  1  0
  3  5  1  0
  5  6  1  0
  6  7  1  0
  7  8  1  0
  8  9  1  0
  9 10  1  0
 10 11  1  0
 11 12  1  0
 12 13  1  0
 12 14  1  0
  9 15  1  0
 14 15  1  0
  1 16  1  0
  6 16  1  0
  8 17  1  0
 16 17  1  0
 17 18  1  0
 18 19  1  0
 18 20  1  0
 20 21  1  0
 21 22  1  0
 22 23  1  0
 23 24  1  0
 20 25  1  0
 24 25  1  0
 23 26  1  0
 26 27  1  0
 27 28  1  0
 28 29  1  0
 29 30  1  0
 30 31  1  0
 31 32  1  0
 32 33  1  0
 29 34  1  0
 33 34  1  0
 35 36  1  0
 36 37  1  0
 37 38  1  0
 37 39  1  0
 39 40  1  0
 40 41  1  0
 41 42  1  0
 42 43  1  0
 43 44  1  0
 44 45  1  0
 45 46  1  0
 46 47  1  0
 46 48  1  0
 43 49  1  0
 48 49  1  0
 35 50  1  0
 40 50  1  0
 42 51  1  0
 50 51  1  0
 51 52  1  0
 52 53  1  0
 52 54  1  0
 54 55  1  0
 55 56  1  0
 56 57  1  0
 57 58  1  0
 54 59  1  0
 58 59  1  0
 57 60  1  0
 60 61  1  0
 61 62  1  0
 62 63  1  0
 63 64  1  0
 64 65  1  0
 65 66  1  0
 66 67  1  0
 63 68  1  0
 67 68  1  0
  1 69  1  0
  1 70  1  0
  2 71  1  0
  2 72  1  0
  3 73  1  0
  4 74  1  0
  5 75  1  0
  5 76  1  0
  6 77  1  0
  8 78  1  1
  9 79  1  0
 10 80  1  0
 10 81  1  0
 11 82  1  0
 11 83  1  0
 12 84  1  0
 13 85  1  0
 14 86  1  0
 14 87  1  0
 15 88  1  0
 15 89  1  0
 16 90  1  0
 17 91  1  0
 18 92  1  0
 19 93  1  0
 20 94  1  0
 21 95  1  0
 21 96  1  0
 22 97  1  0
 22 98  1  0
 23 99  1  0
 24100  1  0
 24101  1  0
 25102  1  0
 25103  1  0
 27104  1  0
 27105  1  0
 28106  1  0
 28107  1  0
 30108  1  0
 30109  1  0
 31110  1  0
 31111  1  0
 32112  1  0
 32113  1  0
 33114  1  0
 33115  1  0
 34116  1  0
 34117  1  0
 35118  1  0
 35119  1  0
 36120  1  0
 36121  1  0
 37122  1  0
 38123  1  0
 39124  1  0
 39125  1  0
 40126  1  0
 42127  1  1
 43128  1  0
 44129  1  0
 44130  1  0
 45131  1  0
 45132  1  0
 46133  1  0
 47134  1  0
 48135  1  0
 48136  1  0
 49137  1  0
 49138  1  0
 50139  1  0
 51140  1  6
 52141  1  6
 53142  1  0
 54143  1  0
 55144  1  0
 55145  1  0
 56146  1  0
 56147  1  0
 57148  1  0
 58149  1  0
 58150  1  0
 59151  1  0
 59152  1  0
 61153  1  0
 61154  1  0
 62155  1  0
 62156  1  0
 64157  1  0
 64158  1  0
 65159  1  0
 65160  1  0
 66161  1  0
 66162  1  0
 67163  1  0
 67164  1  0
 68165  1  0
 68166  1  0
M  END
>  <PDBID>  (1) 
2QXS

>  <PDB ID>  (1) 
2QXS

>  <Generic Name>  (1) 
Raloxifene

>  <Brand Name>  (1) 
Act Raloxifene#Apo-raloxifene#Evista#Evista (60mg)#PMS-raloxifene#Raloxifene#Raloxifene Hydrochloride#Teva-raloxifene#Keoxifene

>  <DrugBank ID>  (1) 
DB00481

>  <ATC Codes>  (1) 
G03XC01

>  <Ligand ID>  (1) 
RAL

>  <Target Name>  (1) 
Estrogen receptor

>  <UniProt ID>  (1) 
P03372

>  <PDB ID.1>  (1) 
2QXS

>  <Seq. Identity>  (1) 
93%

$$$$
