PDB_DB01010_08
     RDKit          3D

 34 34  0  0  0  0  0  0  0  0999 V2000
    0.9156    0.9144    1.1154 C   0  0  0  0  0  0  0  0  0  0  0  0
    0.0372    0.5739   -0.0264 C   0  0  0  0  0  0  0  0  0  0  0  0
    0.6802   -0.0769   -1.1939 C   0  0  0  0  0  0  0  0  0  0  0  0
    1.9685   -0.7749   -0.9328 C   0  0  2  0  0  0  0  0  0  0  0  0
    2.8814    0.0487   -0.0408 C   0  0  0  0  0  0  0  0  0  0  0  0
    2.1462    0.1109    1.2834 C   0  0  0  0  0  0  0  0  0  0  0  0
    2.6550   -0.9261   -2.1523 O   0  0  0  0  0  0  0  0  0  0  0  0
   -1.1746   -0.0790    0.4199 N   0  0  0  0  0  0  0  0  0  0  0  0
   -0.9319   -1.3535    1.0510 C   0  0  0  0  0  0  0  0  0  0  0  0
   -1.7712    0.7942    1.4246 C   0  0  0  0  0  0  0  0  0  0  0  0
   -2.1401   -0.3080   -0.5953 C   0  0  0  0  0  0  0  0  0  0  0  0
   -2.3704    0.7889   -1.5692 C   0  0  0  0  0  0  0  0  0  0  0  0
    1.2441    1.9968    1.1306 H   0  0  0  0  0  0  0  0  0  0  0  0
    0.3055    0.8340    2.0636 H   0  0  0  0  0  0  0  0  0  0  0  0
   -0.3454    1.5722   -0.4107 H   0  0  0  0  0  0  0  0  0  0  0  0
   -0.0103   -0.8544   -1.6388 H   0  0  0  0  0  0  0  0  0  0  0  0
    0.8660    0.6243   -2.0587 H   0  0  0  0  0  0  0  0  0  0  0  0
    1.8685   -1.7784   -0.4794 H   0  0  0  0  0  0  0  0  0  0  0  0
    3.0261    1.0704   -0.4547 H   0  0  0  0  0  0  0  0  0  0  0  0
    3.8253   -0.5009    0.0929 H   0  0  0  0  0  0  0  0  0  0  0  0
    2.0217   -0.9081    1.6382 H   0  0  0  0  0  0  0  0  0  0  0  0
    2.8192    0.6340    1.9940 H   0  0  0  0  0  0  0  0  0  0  0  0
    2.5339   -1.8068   -2.5500 H   0  0  0  0  0  0  0  0  0  0  0  0
   -0.3247   -1.2967    1.9599 H   0  0  0  0  0  0  0  0  0  0  0  0
   -0.5288   -2.0823    0.2972 H   0  0  0  0  0  0  0  0  0  0  0  0
   -1.9228   -1.7563    1.3488 H   0  0  0  0  0  0  0  0  0  0  0  0
   -2.8768    0.8924    1.2631 H   0  0  0  0  0  0  0  0  0  0  0  0
   -1.6478    0.3897    2.4501 H   0  0  0  0  0  0  0  0  0  0  0  0
   -1.3572    1.8132    1.4019 H   0  0  0  0  0  0  0  0  0  0  0  0
   -1.9453   -1.2611   -1.1375 H   0  0  0  0  0  0  0  0  0  0  0  0
   -3.1247   -0.4947   -0.0677 H   0  0  0  0  0  0  0  0  0  0  0  0
   -2.2205    1.8018   -1.1923 H   0  0  0  0  0  0  0  0  0  0  0  0
   -1.6975    0.6475   -2.4501 H   0  0  0  0  0  0  0  0  0  0  0  0
   -3.4045    0.7508   -1.9838 H   0  0  0  0  0  0  0  0  0  0  0  0
  1  2  1  0
  2  3  1  0
  3  4  1  0
  4  5  1  0
  1  6  1  0
  5  6  1  0
  4  7  1  0
  2  8  1  0
  8  9  1  0
  8 10  1  0
  8 11  1  0
 11 12  1  0
  1 13  1  0
  1 14  1  0
  2 15  1  0
  3 16  1  0
  3 17  1  0
  4 18  1  1
  5 19  1  0
  5 20  1  0
  6 21  1  0
  6 22  1  0
  7 23  1  0
  9 24  1  0
  9 25  1  0
  9 26  1  0
 10 27  1  0
 10 28  1  0
 10 29  1  0
 11 30  1  0
 11 31  1  0
 12 32  1  0
 12 33  1  0
 12 34  1  0
M  CHG  1   8   1
M  END
>  <PDBID>  (1) 
2ACK

>  <PDB ID>  (1) 
2ACK

>  <Generic Name>  (1) 
Edrophonium

>  <Brand Name>  (1) 
Enlon#Enlon 10mg/ml#Enlon Liq IV 10mg/ml#Enlon Plus#Tensilon#Antirex#Reversol

>  <DrugBank ID>  (1) 
DB01010

>  <ATC Codes>  (1) 
nan

>  <Ligand ID>  (1) 
EDR

>  <Target Name>  (1) 
Acetylcholinesterase

>  <UniProt ID>  (1) 
P22303

>  <PDB ID.1>  (1) 
2ACK

>  <Seq. Identity>  (1) 
57%

$$$$
