PDB_DB03849_06
     RDKit          3D

124128  0  0  0  0  0  0  0  0999 V2000
    6.2390    1.9202   -0.2813 O   0  0  0  0  0  0  0  0  0  0  0  0
    5.9207    0.7730    0.4020 C   0  0  0  0  0  0  0  0  0  0  0  0
    6.7515   -0.2678   -0.0105 O   0  0  0  0  0  0  0  0  0  0  0  0
    4.4874    0.3423    0.1910 C   0  0  0  0  0  0  0  0  0  0  0  0
    4.1511   -0.9125    0.9426 C   0  0  0  0  0  0  0  0  0  0  0  0
    2.8142   -1.4066    0.4617 C   0  0  0  0  0  0  0  0  0  0  0  0
    3.5005    1.3991    0.5659 C   0  0  0  0  0  0  0  0  0  0  0  0
    2.1454    0.9655    0.0205 C   0  0  0  0  0  0  0  0  0  0  0  0
    1.7286   -0.3649    0.5941 C   0  0  0  0  0  0  0  0  0  0  0  0
    1.5709   -0.1377    2.1089 C   0  0  0  0  0  0  0  0  0  0  0  0
    1.1937   -1.3741    2.7668 N   0  0  0  0  0  0  0  0  0  0  0  0
    0.4327   -0.8588    0.0049 C   0  0  0  0  0  0  0  0  0  0  0  0
    0.5873   -1.1704   -1.4563 C   0  0  0  0  0  0  0  0  0  0  0  0
   -0.6964   -1.5650   -2.1310 C   0  0  0  0  0  0  0  0  0  0  0  0
   -1.9037   -1.4825   -1.2175 C   0  0  0  0  0  0  0  0  0  0  0  0
   -1.8342   -2.5128   -0.3191 O   0  0  0  0  0  0  0  0  0  0  0  0
   -2.8585   -3.4206   -0.4843 C   0  0  0  0  0  0  0  0  0  0  0  0
   -1.8664   -0.1080   -0.6150 C   0  0  0  0  0  0  0  0  0  0  0  0
   -0.7369    0.0016    0.3577 C   0  0  0  0  0  0  0  0  0  0  0  0
   -3.0707    0.3449   -0.1656 O   0  0  0  0  0  0  0  0  0  0  0  0
   -3.6125    1.4306   -0.7951 C   0  0  0  0  0  0  0  0  0  0  0  0
   -3.9858    2.5554    0.1231 C   0  0  0  0  0  0  0  0  0  0  0  0
   -5.4466    2.8366   -0.0565 C   0  0  0  0  0  0  0  0  0  0  0  0
   -5.9208    2.0373   -1.2304 C   0  0  0  0  0  0  0  0  0  0  0  0
   -4.9027    0.9531   -1.4414 C   0  0  0  0  0  0  0  0  0  0  0  0
    6.2390    1.9202   -0.2813 O   0  0  0  0  0  0  0  0  0  0  0  0
    5.9207    0.7730    0.4020 C   0  0  0  0  0  0  0  0  0  0  0  0
    6.7515   -0.2678   -0.0105 O   0  0  0  0  0  0  0  0  0  0  0  0
    4.4874    0.3423    0.1910 C   0  0  0  0  0  0  0  0  0  0  0  0
    4.1511   -0.9125    0.9426 C   0  0  0  0  0  0  0  0  0  0  0  0
    2.8142   -1.4066    0.4617 C   0  0  0  0  0  0  0  0  0  0  0  0
    3.5005    1.3991    0.5659 C   0  0  0  0  0  0  0  0  0  0  0  0
    2.1454    0.9655    0.0205 C   0  0  0  0  0  0  0  0  0  0  0  0
    1.7286   -0.3649    0.5941 C   0  0  0  0  0  0  0  0  0  0  0  0
    1.5709   -0.1377    2.1089 C   0  0  0  0  0  0  0  0  0  0  0  0
    1.1937   -1.3741    2.7668 N   0  0  0  0  0  0  0  0  0  0  0  0
    0.4327   -0.8588    0.0049 C   0  0  0  0  0  0  0  0  0  0  0  0
    0.5873   -1.1704   -1.4563 C   0  0  0  0  0  0  0  0  0  0  0  0
   -0.6964   -1.5650   -2.1310 C   0  0  0  0  0  0  0  0  0  0  0  0
   -1.9037   -1.4825   -1.2175 C   0  0  0  0  0  0  0  0  0  0  0  0
   -1.8342   -2.5128   -0.3191 O   0  0  0  0  0  0  0  0  0  0  0  0
   -2.8585   -3.4206   -0.4843 C   0  0  0  0  0  0  0  0  0  0  0  0
   -1.8664   -0.1080   -0.6150 C   0  0  0  0  0  0  0  0  0  0  0  0
   -0.7369    0.0016    0.3577 C   0  0  0  0  0  0  0  0  0  0  0  0
   -3.0707    0.3449   -0.1656 O   0  0  0  0  0  0  0  0  0  0  0  0
   -3.6125    1.4306   -0.7951 C   0  0  0  0  0  0  0  0  0  0  0  0
   -3.9858    2.5554    0.1231 C   0  0  0  0  0  0  0  0  0  0  0  0
   -5.4466    2.8366   -0.0565 C   0  0  0  0  0  0  0  0  0  0  0  0
   -5.9208    2.0373   -1.2304 C   0  0  0  0  0  0  0  0  0  0  0  0
   -4.9027    0.9531   -1.4414 C   0  0  0  0  0  0  0  0  0  0  0  0
    6.7346    1.6693   -1.1003 H   0  0  0  0  0  0  0  0  0  0  0  0
    6.0801    0.9040    1.4942 H   0  0  0  0  0  0  0  0  0  0  0  0
    6.2646   -0.7943   -0.7151 H   0  0  0  0  0  0  0  0  0  0  0  0
    4.3265    0.1157   -0.8953 H   0  0  0  0  0  0  0  0  0  0  0  0
    4.9002   -1.6859    0.5955 H   0  0  0  0  0  0  0  0  0  0  0  0
    4.2741   -0.8594    2.0227 H   0  0  0  0  0  0  0  0  0  0  0  0
    2.9451   -1.6603   -0.6071 H   0  0  0  0  0  0  0  0  0  0  0  0
    2.4942   -2.3004    1.0143 H   0  0  0  0  0  0  0  0  0  0  0  0
    3.4900    1.6928    1.6116 H   0  0  0  0  0  0  0  0  0  0  0  0
    3.7544    2.3315   -0.0081 H   0  0  0  0  0  0  0  0  0  0  0  0
    2.2521    0.9918   -1.0671 H   0  0  0  0  0  0  0  0  0  0  0  0
    1.4346    1.7444    0.3655 H   0  0  0  0  0  0  0  0  0  0  0  0
    0.8976    0.6988    2.3256 H   0  0  0  0  0  0  0  0  0  0  0  0
    2.5693    0.1281    2.5095 H   0  0  0  0  0  0  0  0  0  0  0  0
    0.3614   -1.1703    3.3763 H   0  0  0  0  0  0  0  0  0  0  0  0
    1.9546   -1.7948    3.3256 H   0  0  0  0  0  0  0  0  0  0  0  0
    0.2540   -1.8724    0.4899 H   0  0  0  0  0  0  0  0  0  0  0  0
    1.2193   -2.1087   -1.5144 H   0  0  0  0  0  0  0  0  0  0  0  0
    1.0739   -0.3428   -2.0194 H   0  0  0  0  0  0  0  0  0  0  0  0
   -0.6537   -2.5400   -2.6648 H   0  0  0  0  0  0  0  0  0  0  0  0
   -0.9070   -0.8158   -2.9517 H   0  0  0  0  0  0  0  0  0  0  0  0
   -2.7902   -1.6347   -1.8753 H   0  0  0  0  0  0  0  0  0  0  0  0
   -2.7104   -4.2192    0.2951 H   0  0  0  0  0  0  0  0  0  0  0  0
   -3.8485   -2.9745   -0.2662 H   0  0  0  0  0  0  0  0  0  0  0  0
   -2.8268   -3.9513   -1.4541 H   0  0  0  0  0  0  0  0  0  0  0  0
   -1.5955    0.5879   -1.4684 H   0  0  0  0  0  0  0  0  0  0  0  0
   -0.4766    1.1010    0.4064 H   0  0  0  0  0  0  0  0  0  0  0  0
   -1.1321   -0.3340    1.3447 H   0  0  0  0  0  0  0  0  0  0  0  0
   -2.9963    1.8354   -1.6252 H   0  0  0  0  0  0  0  0  0  0  0  0
   -3.8329    2.2955    1.1993 H   0  0  0  0  0  0  0  0  0  0  0  0
   -3.4356    3.4859   -0.1499 H   0  0  0  0  0  0  0  0  0  0  0  0
   -6.0466    2.5870    0.8674 H   0  0  0  0  0  0  0  0  0  0  0  0
   -5.6657    3.9100   -0.2605 H   0  0  0  0  0  0  0  0  0  0  0  0
   -6.8934    1.5588   -0.9538 H   0  0  0  0  0  0  0  0  0  0  0  0
   -6.1113    2.6546   -2.1216 H   0  0  0  0  0  0  0  0  0  0  0  0
   -4.7922    0.7969   -2.5324 H   0  0  0  0  0  0  0  0  0  0  0  0
   -5.2531   -0.0086   -1.0054 H   0  0  0  0  0  0  0  0  0  0  0  0
    6.7346    1.6693   -1.1003 H   0  0  0  0  0  0  0  0  0  0  0  0
    6.0801    0.9040    1.4942 H   0  0  0  0  0  0  0  0  0  0  0  0
    6.2646   -0.7943   -0.7151 H   0  0  0  0  0  0  0  0  0  0  0  0
    4.3265    0.1157   -0.8953 H   0  0  0  0  0  0  0  0  0  0  0  0
    4.9002   -1.6859    0.5955 H   0  0  0  0  0  0  0  0  0  0  0  0
    4.2741   -0.8594    2.0227 H   0  0  0  0  0  0  0  0  0  0  0  0
    2.9451   -1.6603   -0.6071 H   0  0  0  0  0  0  0  0  0  0  0  0
    2.4942   -2.3004    1.0143 H   0  0  0  0  0  0  0  0  0  0  0  0
    3.4900    1.6928    1.6116 H   0  0  0  0  0  0  0  0  0  0  0  0
    3.7544    2.3315   -0.0081 H   0  0  0  0  0  0  0  0  0  0  0  0
    2.2521    0.9918   -1.0671 H   0  0  0  0  0  0  0  0  0  0  0  0
    1.4346    1.7444    0.3655 H   0  0  0  0  0  0  0  0  0  0  0  0
    0.8976    0.6988    2.3256 H   0  0  0  0  0  0  0  0  0  0  0  0
    2.5693    0.1281    2.5095 H   0  0  0  0  0  0  0  0  0  0  0  0
    0.3614   -1.1703    3.3763 H   0  0  0  0  0  0  0  0  0  0  0  0
    1.9546   -1.7948    3.3256 H   0  0  0  0  0  0  0  0  0  0  0  0
    0.2540   -1.8724    0.4899 H   0  0  0  0  0  0  0  0  0  0  0  0
    1.2193   -2.1087   -1.5144 H   0  0  0  0  0  0  0  0  0  0  0  0
    1.0739   -0.3428   -2.0194 H   0  0  0  0  0  0  0  0  0  0  0  0
   -0.6537   -2.5400   -2.6648 H   0  0  0  0  0  0  0  0  0  0  0  0
   -0.9070   -0.8158   -2.9517 H   0  0  0  0  0  0  0  0  0  0  0  0
   -2.7902   -1.6347   -1.8753 H   0  0  0  0  0  0  0  0  0  0  0  0
   -2.7104   -4.2192    0.2951 H   0  0  0  0  0  0  0  0  0  0  0  0
   -3.8485   -2.9745   -0.2662 H   0  0  0  0  0  0  0  0  0  0  0  0
   -2.8268   -3.9513   -1.4541 H   0  0  0  0  0  0  0  0  0  0  0  0
   -1.5955    0.5879   -1.4684 H   0  0  0  0  0  0  0  0  0  0  0  0
   -0.4766    1.1010    0.4064 H   0  0  0  0  0  0  0  0  0  0  0  0
   -1.1321   -0.3340    1.3447 H   0  0  0  0  0  0  0  0  0  0  0  0
   -2.9963    1.8354   -1.6252 H   0  0  0  0  0  0  0  0  0  0  0  0
   -3.8329    2.2955    1.1993 H   0  0  0  0  0  0  0  0  0  0  0  0
   -3.4356    3.4859   -0.1499 H   0  0  0  0  0  0  0  0  0  0  0  0
   -6.0466    2.5870    0.8674 H   0  0  0  0  0  0  0  0  0  0  0  0
   -5.6657    3.9100   -0.2605 H   0  0  0  0  0  0  0  0  0  0  0  0
   -6.8934    1.5588   -0.9538 H   0  0  0  0  0  0  0  0  0  0  0  0
   -6.1113    2.6546   -2.1216 H   0  0  0  0  0  0  0  0  0  0  0  0
   -4.7922    0.7969   -2.5324 H   0  0  0  0  0  0  0  0  0  0  0  0
   -5.2531   -0.0086   -1.0054 H   0  0  0  0  0  0  0  0  0  0  0  0
  1  2  1  0
  2  3  1  0
  2  4  1  0
  4  5  1  0
  5  6  1  0
  4  7  1  0
  7  8  1  0
  6  9  1  0
  8  9  1  0
  9 10  1  0
 10 11  1  0
  9 12  1  0
 12 13  1  0
 13 14  1  0
 14 15  1  0
 15 16  1  0
 16 17  1  0
 15 18  1  0
 12 19  1  0
 18 19  1  0
 18 20  1  0
 20 21  1  0
 21 22  1  0
 22 23  1  0
 23 24  1  0
 21 25  1  0
 24 25  1  0
 26 27  1  0
 27 28  1  0
 27 29  1  0
 29 30  1  0
 30 31  1  0
 29 32  1  0
 32 33  1  0
 31 34  1  0
 33 34  1  0
 34 35  1  0
 35 36  1  0
 34 37  1  0
 37 38  1  0
 38 39  1  0
 39 40  1  0
 40 41  1  0
 41 42  1  0
 40 43  1  0
 37 44  1  0
 43 44  1  0
 43 45  1  0
 45 46  1  0
 46 47  1  0
 47 48  1  0
 48 49  1  0
 46 50  1  0
 49 50  1  0
  1 51  1  0
  2 52  1  0
  3 53  1  0
  4 54  1  0
  5 55  1  0
  5 56  1  0
  6 57  1  0
  6 58  1  0
  7 59  1  0
  7 60  1  0
  8 61  1  0
  8 62  1  0
 10 63  1  0
 10 64  1  0
 11 65  1  0
 11 66  1  0
 12 67  1  0
 13 68  1  0
 13 69  1  0
 14 70  1  0
 14 71  1  0
 15 72  1  0
 17 73  1  0
 17 74  1  0
 17 75  1  0
 18 76  1  0
 19 77  1  0
 19 78  1  0
 21 79  1  0
 22 80  1  0
 22 81  1  0
 23 82  1  0
 23 83  1  0
 24 84  1  0
 24 85  1  0
 25 86  1  0
 25 87  1  0
 26 88  1  0
 27 89  1  0
 28 90  1  0
 29 91  1  0
 30 92  1  0
 30 93  1  0
 31 94  1  0
 31 95  1  0
 32 96  1  0
 32 97  1  0
 33 98  1  0
 33 99  1  0
 35100  1  0
 35101  1  0
 36102  1  0
 36103  1  0
 37104  1  0
 38105  1  0
 38106  1  0
 39107  1  0
 39108  1  0
 40109  1  0
 42110  1  0
 42111  1  0
 42112  1  0
 43113  1  0
 44114  1  0
 44115  1  0
 46116  1  0
 47117  1  0
 47118  1  0
 48119  1  0
 48120  1  0
 49121  1  0
 49122  1  0
 50123  1  0
 50124  1  0
M  END
>  <PDBID>  (1) 
1XLX

>  <PDB ID>  (1) 
1XLX

>  <Generic Name>  (1) 
Cilomilast

>  <Brand Name>  (1) 
nan

>  <DrugBank ID>  (1) 
DB03849

>  <ATC Codes>  (1) 
nan

>  <Ligand ID>  (1) 
CIO

>  <Target Name>  (1) 
cAMP-specific 3',5'-cyclic phosphodiesterase 4B

>  <UniProt ID>  (1) 
Q07343

>  <PDB ID.1>  (1) 
1XLX

>  <Seq. Identity>  (1) 
97%

$$$$
