PDB_DB01167_02
     RDKit          3D

113119  0  0  0  0  0  0  0  0999 V2000
    6.7294   -1.3717    0.7475 C   0  0  0  0  0  0  0  0  0  0  0  0
    7.3609   -0.7045   -0.4338 C   0  0  0  0  0  0  0  0  0  0  0  0
   11.9584    2.7849    1.2372 C   0  0  0  0  0  0  0  0  0  0  0  0
   11.7320    1.2813    1.0918 C   0  0  0  0  0  0  0  0  0  0  0  0
   11.1924    0.9750   -0.2661 C   0  0  1  0  0  0  0  0  0  0  0  0
   12.2223    1.4543   -1.2825 C   0  0  0  0  0  0  0  0  0  0  0  0
   10.8082   -0.3571   -0.4503 N   0  0  0  0  0  0  0  0  0  0  0  0
    9.6855   -0.8483    0.2943 C   0  0  0  0  0  0  0  0  0  0  0  0
    9.2219   -0.0178    1.2773 O   0  0  0  0  0  0  0  0  0  0  0  0
    8.6659   -1.1463   -0.6995 N   0  0  0  0  0  0  0  0  0  0  0  0
    9.1721   -0.5655   -1.9137 C   0  0  0  0  0  0  0  0  0  0  0  0
   10.6203   -0.7676   -1.7530 N   0  0  0  0  0  0  0  0  0  0  0  0
    5.3383   -0.8319    1.0220 C   0  0  0  0  0  0  0  0  0  0  0  0
    4.4682   -0.7891   -0.1969 C   0  0  0  0  0  0  0  0  0  0  0  0
    5.1847   -0.2513   -1.3863 C   0  0  0  0  0  0  0  0  0  0  0  0
    6.4553   -1.0502   -1.6286 C   0  0  0  0  0  0  0  0  0  0  0  0
    3.8207   -2.0581   -0.3846 N   0  0  0  0  0  0  0  0  0  0  0  0
    2.9759   -2.2738    0.7742 C   0  0  0  0  0  0  0  0  0  0  0  0
    1.5977   -2.7372    0.3971 C   0  0  0  0  0  0  0  0  0  0  0  0
    0.9094   -1.7822   -0.4502 N   0  0  0  0  0  0  0  0  0  0  0  0
    1.7765   -1.3286   -1.5183 C   0  0  0  0  0  0  0  0  0  0  0  0
    3.0293   -2.1636   -1.5677 C   0  0  0  0  0  0  0  0  0  0  0  0
    0.3828   -0.6703    0.3174 C   0  0  0  0  0  0  0  0  0  0  0  0
   -0.6382   -1.1068    1.3234 C   0  0  0  0  0  0  0  0  0  0  0  0
   -1.4073    0.1318    1.7877 C   0  0  0  0  0  0  0  0  0  0  0  0
   -2.2712    0.7085    0.6804 C   0  0  0  0  0  0  0  0  0  0  0  0
   -1.7625    0.1710   -0.6202 C   0  0  0  0  0  0  0  0  0  0  0  0
   -0.2480    0.3394   -0.6332 C   0  0  0  0  0  0  0  0  0  0  0  0
   -3.6055    0.5280    0.9078 O   0  0  0  0  0  0  0  0  0  0  0  0
   -4.3598    1.6657    1.0748 C   0  0  0  0  0  0  0  0  0  0  0  0
   -5.8213    1.3338    1.3395 C   0  0  1  0  0  0  0  0  0  0  0  0
   -6.7084    2.5300    1.3981 C   0  0  0  0  0  0  0  0  0  0  0  0
   -7.7316    2.2312    0.5284 O   0  0  0  0  0  0  0  0  0  0  0  0
   -7.7023    0.8962    0.2031 C   0  0  2  0  0  0  0  0  0  0  0  0
   -6.3061    0.6280    0.2567 O   0  0  0  0  0  0  0  0  0  0  0  0
   -8.1798    0.7343   -1.2088 C   0  0  0  0  0  0  0  0  0  0  0  0
   -9.4804    1.2446   -1.4490 N   0  0  0  0  0  0  0  0  0  0  0  0
   -9.6221    2.6662   -1.4252 C   0  0  0  0  0  0  0  0  0  0  0  0
  -10.9099    2.8483   -2.1100 N   0  0  0  0  0  0  0  0  0  0  0  0
  -11.2661    1.5877   -2.6880 C   0  0  0  0  0  0  0  0  0  0  0  0
   -9.9692    0.8954   -2.7130 N   0  0  0  0  0  0  0  0  0  0  0  0
   -8.4095    0.0193    1.2098 C   0  0  0  0  0  0  0  0  0  0  0  0
   -8.3079   -1.4080    0.7759 C   0  0  0  0  0  0  0  0  0  0  0  0
   -9.6170   -2.0430    0.4326 C   0  0  0  0  0  0  0  0  0  0  0  0
  -10.4551   -1.9354    1.7036 C   0  0  0  0  0  0  0  0  0  0  0  0
  -10.8036   -0.5031    1.8787 C   0  0  0  0  0  0  0  0  0  0  0  0
   -9.7238    0.4915    1.6555 C   0  0  0  0  0  0  0  0  0  0  0  0
  -11.9470   -2.8643    1.4209 Cl  0  0  0  0  0  0  0  0  0  0  0  0
   -7.5832   -2.4185    2.0726 Cl  0  0  0  0  0  0  0  0  0  0  0  0
    6.6357   -2.4654    0.5469 H   0  0  0  0  0  0  0  0  0  0  0  0
    7.2955   -1.2564    1.6692 H   0  0  0  0  0  0  0  0  0  0  0  0
    7.3036    0.4237   -0.2663 H   0  0  0  0  0  0  0  0  0  0  0  0
   12.2913    3.1951    0.2756 H   0  0  0  0  0  0  0  0  0  0  0  0
   10.9625    3.2209    1.4979 H   0  0  0  0  0  0  0  0  0  0  0  0
   12.7081    2.9058    2.0436 H   0  0  0  0  0  0  0  0  0  0  0  0
   11.1974    0.9125    1.9519 H   0  0  0  0  0  0  0  0  0  0  0  0
   12.7766    0.8445    1.1207 H   0  0  0  0  0  0  0  0  0  0  0  0
   10.2652    1.6290   -0.3915 H   0  0  0  0  0  0  0  0  0  0  0  0
   11.9307    2.4602   -1.6461 H   0  0  0  0  0  0  0  0  0  0  0  0
   13.2239    1.6099   -0.7869 H   0  0  0  0  0  0  0  0  0  0  0  0
   12.3890    0.7135   -2.0712 H   0  0  0  0  0  0  0  0  0  0  0  0
   10.0416   -1.8132    0.7736 H   0  0  0  0  0  0  0  0  0  0  0  0
    9.3591   -0.4227    2.1782 H   0  0  0  0  0  0  0  0  0  0  0  0
    8.9972    0.5091   -1.8908 H   0  0  0  0  0  0  0  0  0  0  0  0
    8.8176   -1.0725   -2.8372 H   0  0  0  0  0  0  0  0  0  0  0  0
   10.9008   -1.7466   -1.8704 H   0  0  0  0  0  0  0  0  0  0  0  0
    4.8705   -1.5127    1.7587 H   0  0  0  0  0  0  0  0  0  0  0  0
    5.4023    0.1723    1.5211 H   0  0  0  0  0  0  0  0  0  0  0  0
    3.6488   -0.0432    0.0398 H   0  0  0  0  0  0  0  0  0  0  0  0
    5.5331    0.7774   -1.1121 H   0  0  0  0  0  0  0  0  0  0  0  0
    4.5540   -0.1632   -2.2679 H   0  0  0  0  0  0  0  0  0  0  0  0
    6.2714   -2.1386   -1.5646 H   0  0  0  0  0  0  0  0  0  0  0  0
    6.8567   -0.7086   -2.5814 H   0  0  0  0  0  0  0  0  0  0  0  0
    2.8765   -1.3651    1.4028 H   0  0  0  0  0  0  0  0  0  0  0  0
    3.4478   -3.0563    1.3895 H   0  0  0  0  0  0  0  0  0  0  0  0
    1.0416   -2.8619    1.3513 H   0  0  0  0  0  0  0  0  0  0  0  0
    1.5856   -3.7430   -0.0709 H   0  0  0  0  0  0  0  0  0  0  0  0
    2.0371   -0.2712   -1.3027 H   0  0  0  0  0  0  0  0  0  0  0  0
    1.2875   -1.4245   -2.5260 H   0  0  0  0  0  0  0  0  0  0  0  0
    2.7202   -3.2342   -1.6704 H   0  0  0  0  0  0  0  0  0  0  0  0
    3.6308   -1.9644   -2.4800 H   0  0  0  0  0  0  0  0  0  0  0  0
    1.2160   -0.1898    0.8434 H   0  0  0  0  0  0  0  0  0  0  0  0
   -1.3139   -1.8906    0.9612 H   0  0  0  0  0  0  0  0  0  0  0  0
   -0.1443   -1.4864    2.2426 H   0  0  0  0  0  0  0  0  0  0  0  0
   -1.9823   -0.1819    2.6647 H   0  0  0  0  0  0  0  0  0  0  0  0
   -0.6397    0.8582    2.1306 H   0  0  0  0  0  0  0  0  0  0  0  0
   -2.0720    1.8075    0.6752 H   0  0  0  0  0  0  0  0  0  0  0  0
   -2.1390    0.7796   -1.4904 H   0  0  0  0  0  0  0  0  0  0  0  0
   -1.9479   -0.9121   -0.7640 H   0  0  0  0  0  0  0  0  0  0  0  0
    0.0623    0.1016   -1.6876 H   0  0  0  0  0  0  0  0  0  0  0  0
    0.0722    1.3566   -0.3974 H   0  0  0  0  0  0  0  0  0  0  0  0
   -3.9928    2.2184    1.9628 H   0  0  0  0  0  0  0  0  0  0  0  0
   -4.3457    2.3557    0.2179 H   0  0  0  0  0  0  0  0  0  0  0  0
   -5.8557    0.7845    2.3042 H   0  0  0  0  0  0  0  0  0  0  0  0
   -6.1946    3.4844    1.1761 H   0  0  0  0  0  0  0  0  0  0  0  0
   -7.1615    2.6357    2.4244 H   0  0  0  0  0  0  0  0  0  0  0  0
   -8.0143   -0.2836   -1.6350 H   0  0  0  0  0  0  0  0  0  0  0  0
   -7.4743    1.3789   -1.8193 H   0  0  0  0  0  0  0  0  0  0  0  0
   -8.8676    3.1424   -2.1106 H   0  0  0  0  0  0  0  0  0  0  0  0
   -9.6467    3.1277   -0.4401 H   0  0  0  0  0  0  0  0  0  0  0  0
  -11.6229    3.0385   -1.3470 H   0  0  0  0  0  0  0  0  0  0  0  0
  -11.7135    1.6376   -3.6874 H   0  0  0  0  0  0  0  0  0  0  0  0
  -11.9063    0.9634   -2.0210 H   0  0  0  0  0  0  0  0  0  0  0  0
  -10.0911   -0.1344   -2.7734 H   0  0  0  0  0  0  0  0  0  0  0  0
   -7.7271    0.0898    2.1199 H   0  0  0  0  0  0  0  0  0  0  0  0
   -7.6148   -1.5031   -0.0804 H   0  0  0  0  0  0  0  0  0  0  0  0
   -9.4359   -3.1037    0.2200 H   0  0  0  0  0  0  0  0  0  0  0  0
  -10.1509   -1.5859   -0.3972 H   0  0  0  0  0  0  0  0  0  0  0  0
   -9.9128   -2.3777    2.5653 H   0  0  0  0  0  0  0  0  0  0  0  0
  -11.2522   -0.4078    2.9094 H   0  0  0  0  0  0  0  0  0  0  0  0
  -11.6918   -0.3048    1.2089 H   0  0  0  0  0  0  0  0  0  0  0  0
  -10.1214    1.2373    0.9375 H   0  0  0  0  0  0  0  0  0  0  0  0
   -9.6483    1.1013    2.6162 H   0  0  0  0  0  0  0  0  0  0  0  0
  1  2  1  0
  3  4  1  0
  4  5  1  0
  5  6  1  0
  5  7  1  0
  7  8  1  0
  8  9  1  0
  2 10  1  0
  8 10  1  0
 10 11  1  0
  7 12  1  0
 11 12  1  0
  1 13  1  0
 13 14  1  0
 14 15  1  0
  2 16  1  0
 15 16  1  0
 14 17  1  0
 17 18  1  0
 18 19  1  0
 19 20  1  0
 20 21  1  0
 17 22  1  0
 21 22  1  0
 20 23  1  0
 23 24  1  0
 24 25  1  0
 25 26  1  0
 26 27  1  0
 23 28  1  0
 27 28  1  0
 26 29  1  0
 29 30  1  0
 30 31  1  0
 31 32  1  0
 32 33  1  0
 33 34  1  0
 31 35  1  0
 34 35  1  0
 34 36  1  6
 36 37  1  0
 37 38  1  0
 38 39  1  0
 40 39  1  0
 37 41  1  0
 40 41  1  0
 34 42  1  0
 42 43  1  0
 43 44  1  0
 44 45  1  0
 45 46  1  0
 42 47  1  0
 46 47  1  0
 45 48  1  0
 43 49  1  0
  1 50  1  0
  1 51  1  0
  2 52  1  0
  3 53  1  0
  3 54  1  0
  3 55  1  0
  4 56  1  0
  4 57  1  0
  5 58  1  6
  6 59  1  0
  6 60  1  0
  6 61  1  0
  8 62  1  0
  9 63  1  0
 11 64  1  0
 11 65  1  0
 12 66  1  0
 13 67  1  0
 13 68  1  0
 14 69  1  0
 15 70  1  0
 15 71  1  0
 16 72  1  0
 16 73  1  0
 18 74  1  0
 18 75  1  0
 19 76  1  0
 19 77  1  0
 21 78  1  0
 21 79  1  0
 22 80  1  0
 22 81  1  0
 23 82  1  0
 24 83  1  0
 24 84  1  0
 25 85  1  0
 25 86  1  0
 26 87  1  0
 27 88  1  0
 27 89  1  0
 28 90  1  0
 28 91  1  0
 30 92  1  0
 30 93  1  0
 31 94  1  1
 32 95  1  0
 32 96  1  0
 36 97  1  0
 36 98  1  0
 38 99  1  0
 38100  1  0
 39101  1  0
 40102  1  0
 40103  1  0
 41104  1  0
 42105  1  0
 43106  1  0
 44107  1  0
 44108  1  0
 45109  1  0
 46110  1  0
 46111  1  0
 47112  1  0
 47113  1  0
M  END
>  <PDBID>  (1) 
5JLC

>  <PDB ID>  (1) 
5JLC

>  <Generic Name>  (1) 
Itraconazole

>  <Brand Name>  (1) 
Itraconazole#Onmel#Sporanox#Sporanox Oral Solution 10mg/ml#Itrizole#Oriconazole#Sporal

>  <DrugBank ID>  (1) 
DB01167

>  <ATC Codes>  (1) 
J02AC02

>  <Ligand ID>  (1) 
1YN

>  <Target Name>  (1) 
Lanosterol 14-alpha demethylase

>  <UniProt ID>  (1) 
P50859

>  <PDB ID.1>  (1) 
5JLC

>  <Seq. Identity>  (1) 
97%

$$$$
