PDB_DB01606_04
     RDKit          3D

 42 44  0  0  0  0  0  0  0  0999 V2000
   -1.2281   -0.6107   -1.5129 S   0  0  0  0  0  0  0  0  0  0  0  0
   -0.0073   -0.5710   -0.2576 C   0  0  1  0  0  0  0  0  0  0  0  0
   -0.8391   -0.3179    0.9556 C   0  0  2  0  0  0  0  0  0  0  0  0
   -2.5395    0.1261   -0.6189 C   0  0  2  0  0  0  0  0  0  0  0  0
   -2.5997    1.6534   -0.7691 C   0  0  0  0  0  0  0  0  0  0  0  0
   -2.1761    1.7258    0.7048 C   0  0  2  0  0  0  0  0  0  0  0  0
   -1.1221   -1.6006    1.7492 C   0  0  0  0  0  0  0  0  0  0  0  0
   -2.0330    0.3124    0.6735 N   0  0  0  0  0  0  0  0  0  0  0  0
    0.7100   -1.9038   -0.2376 C   0  0  0  0  0  0  0  0  0  0  0  0
    1.0090    0.4954   -0.4871 C   0  0  0  0  0  0  0  0  0  0  0  0
    4.1808    1.0632   -0.4106 C   0  0  0  0  0  0  0  0  0  0  0  0
    2.9041    1.7117    0.0834 C   0  0  0  0  0  0  0  0  0  0  0  0
    2.0362    0.5927    0.4929 N   0  0  0  0  0  0  0  0  0  0  0  0
    2.9129   -0.4227    0.5945 N   0  0  0  0  0  0  0  0  0  0  0  0
    3.8863   -0.3796   -0.3529 N   0  0  0  0  0  0  0  0  0  0  0  0
   -0.7564    0.4190   -3.0116 O   0  0  0  0  0  0  0  0  0  0  0  0
   -1.6416   -2.1864   -2.2118 O   0  0  0  0  0  0  0  0  0  0  0  0
   -3.2926    2.0948    1.4706 O   0  0  0  0  0  0  0  0  0  0  0  0
   -1.9267   -2.3907    0.9389 O   0  0  0  0  0  0  0  0  0  0  0  0
   -1.9458   -1.1875    2.8221 O   0  0  0  0  0  0  0  0  0  0  0  0
   -0.2220    0.3100    1.6533 H   0  0  0  0  0  0  0  0  0  0  0  0
   -3.5093   -0.3625   -0.6761 H   0  0  0  0  0  0  0  0  0  0  0  0
   -1.8290    2.0514   -1.4545 H   0  0  0  0  0  0  0  0  0  0  0  0
   -3.6228    1.9762   -0.9698 H   0  0  0  0  0  0  0  0  0  0  0  0
   -1.2943    2.3463    0.8578 H   0  0  0  0  0  0  0  0  0  0  0  0
   -0.2162   -2.0859    2.1046 H   0  0  0  0  0  0  0  0  0  0  0  0
    1.2456   -2.1106    0.6868 H   0  0  0  0  0  0  0  0  0  0  0  0
    1.4617   -1.8665   -1.0750 H   0  0  0  0  0  0  0  0  0  0  0  0
    0.0127   -2.7162   -0.5377 H   0  0  0  0  0  0  0  0  0  0  0  0
    1.5073    0.4004   -1.4862 H   0  0  0  0  0  0  0  0  0  0  0  0
    0.4790    1.4903   -0.5103 H   0  0  0  0  0  0  0  0  0  0  0  0
    5.0180    1.2175    0.3302 H   0  0  0  0  0  0  0  0  0  0  0  0
    4.4594    1.3733   -1.4287 H   0  0  0  0  0  0  0  0  0  0  0  0
    2.4325    2.3243   -0.7028 H   0  0  0  0  0  0  0  0  0  0  0  0
    3.1202    2.3046    0.9952 H   0  0  0  0  0  0  0  0  0  0  0  0
    3.1128   -0.8456    1.4928 H   0  0  0  0  0  0  0  0  0  0  0  0
    3.4862   -0.6082   -1.2787 H   0  0  0  0  0  0  0  0  0  0  0  0
   -1.6517    0.5606   -3.3881 H   0  0  0  0  0  0  0  0  0  0  0  0
   -2.4709   -2.0328   -2.7163 H   0  0  0  0  0  0  0  0  0  0  0  0
   -3.0442    2.3034    2.4080 H   0  0  0  0  0  0  0  0  0  0  0  0
   -2.4305   -3.0635    1.4507 H   0  0  0  0  0  0  0  0  0  0  0  0
   -1.5755   -1.5898    3.6296 H   0  0  0  0  0  0  0  0  0  0  0  0
  1  2  1  0
  2  3  1  0
  1  4  1  0
  4  5  1  0
  5  6  1  0
  3  7  1  0
  3  8  1  0
  4  8  1  0
  6  8  1  0
  2  9  1  1
  2 10  1  0
 11 12  1  0
 10 13  1  0
 12 13  1  0
 13 14  1  0
 11 15  1  0
 14 15  1  0
  1 16  1  0
  1 17  1  0
  6 18  1  0
  7 19  1  0
  7 20  1  0
  3 21  1  1
  4 22  1  1
  5 23  1  0
  5 24  1  0
  6 25  1  6
  7 26  1  0
  9 27  1  0
  9 28  1  0
  9 29  1  0
 10 30  1  0
 10 31  1  0
 11 32  1  0
 11 33  1  0
 12 34  1  0
 12 35  1  0
 14 36  1  0
 15 37  1  0
 16 38  1  0
 17 39  1  0
 18 40  1  0
 19 41  1  0
 20 42  1  0
M  END
>  <PDBID>  (1) 
1VM1

>  <PDB ID>  (1) 
1VM1

>  <Generic Name>  (1) 
Tazobactam

>  <Brand Name>  (1) 
Jamp-pip/taz#Mylan-piperacillin and Tazobactam for Injection#Piperacillin / Tazobactam Powder for Injection#Piperacillin Sodium/tazobactam Sodium Powder for Injection#Piperacillin and Tazobactam#Piperacillin and Tazobactam for Injection#Piperacillin, Tazobactam#Piperacillin/tazobactam for Injection#Tazocin#Tazocin Pws IV 2g Piperacillin-.25g Tazobac.#Tazocin Pws IV 3g Piperacillin-.375g Tazobac#Tazocin Pws IV 4g Piperacillin-.5g Tazobac.#Vpi-piperacillin and Tazobactam for Injection#Zerbaxa#Zosyn#Zosyn In Galaxy Containers#Zosyn Pharmacy Bulk Package

>  <DrugBank ID>  (1) 
DB01606

>  <ATC Codes>  (1) 
J01CG02

>  <Ligand ID>  (1) 
TAZ

>  <Target Name>  (1) 
Beta-lactamase TEM

>  <UniProt ID>  (1) 
P62594

>  <PDB ID.1>  (1) 
1VM1

>  <Seq. Identity>  (1) 
66%

$$$$
