PDB_DB06616_08
     RDKit          3D

170176  0  0  0  0  0  0  0  0999 V2000
    1.2329    2.6831   -1.1966 C   0  0  0  0  0  0  0  0  0  0  0  0
   -5.5671    2.6105   -1.3944 O   0  0  0  0  0  0  0  0  0  0  0  0
    5.1764    0.6688   -1.4222 C   0  0  0  0  0  0  0  0  0  0  0  0
   -4.2934   -3.0869    1.8911 N   0  0  0  0  0  0  0  0  0  0  0  0
   -7.1092    2.3040    1.7962 Cl  0  0  0  0  0  0  0  0  0  0  0  0
   -6.3191   -2.4098   -0.6663 Cl  0  0  0  0  0  0  0  0  0  0  0  0
   -3.4286   -3.7821    0.9945 C   0  0  0  0  0  0  0  0  0  0  0  0
   -1.4814   -2.8066    2.0731 C   0  0  0  0  0  0  0  0  0  0  0  0
   -6.5082   -0.0514    0.7225 C   0  0  0  0  0  0  0  0  0  0  0  0
   -4.1299    0.9943   -0.3466 C   0  0  0  0  0  0  0  0  0  0  0  0
    0.6915   -1.9037   -0.4291 C   0  0  0  0  0  0  0  0  0  0  0  0
   -0.9799    0.3693   -0.4313 C   0  0  0  0  0  0  0  0  0  0  0  0
    4.6828   -0.5701   -2.0856 C   0  0  0  0  0  0  0  0  0  0  0  0
    3.1925   -0.6448   -2.2605 C   0  0  0  0  0  0  0  0  0  0  0  0
    8.1953    0.6356    0.9886 C   0  0  0  0  0  0  0  0  0  0  0  0
    5.1291   -0.2633    0.7854 C   0  0  0  0  0  0  0  0  0  0  0  0
    4.9513    2.0948    0.4136 C   0  0  0  0  0  0  0  0  0  0  0  0
    5.9946    0.2808    1.8916 C   0  0  0  0  0  0  0  0  0  0  0  0
    6.4455    2.2527    0.6008 C   0  0  0  0  0  0  0  0  0  0  0  0
   -0.1093   -2.4677    1.8123 N   0  0  0  0  0  0  0  0  0  0  0  0
   -3.7293   -1.3504    0.2485 N   0  0  0  0  0  0  0  0  0  0  0  0
    0.5898    1.5541   -1.6483 O   0  0  0  0  0  0  0  0  0  0  0  0
    2.5416   -0.5879   -1.0325 O   0  0  0  0  0  0  0  0  0  0  0  0
   -5.2728    1.9522   -0.2011 C   0  0  0  0  0  0  0  0  0  0  0  0
   -6.5397    1.4248    0.3615 C   0  0  0  0  0  0  0  0  0  0  0  0
   -5.9551   -0.7151   -0.5184 C   0  0  0  0  0  0  0  0  0  0  0  0
   -2.1683   -3.0205    0.7447 C   0  0  0  0  0  0  0  0  0  0  0  0
   -4.4707   -0.4221   -0.5270 C   0  0  0  0  0  0  0  0  0  0  0  0
    0.5262    0.5565   -0.6236 C   0  0  0  0  0  0  0  0  0  0  0  0
    1.1593   -0.6816   -1.1860 C   0  0  0  0  0  0  0  0  0  0  0  0
   -2.3935   -1.6666    0.0135 C   0  0  0  0  0  0  0  0  0  0  0  0
   -0.0325   -1.4597    0.8122 C   0  0  0  0  0  0  0  0  0  0  0  0
   -1.3335   -0.7491    0.4904 C   0  0  0  0  0  0  0  0  0  0  0  0
    4.6105    0.7680   -0.0918 N   0  0  0  0  0  0  0  0  0  0  0  0
    6.9745    1.2256    1.4461 N   0  0  0  0  0  0  0  0  0  0  0  0
   -5.3916    3.9783   -1.3055 C   0  0  0  0  0  0  0  0  0  0  0  0
    1.2329    2.6831   -1.1966 C   0  0  0  0  0  0  0  0  0  0  0  0
   -5.5671    2.6105   -1.3944 O   0  0  0  0  0  0  0  0  0  0  0  0
    5.1764    0.6688   -1.4222 C   0  0  0  0  0  0  0  0  0  0  0  0
   -4.2934   -3.0869    1.8911 N   0  0  0  0  0  0  0  0  0  0  0  0
   -7.1092    2.3040    1.7962 Cl  0  0  0  0  0  0  0  0  0  0  0  0
   -6.3191   -2.4098   -0.6663 Cl  0  0  0  0  0  0  0  0  0  0  0  0
   -3.4286   -3.7821    0.9945 C   0  0  0  0  0  0  0  0  0  0  0  0
   -1.4814   -2.8066    2.0731 C   0  0  0  0  0  0  0  0  0  0  0  0
   -6.5082   -0.0514    0.7225 C   0  0  0  0  0  0  0  0  0  0  0  0
   -4.1299    0.9943   -0.3466 C   0  0  0  0  0  0  0  0  0  0  0  0
    0.6915   -1.9037   -0.4291 C   0  0  0  0  0  0  0  0  0  0  0  0
   -0.9799    0.3693   -0.4313 C   0  0  0  0  0  0  0  0  0  0  0  0
    4.6828   -0.5701   -2.0856 C   0  0  0  0  0  0  0  0  0  0  0  0
    3.1925   -0.6448   -2.2605 C   0  0  0  0  0  0  0  0  0  0  0  0
    8.1953    0.6356    0.9886 C   0  0  0  0  0  0  0  0  0  0  0  0
    5.1291   -0.2633    0.7854 C   0  0  0  0  0  0  0  0  0  0  0  0
    4.9513    2.0948    0.4136 C   0  0  0  0  0  0  0  0  0  0  0  0
    5.9946    0.2808    1.8916 C   0  0  0  0  0  0  0  0  0  0  0  0
    6.4455    2.2527    0.6008 C   0  0  0  0  0  0  0  0  0  0  0  0
   -0.1093   -2.4677    1.8123 N   0  0  0  0  0  0  0  0  0  0  0  0
   -3.7293   -1.3504    0.2485 N   0  0  0  0  0  0  0  0  0  0  0  0
    0.5898    1.5541   -1.6483 O   0  0  0  0  0  0  0  0  0  0  0  0
    2.5416   -0.5879   -1.0325 O   0  0  0  0  0  0  0  0  0  0  0  0
   -5.2728    1.9522   -0.2011 C   0  0  0  0  0  0  0  0  0  0  0  0
   -6.5397    1.4248    0.3615 C   0  0  0  0  0  0  0  0  0  0  0  0
   -5.9551   -0.7151   -0.5184 C   0  0  0  0  0  0  0  0  0  0  0  0
   -2.1683   -3.0205    0.7447 C   0  0  0  0  0  0  0  0  0  0  0  0
   -4.4707   -0.4221   -0.5270 C   0  0  0  0  0  0  0  0  0  0  0  0
    0.5262    0.5565   -0.6236 C   0  0  0  0  0  0  0  0  0  0  0  0
    1.1593   -0.6816   -1.1860 C   0  0  0  0  0  0  0  0  0  0  0  0
   -2.3935   -1.6666    0.0135 C   0  0  0  0  0  0  0  0  0  0  0  0
   -0.0325   -1.4597    0.8122 C   0  0  0  0  0  0  0  0  0  0  0  0
   -1.3335   -0.7491    0.4904 C   0  0  0  0  0  0  0  0  0  0  0  0
    4.6105    0.7680   -0.0918 N   0  0  0  0  0  0  0  0  0  0  0  0
    6.9745    1.2256    1.4461 N   0  0  0  0  0  0  0  0  0  0  0  0
   -5.3916    3.9783   -1.3055 C   0  0  0  0  0  0  0  0  0  0  0  0
    2.2849    2.4437   -0.8720 H   0  0  0  0  0  0  0  0  0  0  0  0
    1.3183    3.3956   -2.0395 H   0  0  0  0  0  0  0  0  0  0  0  0
    0.7066    3.0778   -0.3182 H   0  0  0  0  0  0  0  0  0  0  0  0
    6.2691    0.7215   -1.4514 H   0  0  0  0  0  0  0  0  0  0  0  0
    4.7989    1.5488   -1.9843 H   0  0  0  0  0  0  0  0  0  0  0  0
   -3.8910   -3.0767    2.8507 H   0  0  0  0  0  0  0  0  0  0  0  0
   -5.2503   -3.5517    1.9091 H   0  0  0  0  0  0  0  0  0  0  0  0
   -3.1296   -4.7260    1.5074 H   0  0  0  0  0  0  0  0  0  0  0  0
   -3.9311   -4.1085    0.0581 H   0  0  0  0  0  0  0  0  0  0  0  0
   -1.9514   -1.9548    2.6139 H   0  0  0  0  0  0  0  0  0  0  0  0
   -1.5743   -3.7547    2.6325 H   0  0  0  0  0  0  0  0  0  0  0  0
   -7.5533   -0.3416    0.9403 H   0  0  0  0  0  0  0  0  0  0  0  0
   -5.8922   -0.2240    1.6218 H   0  0  0  0  0  0  0  0  0  0  0  0
   -3.4926    1.3755   -1.1501 H   0  0  0  0  0  0  0  0  0  0  0  0
   -3.5296    1.0695    0.6030 H   0  0  0  0  0  0  0  0  0  0  0  0
    0.0883   -2.5685   -1.1000 H   0  0  0  0  0  0  0  0  0  0  0  0
    1.5684   -2.5540   -0.1532 H   0  0  0  0  0  0  0  0  0  0  0  0
   -1.3865    0.2432   -1.4656 H   0  0  0  0  0  0  0  0  0  0  0  0
   -1.3339    1.3602   -0.0479 H   0  0  0  0  0  0  0  0  0  0  0  0
    5.1621   -0.6423   -3.1068 H   0  0  0  0  0  0  0  0  0  0  0  0
    5.0170   -1.5036   -1.5754 H   0  0  0  0  0  0  0  0  0  0  0  0
    3.0057   -1.6337   -2.7691 H   0  0  0  0  0  0  0  0  0  0  0  0
    2.8907    0.2129   -2.8692 H   0  0  0  0  0  0  0  0  0  0  0  0
    9.0919    1.1873    1.3864 H   0  0  0  0  0  0  0  0  0  0  0  0
    8.1970   -0.4320    1.3470 H   0  0  0  0  0  0  0  0  0  0  0  0
    8.2955    0.6505   -0.1040 H   0  0  0  0  0  0  0  0  0  0  0  0
    4.2521   -0.7625    1.2656 H   0  0  0  0  0  0  0  0  0  0  0  0
    5.7167   -1.0371    0.2645 H   0  0  0  0  0  0  0  0  0  0  0  0
    4.4827    2.2915    1.3778 H   0  0  0  0  0  0  0  0  0  0  0  0
    4.6208    2.8156   -0.3404 H   0  0  0  0  0  0  0  0  0  0  0  0
    6.5520   -0.5908    2.3240 H   0  0  0  0  0  0  0  0  0  0  0  0
    5.4033    0.7458    2.6974 H   0  0  0  0  0  0  0  0  0  0  0  0
    6.6112    3.2316    1.0902 H   0  0  0  0  0  0  0  0  0  0  0  0
    6.9788    2.3018   -0.3786 H   0  0  0  0  0  0  0  0  0  0  0  0
    0.4293   -2.2384    2.6697 H   0  0  0  0  0  0  0  0  0  0  0  0
   -3.7912   -0.9626    1.2666 H   0  0  0  0  0  0  0  0  0  0  0  0
   -4.9583    2.7768    0.5115 H   0  0  0  0  0  0  0  0  0  0  0  0
   -7.3909    1.4987   -0.3822 H   0  0  0  0  0  0  0  0  0  0  0  0
   -6.4054   -0.1719   -1.3960 H   0  0  0  0  0  0  0  0  0  0  0  0
   -1.4424   -3.6566    0.1514 H   0  0  0  0  0  0  0  0  0  0  0  0
   -4.1951   -0.7068   -1.6195 H   0  0  0  0  0  0  0  0  0  0  0  0
    1.0230    0.9867    0.2508 H   0  0  0  0  0  0  0  0  0  0  0  0
    0.8812   -0.7772   -2.2674 H   0  0  0  0  0  0  0  0  0  0  0  0
   -2.1575   -1.8474   -1.0898 H   0  0  0  0  0  0  0  0  0  0  0  0
    0.6249   -0.6498    1.2571 H   0  0  0  0  0  0  0  0  0  0  0  0
   -1.7159   -0.2739    1.4391 H   0  0  0  0  0  0  0  0  0  0  0  0
   -5.6159    4.5152   -2.2269 H   0  0  0  0  0  0  0  0  0  0  0  0
   -6.1529    4.3563   -0.5569 H   0  0  0  0  0  0  0  0  0  0  0  0
   -4.4101    4.2266   -0.8373 H   0  0  0  0  0  0  0  0  0  0  0  0
    2.2849    2.4437   -0.8720 H   0  0  0  0  0  0  0  0  0  0  0  0
    1.3183    3.3956   -2.0395 H   0  0  0  0  0  0  0  0  0  0  0  0
    0.7066    3.0778   -0.3182 H   0  0  0  0  0  0  0  0  0  0  0  0
    6.2691    0.7215   -1.4514 H   0  0  0  0  0  0  0  0  0  0  0  0
    4.7989    1.5488   -1.9843 H   0  0  0  0  0  0  0  0  0  0  0  0
   -3.8910   -3.0767    2.8507 H   0  0  0  0  0  0  0  0  0  0  0  0
   -5.2503   -3.5517    1.9091 H   0  0  0  0  0  0  0  0  0  0  0  0
   -3.1296   -4.7260    1.5074 H   0  0  0  0  0  0  0  0  0  0  0  0
   -3.9311   -4.1085    0.0581 H   0  0  0  0  0  0  0  0  0  0  0  0
   -1.9514   -1.9548    2.6139 H   0  0  0  0  0  0  0  0  0  0  0  0
   -1.5743   -3.7547    2.6325 H   0  0  0  0  0  0  0  0  0  0  0  0
   -7.5533   -0.3416    0.9403 H   0  0  0  0  0  0  0  0  0  0  0  0
   -5.8922   -0.2240    1.6218 H   0  0  0  0  0  0  0  0  0  0  0  0
   -3.4926    1.3755   -1.1501 H   0  0  0  0  0  0  0  0  0  0  0  0
   -3.5296    1.0695    0.6030 H   0  0  0  0  0  0  0  0  0  0  0  0
    0.0883   -2.5685   -1.1000 H   0  0  0  0  0  0  0  0  0  0  0  0
    1.5684   -2.5540   -0.1532 H   0  0  0  0  0  0  0  0  0  0  0  0
   -1.3865    0.2432   -1.4656 H   0  0  0  0  0  0  0  0  0  0  0  0
   -1.3339    1.3602   -0.0479 H   0  0  0  0  0  0  0  0  0  0  0  0
    5.1621   -0.6423   -3.1068 H   0  0  0  0  0  0  0  0  0  0  0  0
    5.0170   -1.5036   -1.5754 H   0  0  0  0  0  0  0  0  0  0  0  0
    3.0057   -1.6337   -2.7691 H   0  0  0  0  0  0  0  0  0  0  0  0
    2.8907    0.2129   -2.8692 H   0  0  0  0  0  0  0  0  0  0  0  0
    9.0919    1.1873    1.3864 H   0  0  0  0  0  0  0  0  0  0  0  0
    8.1970   -0.4320    1.3470 H   0  0  0  0  0  0  0  0  0  0  0  0
    8.2955    0.6505   -0.1040 H   0  0  0  0  0  0  0  0  0  0  0  0
    4.2521   -0.7625    1.2656 H   0  0  0  0  0  0  0  0  0  0  0  0
    5.7167   -1.0371    0.2645 H   0  0  0  0  0  0  0  0  0  0  0  0
    4.4827    2.2915    1.3778 H   0  0  0  0  0  0  0  0  0  0  0  0
    4.6208    2.8156   -0.3404 H   0  0  0  0  0  0  0  0  0  0  0  0
    6.5520   -0.5908    2.3240 H   0  0  0  0  0  0  0  0  0  0  0  0
    5.4033    0.7458    2.6974 H   0  0  0  0  0  0  0  0  0  0  0  0
    6.6112    3.2316    1.0902 H   0  0  0  0  0  0  0  0  0  0  0  0
    6.9788    2.3018   -0.3786 H   0  0  0  0  0  0  0  0  0  0  0  0
    0.4293   -2.2384    2.6697 H   0  0  0  0  0  0  0  0  0  0  0  0
   -3.7912   -0.9626    1.2666 H   0  0  0  0  0  0  0  0  0  0  0  0
   -4.9583    2.7768    0.5115 H   0  0  0  0  0  0  0  0  0  0  0  0
   -7.3909    1.4987   -0.3822 H   0  0  0  0  0  0  0  0  0  0  0  0
   -6.4054   -0.1719   -1.3960 H   0  0  0  0  0  0  0  0  0  0  0  0
   -1.4424   -3.6566    0.1514 H   0  0  0  0  0  0  0  0  0  0  0  0
   -4.1951   -0.7068   -1.6195 H   0  0  0  0  0  0  0  0  0  0  0  0
    1.0230    0.9867    0.2508 H   0  0  0  0  0  0  0  0  0  0  0  0
    0.8812   -0.7772   -2.2674 H   0  0  0  0  0  0  0  0  0  0  0  0
   -2.1575   -1.8474   -1.0898 H   0  0  0  0  0  0  0  0  0  0  0  0
    0.6249   -0.6498    1.2571 H   0  0  0  0  0  0  0  0  0  0  0  0
   -1.7159   -0.2739    1.4391 H   0  0  0  0  0  0  0  0  0  0  0  0
   -5.6159    4.5152   -2.2269 H   0  0  0  0  0  0  0  0  0  0  0  0
   -6.1529    4.3563   -0.5569 H   0  0  0  0  0  0  0  0  0  0  0  0
   -4.4101    4.2266   -0.8373 H   0  0  0  0  0  0  0  0  0  0  0  0
  4  7  1  0
  3 13  1  0
 13 14  1  0
 16 18  1  0
 17 19  1  0
  8 20  1  0
  1 22  1  0
 14 23  1  0
  2 24  1  0
 10 24  1  0
  5 25  1  0
  9 25  1  0
 24 25  1  0
  6 26  1  0
  9 26  1  0
  7 27  1  0
  8 27  1  0
 10 28  1  0
 21 28  1  0
 26 28  1  0
 12 29  1  0
 22 29  1  0
 11 30  1  0
 23 30  1  0
 29 30  1  0
 21 31  1  0
 27 31  1  0
 11 32  1  0
 20 32  1  0
 12 33  1  0
 31 33  1  0
 32 33  1  0
  3 34  1  0
 16 34  1  0
 17 34  1  0
 15 35  1  0
 18 35  1  0
 19 35  1  0
  2 36  1  0
 40 43  1  0
 39 49  1  0
 49 50  1  0
 52 54  1  0
 53 55  1  0
 44 56  1  0
 37 58  1  0
 50 59  1  0
 38 60  1  0
 46 60  1  0
 41 61  1  0
 45 61  1  0
 60 61  1  0
 42 62  1  0
 45 62  1  0
 43 63  1  0
 44 63  1  0
 46 64  1  0
 57 64  1  0
 62 64  1  0
 48 65  1  0
 58 65  1  0
 47 66  1  0
 59 66  1  0
 65 66  1  0
 57 67  1  0
 63 67  1  0
 47 68  1  0
 56 68  1  0
 48 69  1  0
 67 69  1  0
 68 69  1  0
 39 70  1  0
 52 70  1  0
 53 70  1  0
 51 71  1  0
 54 71  1  0
 55 71  1  0
 38 72  1  0
  1 73  1  0
  1 74  1  0
  1 75  1  0
  3 76  1  0
  3 77  1  0
  4 78  1  0
  4 79  1  0
  7 80  1  0
  7 81  1  0
  8 82  1  0
  8 83  1  0
  9 84  1  0
  9 85  1  0
 10 86  1  0
 10 87  1  0
 11 88  1  0
 11 89  1  0
 12 90  1  0
 12 91  1  0
 13 92  1  0
 13 93  1  0
 14 94  1  0
 14 95  1  0
 15 96  1  0
 15 97  1  0
 15 98  1  0
 16 99  1  0
 16100  1  0
 17101  1  0
 17102  1  0
 18103  1  0
 18104  1  0
 19105  1  0
 19106  1  0
 20107  1  0
 21108  1  0
 24109  1  0
 25110  1  0
 26111  1  0
 27112  1  0
 28113  1  0
 29114  1  0
 30115  1  0
 31116  1  0
 32117  1  0
 33118  1  0
 36119  1  0
 36120  1  0
 36121  1  0
 37122  1  0
 37123  1  0
 37124  1  0
 39125  1  0
 39126  1  0
 40127  1  0
 40128  1  0
 43129  1  0
 43130  1  0
 44131  1  0
 44132  1  0
 45133  1  0
 45134  1  0
 46135  1  0
 46136  1  0
 47137  1  0
 47138  1  0
 48139  1  0
 48140  1  0
 49141  1  0
 49142  1  0
 50143  1  0
 50144  1  0
 51145  1  0
 51146  1  0
 51147  1  0
 52148  1  0
 52149  1  0
 53150  1  0
 53151  1  0
 54152  1  0
 54153  1  0
 55154  1  0
 55155  1  0
 56156  1  0
 57157  1  0
 60158  1  0
 61159  1  0
 62160  1  0
 63161  1  0
 64162  1  0
 65163  1  0
 66164  1  0
 67165  1  0
 68166  1  0
 69167  1  0
 72168  1  0
 72169  1  0
 72170  1  0
M  END
>  <PDBID>  (1) 
3UE4

>  <PDB ID>  (1) 
3UE4

>  <Generic Name>  (1) 
Bosutinib

>  <Brand Name>  (1) 
Bosulif

>  <DrugBank ID>  (1) 
DB06616

>  <ATC Codes>  (1) 
L01XE14

>  <Ligand ID>  (1) 
DB8

>  <Target Name>  (1) 
Tyrosine-protein kinase ABL1

>  <UniProt ID>  (1) 
P00519

>  <PDB ID.1>  (1) 
3UE4

>  <Seq. Identity>  (1) 
95%

$$$$
