PDB_DB00273_00
     RDKit          3D

 45 47  0  0  0  0  0  0  0  0999 V2000
   -0.5743    3.8607   -0.3400 C   0  0  0  0  0  0  0  0  0  0  0  0
    0.2060    2.6913    0.2483 C   0  0  0  0  0  0  0  0  0  0  0  0
    1.2082    3.2762    1.2310 C   0  0  0  0  0  0  0  0  0  0  0  0
    0.8215    2.0636   -0.8095 O   0  0  0  0  0  0  0  0  0  0  0  0
   -0.5877    1.7927    0.9140 O   0  0  0  0  0  0  0  0  0  0  0  0
   -0.3614    0.5271    0.3894 C   0  0  1  0  0  0  0  0  0  0  0  0
   -1.7047    0.0559   -0.1520 C   0  0  2  0  0  0  0  0  0  0  0  0
   -2.4750   -0.4717    0.8745 O   0  0  0  0  0  0  0  0  0  0  0  0
   -2.9928   -1.6881    0.4030 C   0  0  0  0  0  0  0  0  0  0  0  0
   -3.4193   -2.5738    1.5364 C   0  0  0  0  0  0  0  0  0  0  0  0
   -4.1251   -1.3743   -0.5454 C   0  0  0  0  0  0  0  0  0  0  0  0
   -1.8691   -2.1885   -0.2752 O   0  0  0  0  0  0  0  0  0  0  0  0
   -1.5778   -1.1020   -1.0954 C   0  0  2  0  0  0  0  0  0  0  0  0
   -0.1758   -1.1185   -1.6307 C   0  0  0  0  0  0  0  0  0  0  0  0
    0.1567    0.2224   -1.8866 O   0  0  0  0  0  0  0  0  0  0  0  0
    0.6715    0.7028   -0.6719 C   0  0  1  0  0  0  0  0  0  0  0  0
    1.9931    0.0861   -0.3974 C   0  0  0  0  0  0  0  0  0  0  0  0
    2.0967   -0.5152    0.8541 O   0  0  0  0  0  0  0  0  0  0  0  0
    3.9772   -1.1175    0.3430 S   0  0  0  0  0  0  0  0  0  0  0  0
    4.5595   -0.0088   -0.1277 O   0  0  0  0  0  0  0  0  0  0  0  0
    4.2554   -1.6565    1.8836 O   0  0  0  0  0  0  0  0  0  0  0  0
    3.3754   -2.3078   -0.5994 N   0  0  0  0  0  0  0  0  0  0  0  0
   -1.3107    3.5330   -1.0963 H   0  0  0  0  0  0  0  0  0  0  0  0
   -0.9794    4.5314    0.4288 H   0  0  0  0  0  0  0  0  0  0  0  0
    0.1859    4.4595   -0.9034 H   0  0  0  0  0  0  0  0  0  0  0  0
    1.7486    2.4764    1.7840 H   0  0  0  0  0  0  0  0  0  0  0  0
    0.5992    3.8066    2.0017 H   0  0  0  0  0  0  0  0  0  0  0  0
    1.8929    3.9840    0.7221 H   0  0  0  0  0  0  0  0  0  0  0  0
   -0.0733   -0.1986    1.1846 H   0  0  0  0  0  0  0  0  0  0  0  0
   -2.2255    0.9175   -0.6286 H   0  0  0  0  0  0  0  0  0  0  0  0
   -2.9846   -3.5836    1.5123 H   0  0  0  0  0  0  0  0  0  0  0  0
   -3.1725   -2.0621    2.4783 H   0  0  0  0  0  0  0  0  0  0  0  0
   -4.5176   -2.6786    1.5007 H   0  0  0  0  0  0  0  0  0  0  0  0
   -4.0564   -0.3143   -0.8888 H   0  0  0  0  0  0  0  0  0  0  0  0
   -4.1212   -1.9931   -1.4533 H   0  0  0  0  0  0  0  0  0  0  0  0
   -5.0723   -1.4587    0.0077 H   0  0  0  0  0  0  0  0  0  0  0  0
   -2.2847   -1.0671   -1.9429 H   0  0  0  0  0  0  0  0  0  0  0  0
    0.4685   -1.5443   -0.8201 H   0  0  0  0  0  0  0  0  0  0  0  0
   -0.0590   -1.6814   -2.5686 H   0  0  0  0  0  0  0  0  0  0  0  0
    2.2525   -0.6287   -1.2197 H   0  0  0  0  0  0  0  0  0  0  0  0
    2.8102    0.8516   -0.4291 H   0  0  0  0  0  0  0  0  0  0  0  0
    5.2762    0.6584   -0.1340 H   0  0  0  0  0  0  0  0  0  0  0  0
    5.2363   -1.5851    2.0541 H   0  0  0  0  0  0  0  0  0  0  0  0
    3.2482   -3.2272   -0.1440 H   0  0  0  0  0  0  0  0  0  0  0  0
    3.6805   -2.3517   -1.5916 H   0  0  0  0  0  0  0  0  0  0  0  0
  2  1  1  0
  2  3  1  0
  2  4  1  0
  2  5  1  0
  5  6  1  0
  6  7  1  0
  7  8  1  0
  8  9  1  0
  9 10  1  0
  9 11  1  0
  9 12  1  0
  7 13  1  0
 12 13  1  0
 13 14  1  0
 14 15  1  0
  4 16  1  0
  6 16  1  0
 15 16  1  0
 16 17  1  1
 17 18  1  0
 19 18  1  0
 19 20  1  0
 19 21  1  0
 19 22  1  0
  1 23  1  0
  1 24  1  0
  1 25  1  0
  3 26  1  0
  3 27  1  0
  3 28  1  0
  6 29  1  1
  7 30  1  6
 10 31  1  0
 10 32  1  0
 10 33  1  0
 11 34  1  0
 11 35  1  0
 11 36  1  0
 13 37  1  6
 14 38  1  0
 14 39  1  0
 17 40  1  0
 17 41  1  0
 20 42  1  0
 21 43  1  0
 22 44  1  0
 22 45  1  0
M  END
>  <PDBID>  (1) 
3HKU

>  <PDB ID>  (1) 
3HKU

>  <Generic Name>  (1) 
Topiramate

>  <Brand Name>  (1) 
Abbott-topiramate#Accel-topiramate#Act Topiramate#Apo-topiramate#Auro-topiramate#Ava-topiramate#Dom-topiramate#Gd-topiramate#Ipg-topiramate#Jamp-topiramate#Mar-topiramate#Mint-topiramate#Mylan-topiramate#Nu-topiramate#PHL-topiramate#PMS-topiramate#Pro-topiramate#Q-topiramate#Qsymia#Qudexy XR#Ran-topiramate#Ratio-topiramate#Sandoz Topiramate#Sandoz Topiramate Tablets#Teva-topiramate#Topamax#Topamax 100mg#Topamax 200mg#Topamax 25mg#Topiramate#Topiramate Tablets#Topiramate Tablets USP#Trokendi XR#Van-topiramate#Zym-topiramate

>  <DrugBank ID>  (1) 
DB00273

>  <ATC Codes>  (1) 
N03AX11

>  <Ligand ID>  (1) 
TOR

>  <Target Name>  (1) 
Carbonic anhydrase 2

>  <UniProt ID>  (1) 
P00918

>  <PDB ID.1>  (1) 
3HKU

>  <Seq. Identity>  (1) 
100%

$$$$
