PDB_DB01536_03
     RDKit          3D

 53 56  0  0  0  0  0  0  0  0999 V2000
   -2.4033   -1.2236    1.0098 C   0  0  0  0  0  0  0  0  0  0  0  0
   -1.5739   -0.3784    0.0300 C   0  0  1  0  0  0  0  0  0  0  0  0
    0.5014   -1.7056   -0.2801 C   0  0  0  0  0  0  0  0  0  0  0  0
    1.9188   -1.9065    0.1533 C   0  0  0  0  0  0  0  0  0  0  0  0
    2.7053   -0.6569   -0.0204 C   0  0  1  0  0  0  0  0  0  0  0  0
    2.0067    0.4296    0.8113 C   0  0  1  0  0  0  0  0  0  0  0  0
    2.9975    1.5172    0.7880 C   0  0  0  0  0  0  0  0  0  0  0  0
    4.3379    0.8240    0.7835 C   0  0  0  0  0  0  0  0  0  0  0  0
    4.0595   -0.6668    0.6161 C   0  0  0  0  0  0  0  0  0  0  0  0
    2.8598   -0.2198   -1.4505 C   0  0  0  0  0  0  0  0  0  0  0  0
   -1.8642   -0.9854   -1.3491 C   0  0  0  0  0  0  0  0  0  0  0  0
   -3.8475   -1.2032    0.6695 C   0  0  0  0  0  0  0  0  0  0  0  0
   -4.4059    0.0951    0.2528 C   0  0  0  0  0  0  0  0  0  0  0  0
   -3.4964    1.0230   -0.4591 C   0  0  0  0  0  0  0  0  0  0  0  0
   -2.1328    1.0016    0.1662 C   0  0  0  0  0  0  0  0  0  0  0  0
   -1.2204    2.0807   -0.3249 C   0  0  0  0  0  0  0  0  0  0  0  0
    0.0532    1.9762    0.5282 C   0  0  0  0  0  0  0  0  0  0  0  0
    0.7040    0.6864    0.1520 C   0  0  2  0  0  0  0  0  0  0  0  0
   -0.1565   -0.5261    0.3984 C   0  0  1  0  0  0  0  0  0  0  0  0
   -4.9348    0.7610    1.3702 O   0  0  0  0  0  0  0  0  0  0  0  0
    4.0878   -1.3399    1.8142 O   0  0  0  0  0  0  0  0  0  0  0  0
   -2.2633   -0.7348    2.0035 H   0  0  0  0  0  0  0  0  0  0  0  0
   -2.0388   -2.2544    1.0576 H   0  0  0  0  0  0  0  0  0  0  0  0
    0.4957   -1.6163   -1.3839 H   0  0  0  0  0  0  0  0  0  0  0  0
   -0.0707   -2.6217    0.0489 H   0  0  0  0  0  0  0  0  0  0  0  0
    2.0338   -2.2825    1.1757 H   0  0  0  0  0  0  0  0  0  0  0  0
    2.3609   -2.6830   -0.5189 H   0  0  0  0  0  0  0  0  0  0  0  0
    1.8275    0.0118    1.8152 H   0  0  0  0  0  0  0  0  0  0  0  0
    2.8757    2.2563   -0.0071 H   0  0  0  0  0  0  0  0  0  0  0  0
    2.9385    2.0718    1.7682 H   0  0  0  0  0  0  0  0  0  0  0  0
    4.8767    1.1566   -0.1423 H   0  0  0  0  0  0  0  0  0  0  0  0
    4.9310    1.0183    1.6928 H   0  0  0  0  0  0  0  0  0  0  0  0
    4.7779   -1.1190   -0.1173 H   0  0  0  0  0  0  0  0  0  0  0  0
    2.0955   -0.5945   -2.1291 H   0  0  0  0  0  0  0  0  0  0  0  0
    3.8454   -0.5983   -1.8502 H   0  0  0  0  0  0  0  0  0  0  0  0
    2.9170    0.8783   -1.5118 H   0  0  0  0  0  0  0  0  0  0  0  0
   -1.3271   -0.4781   -2.1490 H   0  0  0  0  0  0  0  0  0  0  0  0
   -1.4962   -2.0432   -1.2938 H   0  0  0  0  0  0  0  0  0  0  0  0
   -2.9617   -1.0743   -1.5149 H   0  0  0  0  0  0  0  0  0  0  0  0
   -4.4105   -1.5432    1.5893 H   0  0  0  0  0  0  0  0  0  0  0  0
   -4.0444   -2.0294   -0.0742 H   0  0  0  0  0  0  0  0  0  0  0  0
   -5.2993   -0.1015   -0.4089 H   0  0  0  0  0  0  0  0  0  0  0  0
   -3.4674    0.9005   -1.5610 H   0  0  0  0  0  0  0  0  0  0  0  0
   -3.8956    2.0699   -0.3027 H   0  0  0  0  0  0  0  0  0  0  0  0
   -2.2901    1.1911    1.2677 H   0  0  0  0  0  0  0  0  0  0  0  0
   -1.6702    3.0517   -0.0996 H   0  0  0  0  0  0  0  0  0  0  0  0
   -0.9333    1.9615   -1.3789 H   0  0  0  0  0  0  0  0  0  0  0  0
   -0.2222    1.9327    1.6027 H   0  0  0  0  0  0  0  0  0  0  0  0
    0.7404    2.7939    0.3199 H   0  0  0  0  0  0  0  0  0  0  0  0
    0.8831    0.7204   -0.9575 H   0  0  0  0  0  0  0  0  0  0  0  0
   -0.0820   -0.7354    1.5057 H   0  0  0  0  0  0  0  0  0  0  0  0
   -5.2342    1.6584    1.0220 H   0  0  0  0  0  0  0  0  0  0  0  0
    3.9118   -0.7464    2.5705 H   0  0  0  0  0  0  0  0  0  0  0  0
  1  2  1  0
  3  4  1  0
  4  5  1  0
  5  6  1  0
  6  7  1  0
  7  8  1  0
  5  9  1  0
  8  9  1  0
  5 10  1  6
  2 11  1  6
  1 12  1  0
 12 13  1  0
 13 14  1  0
  2 15  1  0
 14 15  1  0
 15 16  1  0
 16 17  1  0
  6 18  1  0
 17 18  1  0
  2 19  1  0
  3 19  1  0
 18 19  1  0
 13 20  1  0
  9 21  1  0
  1 22  1  0
  1 23  1  0
  3 24  1  0
  3 25  1  0
  4 26  1  0
  4 27  1  0
  6 28  1  1
  7 29  1  0
  7 30  1  0
  8 31  1  0
  8 32  1  0
  9 33  1  0
 10 34  1  0
 10 35  1  0
 10 36  1  0
 11 37  1  0
 11 38  1  0
 11 39  1  0
 12 40  1  0
 12 41  1  0
 13 42  1  0
 14 43  1  0
 14 44  1  0
 15 45  1  0
 16 46  1  0
 16 47  1  0
 17 48  1  0
 17 49  1  0
 18 50  1  6
 19 51  1  1
 20 52  1  0
 21 53  1  0
M  END
>  <PDBID>  (1) 
1QYX

>  <PDB ID>  (1) 
1QYX

>  <Generic Name>  (1) 
4-Androstenedione

>  <Brand Name>  (1) 
nan

>  <DrugBank ID>  (1) 
DB01536

>  <ATC Codes>  (1) 
nan

>  <Ligand ID>  (1) 
ASD

>  <Target Name>  (1) 
Estradiol 17-beta-dehydrogenase 1

>  <UniProt ID>  (1) 
P14061

>  <PDB ID.1>  (1) 
1QYX

>  <Seq. Identity>  (1) 
89%

$$$$
