PDB_DB06605_04
     RDKit          3D

 81 85  0  0  0  0  0  0  0  0999 V2000
   -5.9842    2.4933    0.0233 C   0  0  0  0  0  0  0  0  0  0  0  0
   -6.3523    1.0448   -0.2234 C   0  0  0  0  0  0  0  0  0  0  0  0
   -5.1459    0.3423   -0.7592 C   0  0  0  0  0  0  0  0  0  0  0  0
   -6.7053    3.3156   -0.8249 O   0  0  0  0  0  0  0  0  0  0  0  0
   -3.1983   -1.3621   -1.1770 N   0  0  0  0  0  0  0  0  0  0  0  0
    1.7062   -1.0458   -0.4052 C   0  0  0  0  0  0  0  0  0  0  0  0
   -0.5325   -0.2580   -0.0883 C   0  0  0  0  0  0  0  0  0  0  0  0
   -2.6740   -2.5669   -0.5786 C   0  0  2  0  0  0  0  0  0  0  0  0
   -3.8167   -3.5296   -0.3228 C   0  0  0  0  0  0  0  0  0  0  0  0
   -1.9465   -2.1876    0.6658 C   0  0  0  0  0  0  0  0  0  0  0  0
   -1.8242   -0.6846    0.5255 C   0  0  0  0  0  0  0  0  0  0  0  0
    3.1781    0.8749   -0.2582 C   0  0  0  0  0  0  0  0  0  0  0  0
   -7.5123    4.1483   -0.0794 C   0  0  0  0  0  0  0  0  0  0  0  0
    4.4351    0.1637   -0.6879 C   0  0  0  0  0  0  0  0  0  0  0  0
    6.8385    0.1147   -0.4694 C   0  0  0  0  0  0  0  0  0  0  0  0
    5.5523    1.6432    0.8868 C   0  0  0  0  0  0  0  0  0  0  0  0
    6.6541    2.6669    0.7526 C   0  0  0  0  0  0  0  0  0  0  0  0
    2.9171   -1.5899    0.2836 C   0  0  0  0  0  0  0  0  0  0  0  0
    0.3661   -1.9271    1.3910 C   0  0  0  0  0  0  0  0  0  0  0  0
   -4.0309    0.2702    0.2927 C   0  0  0  0  0  0  0  0  0  0  0  0
   -3.7664    1.6965    0.7344 C   0  0  0  0  0  0  0  0  0  0  0  0
   -4.4935    2.7018   -0.1268 C   0  0  0  0  0  0  0  0  0  0  0  0
   -2.8955   -0.3117   -0.3463 N   0  0  0  0  0  0  0  0  0  0  0  0
    0.6379   -0.7886    0.5702 N   0  0  0  0  0  0  0  0  0  0  0  0
    2.0416    0.2617   -1.0894 C   0  0  0  0  0  0  0  0  0  0  0  0
    5.6023    0.5878   -0.0312 N   0  0  0  0  0  0  0  0  0  0  0  0
    4.2073   -1.3158   -0.4609 C   0  0  0  0  0  0  0  0  0  0  0  0
   -0.5700   -0.4897   -1.4429 O   0  0  0  0  0  0  0  0  0  0  0  0
    7.9906    1.9944    0.5749 C   0  0  0  0  0  0  0  0  0  0  0  0
    7.3935   -0.8356    0.3971 O   0  0  0  0  0  0  0  0  0  0  0  0
    7.8964    1.1687   -0.6902 C   0  0  0  0  0  0  0  0  0  0  0  0
   -4.7194   -2.9299    0.5345 O   0  0  0  0  0  0  0  0  0  0  0  0
   -3.3155   -4.7278    0.3209 N   0  0  0  0  0  0  0  0  0  0  0  0
   -0.5703   -2.8412    0.6426 C   0  0  0  0  0  0  0  0  0  0  0  0
   -6.2443    2.7190    1.0601 H   0  0  0  0  0  0  0  0  0  0  0  0
   -7.1500    0.9960   -0.9641 H   0  0  0  0  0  0  0  0  0  0  0  0
   -6.6910    0.5389    0.6958 H   0  0  0  0  0  0  0  0  0  0  0  0
   -5.3434   -0.7055   -1.0569 H   0  0  0  0  0  0  0  0  0  0  0  0
   -4.7087    0.8544   -1.6356 H   0  0  0  0  0  0  0  0  0  0  0  0
   -2.8728   -1.2337   -2.1620 H   0  0  0  0  0  0  0  0  0  0  0  0
    1.2886   -1.7262   -1.1670 H   0  0  0  0  0  0  0  0  0  0  0  0
   -0.4756    0.8610    0.0415 H   0  0  0  0  0  0  0  0  0  0  0  0
   -2.0007   -3.0435   -1.3297 H   0  0  0  0  0  0  0  0  0  0  0  0
   -4.3311   -3.7643   -1.2847 H   0  0  0  0  0  0  0  0  0  0  0  0
   -2.5185   -2.4959    1.5481 H   0  0  0  0  0  0  0  0  0  0  0  0
   -1.9338   -0.2598    1.5548 H   0  0  0  0  0  0  0  0  0  0  0  0
    3.2201    1.9287   -0.5667 H   0  0  0  0  0  0  0  0  0  0  0  0
    2.9090    0.7055    0.7914 H   0  0  0  0  0  0  0  0  0  0  0  0
   -8.1191    4.8333   -0.7095 H   0  0  0  0  0  0  0  0  0  0  0  0
   -6.9208    4.8183    0.5992 H   0  0  0  0  0  0  0  0  0  0  0  0
   -8.2230    3.5975    0.5874 H   0  0  0  0  0  0  0  0  0  0  0  0
    4.5346    0.3009   -1.7838 H   0  0  0  0  0  0  0  0  0  0  0  0
    6.7175   -0.4085   -1.4572 H   0  0  0  0  0  0  0  0  0  0  0  0
    5.6618    1.2157    1.9268 H   0  0  0  0  0  0  0  0  0  0  0  0
    4.5960    2.2004    0.9029 H   0  0  0  0  0  0  0  0  0  0  0  0
    6.4621    3.3305   -0.1141 H   0  0  0  0  0  0  0  0  0  0  0  0
    6.6648    3.2811    1.6790 H   0  0  0  0  0  0  0  0  0  0  0  0
    2.8142   -2.7089    0.3027 H   0  0  0  0  0  0  0  0  0  0  0  0
    3.0342   -1.2581    1.3224 H   0  0  0  0  0  0  0  0  0  0  0  0
    1.3004   -2.4380    1.6610 H   0  0  0  0  0  0  0  0  0  0  0  0
   -0.1471   -1.6120    2.3114 H   0  0  0  0  0  0  0  0  0  0  0  0
   -4.4120   -0.2742    1.1653 H   0  0  0  0  0  0  0  0  0  0  0  0
   -4.1248    1.8736    1.7806 H   0  0  0  0  0  0  0  0  0  0  0  0
   -2.6868    1.9483    0.7361 H   0  0  0  0  0  0  0  0  0  0  0  0
   -4.1469    2.7509   -1.1579 H   0  0  0  0  0  0  0  0  0  0  0  0
   -4.2814    3.7081    0.3350 H   0  0  0  0  0  0  0  0  0  0  0  0
    2.4675    0.0517   -2.0855 H   0  0  0  0  0  0  0  0  0  0  0  0
    1.2135    0.9817   -1.0897 H   0  0  0  0  0  0  0  0  0  0  0  0
    4.2295   -1.9063   -1.3965 H   0  0  0  0  0  0  0  0  0  0  0  0
    5.0278   -1.7214    0.1753 H   0  0  0  0  0  0  0  0  0  0  0  0
   -1.0154    0.2900   -1.9035 H   0  0  0  0  0  0  0  0  0  0  0  0
    8.1983    1.3102    1.4239 H   0  0  0  0  0  0  0  0  0  0  0  0
    8.7810    2.7736    0.4978 H   0  0  0  0  0  0  0  0  0  0  0  0
    7.5065   -1.7216   -0.0272 H   0  0  0  0  0  0  0  0  0  0  0  0
    8.8569    0.6899   -0.9079 H   0  0  0  0  0  0  0  0  0  0  0  0
    7.5898    1.8890   -1.4976 H   0  0  0  0  0  0  0  0  0  0  0  0
   -5.6154   -2.8526    0.0952 H   0  0  0  0  0  0  0  0  0  0  0  0
   -2.9979   -4.4579    1.2764 H   0  0  0  0  0  0  0  0  0  0  0  0
   -2.5505   -5.1575   -0.2445 H   0  0  0  0  0  0  0  0  0  0  0  0
   -0.6648   -3.8374    1.0985 H   0  0  0  0  0  0  0  0  0  0  0  0
   -0.2618   -2.9620   -0.4263 H   0  0  0  0  0  0  0  0  0  0  0  0
  1  2  1  0
  2  3  1  0
  1  4  1  0
  5  8  1  0
  8  9  1  0
  8 10  1  0
  7 11  1  0
 10 11  1  0
  4 13  1  0
 12 14  1  0
 16 17  1  0
  6 18  1  0
  3 20  1  0
 20 21  1  0
  1 22  1  0
 21 22  1  0
  5 23  1  0
 11 23  1  0
 20 23  1  0
  6 24  1  0
  7 24  1  0
 19 24  1  0
  6 25  1  0
 12 25  1  0
 14 26  1  0
 15 26  1  0
 16 26  1  0
 14 27  1  0
 18 27  1  0
  7 28  1  0
 17 29  1  0
 15 30  1  0
 15 31  1  0
 29 31  1  0
  9 32  1  0
  9 33  1  0
 10 34  1  0
 19 34  1  0
  1 35  1  0
  2 36  1  0
  2 37  1  0
  3 38  1  0
  3 39  1  0
  5 40  1  0
  6 41  1  0
  7 42  1  0
  8 43  1  6
  9 44  1  0
 10 45  1  0
 11 46  1  0
 12 47  1  0
 12 48  1  0
 13 49  1  0
 13 50  1  0
 13 51  1  0
 14 52  1  0
 15 53  1  0
 16 54  1  0
 16 55  1  0
 17 56  1  0
 17 57  1  0
 18 58  1  0
 18 59  1  0
 19 60  1  0
 19 61  1  0
 20 62  1  0
 21 63  1  0
 21 64  1  0
 22 65  1  0
 22 66  1  0
 25 67  1  0
 25 68  1  0
 27 69  1  0
 27 70  1  0
 28 71  1  0
 29 72  1  0
 29 73  1  0
 30 74  1  0
 31 75  1  0
 31 76  1  0
 32 77  1  0
 33 78  1  0
 33 79  1  0
 34 80  1  0
 34 81  1  0
M  END
>  <PDBID>  (1) 
2P16

>  <PDB ID>  (1) 
2P16

>  <Generic Name>  (1) 
Apixaban

>  <Brand Name>  (1) 
Eliquis

>  <DrugBank ID>  (1) 
DB06605

>  <ATC Codes>  (1) 
B01AF02

>  <Ligand ID>  (1) 
GG2

>  <Target Name>  (1) 
Coagulation factor X

>  <UniProt ID>  (1) 
P00742

>  <PDB ID.1>  (1) 
2P16

>  <Seq. Identity>  (1) 
100%

$$$$
