PDB_DB00615_04
     RDKit          3D

294304  0  0  0  0  0  0  0  0999 V2000
    3.0454   -0.2870   -3.0561 C   0  0  0  0  0  0  0  0  0  0  0  0
    2.6178   -1.0926   -1.8057 C   0  0  0  0  0  0  0  0  0  0  0  0
    3.3261   -0.4203   -0.7328 C   0  0  0  0  0  0  0  0  0  0  0  0
    2.5164    0.8447   -0.3919 C   0  0  2  0  0  0  0  0  0  0  0  0
    1.1713    2.5438   -1.4670 C   0  0  0  0  0  0  0  0  0  0  0  0
    1.3528    3.7331   -2.4242 C   0  0  0  0  0  0  0  0  0  0  0  0
    1.8227    3.3128   -3.7698 C   0  0  0  0  0  0  0  0  0  0  0  0
    2.4716    2.0139   -3.9547 C   0  0  0  0  0  0  0  0  0  0  0  0
    2.2479    0.9944   -2.9140 C   0  0  0  0  0  0  0  0  0  0  0  0
    2.3518    1.6664   -1.5827 C   0  0  0  0  0  0  0  0  0  0  0  0
   -0.0969    2.0658   -2.1673 C   0  0  2  0  0  0  0  0  0  0  0  0
   -0.8582    3.3941   -1.9772 C   0  0  2  0  0  0  0  0  0  0  0  0
   -1.9524    3.4773   -3.0239 C   0  0  0  0  0  0  0  0  0  0  0  0
    2.8078    4.4020   -4.2394 C   0  0  0  0  0  0  0  0  0  0  0  0
    1.6864   -3.0723   -1.0130 C   0  0  0  0  0  0  0  0  0  0  0  0
    1.2322   -4.4372   -1.3683 C   0  0  0  0  0  0  0  0  0  0  0  0
   -0.2860   -4.6145   -1.2960 C   0  0  0  0  0  0  0  0  0  0  0  0
   -0.9021   -4.1305   -0.0290 C   0  0  0  0  0  0  0  0  0  0  0  0
   -2.0908   -3.1816   -0.2714 C   0  0  0  0  0  0  0  0  0  0  0  0
   -3.3432   -3.8682    0.2273 C   0  0  1  0  0  0  0  0  0  0  0  0
   -4.5201   -3.0632    0.4845 C   0  0  1  0  0  0  0  0  0  0  0  0
   -4.6674   -1.7149   -0.1659 C   0  0  2  0  0  0  0  0  0  0  0  0
   -5.9701   -1.0671    0.0047 C   0  0  2  0  0  0  0  0  0  0  0  0
   -6.2505   -0.0192    0.9651 C   0  0  2  0  0  0  0  0  0  0  0  0
   -5.2349    1.0406    1.2799 C   0  0  1  0  0  0  0  0  0  0  0  0
   -5.5072    2.2963    0.5436 C   0  0  1  0  0  0  0  0  0  0  0  0
   -4.6767    3.4818    0.7346 C   0  0  2  0  0  0  0  0  0  0  0  0
   -3.1915    3.3404    0.8183 C   0  0  0  0  0  0  0  0  0  0  0  0
   -2.5478    2.9430   -0.5191 C   0  0  0  0  0  0  0  0  0  0  0  0
    1.8274   -5.5053   -0.4762 C   0  0  0  0  0  0  0  0  0  0  0  0
   -3.5170   -5.0869   -0.6624 C   0  0  0  0  0  0  0  0  0  0  0  0
   -4.4655   -1.9636   -1.6735 C   0  0  0  0  0  0  0  0  0  0  0  0
   -6.8352   -0.6537    2.2323 C   0  0  0  0  0  0  0  0  0  0  0  0
   -5.6580    2.0044   -0.9473 C   0  0  0  0  0  0  0  0  0  0  0  0
   -4.0779    0.8039    3.3221 C   0  0  0  0  0  0  0  0  0  0  0  0
   -4.2623   -0.4075    4.2529 C   0  0  0  0  0  0  0  0  0  0  0  0
   -5.4735    5.5272    1.3034 C   0  0  0  0  0  0  0  0  0  0  0  0
    4.0041    0.1989    1.2531 C   0  0  0  0  0  0  0  0  0  0  0  0
    3.8967    0.0888    2.7283 C   0  0  0  0  0  0  0  0  0  0  0  0
    5.4235    0.3346    0.7668 C   0  0  0  0  0  0  0  0  0  0  0  0
    5.0152   -0.7145    3.3386 C   0  0  0  0  0  0  0  0  0  0  0  0
    6.2877    0.7349    1.9721 C   0  0  0  0  0  0  0  0  0  0  0  0
    7.3510   -0.4308    3.8119 C   0  0  0  0  0  0  0  0  0  0  0  0
    8.7060   -0.0837    3.2633 C   0  0  0  0  0  0  0  0  0  0  0  0
    9.7328   -0.1610    4.4017 C   0  0  0  0  0  0  0  0  0  0  0  0
    9.1711   -1.0384    2.2028 C   0  0  0  0  0  0  0  0  0  0  0  0
    2.6816   -2.4972   -1.9364 N   0  0  0  0  0  0  0  0  0  0  0  0
    3.4489   -0.9823    0.5549 N   0  0  0  0  0  0  0  0  0  0  0  0
    3.2645    1.3401    0.7012 N   0  0  0  0  0  0  0  0  0  0  0  0
    6.3096   -0.3937    2.8428 N   0  0  0  0  0  0  0  0  0  0  0  0
    4.3987   -0.0002   -3.0038 O   0  0  0  0  0  0  0  0  0  0  0  0
    2.0435    1.4656   -5.1868 O   0  0  0  0  0  0  0  0  0  0  0  0
    0.1114    4.3095   -2.3589 O   0  0  0  0  0  0  0  0  0  0  0  0
   -0.6770    0.9795   -1.6520 O   0  0  0  0  0  0  0  0  0  0  0  0
   -1.3353    3.5468   -0.7116 O   0  0  0  0  0  0  0  0  0  0  0  0
   -5.0806    4.2921    1.7910 O   0  0  0  0  0  0  0  0  0  0  0  0
   -5.1788    1.1444    2.6432 O   0  0  0  0  0  0  0  0  0  0  0  0
   -3.4910    1.7792    4.1032 O   0  0  0  0  0  0  0  0  0  0  0  0
   -6.9386   -2.0864    0.2430 O   0  0  0  0  0  0  0  0  0  0  0  0
   -5.6760   -3.8317    0.2078 O   0  0  0  0  0  0  0  0  0  0  0  0
    0.5124   -2.2820   -0.9870 O   0  0  0  0  0  0  0  0  0  0  0  0
    0.9414   -0.3292    1.7607 C   0  0  0  0  0  0  0  0  0  0  0  0
    1.2085   -0.9805    0.4609 C   0  0  0  0  0  0  0  0  0  0  0  0
    2.1959   -0.3793   -0.4427 C   0  0  1  0  0  0  0  0  0  0  0  0
    3.1606    0.5225    0.3027 C   0  0  2  0  0  0  0  0  0  0  0  0
    1.2568    2.1661    0.2483 C   0  0  0  0  0  0  0  0  0  0  0  0
    0.3936    2.9978    1.1840 C   0  0  0  0  0  0  0  0  0  0  0  0
    1.0586    3.1768    2.5380 C   0  0  0  0  0  0  0  0  0  0  0  0
    1.1381    1.7598    3.1229 C   0  0  0  0  0  0  0  0  0  0  0  0
    1.7810    0.8145    2.1736 C   0  0  0  0  0  0  0  0  0  0  0  0
    2.4043    1.5712    0.9821 C   0  0  1  0  0  0  0  0  0  0  0  0
    1.6491    3.2013   -0.7769 C   0  0  0  0  0  0  0  0  0  0  0  0
    0.4096    4.0763   -0.7851 C   0  0  2  0  0  0  0  0  0  0  0  0
    0.8079    5.4244   -1.3464 C   0  0  0  0  0  0  0  0  0  0  0  0
    0.1059    3.9987    3.3880 C   0  0  0  0  0  0  0  0  0  0  0  0
    0.6096   -3.2523   -0.1066 C   0  0  0  0  0  0  0  0  0  0  0  0
    0.4336   -4.6277    0.4356 C   0  0  0  0  0  0  0  0  0  0  0  0
   -0.9354   -5.1696    0.0528 C   0  0  0  0  0  0  0  0  0  0  0  0
   -2.0293   -4.7309    0.9738 C   0  0  0  0  0  0  0  0  0  0  0  0
   -2.9450   -3.6949    0.3704 C   0  0  0  0  0  0  0  0  0  0  0  0
   -4.3524   -4.1788    0.4331 C   0  0  1  0  0  0  0  0  0  0  0  0
   -5.3054   -3.4736   -0.4974 C   0  0  1  0  0  0  0  0  0  0  0  0
   -4.7267   -2.2205   -1.1028 C   0  0  2  0  0  0  0  0  0  0  0  0
   -5.7222   -1.1666   -1.3901 C   0  0  2  0  0  0  0  0  0  0  0  0
   -5.9305   -0.1155   -0.3664 C   0  0  2  0  0  0  0  0  0  0  0  0
   -4.6868    0.6981   -0.0386 C   0  0  1  0  0  0  0  0  0  0  0  0
   -4.4691    1.6199   -1.2113 C   0  0  1  0  0  0  0  0  0  0  0  0
   -4.0517    3.0085   -0.8623 C   0  0  2  0  0  0  0  0  0  0  0  0
   -2.6127    3.1582   -0.5185 C   0  0  0  0  0  0  0  0  0  0  0  0
   -1.8052    3.9928   -1.4816 C   0  0  0  0  0  0  0  0  0  0  0  0
    0.7461   -4.7815    1.8868 C   0  0  0  0  0  0  0  0  0  0  0  0
   -4.4010   -5.6604    0.1046 C   0  0  0  0  0  0  0  0  0  0  0  0
   -4.1053   -2.6358   -2.4456 C   0  0  0  0  0  0  0  0  0  0  0  0
   -6.6453   -0.5981    0.8774 C   0  0  0  0  0  0  0  0  0  0  0  0
   -3.4068    1.0432   -2.1585 C   0  0  0  0  0  0  0  0  0  0  0  0
   -4.1178    1.1722    2.1588 C   0  0  0  0  0  0  0  0  0  0  0  0
   -4.7859    0.5234    3.3442 C   0  0  0  0  0  0  0  0  0  0  0  0
   -5.6614    4.5222   -0.2514 C   0  0  0  0  0  0  0  0  0  0  0  0
    4.4188   -0.5362   -1.1515 C   0  0  0  0  0  0  0  0  0  0  0  0
    5.3718   -1.1791   -0.1718 C   0  0  0  0  0  0  0  0  0  0  0  0
    5.0194   -0.5671   -2.5070 C   0  0  0  0  0  0  0  0  0  0  0  0
    6.5821   -1.7603   -0.8928 C   0  0  0  0  0  0  0  0  0  0  0  0
    6.4154    0.0306   -2.4031 C   0  0  0  0  0  0  0  0  0  0  0  0
    8.0872   -0.0028   -0.6633 C   0  0  0  0  0  0  0  0  0  0  0  0
    8.9118    1.1112   -1.2082 C   0  0  0  0  0  0  0  0  0  0  0  0
    9.6549    1.7312   -0.0133 C   0  0  0  0  0  0  0  0  0  0  0  0
    9.9693    0.6680   -2.1745 C   0  0  0  0  0  0  0  0  0  0  0  0
    1.5213   -2.4123    0.6100 N   0  0  0  0  0  0  0  0  0  0  0  0
    3.1619   -1.2872   -1.0516 N   0  0  0  0  0  0  0  0  0  0  0  0
    4.0854    0.8356   -0.7154 N   0  0  0  0  0  0  0  0  0  0  0  0
    7.3078   -0.7238   -1.6040 N   0  0  0  0  0  0  0  0  0  0  0  0
    1.0708   -1.3200    2.7664 O   0  0  0  0  0  0  0  0  0  0  0  0
    1.8032    1.8508    4.3517 O   0  0  0  0  0  0  0  0  0  0  0  0
    0.0965    4.1674    0.5478 O   0  0  0  0  0  0  0  0  0  0  0  0
    2.7393    3.9192   -0.3482 O   0  0  0  0  0  0  0  0  0  0  0  0
   -0.5391    3.4432   -1.5638 O   0  0  0  0  0  0  0  0  0  0  0  0
   -4.8734    3.4713    0.1544 O   0  0  0  0  0  0  0  0  0  0  0  0
   -4.9628    1.3960    1.0975 O   0  0  0  0  0  0  0  0  0  0  0  0
   -3.4349    2.2896    2.6133 O   0  0  0  0  0  0  0  0  0  0  0  0
   -6.9726   -1.8011   -1.5730 O   0  0  0  0  0  0  0  0  0  0  0  0
   -5.6905   -4.3135   -1.5413 O   0  0  0  0  0  0  0  0  0  0  0  0
    0.8753   -3.2723   -1.4952 O   0  0  0  0  0  0  0  0  0  0  0  0
    2.7287   -0.7807   -3.9729 H   0  0  0  0  0  0  0  0  0  0  0  0
    1.5095   -0.8695   -1.7132 H   0  0  0  0  0  0  0  0  0  0  0  0
    4.3669   -0.1117   -1.0517 H   0  0  0  0  0  0  0  0  0  0  0  0
    1.5082    0.4395   -0.0805 H   0  0  0  0  0  0  0  0  0  0  0  0
    0.9265    2.9144   -0.4807 H   0  0  0  0  0  0  0  0  0  0  0  0
    2.0732    4.4078   -1.8855 H   0  0  0  0  0  0  0  0  0  0  0  0
    0.9506    3.4387   -4.4789 H   0  0  0  0  0  0  0  0  0  0  0  0
    3.5902    2.1197   -4.0854 H   0  0  0  0  0  0  0  0  0  0  0  0
    1.2024    0.5471   -2.9403 H   0  0  0  0  0  0  0  0  0  0  0  0
    3.2547    2.3475   -1.6598 H   0  0  0  0  0  0  0  0  0  0  0  0
    0.0081    2.0880   -3.2939 H   0  0  0  0  0  0  0  0  0  0  0  0
   -2.5593    4.3818   -2.8206 H   0  0  0  0  0  0  0  0  0  0  0  0
   -2.5661    2.5397   -3.0710 H   0  0  0  0  0  0  0  0  0  0  0  0
   -1.5298    3.5975   -4.0446 H   0  0  0  0  0  0  0  0  0  0  0  0
    2.5762    5.3629   -3.7566 H   0  0  0  0  0  0  0  0  0  0  0  0
    2.8518    4.4492   -5.3426 H   0  0  0  0  0  0  0  0  0  0  0  0
    3.7987    4.0782   -3.8530 H   0  0  0  0  0  0  0  0  0  0  0  0
    2.1083   -3.1048    0.0274 H   0  0  0  0  0  0  0  0  0  0  0  0
    1.5058   -4.6270   -2.4346 H   0  0  0  0  0  0  0  0  0  0  0  0
   -0.4396   -5.7218   -1.4696 H   0  0  0  0  0  0  0  0  0  0  0  0
   -0.7837   -4.1475   -2.1965 H   0  0  0  0  0  0  0  0  0  0  0  0
   -1.2729   -5.0556    0.5102 H   0  0  0  0  0  0  0  0  0  0  0  0
   -0.1868   -3.6999    0.7070 H   0  0  0  0  0  0  0  0  0  0  0  0
   -1.9419   -2.2760    0.3260 H   0  0  0  0  0  0  0  0  0  0  0  0
   -2.0987   -3.0190   -1.3587 H   0  0  0  0  0  0  0  0  0  0  0  0
   -2.9908   -4.3229    1.2116 H   0  0  0  0  0  0  0  0  0  0  0  0
   -4.5945   -2.8502    1.5936 H   0  0  0  0  0  0  0  0  0  0  0  0
   -3.7719   -1.1341    0.1445 H   0  0  0  0  0  0  0  0  0  0  0  0
   -6.3264   -0.7125   -1.0173 H   0  0  0  0  0  0  0  0  0  0  0  0
   -7.1435    0.5692    0.5672 H   0  0  0  0  0  0  0  0  0  0  0  0
   -4.2484    0.6628    0.9454 H   0  0  0  0  0  0  0  0  0  0  0  0
   -6.5593    2.6069    0.8457 H   0  0  0  0  0  0  0  0  0  0  0  0
   -4.8167    4.1410   -0.1737 H   0  0  0  0  0  0  0  0  0  0  0  0
   -2.8053    4.3956    0.9797 H   0  0  0  0  0  0  0  0  0  0  0  0
   -2.7914    2.7638    1.6450 H   0  0  0  0  0  0  0  0  0  0  0  0
   -2.4471    1.8245   -0.4330 H   0  0  0  0  0  0  0  0  0  0  0  0
   -3.2498    3.2498   -1.2877 H   0  0  0  0  0  0  0  0  0  0  0  0
    1.8863   -5.0615    0.5453 H   0  0  0  0  0  0  0  0  0  0  0  0
    1.1687   -6.4000   -0.4068 H   0  0  0  0  0  0  0  0  0  0  0  0
    2.8096   -5.8453   -0.8487 H   0  0  0  0  0  0  0  0  0  0  0  0
   -3.0386   -4.9409   -1.6717 H   0  0  0  0  0  0  0  0  0  0  0  0
   -2.9652   -5.9907   -0.2654 H   0  0  0  0  0  0  0  0  0  0  0  0
   -4.5392   -5.4104   -0.8131 H   0  0  0  0  0  0  0  0  0  0  0  0
   -4.4229   -3.0198   -1.9290 H   0  0  0  0  0  0  0  0  0  0  0  0
   -5.3606   -1.5824   -2.2589 H   0  0  0  0  0  0  0  0  0  0  0  0
   -3.6337   -1.3397   -2.0804 H   0  0  0  0  0  0  0  0  0  0  0  0
   -6.9275    0.0974    3.0582 H   0  0  0  0  0  0  0  0  0  0  0  0
   -6.3537   -1.5801    2.5228 H   0  0  0  0  0  0  0  0  0  0  0  0
   -7.9193   -0.9310    2.0521 H   0  0  0  0  0  0  0  0  0  0  0  0
   -5.6177    2.9846   -1.5118 H   0  0  0  0  0  0  0  0  0  0  0  0
   -4.8640    1.3837   -1.3501 H   0  0  0  0  0  0  0  0  0  0  0  0
   -6.7002    1.6409   -1.1839 H   0  0  0  0  0  0  0  0  0  0  0  0
   -3.3010    0.4528    2.6004 H   0  0  0  0  0  0  0  0  0  0  0  0
   -4.2733   -1.3534    3.6878 H   0  0  0  0  0  0  0  0  0  0  0  0
   -5.2570   -0.2957    4.7307 H   0  0  0  0  0  0  0  0  0  0  0  0
   -3.5260   -0.4035    5.0806 H   0  0  0  0  0  0  0  0  0  0  0  0
   -5.8019    6.2073    2.1061 H   0  0  0  0  0  0  0  0  0  0  0  0
   -6.3023    5.3348    0.5629 H   0  0  0  0  0  0  0  0  0  0  0  0
   -4.6543    6.0545    0.7498 H   0  0  0  0  0  0  0  0  0  0  0  0
    2.9461   -0.4101    3.0364 H   0  0  0  0  0  0  0  0  0  0  0  0
    3.9338    1.1042    3.1765 H   0  0  0  0  0  0  0  0  0  0  0  0
    5.8008   -0.5956    0.3127 H   0  0  0  0  0  0  0  0  0  0  0  0
    5.5576    1.1546    0.0343 H   0  0  0  0  0  0  0  0  0  0  0  0
    4.8211   -1.7970    3.0832 H   0  0  0  0  0  0  0  0  0  0  0  0
    4.9725   -0.6182    4.4366 H   0  0  0  0  0  0  0  0  0  0  0  0
    7.2601    1.0012    1.5586 H   0  0  0  0  0  0  0  0  0  0  0  0
    5.8368    1.6431    2.4164 H   0  0  0  0  0  0  0  0  0  0  0  0
    7.1664    0.1696    4.7275 H   0  0  0  0  0  0  0  0  0  0  0  0
    7.4334   -1.5048    4.1561 H   0  0  0  0  0  0  0  0  0  0  0  0
    8.7580    0.9914    2.9327 H   0  0  0  0  0  0  0  0  0  0  0  0
    9.2991    0.0976    5.3682 H   0  0  0  0  0  0  0  0  0  0  0  0
   10.5943    0.4967    4.1390 H   0  0  0  0  0  0  0  0  0  0  0  0
   10.1598   -1.1963    4.4293 H   0  0  0  0  0  0  0  0  0  0  0  0
    9.5411   -0.5040    1.2881 H   0  0  0  0  0  0  0  0  0  0  0  0
    8.3742   -1.7664    1.9776 H   0  0  0  0  0  0  0  0  0  0  0  0
   10.0554   -1.6597    2.5324 H   0  0  0  0  0  0  0  0  0  0  0  0
    3.6076   -2.8975   -1.6621 H   0  0  0  0  0  0  0  0  0  0  0  0
    4.1633   -1.7457    0.6311 H   0  0  0  0  0  0  0  0  0  0  0  0
    2.5840    1.6128    1.4728 H   0  0  0  0  0  0  0  0  0  0  0  0
    4.9282   -0.6431   -3.5055 H   0  0  0  0  0  0  0  0  0  0  0  0
    2.7023    0.8077   -5.5364 H   0  0  0  0  0  0  0  0  0  0  0  0
   -1.1045    0.3831   -2.3006 H   0  0  0  0  0  0  0  0  0  0  0  0
   -4.1318    2.3184    4.6331 H   0  0  0  0  0  0  0  0  0  0  0  0
   -7.8516   -1.7182    0.1444 H   0  0  0  0  0  0  0  0  0  0  0  0
   -5.8609   -3.8776   -0.7670 H   0  0  0  0  0  0  0  0  0  0  0  0
    0.1371   -2.3535   -1.9226 H   0  0  0  0  0  0  0  0  0  0  0  0
   -0.1345    0.0025    1.8813 H   0  0  0  0  0  0  0  0  0  0  0  0
    0.2229   -0.9798   -0.1034 H   0  0  0  0  0  0  0  0  0  0  0  0
    1.7428    0.1663   -1.3230 H   0  0  0  0  0  0  0  0  0  0  0  0
    3.6811   -0.1427    1.0377 H   0  0  0  0  0  0  0  0  0  0  0  0
    0.6088    1.3829   -0.1541 H   0  0  0  0  0  0  0  0  0  0  0  0
   -0.5778    2.4714    1.4189 H   0  0  0  0  0  0  0  0  0  0  0  0
    2.0253    3.6687    2.4943 H   0  0  0  0  0  0  0  0  0  0  0  0
    0.1021    1.4391    3.3183 H   0  0  0  0  0  0  0  0  0  0  0  0
    2.6885    0.3936    2.7024 H   0  0  0  0  0  0  0  0  0  0  0  0
    3.0953    2.3253    1.3984 H   0  0  0  0  0  0  0  0  0  0  0  0
    1.7790    2.7580   -1.7917 H   0  0  0  0  0  0  0  0  0  0  0  0
    0.4454    6.2143   -0.6455 H   0  0  0  0  0  0  0  0  0  0  0  0
    0.4596    5.5848   -2.3789 H   0  0  0  0  0  0  0  0  0  0  0  0
    1.9149    5.5353   -1.3643 H   0  0  0  0  0  0  0  0  0  0  0  0
   -0.8459    3.3944    3.4477 H   0  0  0  0  0  0  0  0  0  0  0  0
    0.5132    4.2064    4.3818 H   0  0  0  0  0  0  0  0  0  0  0  0
   -0.1551    4.8978    2.7990 H   0  0  0  0  0  0  0  0  0  0  0  0
   -0.3975   -2.7446   -0.0323 H   0  0  0  0  0  0  0  0  0  0  0  0
    1.1652   -5.2880   -0.1184 H   0  0  0  0  0  0  0  0  0  0  0  0
   -0.8785   -6.2889   -0.0612 H   0  0  0  0  0  0  0  0  0  0  0  0
   -1.1643   -4.7693   -0.9613 H   0  0  0  0  0  0  0  0  0  0  0  0
   -2.5765   -5.6584    1.2936 H   0  0  0  0  0  0  0  0  0  0  0  0
   -1.5369   -4.3792    1.9151 H   0  0  0  0  0  0  0  0  0  0  0  0
   -2.8717   -2.7969    1.0448 H   0  0  0  0  0  0  0  0  0  0  0  0
   -2.5894   -3.4826   -0.6546 H   0  0  0  0  0  0  0  0  0  0  0  0
   -4.6805   -4.0910    1.5089 H   0  0  0  0  0  0  0  0  0  0  0  0
   -6.2351   -3.2799    0.0928 H   0  0  0  0  0  0  0  0  0  0  0  0
   -3.8812   -1.9138   -0.4761 H   0  0  0  0  0  0  0  0  0  0  0  0
   -5.5304   -0.6557   -2.3756 H   0  0  0  0  0  0  0  0  0  0  0  0
   -6.6419    0.6344   -0.8296 H   0  0  0  0  0  0  0  0  0  0  0  0
   -3.7919    0.0499    0.0397 H   0  0  0  0  0  0  0  0  0  0  0  0
   -5.3880    1.6975   -1.8479 H   0  0  0  0  0  0  0  0  0  0  0  0
   -4.2678    3.6414   -1.7601 H   0  0  0  0  0  0  0  0  0  0  0  0
   -2.4880    3.6801    0.4771 H   0  0  0  0  0  0  0  0  0  0  0  0
   -2.1556    2.1586   -0.3597 H   0  0  0  0  0  0  0  0  0  0  0  0
   -2.3228    4.1109   -2.4502 H   0  0  0  0  0  0  0  0  0  0  0  0
   -1.6824    5.0478   -1.0991 H   0  0  0  0  0  0  0  0  0  0  0  0
    0.3603   -3.9574    2.5213 H   0  0  0  0  0  0  0  0  0  0  0  0
    0.4177   -5.7698    2.2504 H   0  0  0  0  0  0  0  0  0  0  0  0
    1.8696   -4.7210    1.9837 H   0  0  0  0  0  0  0  0  0  0  0  0
   -3.5323   -6.0083   -0.4687 H   0  0  0  0  0  0  0  0  0  0  0  0
   -4.4892   -6.2929    1.0098 H   0  0  0  0  0  0  0  0  0  0  0  0
   -5.2964   -5.9060   -0.5131 H   0  0  0  0  0  0  0  0  0  0  0  0
   -4.0435   -3.7284   -2.5461 H   0  0  0  0  0  0  0  0  0  0  0  0
   -4.7484   -2.2868   -3.2995 H   0  0  0  0  0  0  0  0  0  0  0  0
   -3.1276   -2.1619   -2.5832 H   0  0  0  0  0  0  0  0  0  0  0  0
   -6.9711    0.3053    1.4555 H   0  0  0  0  0  0  0  0  0  0  0  0
   -6.0811   -1.3211    1.4615 H   0  0  0  0  0  0  0  0  0  0  0  0
   -7.6169   -1.0344    0.4996 H   0  0  0  0  0  0  0  0  0  0  0  0
   -3.0714    0.0766   -1.7257 H   0  0  0  0  0  0  0  0  0  0  0  0
   -3.8053    0.8163   -3.1568 H   0  0  0  0  0  0  0  0  0  0  0  0
   -2.5614    1.7427   -2.3100 H   0  0  0  0  0  0  0  0  0  0  0  0
   -3.3467    0.4349    1.8216 H   0  0  0  0  0  0  0  0  0  0  0  0
   -4.7310   -0.6013    3.2990 H   0  0  0  0  0  0  0  0  0  0  0  0
   -5.8021    0.8917    3.5378 H   0  0  0  0  0  0  0  0  0  0  0  0
   -4.1799    0.7786    4.2392 H   0  0  0  0  0  0  0  0  0  0  0  0
   -5.0001    5.3495   -0.5773 H   0  0  0  0  0  0  0  0  0  0  0  0
   -6.3087    4.8174    0.6113 H   0  0  0  0  0  0  0  0  0  0  0  0
   -6.3316    4.2626   -1.1036 H   0  0  0  0  0  0  0  0  0  0  0  0
    4.9199   -2.0213    0.3885 H   0  0  0  0  0  0  0  0  0  0  0  0
    5.6578   -0.4223    0.5725 H   0  0  0  0  0  0  0  0  0  0  0  0
    5.0097   -1.5785   -2.9042 H   0  0  0  0  0  0  0  0  0  0  0  0
    4.4750    0.0793   -3.2468 H   0  0  0  0  0  0  0  0  0  0  0  0
    6.2357   -2.5711   -1.5297 H   0  0  0  0  0  0  0  0  0  0  0  0
    7.2251   -2.1972   -0.0825 H   0  0  0  0  0  0  0  0  0  0  0  0
    6.8127    0.0223   -3.4589 H   0  0  0  0  0  0  0  0  0  0  0  0
    6.2803    1.0791   -2.0951 H   0  0  0  0  0  0  0  0  0  0  0  0
    7.4722    0.4203    0.1777 H   0  0  0  0  0  0  0  0  0  0  0  0
    8.7808   -0.7235   -0.1668 H   0  0  0  0  0  0  0  0  0  0  0  0
    8.3385    1.9327   -1.6531 H   0  0  0  0  0  0  0  0  0  0  0  0
    9.0215    1.5976    0.8913 H   0  0  0  0  0  0  0  0  0  0  0  0
    9.8429    2.7956   -0.1535 H   0  0  0  0  0  0  0  0  0  0  0  0
   10.5898    1.1329    0.1682 H   0  0  0  0  0  0  0  0  0  0  0  0
   10.7151    1.5081   -2.2407 H   0  0  0  0  0  0  0  0  0  0  0  0
    9.6123    0.5071   -3.1974 H   0  0  0  0  0  0  0  0  0  0  0  0
   10.5393   -0.1964   -1.7680 H   0  0  0  0  0  0  0  0  0  0  0  0
    2.4897   -2.6034    0.2379 H   0  0  0  0  0  0  0  0  0  0  0  0
    2.9115   -1.5140   -2.0453 H   0  0  0  0  0  0  0  0  0  0  0  0
    4.9603    1.3038   -0.4169 H   0  0  0  0  0  0  0  0  0  0  0  0
    2.0376   -1.2928    3.0117 H   0  0  0  0  0  0  0  0  0  0  0  0
    2.7209    2.2204    4.2274 H   0  0  0  0  0  0  0  0  0  0  0  0
    3.4607    3.8087   -1.0172 H   0  0  0  0  0  0  0  0  0  0  0  0
   -4.0201    3.0667    2.7844 H   0  0  0  0  0  0  0  0  0  0  0  0
   -7.5717   -1.1895   -2.0813 H   0  0  0  0  0  0  0  0  0  0  0  0
   -6.6144   -4.6419   -1.4492 H   0  0  0  0  0  0  0  0  0  0  0  0
    0.6200   -2.3907   -1.9037 H   0  0  0  0  0  0  0  0  0  0  0  0
  1  2  1  0
  2  3  1  0
  3  4  1  0
  5  6  1  0
  6  7  1  0
  7  8  1  0
  1  9  1  0
  8  9  1  0
  4 10  1  0
  5 10  1  0
  9 10  1  0
  5 11  1  0
 11 12  1  0
 12 13  1  6
  7 14  1  0
 15 16  1  0
 16 17  1  0
 17 18  1  0
 18 19  1  0
 19 20  1  0
 20 21  1  0
 21 22  1  0
 22 23  1  0
 23 24  1  0
 24 25  1  0
 25 26  1  0
 26 27  1  0
 27 28  1  0
 28 29  1  0
 16 30  1  0
 20 31  1  0
 22 32  1  0
 24 33  1  0
 26 34  1  0
 35 36  1  0
 38 39  1  0
 38 40  1  0
 39 41  1  0
 40 42  1  0
 43 44  1  0
 44 45  1  0
 44 46  1  0
  2 47  1  0
 15 47  1  0
  3 48  1  0
 38 48  1  0
  4 49  1  0
 38 49  1  0
 41 50  1  0
 42 50  1  0
 43 50  1  0
  1 51  1  0
  8 52  1  0
  6 53  1  0
 12 53  1  0
 11 54  1  0
 12 55  1  0
 29 55  1  0
 27 56  1  0
 37 56  1  0
 25 57  1  0
 35 57  1  0
 35 58  1  0
 23 59  1  0
 21 60  1  0
 15 61  1  0
 62 63  1  0
 63 64  1  0
 64 65  1  0
 66 67  1  0
 67 68  1  0
 68 69  1  0
 62 70  1  0
 69 70  1  0
 65 71  1  0
 66 71  1  0
 70 71  1  0
 66 72  1  0
 72 73  1  0
 73 74  1  6
 68 75  1  0
 76 77  1  0
 77 78  1  0
 78 79  1  0
 79 80  1  0
 80 81  1  0
 81 82  1  0
 82 83  1  0
 83 84  1  0
 84 85  1  0
 85 86  1  0
 86 87  1  0
 87 88  1  0
 88 89  1  0
 89 90  1  0
 77 91  1  0
 81 92  1  0
 83 93  1  0
 85 94  1  0
 87 95  1  0
 96 97  1  0
 99100  1  0
 99101  1  0
100102  1  0
101103  1  0
104105  1  0
105106  1  0
105107  1  0
 63108  1  0
 76108  1  0
 64109  1  0
 99109  1  0
 65110  1  0
 99110  1  0
102111  1  0
103111  1  0
104111  1  0
 62112  1  0
 69113  1  0
 67114  1  0
 73114  1  0
 72115  1  0
 73116  1  0
 90116  1  0
 88117  1  0
 98117  1  0
 86118  1  0
 96118  1  0
 96119  1  0
 84120  1  0
 82121  1  0
 76122  1  0
  1123  1  0
  2124  1  0
  3125  1  0
  4126  1  1
  5127  1  0
  6128  1  0
  7129  1  0
  8130  1  0
  9131  1  0
 10132  1  0
 11133  1  6
 13134  1  0
 13135  1  0
 13136  1  0
 14137  1  0
 14138  1  0
 14139  1  0
 15140  1  0
 16141  1  0
 17142  1  0
 17143  1  0
 18144  1  0
 18145  1  0
 19146  1  0
 19147  1  0
 20148  1  1
 21149  1  1
 22150  1  1
 23151  1  6
 24152  1  6
 25153  1  6
 26154  1  1
 27155  1  6
 28156  1  0
 28157  1  0
 29158  1  0
 29159  1  0
 30160  1  0
 30161  1  0
 30162  1  0
 31163  1  0
 31164  1  0
 31165  1  0
 32166  1  0
 32167  1  0
 32168  1  0
 33169  1  0
 33170  1  0
 33171  1  0
 34172  1  0
 34173  1  0
 34174  1  0
 35175  1  0
 36176  1  0
 36177  1  0
 36178  1  0
 37179  1  0
 37180  1  0
 37181  1  0
 39182  1  0
 39183  1  0
 40184  1  0
 40185  1  0
 41186  1  0
 41187  1  0
 42188  1  0
 42189  1  0
 43190  1  0
 43191  1  0
 44192  1  0
 45193  1  0
 45194  1  0
 45195  1  0
 46196  1  0
 46197  1  0
 46198  1  0
 47199  1  0
 48200  1  0
 49201  1  0
 51202  1  0
 52203  1  0
 54204  1  0
 58205  1  0
 59206  1  0
 60207  1  0
 61208  1  0
 62209  1  0
 63210  1  0
 64211  1  6
 65212  1  1
 66213  1  0
 67214  1  0
 68215  1  0
 69216  1  0
 70217  1  0
 71218  1  1
 72219  1  0
 74220  1  0
 74221  1  0
 74222  1  0
 75223  1  0
 75224  1  0
 75225  1  0
 76226  1  0
 77227  1  0
 78228  1  0
 78229  1  0
 79230  1  0
 79231  1  0
 80232  1  0
 80233  1  0
 81234  1  1
 82235  1  1
 83236  1  1
 84237  1  6
 85238  1  6
 86239  1  1
 87240  1  6
 88241  1  6
 89242  1  0
 89243  1  0
 90244  1  0
 90245  1  0
 91246  1  0
 91247  1  0
 91248  1  0
 92249  1  0
 92250  1  0
 92251  1  0
 93252  1  0
 93253  1  0
 93254  1  0
 94255  1  0
 94256  1  0
 94257  1  0
 95258  1  0
 95259  1  0
 95260  1  0
 96261  1  0
 97262  1  0
 97263  1  0
 97264  1  0
 98265  1  0
 98266  1  0
 98267  1  0
100268  1  0
100269  1  0
101270  1  0
101271  1  0
102272  1  0
102273  1  0
103274  1  0
103275  1  0
104276  1  0
104277  1  0
105278  1  0
106279  1  0
106280  1  0
106281  1  0
107282  1  0
107283  1  0
107284  1  0
108285  1  0
109286  1  0
110287  1  0
112288  1  0
113289  1  0
115290  1  0
119291  1  0
120292  1  0
121293  1  0
122294  1  0
M  END
>  <PDBID>  (1) 
2A68

>  <PDB ID>  (1) 
2A68

>  <Generic Name>  (1) 
Rifabutin

>  <Brand Name>  (1) 
Mycobutin#Rifabutin#Ansatipin#Ansatipine#Ributin

>  <DrugBank ID>  (1) 
DB00615

>  <ATC Codes>  (1) 
J04AB04

>  <Ligand ID>  (1) 
RBT

>  <Target Name>  (1) 
DNA-directed RNA polymerase subunit beta

>  <UniProt ID>  (1) 
P0A8V2

>  <PDB ID.1>  (1) 
2A68

>  <Seq. Identity>  (1) 
51%

$$$$
