PDB_DB00988_07
     RDKit          3D

 28 28  0  0  0  0  0  0  0  0999 V2000
    1.6658    0.4920   -0.8081 C   0  0  0  0  0  0  0  0  0  0  0  0
    0.5621    0.1783    0.2023 C   0  0  0  0  0  0  0  0  0  0  0  0
   -2.1160   -0.2473   -0.8973 C   0  0  0  0  0  0  0  0  0  0  0  0
   -0.4447    1.2775    0.2304 C   0  0  0  0  0  0  0  0  0  0  0  0
    0.0065   -1.1625   -0.1662 C   0  0  0  0  0  0  0  0  0  0  0  0
   -1.4841   -1.2765   -0.0003 C   0  0  0  0  0  0  0  0  0  0  0  0
   -1.6047    1.1401   -0.6813 C   0  0  0  0  0  0  0  0  0  0  0  0
   -2.6636    1.8956   -0.1520 O   0  0  0  0  0  0  0  0  0  0  0  0
   -3.4969   -0.3310   -0.7124 O   0  0  0  0  0  0  0  0  0  0  0  0
    2.6931   -0.6339   -0.8281 C   0  0  0  0  0  0  0  0  0  0  0  0
    3.3010   -0.7944    0.4733 N   0  0  0  0  0  0  0  0  0  0  0  0
    2.1445    1.4259   -0.4673 H   0  0  0  0  0  0  0  0  0  0  0  0
    1.2331    0.6500   -1.8068 H   0  0  0  0  0  0  0  0  0  0  0  0
    0.0930    2.2256   -0.0278 H   0  0  0  0  0  0  0  0  0  0  0  0
    0.4596   -1.9676    0.4459 H   0  0  0  0  0  0  0  0  0  0  0  0
   -1.8282   -1.2221    1.0339 H   0  0  0  0  0  0  0  0  0  0  0  0
   -2.3196    2.7474    0.2412 H   0  0  0  0  0  0  0  0  0  0  0  0
   -3.6802   -0.1044    0.2350 H   0  0  0  0  0  0  0  0  0  0  0  0
    3.4955   -0.3590   -1.5409 H   0  0  0  0  0  0  0  0  0  0  0  0
    2.2544   -1.5831   -1.1591 H   0  0  0  0  0  0  0  0  0  0  0  0
    2.6393   -1.2516    1.1190 H   0  0  0  0  0  0  0  0  0  0  0  0
    3.6809    0.1068    0.8244 H   0  0  0  0  0  0  0  0  0  0  0  0
    1.0819    0.0647    1.1770 H   0  0  0  0  0  0  0  0  0  0  0  0
   -1.9314   -0.5868   -1.9467 H   0  0  0  0  0  0  0  0  0  0  0  0
   -0.7808    1.4205    1.2810 H   0  0  0  0  0  0  0  0  0  0  0  0
    0.2248   -1.4159   -1.2377 H   0  0  0  0  0  0  0  0  0  0  0  0
   -1.7776   -2.2732   -0.3932 H   0  0  0  0  0  0  0  0  0  0  0  0
   -1.4075    1.5849   -1.6804 H   0  0  0  0  0  0  0  0  0  0  0  0
  1  2  1  0
  2  4  1  0
  2  5  1  0
  3  6  1  0
  5  6  1  0
  3  7  1  0
  4  7  1  0
  7  8  1  0
  3  9  1  0
  1 10  1  0
 10 11  1  0
  1 12  1  0
  1 13  1  0
  4 14  1  0
  5 15  1  0
  6 16  1  0
  8 17  1  0
  9 18  1  0
 10 19  1  0
 10 20  1  0
 11 21  1  0
 11 22  1  0
  2 23  1  0
  3 24  1  0
  4 25  1  0
  5 26  1  0
  6 27  1  0
  7 28  1  0
M  END
>  <PDBID>  (1) 
4XP1

>  <PDB ID>  (1) 
4XP1

>  <Generic Name>  (1) 
Dopamine

>  <Brand Name>  (1) 
Dopamine#Dopamine HCl#Dopamine HCl Inj 4%#Dopamine Hydrochloride#Dopamine Hydrochloride and Dextrose#Intropin Injection 40mg/ml#Intropin#Revimine

>  <DrugBank ID>  (1) 
DB00988

>  <ATC Codes>  (1) 
C01CA04

>  <Ligand ID>  (1) 
LDP

>  <Target Name>  (1) 
Sodium-dependent dopamine transporter

>  <UniProt ID>  (1) 
Q01959

>  <PDB ID.1>  (1) 
4XP1

>  <Seq. Identity>  (1) 
52%

$$$$
