PDB_DB00523_09
     RDKit          3D

 62 62  0  0  0  0  0  0  0  0999 V2000
   -3.3134   -0.8659    0.5406 C   0  0  0  0  0  0  0  0  0  0  0  0
   -4.8478   -0.9982    0.5214 C   0  0  0  0  0  0  0  0  0  0  0  0
   -5.5199    0.2044    1.0897 C   0  0  0  0  0  0  0  0  0  0  0  0
   -4.9658    1.4796    0.4703 C   0  0  0  0  0  0  0  0  0  0  0  0
   -4.1876    1.0739   -0.7488 C   0  0  2  0  0  0  0  0  0  0  0  0
   -2.9555    0.2463   -0.3484 C   0  0  1  0  0  0  0  0  0  0  0  0
   -1.9241    1.2084    0.0890 C   0  0  0  0  0  0  0  0  0  0  0  0
   -0.5583    0.6652    0.3645 C   0  0  0  0  0  0  0  0  0  0  0  0
    0.0916    0.0168   -0.8169 C   0  0  0  0  0  0  0  0  0  0  0  0
    1.4824   -0.5242   -0.4650 C   0  0  0  0  0  0  0  0  0  0  0  0
    2.4152    0.4878   -0.0046 C   0  0  0  0  0  0  0  0  0  0  0  0
    3.7731    0.0586    0.4411 C   0  0  0  0  0  0  0  0  0  0  0  0
    4.6620   -0.6243   -0.4997 C   0  0  0  0  0  0  0  0  0  0  0  0
    5.9938   -0.9555    0.1226 C   0  0  0  0  0  0  0  0  0  0  0  0
    6.7443    0.2276    0.5919 C   0  0  0  0  0  0  0  0  0  0  0  0
   -2.8230   -2.2060    0.0029 C   0  0  0  0  0  0  0  0  0  0  0  0
   -2.9355   -0.7311    1.9817 C   0  0  0  0  0  0  0  0  0  0  0  0
   -3.8132    2.2932   -1.5323 C   0  0  0  0  0  0  0  0  0  0  0  0
    0.1244    0.8776   -2.0382 C   0  0  0  0  0  0  0  0  0  0  0  0
    4.1455   -1.9425   -1.0755 C   0  0  0  0  0  0  0  0  0  0  0  0
    7.9992   -0.2854    1.0978 O   0  0  0  0  0  0  0  0  0  0  0  0
    6.1949    0.8819    1.7039 O   0  0  0  0  0  0  0  0  0  0  0  0
   -5.0527   -1.8535    1.2280 H   0  0  0  0  0  0  0  0  0  0  0  0
   -5.2189   -1.3211   -0.4536 H   0  0  0  0  0  0  0  0  0  0  0  0
   -5.4953    0.2374    2.1846 H   0  0  0  0  0  0  0  0  0  0  0  0
   -6.5901    0.1642    0.7868 H   0  0  0  0  0  0  0  0  0  0  0  0
   -4.3694    1.9789    1.2322 H   0  0  0  0  0  0  0  0  0  0  0  0
   -5.7663    2.1627    0.1451 H   0  0  0  0  0  0  0  0  0  0  0  0
   -4.8324    0.4463   -1.3939 H   0  0  0  0  0  0  0  0  0  0  0  0
   -2.6070   -0.1896   -1.3327 H   0  0  0  0  0  0  0  0  0  0  0  0
   -1.8630    2.0034   -0.7134 H   0  0  0  0  0  0  0  0  0  0  0  0
   -2.3211    1.7674    0.9708 H   0  0  0  0  0  0  0  0  0  0  0  0
    0.0658    1.5769    0.6180 H   0  0  0  0  0  0  0  0  0  0  0  0
   -0.5098    0.0380    1.2729 H   0  0  0  0  0  0  0  0  0  0  0  0
   -0.5038   -0.8821   -1.0802 H   0  0  0  0  0  0  0  0  0  0  0  0
    1.8951   -0.9995   -1.4039 H   0  0  0  0  0  0  0  0  0  0  0  0
    1.3472   -1.3300    0.2624 H   0  0  0  0  0  0  0  0  0  0  0  0
    2.5971    1.3277   -0.7300 H   0  0  0  0  0  0  0  0  0  0  0  0
    1.9824    1.0527    0.8969 H   0  0  0  0  0  0  0  0  0  0  0  0
    4.3446    1.0165    0.7545 H   0  0  0  0  0  0  0  0  0  0  0  0
    3.7299   -0.5129    1.4099 H   0  0  0  0  0  0  0  0  0  0  0  0
    4.7942    0.0272   -1.4106 H   0  0  0  0  0  0  0  0  0  0  0  0
    6.6196   -1.4839   -0.6630 H   0  0  0  0  0  0  0  0  0  0  0  0
    5.8840   -1.7461    0.9133 H   0  0  0  0  0  0  0  0  0  0  0  0
    7.0288    0.9531   -0.1839 H   0  0  0  0  0  0  0  0  0  0  0  0
   -1.7832   -2.4145    0.2620 H   0  0  0  0  0  0  0  0  0  0  0  0
   -3.5300   -3.0260    0.2742 H   0  0  0  0  0  0  0  0  0  0  0  0
   -2.8579   -2.1734   -1.1261 H   0  0  0  0  0  0  0  0  0  0  0  0
   -2.6567    0.2665    2.3078 H   0  0  0  0  0  0  0  0  0  0  0  0
   -2.1144   -1.4702    2.2107 H   0  0  0  0  0  0  0  0  0  0  0  0
   -3.7650   -1.0568    2.6790 H   0  0  0  0  0  0  0  0  0  0  0  0
   -3.0829    2.0753   -2.3456 H   0  0  0  0  0  0  0  0  0  0  0  0
   -4.7470    2.6187   -2.0785 H   0  0  0  0  0  0  0  0  0  0  0  0
   -3.5292    3.1619   -0.9129 H   0  0  0  0  0  0  0  0  0  0  0  0
    0.9430    0.4676   -2.7001 H   0  0  0  0  0  0  0  0  0  0  0  0
    0.3985    1.9293   -1.8473 H   0  0  0  0  0  0  0  0  0  0  0  0
   -0.8036    0.7487   -2.6019 H   0  0  0  0  0  0  0  0  0  0  0  0
    3.4002   -2.3674   -0.4184 H   0  0  0  0  0  0  0  0  0  0  0  0
    5.0649   -2.6173   -1.1335 H   0  0  0  0  0  0  0  0  0  0  0  0
    3.8111   -1.8840   -2.1024 H   0  0  0  0  0  0  0  0  0  0  0  0
    7.7117   -1.0393    1.6839 H   0  0  0  0  0  0  0  0  0  0  0  0
    6.5995    1.7590    1.7975 H   0  0  0  0  0  0  0  0  0  0  0  0
  1  2  1  0
  2  3  1  0
  3  4  1  0
  4  5  1  0
  1  6  1  0
  5  6  1  0
  6  7  1  0
  7  8  1  0
  8  9  1  0
  9 10  1  0
 10 11  1  0
 11 12  1  0
 12 13  1  0
 13 14  1  0
 14 15  1  0
  1 16  1  0
  1 17  1  0
  5 18  1  0
  9 19  1  0
 13 20  1  0
 15 21  1  0
 15 22  1  0
  2 23  1  0
  2 24  1  0
  3 25  1  0
  3 26  1  0
  4 27  1  0
  4 28  1  0
  5 29  1  6
  6 30  1  6
  7 31  1  0
  7 32  1  0
  8 33  1  0
  8 34  1  0
  9 35  1  0
 10 36  1  0
 10 37  1  0
 11 38  1  0
 11 39  1  0
 12 40  1  0
 12 41  1  0
 13 42  1  0
 14 43  1  0
 14 44  1  0
 15 45  1  0
 16 46  1  0
 16 47  1  0
 16 48  1  0
 17 49  1  0
 17 50  1  0
 17 51  1  0
 18 52  1  0
 18 53  1  0
 18 54  1  0
 19 55  1  0
 19 56  1  0
 19 57  1  0
 20 58  1  0
 20 59  1  0
 20 60  1  0
 21 61  1  0
 22 62  1  0
M  END
>  <PDBID>  (1) 
3OAP

>  <PDB ID>  (1) 
3OAP

>  <Generic Name>  (1) 
Alitretinoin

>  <Brand Name>  (1) 
Panretin#Toctino

>  <DrugBank ID>  (1) 
DB00523

>  <ATC Codes>  (1) 
D11AH04#L01XX22

>  <Ligand ID>  (1) 
9CR

>  <Target Name>  (1) 
Retinoic acid receptor RXR-beta

>  <UniProt ID>  (1) 
P28702

>  <PDB ID.1>  (1) 
3OAP

>  <Seq. Identity>  (1) 
87%

$$$$
