PDB_DB05015_01
     RDKit          3D

108110  0  0  0  0  0  0  0  0999 V2000
    6.5688   -0.6503    0.4542 O   0  0  0  0  0  0  0  0  0  0  0  0
    5.1995   -0.2938    0.4273 C   0  0  0  0  0  0  0  0  0  0  0  0
    5.2015    1.1850    0.3400 N   0  0  0  0  0  0  0  0  0  0  0  0
    5.8311    1.6004   -0.7657 O   0  0  0  0  0  0  0  0  0  0  0  0
    4.6294   -0.8945   -0.8147 C   0  0  0  0  0  0  0  0  0  0  0  0
    3.2059   -0.6569   -1.0548 C   0  0  0  0  0  0  0  0  0  0  0  0
    2.1571   -1.1761   -0.1904 C   0  0  0  0  0  0  0  0  0  0  0  0
    0.7634   -0.7719   -0.6995 C   0  0  0  0  0  0  0  0  0  0  0  0
    2.1080   -0.9270    1.2603 C   0  0  0  0  0  0  0  0  0  0  0  0
    1.9463    0.5062    1.6491 C   0  0  0  0  0  0  0  0  0  0  0  0
    1.2530    1.3433    0.6254 C   0  0  0  0  0  0  0  0  0  0  0  0
    0.4056    0.6232   -0.3481 C   0  0  2  0  0  0  0  0  0  0  0  0
   -1.2717    0.7025    0.1713 S   0  0  0  0  0  0  0  0  0  0  0  0
   -1.4447    2.4292    0.3379 O   0  0  0  0  0  0  0  0  0  0  0  0
   -1.1613    0.1717    1.7842 O   0  0  0  0  0  0  0  0  0  0  0  0
   -2.3118    0.1059   -0.5972 N   0  0  0  0  0  0  0  0  0  0  0  0
   -3.5423    0.8222   -0.9170 C   0  0  0  0  0  0  0  0  0  0  0  0
   -4.2372    1.2048    0.3552 C   0  0  0  0  0  0  0  0  0  0  0  0
   -5.6409    0.6450    0.4536 C   0  0  0  0  0  0  0  0  0  0  0  0
   -5.5231   -0.8697    0.3856 C   0  0  0  0  0  0  0  0  0  0  0  0
   -4.9495   -1.2431   -0.9450 C   0  0  0  0  0  0  0  0  0  0  0  0
   -4.4792   -0.0400   -1.7329 C   0  0  0  0  0  0  0  0  0  0  0  0
    6.5952   -0.5933    0.4246 O   0  0  0  0  0  0  0  0  0  0  0  0
    5.2192   -0.2578    0.3966 C   0  0  0  0  0  0  0  0  0  0  0  0
    5.1845    1.2195    0.3001 N   0  0  0  0  0  0  0  0  0  0  0  0
    5.8059    1.6453   -0.8145 O   0  0  0  0  0  0  0  0  0  0  0  0
    4.6408   -0.8737   -0.8349 C   0  0  0  0  0  0  0  0  0  0  0  0
    3.2150   -0.6461   -1.0581 C   0  0  0  0  0  0  0  0  0  0  0  0
    2.1854   -1.1711   -0.1771 C   0  0  0  0  0  0  0  0  0  0  0  0
    0.7733   -0.7830   -0.6666 C   0  0  0  0  0  0  0  0  0  0  0  0
    2.1564   -0.9367    1.2732 C   0  0  0  0  0  0  0  0  0  0  0  0
    1.9721    0.4876    1.6771 C   0  0  0  0  0  0  0  0  0  0  0  0
    1.2719    1.3270    0.6579 C   0  0  0  0  0  0  0  0  0  0  0  0
    0.4073    0.6044   -0.3020 C   0  0  2  0  0  0  0  0  0  0  0  0
   -1.2715    0.6750    0.2439 S   0  0  0  0  0  0  0  0  0  0  0  0
   -1.4441    2.4037    0.4247 O   0  0  0  0  0  0  0  0  0  0  0  0
   -1.1630    0.1114    1.8161 O   0  0  0  0  0  0  0  0  0  0  0  0
   -2.3116    0.0977   -0.5612 N   0  0  0  0  0  0  0  0  0  0  0  0
   -3.5238    0.8176   -0.8995 C   0  0  0  0  0  0  0  0  0  0  0  0
   -4.2281    1.1771    0.3774 C   0  0  0  0  0  0  0  0  0  0  0  0
   -5.6427    0.6407    0.4398 C   0  0  0  0  0  0  0  0  0  0  0  0
   -5.5534   -0.8692    0.3189 C   0  0  0  0  0  0  0  0  0  0  0  0
   -4.9533   -1.2334   -1.0104 C   0  0  0  0  0  0  0  0  0  0  0  0
   -4.4504   -0.0165   -1.7567 C   0  0  0  0  0  0  0  0  0  0  0  0
    6.5918   -1.6267    0.3872 H   0  0  0  0  0  0  0  0  0  0  0  0
    4.7149   -0.5296    1.3717 H   0  0  0  0  0  0  0  0  0  0  0  0
    5.7862    1.4882    1.1651 H   0  0  0  0  0  0  0  0  0  0  0  0
    6.7962    1.3488   -0.6633 H   0  0  0  0  0  0  0  0  0  0  0  0
    5.2277   -0.4149   -1.6661 H   0  0  0  0  0  0  0  0  0  0  0  0
    4.9278   -1.9780   -0.9152 H   0  0  0  0  0  0  0  0  0  0  0  0
    3.1003    0.4525   -1.2753 H   0  0  0  0  0  0  0  0  0  0  0  0
    2.9881   -1.0866   -2.1045 H   0  0  0  0  0  0  0  0  0  0  0  0
    2.1452   -2.3103   -0.3146 H   0  0  0  0  0  0  0  0  0  0  0  0
    0.0574   -1.4683   -0.2041 H   0  0  0  0  0  0  0  0  0  0  0  0
    0.7489   -1.0103   -1.7811 H   0  0  0  0  0  0  0  0  0  0  0  0
    1.0869   -1.3983    1.5799 H   0  0  0  0  0  0  0  0  0  0  0  0
    2.7934   -1.4835    1.9038 H   0  0  0  0  0  0  0  0  0  0  0  0
    2.9264    0.9533    1.8810 H   0  0  0  0  0  0  0  0  0  0  0  0
    1.4003    0.5268    2.6399 H   0  0  0  0  0  0  0  0  0  0  0  0
    0.5987    2.0632    1.2064 H   0  0  0  0  0  0  0  0  0  0  0  0
    1.9744    2.0441    0.1079 H   0  0  0  0  0  0  0  0  0  0  0  0
    0.4326    1.2166   -1.3126 H   0  0  0  0  0  0  0  0  0  0  0  0
   -1.4643    2.6401    1.3045 H   0  0  0  0  0  0  0  0  0  0  0  0
   -1.2695   -0.8109    1.7289 H   0  0  0  0  0  0  0  0  0  0  0  0
   -2.2524   -0.6767   -1.2854 H   0  0  0  0  0  0  0  0  0  0  0  0
   -3.2508    1.6860   -1.5459 H   0  0  0  0  0  0  0  0  0  0  0  0
   -4.3036    2.3125    0.3778 H   0  0  0  0  0  0  0  0  0  0  0  0
   -3.6900    0.8126    1.2541 H   0  0  0  0  0  0  0  0  0  0  0  0
   -5.9777    0.8643    1.5091 H   0  0  0  0  0  0  0  0  0  0  0  0
   -6.3280    1.0601   -0.2824 H   0  0  0  0  0  0  0  0  0  0  0  0
   -6.4807   -1.3621    0.6084 H   0  0  0  0  0  0  0  0  0  0  0  0
   -4.8065   -1.1519    1.2051 H   0  0  0  0  0  0  0  0  0  0  0  0
   -4.0699   -1.9261   -0.8476 H   0  0  0  0  0  0  0  0  0  0  0  0
   -5.7277   -1.7541   -1.5370 H   0  0  0  0  0  0  0  0  0  0  0  0
   -5.3454    0.5958   -2.0090 H   0  0  0  0  0  0  0  0  0  0  0  0
   -4.0388   -0.4082   -2.6656 H   0  0  0  0  0  0  0  0  0  0  0  0
    6.6154   -1.5882    0.3232 H   0  0  0  0  0  0  0  0  0  0  0  0
    4.7405   -0.5121    1.3397 H   0  0  0  0  0  0  0  0  0  0  0  0
    5.7642    1.5377    1.1256 H   0  0  0  0  0  0  0  0  0  0  0  0
    6.7563    1.3881   -0.7683 H   0  0  0  0  0  0  0  0  0  0  0  0
    5.2305   -0.4116   -1.7006 H   0  0  0  0  0  0  0  0  0  0  0  0
    4.9427   -1.9597   -0.9168 H   0  0  0  0  0  0  0  0  0  0  0  0
    3.0996    0.4651   -1.2758 H   0  0  0  0  0  0  0  0  0  0  0  0
    2.9888   -1.0720   -2.1093 H   0  0  0  0  0  0  0  0  0  0  0  0
    2.1756   -2.3046   -0.3140 H   0  0  0  0  0  0  0  0  0  0  0  0
    0.0854   -1.4875   -0.1581 H   0  0  0  0  0  0  0  0  0  0  0  0
    0.7234   -1.0070   -1.7501 H   0  0  0  0  0  0  0  0  0  0  0  0
    1.1500   -1.4349    1.6118 H   0  0  0  0  0  0  0  0  0  0  0  0
    2.8648   -1.4905    1.9073 H   0  0  0  0  0  0  0  0  0  0  0  0
    2.9525    0.9346    1.8977 H   0  0  0  0  0  0  0  0  0  0  0  0
    1.4321    0.5051    2.6712 H   0  0  0  0  0  0  0  0  0  0  0  0
    0.6132    2.0392    1.2431 H   0  0  0  0  0  0  0  0  0  0  0  0
    1.9806    2.0324    0.1372 H   0  0  0  0  0  0  0  0  0  0  0  0
    0.4095    1.2062   -1.2611 H   0  0  0  0  0  0  0  0  0  0  0  0
   -1.6247    2.5900    1.3640 H   0  0  0  0  0  0  0  0  0  0  0  0
   -1.4659   -0.8505    1.7791 H   0  0  0  0  0  0  0  0  0  0  0  0
   -2.2266   -0.6786   -1.2539 H   0  0  0  0  0  0  0  0  0  0  0  0
   -3.2247    1.6988   -1.5018 H   0  0  0  0  0  0  0  0  0  0  0  0
   -4.2814    2.2954    0.4516 H   0  0  0  0  0  0  0  0  0  0  0  0
   -3.7009    0.7510    1.2778 H   0  0  0  0  0  0  0  0  0  0  0  0
   -5.9890    0.8319    1.4979 H   0  0  0  0  0  0  0  0  0  0  0  0
   -6.3167    1.0960   -0.2926 H   0  0  0  0  0  0  0  0  0  0  0  0
   -6.5358   -1.3357    0.5012 H   0  0  0  0  0  0  0  0  0  0  0  0
   -4.8699   -1.2018    1.1377 H   0  0  0  0  0  0  0  0  0  0  0  0
   -4.0986   -1.9561   -0.9033 H   0  0  0  0  0  0  0  0  0  0  0  0
   -5.7499   -1.6949   -1.6264 H   0  0  0  0  0  0  0  0  0  0  0  0
   -5.3210    0.6227   -2.0090 H   0  0  0  0  0  0  0  0  0  0  0  0
   -4.0053   -0.3504   -2.6939 H   0  0  0  0  0  0  0  0  0  0  0  0
  1  2  1  0
  2  3  1  0
  3  4  1  0
  2  5  1  0
  5  6  1  0
  6  7  1  0
  7  8  1  0
  7  9  1  0
  9 10  1  0
 10 11  1  0
  8 12  1  0
 11 12  1  0
 12 13  1  0
 13 14  1  0
 13 15  1  0
 13 16  1  0
 16 17  1  0
 17 18  1  0
 18 19  1  0
 19 20  1  0
 20 21  1  0
 17 22  1  0
 21 22  1  0
 24 23  1  0
 24 25  1  0
 26 25  1  0
 24 27  1  0
 27 28  1  0
 28 29  1  0
 29 30  1  0
 29 31  1  0
 31 32  1  0
 32 33  1  0
 30 34  1  0
 33 34  1  0
 34 35  1  0
 35 36  1  0
 35 37  1  0
 35 38  1  0
 38 39  1  0
 39 40  1  0
 40 41  1  0
 41 42  1  0
 42 43  1  0
 39 44  1  0
 43 44  1  0
  1 45  1  0
  2 46  1  0
  3 47  1  0
  4 48  1  0
  5 49  1  0
  5 50  1  0
  6 51  1  0
  6 52  1  0
  7 53  1  0
  8 54  1  0
  8 55  1  0
  9 56  1  0
  9 57  1  0
 10 58  1  0
 10 59  1  0
 11 60  1  0
 11 61  1  0
 12 62  1  6
 14 63  1  0
 15 64  1  0
 16 65  1  0
 17 66  1  0
 18 67  1  0
 18 68  1  0
 19 69  1  0
 19 70  1  0
 20 71  1  0
 20 72  1  0
 21 73  1  0
 21 74  1  0
 22 75  1  0
 22 76  1  0
 23 77  1  0
 24 78  1  0
 25 79  1  0
 26 80  1  0
 27 81  1  0
 27 82  1  0
 28 83  1  0
 28 84  1  0
 29 85  1  0
 30 86  1  0
 30 87  1  0
 31 88  1  0
 31 89  1  0
 32 90  1  0
 32 91  1  0
 33 92  1  0
 33 93  1  0
 34 94  1  6
 36 95  1  0
 37 96  1  0
 38 97  1  0
 39 98  1  0
 40 99  1  0
 40100  1  0
 41101  1  0
 41102  1  0
 42103  1  0
 42104  1  0
 43105  1  0
 43106  1  0
 44107  1  0
 44108  1  0
M  END
>  <PDBID>  (1) 
5EEN

>  <PDB ID>  (1) 
5EEN

>  <Generic Name>  (1) 
Belinostat

>  <Brand Name>  (1) 
Beleodaq

>  <DrugBank ID>  (1) 
DB05015

>  <ATC Codes>  (1) 
L01XX49

>  <Ligand ID>  (1) 
5OG

>  <Target Name>  (1) 
Histone deacetylase 9

>  <UniProt ID>  (1) 
Q9UKV0

>  <PDB ID.1>  (1) 
5EEN

>  <Seq. Identity>  (1) 
46%

$$$$
