PDB_DB04743_09
     RDKit          3D

 96 98  0  0  0  0  0  0  0  0999 V2000
    2.3974    4.7132   -1.7500 O   0  0  0  0  0  0  0  0  0  0  0  0
    1.2914    4.1957   -1.1691 N   0  0  0  0  0  0  0  0  0  0  0  0
    1.1778    4.6503    0.1204 O   0  0  0  0  0  0  0  0  0  0  0  0
    1.3765    2.7380   -1.0543 C   0  0  0  0  0  0  0  0  0  0  0  0
    2.5810    2.4223   -0.2104 C   0  0  0  0  0  0  0  0  0  0  0  0
    2.6098    1.0357    0.3214 C   0  0  0  0  0  0  0  0  0  0  0  0
    1.2756    0.5255    0.8080 C   0  0  0  0  0  0  0  0  0  0  0  0
    1.3800   -0.8070    1.2696 N   0  0  0  0  0  0  0  0  0  0  0  0
    1.8210   -2.0084    0.4679 S   0  0  0  0  0  0  0  0  0  0  0  0
    1.1606   -3.4338    1.2407 O   0  0  0  0  0  0  0  0  0  0  0  0
    1.9063   -2.2460   -0.9655 O   0  0  0  0  0  0  0  0  0  0  0  0
    3.5978   -2.3283    1.1083 C   0  0  0  0  0  0  0  0  0  0  0  0
    0.1227    2.2795   -0.3789 C   0  0  0  0  0  0  0  0  0  0  0  0
    0.1929    0.7502   -0.2318 C   0  0  0  0  0  0  0  0  0  0  0  0
   -1.0371    0.3604    0.2342 O   0  0  0  0  0  0  0  0  0  0  0  0
   -1.7215   -0.5211   -0.5628 C   0  0  0  0  0  0  0  0  0  0  0  0
   -1.9235   -1.8176    0.1776 C   0  0  0  0  0  0  0  0  0  0  0  0
   -3.2609   -2.4563   -0.1589 C   0  0  0  0  0  0  0  0  0  0  0  0
   -4.3484   -1.5313    0.3439 C   0  0  0  0  0  0  0  0  0  0  0  0
   -4.0523   -0.0908    0.0541 C   0  0  0  0  0  0  0  0  0  0  0  0
   -3.0356    0.0137   -1.0687 C   0  0  0  0  0  0  0  0  0  0  0  0
    2.3974    4.7132   -1.7500 O   0  0  0  0  0  0  0  0  0  0  0  0
    1.2914    4.1957   -1.1691 N   0  0  0  0  0  0  0  0  0  0  0  0
    1.1778    4.6503    0.1204 O   0  0  0  0  0  0  0  0  0  0  0  0
    1.3765    2.7380   -1.0543 C   0  0  0  0  0  0  0  0  0  0  0  0
    2.5810    2.4223   -0.2104 C   0  0  0  0  0  0  0  0  0  0  0  0
    2.6098    1.0357    0.3214 C   0  0  0  0  0  0  0  0  0  0  0  0
    1.2756    0.5255    0.8080 C   0  0  0  0  0  0  0  0  0  0  0  0
    1.3800   -0.8070    1.2696 N   0  0  0  0  0  0  0  0  0  0  0  0
    1.8210   -2.0084    0.4679 S   0  0  0  0  0  0  0  0  0  0  0  0
    1.1606   -3.4338    1.2407 O   0  0  0  0  0  0  0  0  0  0  0  0
    1.9063   -2.2460   -0.9655 O   0  0  0  0  0  0  0  0  0  0  0  0
    3.5978   -2.3283    1.1083 C   0  0  0  0  0  0  0  0  0  0  0  0
    0.1227    2.2795   -0.3789 C   0  0  0  0  0  0  0  0  0  0  0  0
    0.1929    0.7502   -0.2318 C   0  0  0  0  0  0  0  0  0  0  0  0
   -1.0371    0.3604    0.2342 O   0  0  0  0  0  0  0  0  0  0  0  0
   -1.7215   -0.5211   -0.5628 C   0  0  0  0  0  0  0  0  0  0  0  0
   -1.9235   -1.8176    0.1776 C   0  0  0  0  0  0  0  0  0  0  0  0
   -3.2609   -2.4563   -0.1589 C   0  0  0  0  0  0  0  0  0  0  0  0
   -4.3484   -1.5313    0.3439 C   0  0  0  0  0  0  0  0  0  0  0  0
   -4.0523   -0.0908    0.0541 C   0  0  0  0  0  0  0  0  0  0  0  0
   -3.0356    0.0137   -1.0687 C   0  0  0  0  0  0  0  0  0  0  0  0
    0.2187    4.8916    0.2931 H   0  0  0  0  0  0  0  0  0  0  0  0
    1.4842    2.2592   -2.0520 H   0  0  0  0  0  0  0  0  0  0  0  0
    3.4809    2.5611   -0.8567 H   0  0  0  0  0  0  0  0  0  0  0  0
    2.6789    3.1938    0.6031 H   0  0  0  0  0  0  0  0  0  0  0  0
    3.2980    1.0258    1.2107 H   0  0  0  0  0  0  0  0  0  0  0  0
    3.0715    0.3507   -0.4200 H   0  0  0  0  0  0  0  0  0  0  0  0
    0.9904    1.1890    1.6717 H   0  0  0  0  0  0  0  0  0  0  0  0
    1.6266   -0.7760    2.3060 H   0  0  0  0  0  0  0  0  0  0  0  0
    1.3465   -4.1992    0.6729 H   0  0  0  0  0  0  0  0  0  0  0  0
    2.6142   -2.2140   -1.6256 H   0  0  0  0  0  0  0  0  0  0  0  0
    4.1935   -1.6383    0.5092 H   0  0  0  0  0  0  0  0  0  0  0  0
    3.5186   -2.1040    2.1677 H   0  0  0  0  0  0  0  0  0  0  0  0
    3.7491   -3.3923    0.8607 H   0  0  0  0  0  0  0  0  0  0  0  0
    0.1260    2.6813    0.6612 H   0  0  0  0  0  0  0  0  0  0  0  0
   -0.7863    2.5917   -0.8898 H   0  0  0  0  0  0  0  0  0  0  0  0
    0.4646    0.2876   -1.2009 H   0  0  0  0  0  0  0  0  0  0  0  0
   -1.0734   -0.7261   -1.4568 H   0  0  0  0  0  0  0  0  0  0  0  0
   -1.9482   -1.5787    1.2618 H   0  0  0  0  0  0  0  0  0  0  0  0
   -1.0872   -2.5217   -0.0515 H   0  0  0  0  0  0  0  0  0  0  0  0
   -3.3478   -2.6811   -1.2268 H   0  0  0  0  0  0  0  0  0  0  0  0
   -3.3182   -3.4020    0.4198 H   0  0  0  0  0  0  0  0  0  0  0  0
   -4.5645   -1.6831    1.4142 H   0  0  0  0  0  0  0  0  0  0  0  0
   -5.2693   -1.8053   -0.2431 H   0  0  0  0  0  0  0  0  0  0  0  0
   -3.6329    0.4409    0.9335 H   0  0  0  0  0  0  0  0  0  0  0  0
   -4.9756    0.4252   -0.2261 H   0  0  0  0  0  0  0  0  0  0  0  0
   -3.3887   -0.6507   -1.8828 H   0  0  0  0  0  0  0  0  0  0  0  0
   -2.9815    1.0305   -1.4493 H   0  0  0  0  0  0  0  0  0  0  0  0
    0.2187    4.8916    0.2931 H   0  0  0  0  0  0  0  0  0  0  0  0
    1.4842    2.2592   -2.0520 H   0  0  0  0  0  0  0  0  0  0  0  0
    3.4809    2.5611   -0.8567 H   0  0  0  0  0  0  0  0  0  0  0  0
    2.6789    3.1938    0.6031 H   0  0  0  0  0  0  0  0  0  0  0  0
    3.2980    1.0258    1.2107 H   0  0  0  0  0  0  0  0  0  0  0  0
    3.0715    0.3507   -0.4200 H   0  0  0  0  0  0  0  0  0  0  0  0
    0.9904    1.1890    1.6717 H   0  0  0  0  0  0  0  0  0  0  0  0
    1.6266   -0.7760    2.3060 H   0  0  0  0  0  0  0  0  0  0  0  0
    1.3465   -4.1992    0.6729 H   0  0  0  0  0  0  0  0  0  0  0  0
    2.6142   -2.2140   -1.6256 H   0  0  0  0  0  0  0  0  0  0  0  0
    4.1935   -1.6383    0.5092 H   0  0  0  0  0  0  0  0  0  0  0  0
    3.5186   -2.1040    2.1677 H   0  0  0  0  0  0  0  0  0  0  0  0
    3.7491   -3.3923    0.8607 H   0  0  0  0  0  0  0  0  0  0  0  0
    0.1260    2.6813    0.6612 H   0  0  0  0  0  0  0  0  0  0  0  0
   -0.7863    2.5917   -0.8898 H   0  0  0  0  0  0  0  0  0  0  0  0
    0.4646    0.2876   -1.2009 H   0  0  0  0  0  0  0  0  0  0  0  0
   -1.0734   -0.7261   -1.4568 H   0  0  0  0  0  0  0  0  0  0  0  0
   -1.9482   -1.5787    1.2618 H   0  0  0  0  0  0  0  0  0  0  0  0
   -1.0872   -2.5217   -0.0515 H   0  0  0  0  0  0  0  0  0  0  0  0
   -3.3478   -2.6811   -1.2268 H   0  0  0  0  0  0  0  0  0  0  0  0
   -3.3182   -3.4020    0.4198 H   0  0  0  0  0  0  0  0  0  0  0  0
   -4.5645   -1.6831    1.4142 H   0  0  0  0  0  0  0  0  0  0  0  0
   -5.2693   -1.8053   -0.2431 H   0  0  0  0  0  0  0  0  0  0  0  0
   -3.6329    0.4409    0.9335 H   0  0  0  0  0  0  0  0  0  0  0  0
   -4.9756    0.4252   -0.2261 H   0  0  0  0  0  0  0  0  0  0  0  0
   -3.3887   -0.6507   -1.8828 H   0  0  0  0  0  0  0  0  0  0  0  0
   -2.9815    1.0305   -1.4493 H   0  0  0  0  0  0  0  0  0  0  0  0
  1  2  1  0
  2  3  1  0
  2  4  1  0
  4  5  1  0
  5  6  1  0
  6  7  1  0
  7  8  1  0
  8  9  1  0
  9 10  1  0
  9 11  1  0
  9 12  1  0
  4 13  1  0
  7 14  1  0
 13 14  1  0
 14 15  1  0
 15 16  1  0
 16 17  1  0
 17 18  1  0
 18 19  1  0
 19 20  1  0
 16 21  1  0
 20 21  1  0
 22 23  1  0
 23 24  1  0
 23 25  1  0
 25 26  1  0
 26 27  1  0
 27 28  1  0
 28 29  1  0
 29 30  1  0
 30 31  1  0
 30 32  1  0
 30 33  1  0
 25 34  1  0
 28 35  1  0
 34 35  1  0
 35 36  1  0
 36 37  1  0
 37 38  1  0
 38 39  1  0
 39 40  1  0
 40 41  1  0
 37 42  1  0
 41 42  1  0
  3 43  1  0
  4 44  1  0
  5 45  1  0
  5 46  1  0
  6 47  1  0
  6 48  1  0
  7 49  1  0
  8 50  1  0
 10 51  1  0
 11 52  1  0
 12 53  1  0
 12 54  1  0
 12 55  1  0
 13 56  1  0
 13 57  1  0
 14 58  1  0
 16 59  1  0
 17 60  1  0
 17 61  1  0
 18 62  1  0
 18 63  1  0
 19 64  1  0
 19 65  1  0
 20 66  1  0
 20 67  1  0
 21 68  1  0
 21 69  1  0
 24 70  1  0
 25 71  1  0
 26 72  1  0
 26 73  1  0
 27 74  1  0
 27 75  1  0
 28 76  1  0
 29 77  1  0
 31 78  1  0
 32 79  1  0
 33 80  1  0
 33 81  1  0
 33 82  1  0
 34 83  1  0
 34 84  1  0
 35 85  1  0
 37 86  1  0
 38 87  1  0
 38 88  1  0
 39 89  1  0
 39 90  1  0
 40 91  1  0
 40 92  1  0
 41 93  1  0
 41 94  1  0
 42 95  1  0
 42 96  1  0
M  CHG  2   1  -1  22  -1
M  END
>  <PDBID>  (1) 
3N8X

>  <PDB ID>  (1) 
3N8X

>  <Generic Name>  (1) 
Nimesulide

>  <Brand Name>  (1) 
Ainex#Aulin#Coxtal#Eskaflam#Mesulid#Nilsid#Nimalox#Nimside#Nise#Octaprin#Sintalgin#Sulide

>  <DrugBank ID>  (1) 
DB04743

>  <ATC Codes>  (1) 
M02AA26#M01AX17

>  <Ligand ID>  (1) 
NIM

>  <Target Name>  (1) 
Prostaglandin G/H synthase 2

>  <UniProt ID>  (1) 
P35354

>  <PDB ID.1>  (1) 
3N8X

>  <Seq. Identity>  (1) 
61%

$$$$
