PDB_DB00136_01
     RDKit          3D

 80 82  0  0  0  0  0  0  0  0999 V2000
    5.3839    2.5943   -2.4159 O   0  0  0  0  0  0  0  0  0  0  0  0
   -5.3151   -0.0413    2.2844 O   0  0  0  0  0  0  0  0  0  0  0  0
    6.8449    2.0622    0.0689 C   0  0  1  0  0  0  0  0  0  0  0  0
    7.1445    1.4211   -1.2696 C   0  0  0  0  0  0  0  0  0  0  0  0
    5.9032    1.3564   -2.1092 C   0  0  1  0  0  0  0  0  0  0  0  0
    4.8706    0.5369   -1.3508 C   0  0  0  0  0  0  0  0  0  0  0  0
    4.5793    1.0437    0.0180 C   0  0  1  0  0  0  0  0  0  0  0  0
    3.6612    0.0913    0.7256 C   0  0  0  0  0  0  0  0  0  0  0  0
    2.3803   -0.0436   -0.0192 C   0  0  0  0  0  0  0  0  0  0  0  0
    1.4099   -1.0037    0.6911 C   0  0  0  0  0  0  0  0  0  0  0  0
    1.0726   -0.5319    2.0720 C   0  0  0  0  0  0  0  0  0  0  0  0
    5.8103    1.3287    0.8435 C   0  0  1  0  0  0  0  0  0  0  0  0
   -0.2963   -0.8053    2.5424 C   0  0  0  0  0  0  0  0  0  0  0  0
   -1.2080   -1.5157    1.6064 C   0  0  0  0  0  0  0  0  0  0  0  0
   -1.0911   -0.8929    0.2490 C   0  0  1  0  0  0  0  0  0  0  0  0
    0.3114   -1.3447   -0.1823 C   0  0  1  0  0  0  0  0  0  0  0  0
    0.3002   -0.8774   -1.5973 C   0  0  0  0  0  0  0  0  0  0  0  0
   -0.9782   -1.5650   -2.0497 C   0  0  0  0  0  0  0  0  0  0  0  0
   -1.8784   -1.5658   -0.8258 C   0  0  2  0  0  0  0  0  0  0  0  0
   -1.2447    0.5667    0.3576 C   0  0  0  0  0  0  0  0  0  0  0  0
    6.3643    0.0877    1.4988 C   0  0  0  0  0  0  0  0  0  0  0  0
   -3.1743   -1.0171   -1.2219 C   0  0  1  0  0  0  0  0  0  0  0  0
   -3.7118   -1.9326   -2.3386 C   0  0  0  0  0  0  0  0  0  0  0  0
   -4.2477   -1.0005   -0.1659 C   0  0  0  0  0  0  0  0  0  0  0  0
   -5.5351   -0.4154   -0.6903 C   0  0  0  0  0  0  0  0  0  0  0  0
   -6.6669   -0.3962    0.2915 C   0  0  0  0  0  0  0  0  0  0  0  0
   -6.3858    0.4034    1.5286 C   0  0  0  0  0  0  0  0  0  0  0  0
   -7.5924    0.3857    2.4500 C   0  0  0  0  0  0  0  0  0  0  0  0
   -6.0878    1.8620    1.2019 C   0  0  0  0  0  0  0  0  0  0  0  0
    8.0281    2.0622    0.8050 O   0  0  0  0  0  0  0  0  0  0  0  0
    6.0646    3.2789   -2.2647 H   0  0  0  0  0  0  0  0  0  0  0  0
   -5.1589    0.6051    2.9904 H   0  0  0  0  0  0  0  0  0  0  0  0
    6.5779    3.1101   -0.1238 H   0  0  0  0  0  0  0  0  0  0  0  0
    7.5345    0.3915   -1.1673 H   0  0  0  0  0  0  0  0  0  0  0  0
    7.8628    2.0965   -1.7858 H   0  0  0  0  0  0  0  0  0  0  0  0
    6.1522    0.7620   -3.0177 H   0  0  0  0  0  0  0  0  0  0  0  0
    5.1699   -0.5137   -1.3023 H   0  0  0  0  0  0  0  0  0  0  0  0
    3.9531    0.6069   -1.9748 H   0  0  0  0  0  0  0  0  0  0  0  0
    4.0230    2.0241   -0.0396 H   0  0  0  0  0  0  0  0  0  0  0  0
    4.1652   -0.9013    0.7861 H   0  0  0  0  0  0  0  0  0  0  0  0
    3.4321    0.4833    1.7504 H   0  0  0  0  0  0  0  0  0  0  0  0
    2.6331   -0.5334   -1.0091 H   0  0  0  0  0  0  0  0  0  0  0  0
    1.9289    0.9120   -0.2831 H   0  0  0  0  0  0  0  0  0  0  0  0
    2.0581   -1.9255    0.8391 H   0  0  0  0  0  0  0  0  0  0  0  0
    1.7823   -0.9593    2.8470 H   0  0  0  0  0  0  0  0  0  0  0  0
    1.3206    0.5684    2.1107 H   0  0  0  0  0  0  0  0  0  0  0  0
    5.4806    2.0055    1.6829 H   0  0  0  0  0  0  0  0  0  0  0  0
   -0.3142   -1.4093    3.5016 H   0  0  0  0  0  0  0  0  0  0  0  0
   -0.7630    0.1665    2.8686 H   0  0  0  0  0  0  0  0  0  0  0  0
   -2.2324   -1.4787    2.0209 H   0  0  0  0  0  0  0  0  0  0  0  0
   -0.9346   -2.6061    1.5654 H   0  0  0  0  0  0  0  0  0  0  0  0
    0.1867   -2.4719   -0.2452 H   0  0  0  0  0  0  0  0  0  0  0  0
    1.1564   -1.2240   -2.2112 H   0  0  0  0  0  0  0  0  0  0  0  0
    0.1193    0.2193   -1.6963 H   0  0  0  0  0  0  0  0  0  0  0  0
   -1.3820   -0.9676   -2.8788 H   0  0  0  0  0  0  0  0  0  0  0  0
   -0.6810   -2.5889   -2.3553 H   0  0  0  0  0  0  0  0  0  0  0  0
   -2.0081   -2.6303   -0.5348 H   0  0  0  0  0  0  0  0  0  0  0  0
   -1.7269    0.9704   -0.5557 H   0  0  0  0  0  0  0  0  0  0  0  0
   -0.3186    1.1584    0.4783 H   0  0  0  0  0  0  0  0  0  0  0  0
   -1.8435    0.7950    1.2752 H   0  0  0  0  0  0  0  0  0  0  0  0
    6.4649   -0.7021    0.7393 H   0  0  0  0  0  0  0  0  0  0  0  0
    5.6618   -0.2025    2.3223 H   0  0  0  0  0  0  0  0  0  0  0  0
    7.3208    0.3411    1.9679 H   0  0  0  0  0  0  0  0  0  0  0  0
   -3.0619   -0.0290   -1.7027 H   0  0  0  0  0  0  0  0  0  0  0  0
   -4.3829   -2.7213   -1.8963 H   0  0  0  0  0  0  0  0  0  0  0  0
   -2.8852   -2.4995   -2.8170 H   0  0  0  0  0  0  0  0  0  0  0  0
   -4.1998   -1.3531   -3.1307 H   0  0  0  0  0  0  0  0  0  0  0  0
   -4.4045   -1.9740    0.2942 H   0  0  0  0  0  0  0  0  0  0  0  0
   -3.8735   -0.2440    0.5892 H   0  0  0  0  0  0  0  0  0  0  0  0
   -5.3955    0.6630   -0.9906 H   0  0  0  0  0  0  0  0  0  0  0  0
   -5.8882   -0.9956   -1.5774 H   0  0  0  0  0  0  0  0  0  0  0  0
   -7.5992    0.0144   -0.1557 H   0  0  0  0  0  0  0  0  0  0  0  0
   -6.8946   -1.4365    0.6391 H   0  0  0  0  0  0  0  0  0  0  0  0
   -8.4934    0.7438    1.8712 H   0  0  0  0  0  0  0  0  0  0  0  0
   -7.4829    1.1109    3.2804 H   0  0  0  0  0  0  0  0  0  0  0  0
   -7.7676   -0.6062    2.8826 H   0  0  0  0  0  0  0  0  0  0  0  0
   -5.9045    2.3630    2.1814 H   0  0  0  0  0  0  0  0  0  0  0  0
   -5.1170    1.9403    0.6499 H   0  0  0  0  0  0  0  0  0  0  0  0
   -6.9003    2.3484    0.6610 H   0  0  0  0  0  0  0  0  0  0  0  0
    7.9144    2.4414    1.7090 H   0  0  0  0  0  0  0  0  0  0  0  0
  3  4  1  0
  1  5  1  0
  4  5  1  0
  5  6  1  0
  6  7  1  0
  7  8  1  0
  8  9  1  0
  9 10  1  0
 10 11  1  0
  3 12  1  0
  7 12  1  0
 11 13  1  0
 13 14  1  0
 14 15  1  0
 10 16  1  0
 15 16  1  0
 16 17  1  0
 17 18  1  0
 15 19  1  0
 18 19  1  0
 15 20  1  1
 12 21  1  0
 19 22  1  0
 22 23  1  0
 22 24  1  0
 24 25  1  0
 25 26  1  0
 27  2  1  0
 26 27  1  0
 27 28  1  0
 27 29  1  0
  3 30  1  0
  1 31  1  0
  2 32  1  0
  3 33  1  6
  4 34  1  0
  4 35  1  0
  5 36  1  6
  6 37  1  0
  6 38  1  0
  7 39  1  6
  8 40  1  0
  8 41  1  0
  9 42  1  0
  9 43  1  0
 10 44  1  0
 11 45  1  0
 11 46  1  0
 12 47  1  1
 13 48  1  0
 13 49  1  0
 14 50  1  0
 14 51  1  0
 16 52  1  6
 17 53  1  0
 17 54  1  0
 18 55  1  0
 18 56  1  0
 19 57  1  1
 20 58  1  0
 20 59  1  0
 20 60  1  0
 21 61  1  0
 21 62  1  0
 21 63  1  0
 22 64  1  6
 23 65  1  0
 23 66  1  0
 23 67  1  0
 24 68  1  0
 24 69  1  0
 25 70  1  0
 25 71  1  0
 26 72  1  0
 26 73  1  0
 28 74  1  0
 28 75  1  0
 28 76  1  0
 29 77  1  0
 29 78  1  0
 29 79  1  0
 30 80  1  0
M  END
>  <PDBID>  (1) 
1IE9

>  <PDB ID>  (1) 
1IE9

>  <Generic Name>  (1) 
Calcitriol

>  <Brand Name>  (1) 
Calcijex#Calcitriol#Calcitriol Injection#Calcitriol Injection USP#Calcitriol-odan#Rocaltrol#Rocaltrol Cap 0.25mcg#Rocaltrol Cap 0.5mcg#Rocaltrol Oral Solution 1mcg/ml#Silkis#Vectical#Calcitriol Oral Solution#Decostriol

>  <DrugBank ID>  (1) 
DB00136

>  <ATC Codes>  (1) 
A11CC04#D05AX03

>  <Ligand ID>  (1) 
VDX

>  <Target Name>  (1) 
Vitamin D3 receptor

>  <UniProt ID>  (1) 
P11473

>  <PDB ID.1>  (1) 
1IE9

>  <Seq. Identity>  (1) 
84%

$$$$
