PDB_DB00841_02
     RDKit          3D

114116  0  0  0  0  0  0  0  0999 V2000
    7.0238   -0.4962   -0.3552 O   0  0  0  0  0  0  0  0  0  0  0  0
    5.9044   -1.2897   -0.1838 C   0  0  0  0  0  0  0  0  0  0  0  0
    5.4270   -1.1751    1.2319 C   0  0  0  0  0  0  0  0  0  0  0  0
    4.0092   -0.6434    1.2157 C   0  0  0  0  0  0  0  0  0  0  0  0
    4.8802   -0.8576   -1.2064 C   0  0  0  0  0  0  0  0  0  0  0  0
    4.3846    0.5459   -0.9243 C   0  0  0  0  0  0  0  0  0  0  0  0
    4.0331    0.6901    0.5206 C   0  0  0  0  0  0  0  0  0  0  0  0
    2.7891    1.4882    0.7153 C   0  0  0  0  0  0  0  0  0  0  0  0
    1.5964    0.7176    0.1734 C   0  0  0  0  0  0  0  0  0  0  0  0
    0.3145    1.4977    0.3525 C   0  0  1  0  0  0  0  0  0  0  0  0
    0.4531    2.8393   -0.3993 C   0  0  0  0  0  0  0  0  0  0  0  0
   -0.7390    0.7908   -0.3315 N   0  0  0  0  0  0  0  0  0  0  0  0
   -0.9460   -0.4888    0.2543 C   0  0  0  0  0  0  0  0  0  0  0  0
   -2.1078   -1.1311   -0.4968 C   0  0  0  0  0  0  0  0  0  0  0  0
   -3.3620   -0.2894   -0.3736 C   0  0  0  0  0  0  0  0  0  0  0  0
   -3.7528   -0.1457    1.0513 C   0  0  0  0  0  0  0  0  0  0  0  0
   -5.2033   -0.0223    1.3432 C   0  0  0  0  0  0  0  0  0  0  0  0
   -5.6148    1.3084    1.4393 O   0  0  0  0  0  0  0  0  0  0  0  0
   -6.1103   -0.7099    0.3630 C   0  0  0  0  0  0  0  0  0  0  0  0
   -6.6089    0.2578   -0.5292 O   0  0  0  0  0  0  0  0  0  0  0  0
   -5.3341   -1.7087   -0.4916 C   0  0  0  0  0  0  0  0  0  0  0  0
   -4.3867   -0.8398   -1.2997 C   0  0  0  0  0  0  0  0  0  0  0  0
    7.0238   -0.4962   -0.3552 O   0  0  0  0  0  0  0  0  0  0  0  0
    5.9044   -1.2897   -0.1838 C   0  0  0  0  0  0  0  0  0  0  0  0
    5.4270   -1.1751    1.2319 C   0  0  0  0  0  0  0  0  0  0  0  0
    4.0092   -0.6434    1.2157 C   0  0  0  0  0  0  0  0  0  0  0  0
    4.8802   -0.8576   -1.2064 C   0  0  0  0  0  0  0  0  0  0  0  0
    4.3846    0.5459   -0.9243 C   0  0  0  0  0  0  0  0  0  0  0  0
    4.0331    0.6901    0.5206 C   0  0  0  0  0  0  0  0  0  0  0  0
    2.7891    1.4882    0.7153 C   0  0  0  0  0  0  0  0  0  0  0  0
    1.5964    0.7176    0.1734 C   0  0  0  0  0  0  0  0  0  0  0  0
    0.3145    1.4977    0.3525 C   0  0  1  0  0  0  0  0  0  0  0  0
    0.4531    2.8393   -0.3993 C   0  0  0  0  0  0  0  0  0  0  0  0
   -0.7390    0.7908   -0.3315 N   0  0  0  0  0  0  0  0  0  0  0  0
   -0.9460   -0.4888    0.2543 C   0  0  0  0  0  0  0  0  0  0  0  0
   -2.1078   -1.1311   -0.4968 C   0  0  0  0  0  0  0  0  0  0  0  0
   -3.3620   -0.2894   -0.3736 C   0  0  0  0  0  0  0  0  0  0  0  0
   -3.7528   -0.1457    1.0513 C   0  0  0  0  0  0  0  0  0  0  0  0
   -5.2033   -0.0223    1.3432 C   0  0  0  0  0  0  0  0  0  0  0  0
   -5.6148    1.3084    1.4393 O   0  0  0  0  0  0  0  0  0  0  0  0
   -6.1103   -0.7099    0.3630 C   0  0  0  0  0  0  0  0  0  0  0  0
   -6.6089    0.2578   -0.5292 O   0  0  0  0  0  0  0  0  0  0  0  0
   -5.3341   -1.7087   -0.4916 C   0  0  0  0  0  0  0  0  0  0  0  0
   -4.3867   -0.8398   -1.2997 C   0  0  0  0  0  0  0  0  0  0  0  0
    6.8702    0.4315   -0.0389 H   0  0  0  0  0  0  0  0  0  0  0  0
    6.1883   -2.3372   -0.4515 H   0  0  0  0  0  0  0  0  0  0  0  0
    6.0304   -0.4287    1.7904 H   0  0  0  0  0  0  0  0  0  0  0  0
    5.4571   -2.1739    1.7521 H   0  0  0  0  0  0  0  0  0  0  0  0
    3.3986   -1.3990    0.6815 H   0  0  0  0  0  0  0  0  0  0  0  0
    3.5746   -0.5362    2.2184 H   0  0  0  0  0  0  0  0  0  0  0  0
    4.0820   -1.6012   -1.2780 H   0  0  0  0  0  0  0  0  0  0  0  0
    5.3877   -0.8191   -2.1912 H   0  0  0  0  0  0  0  0  0  0  0  0
    5.2383    1.2254   -1.2122 H   0  0  0  0  0  0  0  0  0  0  0  0
    3.5613    0.7892   -1.5962 H   0  0  0  0  0  0  0  0  0  0  0  0
    4.8683    1.2726    1.0110 H   0  0  0  0  0  0  0  0  0  0  0  0
    2.6744    1.6959    1.7976 H   0  0  0  0  0  0  0  0  0  0  0  0
    2.9241    2.4625    0.2074 H   0  0  0  0  0  0  0  0  0  0  0  0
    1.6886    0.4506   -0.8732 H   0  0  0  0  0  0  0  0  0  0  0  0
    1.5638   -0.2103    0.8171 H   0  0  0  0  0  0  0  0  0  0  0  0
    0.0861    1.7129    1.4001 H   0  0  0  0  0  0  0  0  0  0  0  0
   -0.5797    3.1886   -0.5978 H   0  0  0  0  0  0  0  0  0  0  0  0
    0.9892    3.5734    0.2089 H   0  0  0  0  0  0  0  0  0  0  0  0
    0.9373    2.6562   -1.3726 H   0  0  0  0  0  0  0  0  0  0  0  0
   -0.6654    0.8073   -1.3490 H   0  0  0  0  0  0  0  0  0  0  0  0
   -0.0534   -1.1351    0.2103 H   0  0  0  0  0  0  0  0  0  0  0  0
   -1.2634   -0.4315    1.3143 H   0  0  0  0  0  0  0  0  0  0  0  0
   -1.8318   -1.3436   -1.5261 H   0  0  0  0  0  0  0  0  0  0  0  0
   -2.2815   -2.1112    0.0159 H   0  0  0  0  0  0  0  0  0  0  0  0
   -3.0687    0.7201   -0.7953 H   0  0  0  0  0  0  0  0  0  0  0  0
   -3.2388    0.7482    1.4740 H   0  0  0  0  0  0  0  0  0  0  0  0
   -3.3437   -1.0112    1.6239 H   0  0  0  0  0  0  0  0  0  0  0  0
   -5.4300   -0.4757    2.3451 H   0  0  0  0  0  0  0  0  0  0  0  0
   -6.5150    1.4541    1.0575 H   0  0  0  0  0  0  0  0  0  0  0  0
   -6.9630   -1.2226    0.8076 H   0  0  0  0  0  0  0  0  0  0  0  0
   -7.2721   -0.0984   -1.1508 H   0  0  0  0  0  0  0  0  0  0  0  0
   -4.7427   -2.3829    0.1365 H   0  0  0  0  0  0  0  0  0  0  0  0
   -6.0734   -2.2222   -1.1373 H   0  0  0  0  0  0  0  0  0  0  0  0
   -3.9113   -1.5262   -2.0410 H   0  0  0  0  0  0  0  0  0  0  0  0
   -4.9365   -0.0602   -1.8691 H   0  0  0  0  0  0  0  0  0  0  0  0
    6.8702    0.4315   -0.0389 H   0  0  0  0  0  0  0  0  0  0  0  0
    6.1883   -2.3372   -0.4515 H   0  0  0  0  0  0  0  0  0  0  0  0
    6.0304   -0.4287    1.7904 H   0  0  0  0  0  0  0  0  0  0  0  0
    5.4571   -2.1739    1.7521 H   0  0  0  0  0  0  0  0  0  0  0  0
    3.3986   -1.3990    0.6815 H   0  0  0  0  0  0  0  0  0  0  0  0
    3.5746   -0.5362    2.2184 H   0  0  0  0  0  0  0  0  0  0  0  0
    4.0820   -1.6012   -1.2780 H   0  0  0  0  0  0  0  0  0  0  0  0
    5.3877   -0.8191   -2.1912 H   0  0  0  0  0  0  0  0  0  0  0  0
    5.2383    1.2254   -1.2122 H   0  0  0  0  0  0  0  0  0  0  0  0
    3.5613    0.7892   -1.5962 H   0  0  0  0  0  0  0  0  0  0  0  0
    4.8683    1.2726    1.0110 H   0  0  0  0  0  0  0  0  0  0  0  0
    2.6744    1.6959    1.7976 H   0  0  0  0  0  0  0  0  0  0  0  0
    2.9241    2.4625    0.2074 H   0  0  0  0  0  0  0  0  0  0  0  0
    1.6886    0.4506   -0.8732 H   0  0  0  0  0  0  0  0  0  0  0  0
    1.5638   -0.2103    0.8171 H   0  0  0  0  0  0  0  0  0  0  0  0
    0.0861    1.7129    1.4001 H   0  0  0  0  0  0  0  0  0  0  0  0
   -0.5797    3.1886   -0.5978 H   0  0  0  0  0  0  0  0  0  0  0  0
    0.9892    3.5734    0.2089 H   0  0  0  0  0  0  0  0  0  0  0  0
    0.9373    2.6562   -1.3726 H   0  0  0  0  0  0  0  0  0  0  0  0
   -0.6654    0.8073   -1.3490 H   0  0  0  0  0  0  0  0  0  0  0  0
   -0.0534   -1.1351    0.2103 H   0  0  0  0  0  0  0  0  0  0  0  0
   -1.2634   -0.4315    1.3143 H   0  0  0  0  0  0  0  0  0  0  0  0
   -1.8318   -1.3436   -1.5261 H   0  0  0  0  0  0  0  0  0  0  0  0
   -2.2815   -2.1112    0.0159 H   0  0  0  0  0  0  0  0  0  0  0  0
   -3.0687    0.7201   -0.7953 H   0  0  0  0  0  0  0  0  0  0  0  0
   -3.2388    0.7482    1.4740 H   0  0  0  0  0  0  0  0  0  0  0  0
   -3.3437   -1.0112    1.6239 H   0  0  0  0  0  0  0  0  0  0  0  0
   -5.4300   -0.4757    2.3451 H   0  0  0  0  0  0  0  0  0  0  0  0
   -6.5150    1.4541    1.0575 H   0  0  0  0  0  0  0  0  0  0  0  0
   -6.9630   -1.2226    0.8076 H   0  0  0  0  0  0  0  0  0  0  0  0
   -7.2721   -0.0984   -1.1508 H   0  0  0  0  0  0  0  0  0  0  0  0
   -4.7427   -2.3829    0.1365 H   0  0  0  0  0  0  0  0  0  0  0  0
   -6.0734   -2.2222   -1.1373 H   0  0  0  0  0  0  0  0  0  0  0  0
   -3.9113   -1.5262   -2.0410 H   0  0  0  0  0  0  0  0  0  0  0  0
   -4.9365   -0.0602   -1.8691 H   0  0  0  0  0  0  0  0  0  0  0  0
  1  2  1  0
  2  3  1  0
  3  4  1  0
  2  5  1  0
  5  6  1  0
  4  7  1  0
  6  7  1  0
  7  8  1  0
  8  9  1  0
  9 10  1  0
 10 11  1  0
 10 12  1  0
 12 13  1  0
 13 14  1  0
 14 15  1  0
 15 16  1  0
 16 17  1  0
 17 18  1  0
 17 19  1  0
 19 20  1  0
 19 21  1  0
 15 22  1  0
 21 22  1  0
 23 24  1  0
 24 25  1  0
 25 26  1  0
 24 27  1  0
 27 28  1  0
 26 29  1  0
 28 29  1  0
 29 30  1  0
 30 31  1  0
 31 32  1  0
 32 33  1  0
 32 34  1  0
 34 35  1  0
 35 36  1  0
 36 37  1  0
 37 38  1  0
 38 39  1  0
 39 40  1  0
 39 41  1  0
 41 42  1  0
 41 43  1  0
 37 44  1  0
 43 44  1  0
  1 45  1  0
  2 46  1  0
  3 47  1  0
  3 48  1  0
  4 49  1  0
  4 50  1  0
  5 51  1  0
  5 52  1  0
  6 53  1  0
  6 54  1  0
  7 55  1  0
  8 56  1  0
  8 57  1  0
  9 58  1  0
  9 59  1  0
 10 60  1  1
 11 61  1  0
 11 62  1  0
 11 63  1  0
 12 64  1  0
 13 65  1  0
 13 66  1  0
 14 67  1  0
 14 68  1  0
 15 69  1  0
 16 70  1  0
 16 71  1  0
 17 72  1  0
 18 73  1  0
 19 74  1  0
 20 75  1  0
 21 76  1  0
 21 77  1  0
 22 78  1  0
 22 79  1  0
 23 80  1  0
 24 81  1  0
 25 82  1  0
 25 83  1  0
 26 84  1  0
 26 85  1  0
 27 86  1  0
 27 87  1  0
 28 88  1  0
 28 89  1  0
 29 90  1  0
 30 91  1  0
 30 92  1  0
 31 93  1  0
 31 94  1  0
 32 95  1  1
 33 96  1  0
 33 97  1  0
 33 98  1  0
 34 99  1  0
 35100  1  0
 35101  1  0
 36102  1  0
 36103  1  0
 37104  1  0
 38105  1  0
 38106  1  0
 39107  1  0
 40108  1  0
 41109  1  0
 42110  1  0
 43111  1  0
 43112  1  0
 44113  1  0
 44114  1  0
M  END
>  <PDBID>  (1) 
2Y00

>  <PDB ID>  (1) 
2Y00

>  <Generic Name>  (1) 
Dobutamine

>  <Brand Name>  (1) 
Dobutamine#Dobutamine 12.5mg/ml#Dobutamine Hydrochloride#Dobutamine Hydrochloride In Dextrose#Dobutamine Hydrochloride Injection USP#Dobutamine Hydrochloride Injection-12.5mg/ml#Dobutamine Injection Sdz#Dobutamine Injection USP#Dobutrex#Dobuject#Dobusafe#Dobutamin#Dobutan#Dobutel#Dobutil#Dopmin#Inotrex

>  <DrugBank ID>  (1) 
DB00841

>  <ATC Codes>  (1) 
C01CA07

>  <Ligand ID>  (1) 
Y00

>  <Target Name>  (1) 
Beta-1 adrenergic receptor

>  <UniProt ID>  (1) 
P08588

>  <PDB ID.1>  (1) 
2Y00

>  <Seq. Identity>  (1) 
63%

$$$$
