PDB_DB04835_01
     RDKit          3D

180188  0  0  0  0  0  0  0  0999 V2000
    5.6812    5.1873    0.0354 F   0  0  0  0  0  0  0  0  0  0  0  0
    5.6038    0.5662   -0.6871 O   0  0  0  0  0  0  0  0  0  0  0  0
   -3.1599    0.9986    0.3269 C   0  0  0  0  0  0  0  0  0  0  0  0
   -4.2862    1.7238    0.6910 N   0  0  0  0  0  0  0  0  0  0  0  0
    0.4551   -0.5565   -0.5541 C   0  0  0  0  0  0  0  0  0  0  0  0
   -6.0744    1.0972   -0.9620 C   0  0  0  0  0  0  0  0  0  0  0  0
    1.3873   -0.8969    0.5464 C   0  0  0  0  0  0  0  0  0  0  0  0
    2.6998   -1.4379    0.2440 C   0  0  1  0  0  0  0  0  0  0  0  0
   -3.2216    2.1283    2.9084 C   0  0  0  0  0  0  0  0  0  0  0  0
    2.7108   -2.7201   -0.5936 C   0  0  0  0  0  0  0  0  0  0  0  0
    4.2168    0.2614   -0.7863 C   0  0  2  0  0  0  0  0  0  0  0  0
    3.5126    1.5738   -0.5246 C   0  0  0  0  0  0  0  0  0  0  0  0
    5.4199    3.8477    0.0402 C   0  0  0  0  0  0  0  0  0  0  0  0
   -5.9743    2.3363   -1.7909 C   0  0  0  0  0  0  0  0  0  0  0  0
    6.4336    3.2064    0.7487 F   0  0  0  0  0  0  0  0  0  0  0  0
   -0.8183   -0.0095   -0.1177 N   0  0  0  0  0  0  0  0  0  0  0  0
   -1.6511   -0.9563    0.5564 C   0  0  1  0  0  0  0  0  0  0  0  0
   -7.6026    0.8521   -0.8328 C   0  0  0  0  0  0  0  0  0  0  0  0
    3.8883    2.6076   -1.5428 C   0  0  0  0  0  0  0  0  0  0  0  0
    3.9575    2.1113    0.8528 C   0  0  0  0  0  0  0  0  0  0  0  0
    5.2129    3.2631   -1.3170 C   0  0  0  0  0  0  0  0  0  0  0  0
    4.1340    3.6107    0.8208 C   0  0  0  0  0  0  0  0  0  0  0  0
    4.1267   -3.1897   -0.8474 C   0  0  0  0  0  0  0  0  0  0  0  0
    1.9728   -3.8265    0.1030 C   0  0  0  0  0  0  0  0  0  0  0  0
    4.3292   -4.6329   -0.4483 C   0  0  0  0  0  0  0  0  0  0  0  0
    2.6936   -4.3757    1.3187 C   0  0  0  0  0  0  0  0  0  0  0  0
    4.1474   -4.6706    1.0681 C   0  0  0  0  0  0  0  0  0  0  0  0
   -1.5700    0.1532   -1.3784 C   0  0  2  0  0  0  0  0  0  0  0  0
   -5.7594    0.1817    1.2916 N   0  0  0  0  0  0  0  0  0  0  0  0
   -5.5921    1.3176    0.3986 C   0  0  1  0  0  0  0  0  0  0  0  0
   -5.1860    0.6689    2.4845 N   0  0  0  0  0  0  0  0  0  0  0  0
    3.8717   -0.7313    0.0913 N   0  0  0  0  0  0  0  0  0  0  0  0
   -3.0204   -0.3885    0.8377 C   0  0  0  0  0  0  0  0  0  0  0  0
   -2.7483    1.0524   -1.1216 C   0  0  0  0  0  0  0  0  0  0  0  0
   -4.4266    1.8516    2.1246 C   0  0  0  0  0  0  0  0  0  0  0  0
   -1.8588   -2.0581   -0.4663 C   0  0  0  0  0  0  0  0  0  0  0  0
   -1.9748   -1.2672   -1.7377 C   0  0  0  0  0  0  0  0  0  0  0  0
    5.8600    5.1809   -0.3373 F   0  0  0  0  0  0  0  0  0  0  0  0
    5.7154    0.3979   -0.7968 O   0  0  0  0  0  0  0  0  0  0  0  0
   -3.0791    1.2614    0.4271 C   0  0  0  0  0  0  0  0  0  0  0  0
   -4.4744    1.5705    0.4262 N   0  0  0  0  0  0  0  0  0  0  0  0
    0.5944   -0.4386   -0.4231 C   0  0  0  0  0  0  0  0  0  0  0  0
   -6.6399    1.2284   -0.6113 C   0  0  0  0  0  0  0  0  0  0  0  0
    1.5218   -0.8317    0.6651 C   0  0  0  0  0  0  0  0  0  0  0  0
    2.7695   -1.5097    0.2542 C   0  0  1  0  0  0  0  0  0  0  0  0
   -4.2369    2.7218    2.6128 C   0  0  0  0  0  0  0  0  0  0  0  0
    2.5419   -2.7861   -0.5505 C   0  0  0  0  0  0  0  0  0  0  0  0
    4.3083    0.1701   -0.7746 C   0  0  2  0  0  0  0  0  0  0  0  0
    3.7193    1.5352   -0.4471 C   0  0  0  0  0  0  0  0  0  0  0  0
    5.7085    3.8261   -0.1243 C   0  0  0  0  0  0  0  0  0  0  0  0
   -6.3589    2.2034   -1.7230 C   0  0  0  0  0  0  0  0  0  0  0  0
    6.8573    3.3753    0.4999 F   0  0  0  0  0  0  0  0  0  0  0  0
   -0.5992    0.2487    0.0299 N   0  0  0  0  0  0  0  0  0  0  0  0
   -1.4646   -0.6078    0.7817 C   0  0  1  0  0  0  0  0  0  0  0  0
   -7.5454    0.1499   -1.1977 C   0  0  0  0  0  0  0  0  0  0  0  0
    4.1160    2.4873   -1.5225 C   0  0  0  0  0  0  0  0  0  0  0  0
    4.3317    2.0354    0.8747 C   0  0  0  0  0  0  0  0  0  0  0  0
    5.4669    3.1096   -1.4333 C   0  0  0  0  0  0  0  0  0  0  0  0
    4.4939    3.5332    0.7607 C   0  0  0  0  0  0  0  0  0  0  0  0
    3.8818   -3.3618   -0.9313 C   0  0  0  0  0  0  0  0  0  0  0  0
    1.8452   -3.8505    0.2779 C   0  0  0  0  0  0  0  0  0  0  0  0
    4.1699   -4.7098   -0.3447 C   0  0  0  0  0  0  0  0  0  0  0  0
    2.6553   -4.3026    1.4691 C   0  0  0  0  0  0  0  0  0  0  0  0
    4.1030   -4.5435    1.1698 C   0  0  0  0  0  0  0  0  0  0  0  0
   -1.4050    0.3960   -1.2031 C   0  0  2  0  0  0  0  0  0  0  0  0
   -5.7641   -0.1452    1.1218 N   0  0  0  0  0  0  0  0  0  0  0  0
   -5.3582    0.5774   -0.0726 C   0  0  0  0  0  0  0  0  0  0  0  0
   -5.7010    0.7769    2.1615 N   0  0  0  0  0  0  0  0  0  0  0  0
    3.9747   -0.8563    0.0701 N   0  0  0  0  0  0  0  0  0  0  0  0
   -2.7062    0.0776    1.2439 C   0  0  0  0  0  0  0  0  0  0  0  0
   -2.5911    1.2599   -0.9960 C   0  0  0  0  0  0  0  0  0  0  0  0
   -5.0700    1.9736    1.6455 C   0  0  0  0  0  0  0  0  0  0  0  0
   -1.8592   -1.7451   -0.1577 C   0  0  0  0  0  0  0  0  0  0  0  0
   -1.9226   -1.0186   -1.4684 C   0  0  0  0  0  0  0  0  0  0  0  0
    6.1473   -0.0730   -1.1865 H   0  0  0  0  0  0  0  0  0  0  0  0
   -2.2736    1.5379    0.8238 H   0  0  0  0  0  0  0  0  0  0  0  0
    0.1574   -1.4397   -1.1779 H   0  0  0  0  0  0  0  0  0  0  0  0
    0.8525    0.1457   -1.3015 H   0  0  0  0  0  0  0  0  0  0  0  0
   -5.7462    0.1637   -1.4664 H   0  0  0  0  0  0  0  0  0  0  0  0
    1.4973   -0.0102    1.2067 H   0  0  0  0  0  0  0  0  0  0  0  0
    0.8019   -1.6213    1.2013 H   0  0  0  0  0  0  0  0  0  0  0  0
    2.9474   -2.0004    1.2999 H   0  0  0  0  0  0  0  0  0  0  0  0
   -3.5261    2.7449    3.8128 H   0  0  0  0  0  0  0  0  0  0  0  0
   -2.6623    1.2970    3.3318 H   0  0  0  0  0  0  0  0  0  0  0  0
   -2.5870    2.8476    2.3394 H   0  0  0  0  0  0  0  0  0  0  0  0
    2.2493   -2.5671   -1.5755 H   0  0  0  0  0  0  0  0  0  0  0  0
    4.1351   -0.0054   -1.8837 H   0  0  0  0  0  0  0  0  0  0  0  0
    2.4172    1.4876   -0.4017 H   0  0  0  0  0  0  0  0  0  0  0  0
   -6.5793    2.1439   -2.7263 H   0  0  0  0  0  0  0  0  0  0  0  0
   -4.9864    2.6382   -2.1138 H   0  0  0  0  0  0  0  0  0  0  0  0
   -6.5413    3.1322   -1.2600 H   0  0  0  0  0  0  0  0  0  0  0  0
   -1.1489   -1.3248    1.4634 H   0  0  0  0  0  0  0  0  0  0  0  0
   -8.1036    1.0823   -1.7899 H   0  0  0  0  0  0  0  0  0  0  0  0
   -7.7835   -0.2037   -0.5662 H   0  0  0  0  0  0  0  0  0  0  0  0
   -8.0367    1.5202   -0.0641 H   0  0  0  0  0  0  0  0  0  0  0  0
    3.9627    2.1217   -2.5607 H   0  0  0  0  0  0  0  0  0  0  0  0
    3.1244    3.4207   -1.5685 H   0  0  0  0  0  0  0  0  0  0  0  0
    4.9006    1.6267    1.1754 H   0  0  0  0  0  0  0  0  0  0  0  0
    3.2048    1.8756    1.6276 H   0  0  0  0  0  0  0  0  0  0  0  0
    6.0747    2.5901   -1.5603 H   0  0  0  0  0  0  0  0  0  0  0  0
    5.2864    4.1489   -2.0334 H   0  0  0  0  0  0  0  0  0  0  0  0
    3.2739    4.1042    0.3470 H   0  0  0  0  0  0  0  0  0  0  0  0
    4.2196    3.9795    1.8419 H   0  0  0  0  0  0  0  0  0  0  0  0
    4.4047   -3.1315   -1.9285 H   0  0  0  0  0  0  0  0  0  0  0  0
    4.8969   -2.6026   -0.3150 H   0  0  0  0  0  0  0  0  0  0  0  0
    0.9764   -3.5176    0.4806 H   0  0  0  0  0  0  0  0  0  0  0  0
    1.7640   -4.6373   -0.6290 H   0  0  0  0  0  0  0  0  0  0  0  0
    5.3695   -4.8900   -0.6549 H   0  0  0  0  0  0  0  0  0  0  0  0
    3.6717   -5.3260   -0.9627 H   0  0  0  0  0  0  0  0  0  0  0  0
    2.5014   -3.7739    2.2234 H   0  0  0  0  0  0  0  0  0  0  0  0
    2.2112   -5.3785    1.5176 H   0  0  0  0  0  0  0  0  0  0  0  0
    4.5070   -5.5995    1.5113 H   0  0  0  0  0  0  0  0  0  0  0  0
    4.7188   -3.7717    1.4418 H   0  0  0  0  0  0  0  0  0  0  0  0
   -0.8977    0.5329   -2.1773 H   0  0  0  0  0  0  0  0  0  0  0  0
   -6.7705   -0.0082    1.3728 H   0  0  0  0  0  0  0  0  0  0  0  0
   -6.2724    2.1111    0.8507 H   0  0  0  0  0  0  0  0  0  0  0  0
   -6.0150    0.9212    3.0962 H   0  0  0  0  0  0  0  0  0  0  0  0
    4.6420   -0.9226    0.7933 H   0  0  0  0  0  0  0  0  0  0  0  0
   -3.8343   -0.9899    0.3525 H   0  0  0  0  0  0  0  0  0  0  0  0
   -3.1922   -0.5208    1.9280 H   0  0  0  0  0  0  0  0  0  0  0  0
   -2.4892    2.1246   -1.4026 H   0  0  0  0  0  0  0  0  0  0  0  0
   -3.5156    0.7695   -1.8423 H   0  0  0  0  0  0  0  0  0  0  0  0
   -5.1354    2.7284    2.2770 H   0  0  0  0  0  0  0  0  0  0  0  0
   -1.1128   -2.8436   -0.4545 H   0  0  0  0  0  0  0  0  0  0  0  0
   -2.8334   -2.5563   -0.1898 H   0  0  0  0  0  0  0  0  0  0  0  0
   -3.0598   -1.2641   -2.0176 H   0  0  0  0  0  0  0  0  0  0  0  0
   -1.3427   -1.6960   -2.5336 H   0  0  0  0  0  0  0  0  0  0  0  0
    6.1974   -0.3742   -1.1602 H   0  0  0  0  0  0  0  0  0  0  0  0
   -2.5250    2.1385    0.9118 H   0  0  0  0  0  0  0  0  0  0  0  0
    0.1857   -1.3099   -0.9948 H   0  0  0  0  0  0  0  0  0  0  0  0
    1.0525    0.1883   -1.2072 H   0  0  0  0  0  0  0  0  0  0  0  0
   -7.2202    1.7334    0.1646 H   0  0  0  0  0  0  0  0  0  0  0  0
    1.7429    0.0361    1.2924 H   0  0  0  0  0  0  0  0  0  0  0  0
    0.9099   -1.5033    1.3519 H   0  0  0  0  0  0  0  0  0  0  0  0
    3.0246   -2.0738    1.3012 H   0  0  0  0  0  0  0  0  0  0  0  0
   -4.9227    3.4140    3.2003 H   0  0  0  0  0  0  0  0  0  0  0  0
   -3.7199    2.1409    3.3823 H   0  0  0  0  0  0  0  0  0  0  0  0
   -3.5905    3.4276    2.0490 H   0  0  0  0  0  0  0  0  0  0  0  0
    1.9723   -2.6386   -1.4579 H   0  0  0  0  0  0  0  0  0  0  0  0
    4.1193   -0.0473   -1.8838 H   0  0  0  0  0  0  0  0  0  0  0  0
    2.6455    1.5353   -0.2469 H   0  0  0  0  0  0  0  0  0  0  0  0
   -7.2579    2.3152   -2.3697 H   0  0  0  0  0  0  0  0  0  0  0  0
   -5.5532    1.8291   -2.3691 H   0  0  0  0  0  0  0  0  0  0  0  0
   -6.0814    3.2123   -1.3217 H   0  0  0  0  0  0  0  0  0  0  0  0
   -0.9972   -1.0829    1.6717 H   0  0  0  0  0  0  0  0  0  0  0  0
   -8.1482    0.6172   -2.0006 H   0  0  0  0  0  0  0  0  0  0  0  0
   -6.8999   -0.6270   -1.6525 H   0  0  0  0  0  0  0  0  0  0  0  0
   -8.2575   -0.2539   -0.4634 H   0  0  0  0  0  0  0  0  0  0  0  0
    4.0909    1.9432   -2.5187 H   0  0  0  0  0  0  0  0  0  0  0  0
    3.3839    3.3175   -1.6594 H   0  0  0  0  0  0  0  0  0  0  0  0
    5.3163    1.5534    1.0482 H   0  0  0  0  0  0  0  0  0  0  0  0
    3.6348    1.8575    1.7153 H   0  0  0  0  0  0  0  0  0  0  0  0
    6.3233    2.4301   -1.5863 H   0  0  0  0  0  0  0  0  0  0  0  0
    5.5407    3.8438   -2.2908 H   0  0  0  0  0  0  0  0  0  0  0  0
    3.6460    4.0408    0.3082 H   0  0  0  0  0  0  0  0  0  0  0  0
    4.7260    4.0044    1.7431 H   0  0  0  0  0  0  0  0  0  0  0  0
    3.9812   -3.4820   -2.0375 H   0  0  0  0  0  0  0  0  0  0  0  0
    4.7416   -2.7016   -0.6619 H   0  0  0  0  0  0  0  0  0  0  0  0
    0.8924   -3.4812    0.7101 H   0  0  0  0  0  0  0  0  0  0  0  0
    1.5702   -4.6714   -0.4003 H   0  0  0  0  0  0  0  0  0  0  0  0
    5.1817   -4.9952   -0.6091 H   0  0  0  0  0  0  0  0  0  0  0  0
    3.4894   -5.5074   -0.6976 H   0  0  0  0  0  0  0  0  0  0  0  0
    2.4798   -3.6973    2.3738 H   0  0  0  0  0  0  0  0  0  0  0  0
    2.2330   -5.3166    1.7439 H   0  0  0  0  0  0  0  0  0  0  0  0
    4.5129   -5.4628    1.6636 H   0  0  0  0  0  0  0  0  0  0  0  0
    4.7686   -3.7017    1.4317 H   0  0  0  0  0  0  0  0  0  0  0  0
   -0.7947    0.7744   -2.0231 H   0  0  0  0  0  0  0  0  0  0  0  0
   -6.7564   -0.4837    1.0667 H   0  0  0  0  0  0  0  0  0  0  0  0
   -5.0042   -0.0759   -0.8618 H   0  0  0  0  0  0  0  0  0  0  0  0
   -5.1221    0.4162    2.9570 H   0  0  0  0  0  0  0  0  0  0  0  0
    4.7928   -1.1770    0.6584 H   0  0  0  0  0  0  0  0  0  0  0  0
   -3.5007   -0.6993    1.3428 H   0  0  0  0  0  0  0  0  0  0  0  0
   -2.5364    0.4137    2.3078 H   0  0  0  0  0  0  0  0  0  0  0  0
   -2.3853    2.3375   -1.2762 H   0  0  0  0  0  0  0  0  0  0  0  0
   -3.4626    0.9497   -1.6492 H   0  0  0  0  0  0  0  0  0  0  0  0
   -5.9205    2.6720    1.3619 H   0  0  0  0  0  0  0  0  0  0  0  0
   -1.1485   -2.5727   -0.1263 H   0  0  0  0  0  0  0  0  0  0  0  0
   -2.8406   -2.1121    0.2045 H   0  0  0  0  0  0  0  0  0  0  0  0
   -2.9971   -0.9800   -1.7766 H   0  0  0  0  0  0  0  0  0  0  0  0
   -1.3719   -1.5026   -2.2840 H   0  0  0  0  0  0  0  0  0  0  0  0
  3  4  1  0
  5  7  1  0
  7  8  1  0
  8 10  1  0
  2 11  1  0
 11 12  1  0
 13  1  1  0
  6 14  1  0
 13 15  1  0
  5 16  1  0
 16 17  1  0
  6 18  1  0
 12 19  1  0
 12 20  1  0
 13 21  1  0
 19 21  1  0
 13 22  1  0
 20 22  1  0
 10 23  1  0
 10 24  1  0
 23 25  1  0
 24 26  1  0
 25 27  1  0
 26 27  1  0
 16 28  1  0
  4 30  1  0
  6 30  1  0
 29 30  1  0
 29 31  1  0
  8 32  1  0
 11 32  1  0
  3 33  1  0
 17 33  1  0
  3 34  1  0
 28 34  1  0
  4 35  1  0
  9 35  1  0
 31 35  1  0
 17 36  1  0
 28 37  1  0
 36 37  1  0
 40 41  1  0
 42 44  1  0
 44 45  1  0
 45 47  1  0
 39 48  1  0
 48 49  1  0
 50 38  1  0
 43 51  1  0
 50 52  1  0
 42 53  1  0
 53 54  1  0
 43 55  1  0
 49 56  1  0
 49 57  1  0
 50 58  1  0
 56 58  1  0
 50 59  1  0
 57 59  1  0
 47 60  1  0
 47 61  1  0
 60 62  1  0
 61 63  1  0
 62 64  1  0
 63 64  1  0
 53 65  1  0
 41 67  1  0
 43 67  1  0
 66 67  1  0
 66 68  1  0
 45 69  1  0
 48 69  1  0
 40 70  1  0
 54 70  1  0
 40 71  1  0
 65 71  1  0
 41 72  1  0
 46 72  1  0
 68 72  1  0
 54 73  1  0
 65 74  1  0
 73 74  1  0
  2 75  1  0
  3 76  1  0
  5 77  1  0
  5 78  1  0
  6 79  1  0
  7 80  1  0
  7 81  1  0
  8 82  1  1
  9 83  1  0
  9 84  1  0
  9 85  1  0
 10 86  1  0
 11 87  1  6
 12 88  1  0
 14 89  1  0
 14 90  1  0
 14 91  1  0
 17 92  1  1
 18 93  1  0
 18 94  1  0
 18 95  1  0
 19 96  1  0
 19 97  1  0
 20 98  1  0
 20 99  1  0
 21100  1  0
 21101  1  0
 22102  1  0
 22103  1  0
 23104  1  0
 23105  1  0
 24106  1  0
 24107  1  0
 25108  1  0
 25109  1  0
 26110  1  0
 26111  1  0
 27112  1  0
 27113  1  0
 28114  1  6
 29115  1  0
 30116  1  1
 31117  1  0
 32118  1  0
 33119  1  0
 33120  1  0
 34121  1  0
 34122  1  0
 35123  1  0
 36124  1  0
 36125  1  0
 37126  1  0
 37127  1  0
 39128  1  0
 40129  1  0
 42130  1  0
 42131  1  0
 43132  1  0
 44133  1  0
 44134  1  0
 45135  1  1
 46136  1  0
 46137  1  0
 46138  1  0
 47139  1  0
 48140  1  6
 49141  1  0
 51142  1  0
 51143  1  0
 51144  1  0
 54145  1  1
 55146  1  0
 55147  1  0
 55148  1  0
 56149  1  0
 56150  1  0
 57151  1  0
 57152  1  0
 58153  1  0
 58154  1  0
 59155  1  0
 59156  1  0
 60157  1  0
 60158  1  0
 61159  1  0
 61160  1  0
 62161  1  0
 62162  1  0
 63163  1  0
 63164  1  0
 64165  1  0
 64166  1  0
 65167  1  6
 66168  1  0
 67169  1  0
 68170  1  0
 69171  1  0
 70172  1  0
 70173  1  0
 71174  1  0
 71175  1  0
 72176  1  0
 73177  1  0
 73178  1  0
 74179  1  0
 74180  1  0
M  END
>  <PDBID>  (1) 
4MBS

>  <PDB ID>  (1) 
4MBS

>  <Generic Name>  (1) 
Maraviroc

>  <Brand Name>  (1) 
Celsentri#Selzentry

>  <DrugBank ID>  (1) 
DB04835

>  <ATC Codes>  (1) 
J05AX09

>  <Ligand ID>  (1) 
MRV

>  <Target Name>  (1) 
C-C chemokine receptor type 5

>  <UniProt ID>  (1) 
P51681

>  <PDB ID.1>  (1) 
4MBS

>  <Seq. Identity>  (1) 
74%

$$$$
