PDB_DB01361_09
     RDKit          3D

134137  0  0  0  0  0  0  0  0999 V2000
    6.7533    0.1027    0.1467 C   0  0  0  0  0  0  0  0  0  0  0  0
    6.1328   -0.5766   -0.9115 O   0  0  0  0  0  0  0  0  0  0  0  0
    4.9040   -1.1160   -0.5386 C   0  0  1  0  0  0  0  0  0  0  0  0
    3.7705   -0.6125   -1.3673 C   0  0  0  0  0  0  0  0  0  0  0  0
    2.4831   -1.0886   -0.6827 C   0  0  1  0  0  0  0  0  0  0  0  0
    2.5058   -2.3992   -0.3445 O   0  0  0  0  0  0  0  0  0  0  0  0
    3.5326   -3.1849   -0.7580 C   0  0  1  0  0  0  0  0  0  0  0  0
    3.3129   -3.8099   -2.1330 C   0  0  0  0  0  0  0  0  0  0  0  0
    4.9123   -2.6214   -0.6329 C   0  0  2  0  0  0  0  0  0  0  0  0
    5.6712   -3.1957    0.3857 O   0  0  0  0  0  0  0  0  0  0  0  0
    6.8053   -3.8354   -0.0652 C   0  0  1  0  0  0  0  0  0  0  0  0
    7.9002   -3.1049    0.4504 O   0  0  0  0  0  0  0  0  0  0  0  0
    6.9561   -5.2412    0.4162 C   0  0  0  0  0  0  0  0  0  0  0  0
    2.3058   -0.3432    0.4824 O   0  0  0  0  0  0  0  0  0  0  0  0
    1.2331    0.5071    0.4392 C   0  0  2  0  0  0  0  0  0  0  0  0
    1.8043    1.9307    0.5802 C   0  0  2  0  0  0  0  0  0  0  0  0
    1.6992    2.7184   -0.6750 C   0  0  0  0  0  0  0  0  0  0  0  0
    1.0582    2.0409   -1.7072 O   0  0  0  0  0  0  0  0  0  0  0  0
    1.0927    3.9304   -0.3834 O   0  0  0  0  0  0  0  0  0  0  0  0
   -0.1691    4.0719   -1.0197 C   0  0  2  0  0  0  0  0  0  0  0  0
    0.1859    4.3623   -2.4838 C   0  0  0  0  0  0  0  0  0  0  0  0
   -0.8186    5.2633   -0.4104 C   0  0  2  0  0  0  0  0  0  0  0  0
   -0.3068    5.3706    1.0401 C   0  0  0  0  0  0  0  0  0  0  0  0
   -2.2377    5.5024   -0.4879 C   0  0  1  0  0  0  0  0  0  0  0  0
   -2.5137    6.6219   -1.2960 O   0  0  0  0  0  0  0  0  0  0  0  0
   -3.1109    7.6371   -0.5593 C   0  0  2  0  0  0  0  0  0  0  0  0
   -4.4132    7.8452   -1.0713 O   0  0  0  0  0  0  0  0  0  0  0  0
   -2.3071    8.9075   -0.6775 C   0  0  0  0  0  0  0  0  0  0  0  0
   -3.2201    4.4128   -0.8685 C   0  0  2  0  0  0  0  0  0  0  0  0
   -3.5662    3.4620    0.1961 C   0  0  2  0  0  0  0  0  0  0  0  0
   -2.8205    3.7905    1.3299 O   0  0  0  0  0  0  0  0  0  0  0  0
   -3.4819    2.0031   -0.0262 C   0  0  2  0  0  0  0  0  0  0  0  0
   -2.7864    1.3569   -0.9967 O   0  0  0  0  0  0  0  0  0  0  0  0
   -4.2622    1.2651   -0.9800 C   0  0  0  0  0  0  0  0  0  0  0  0
   -3.2927    1.3448    1.3412 C   0  0  0  0  0  0  0  0  0  0  0  0
   -1.8519    1.2293    1.6466 C   0  0  1  0  0  0  0  0  0  0  0  0
   -1.7061    1.2621    3.1634 C   0  0  0  0  0  0  0  0  0  0  0  0
   -1.1217    0.0152    1.1399 C   0  0  2  0  0  0  0  0  0  0  0  0
   -1.7010   -1.1586    1.5818 O   0  0  0  0  0  0  0  0  0  0  0  0
   -2.0281   -2.0290    0.5696 C   0  0  2  0  0  0  0  0  0  0  0  0
   -3.4192   -1.9619    0.2616 O   0  0  0  0  0  0  0  0  0  0  0  0
   -3.7366   -2.5047   -0.9465 C   0  0  2  0  0  0  0  0  0  0  0  0
   -5.1796   -2.9746   -1.0217 C   0  0  0  0  0  0  0  0  0  0  0  0
   -2.7971   -3.5496   -1.4032 C   0  0  0  0  0  0  0  0  0  0  0  0
   -2.0325   -4.3036   -0.3838 C   0  0  2  0  0  0  0  0  0  0  0  0
   -2.6485   -5.4990    0.0998 N   0  0  0  0  0  0  0  0  0  0  0  0
   -3.8912   -5.3633    0.7734 C   0  0  0  0  0  0  0  0  0  0  0  0
   -2.6481   -6.5948   -0.8192 C   0  0  0  0  0  0  0  0  0  0  0  0
   -1.6403   -3.4252    0.8184 C   0  0  1  0  0  0  0  0  0  0  0  0
   -0.2806   -3.6060    0.9703 O   0  0  0  0  0  0  0  0  0  0  0  0
    0.0328   -4.4729    2.0046 C   0  0  2  0  0  0  0  0  0  0  0  0
    0.8541   -4.0358    2.9828 O   0  0  0  0  0  0  0  0  0  0  0  0
    0.5498   -5.7457    1.3273 C   0  0  0  0  0  0  0  0  0  0  0  0
    0.3290    0.2039    1.6128 C   0  0  1  0  0  0  0  0  0  0  0  0
    0.8062   -0.9019    2.4975 C   0  0  0  0  0  0  0  0  0  0  0  0
   -3.0751    3.9307   -2.2656 C   0  0  0  0  0  0  0  0  0  0  0  0
    3.2394    1.9207    1.0508 C   0  0  0  0  0  0  0  0  0  0  0  0
    6.9490   -0.5454    1.0114 H   0  0  0  0  0  0  0  0  0  0  0  0
    6.0979    0.9393    0.5177 H   0  0  0  0  0  0  0  0  0  0  0  0
    7.7162    0.4781   -0.2275 H   0  0  0  0  0  0  0  0  0  0  0  0
    4.7382   -0.8614    0.5195 H   0  0  0  0  0  0  0  0  0  0  0  0
    3.8159   -1.0649   -2.3930 H   0  0  0  0  0  0  0  0  0  0  0  0
    3.7344    0.4648   -1.5249 H   0  0  0  0  0  0  0  0  0  0  0  0
    1.6909   -0.8648   -1.4413 H   0  0  0  0  0  0  0  0  0  0  0  0
    3.5231   -4.0771   -0.0548 H   0  0  0  0  0  0  0  0  0  0  0  0
    3.5471   -4.9146   -2.1306 H   0  0  0  0  0  0  0  0  0  0  0  0
    2.2205   -3.7615   -2.3598 H   0  0  0  0  0  0  0  0  0  0  0  0
    3.9551   -3.3922   -2.9111 H   0  0  0  0  0  0  0  0  0  0  0  0
    5.4727   -2.8607   -1.5851 H   0  0  0  0  0  0  0  0  0  0  0  0
    6.8963   -3.7691   -1.1786 H   0  0  0  0  0  0  0  0  0  0  0  0
    8.5408   -2.8527   -0.2552 H   0  0  0  0  0  0  0  0  0  0  0  0
    7.7931   -5.7004   -0.1704 H   0  0  0  0  0  0  0  0  0  0  0  0
    7.3182   -5.2352    1.4737 H   0  0  0  0  0  0  0  0  0  0  0  0
    6.0557   -5.8628    0.2759 H   0  0  0  0  0  0  0  0  0  0  0  0
    0.6732    0.4396   -0.5337 H   0  0  0  0  0  0  0  0  0  0  0  0
    1.2257    2.4261    1.4172 H   0  0  0  0  0  0  0  0  0  0  0  0
    2.7154    2.9541   -1.0612 H   0  0  0  0  0  0  0  0  0  0  0  0
    1.7123    1.5404   -2.2622 H   0  0  0  0  0  0  0  0  0  0  0  0
   -0.6610    3.1191   -0.8828 H   0  0  0  0  0  0  0  0  0  0  0  0
    1.2730    4.4201   -2.6617 H   0  0  0  0  0  0  0  0  0  0  0  0
   -0.1658    3.4896   -3.0698 H   0  0  0  0  0  0  0  0  0  0  0  0
   -0.3176    5.2625   -2.8637 H   0  0  0  0  0  0  0  0  0  0  0  0
   -0.2735    6.1356   -0.9060 H   0  0  0  0  0  0  0  0  0  0  0  0
   -0.9517    6.0435    1.6035 H   0  0  0  0  0  0  0  0  0  0  0  0
    0.7231    5.8334    1.0703 H   0  0  0  0  0  0  0  0  0  0  0  0
   -0.1563    4.3726    1.4954 H   0  0  0  0  0  0  0  0  0  0  0  0
   -2.6117    5.8123    0.5369 H   0  0  0  0  0  0  0  0  0  0  0  0
   -3.2453    7.3659    0.4918 H   0  0  0  0  0  0  0  0  0  0  0  0
   -5.0294    8.1468   -0.3360 H   0  0  0  0  0  0  0  0  0  0  0  0
   -1.5687    8.7808   -1.4749 H   0  0  0  0  0  0  0  0  0  0  0  0
   -1.7435    9.0339    0.2707 H   0  0  0  0  0  0  0  0  0  0  0  0
   -2.9738    9.7772   -0.8011 H   0  0  0  0  0  0  0  0  0  0  0  0
   -4.1750    5.0504   -0.9735 H   0  0  0  0  0  0  0  0  0  0  0  0
   -4.6355    3.5841    0.5916 H   0  0  0  0  0  0  0  0  0  0  0  0
   -3.2547    4.4395    1.9169 H   0  0  0  0  0  0  0  0  0  0  0  0
   -4.7339    1.6437   -1.8958 H   0  0  0  0  0  0  0  0  0  0  0  0
   -4.6585    0.2775   -0.6838 H   0  0  0  0  0  0  0  0  0  0  0  0
   -3.8666    0.4176    1.4120 H   0  0  0  0  0  0  0  0  0  0  0  0
   -3.7916    2.0272    2.1064 H   0  0  0  0  0  0  0  0  0  0  0  0
   -1.2792    2.1028    1.1961 H   0  0  0  0  0  0  0  0  0  0  0  0
   -1.5024    0.2707    3.6022 H   0  0  0  0  0  0  0  0  0  0  0  0
   -0.9617    2.0402    3.4686 H   0  0  0  0  0  0  0  0  0  0  0  0
   -2.6647    1.6049    3.6557 H   0  0  0  0  0  0  0  0  0  0  0  0
   -1.1233   -0.0544    0.0181 H   0  0  0  0  0  0  0  0  0  0  0  0
   -1.6034   -1.5859   -0.3826 H   0  0  0  0  0  0  0  0  0  0  0  0
   -3.6822   -1.6404   -1.6834 H   0  0  0  0  0  0  0  0  0  0  0  0
   -5.1662   -3.9948   -1.4550 H   0  0  0  0  0  0  0  0  0  0  0  0
   -5.6331   -3.0611   -0.0131 H   0  0  0  0  0  0  0  0  0  0  0  0
   -5.7758   -2.3536   -1.6900 H   0  0  0  0  0  0  0  0  0  0  0  0
   -3.4024   -4.2625   -2.0471 H   0  0  0  0  0  0  0  0  0  0  0  0
   -2.0888   -3.1007   -2.1680 H   0  0  0  0  0  0  0  0  0  0  0  0
   -1.0734   -4.6405   -0.8807 H   0  0  0  0  0  0  0  0  0  0  0  0
   -4.1081   -4.4107    1.2481 H   0  0  0  0  0  0  0  0  0  0  0  0
   -4.7598   -5.7318    0.1467 H   0  0  0  0  0  0  0  0  0  0  0  0
   -3.8731   -6.1126    1.6233 H   0  0  0  0  0  0  0  0  0  0  0  0
   -1.7578   -6.5876   -1.4881 H   0  0  0  0  0  0  0  0  0  0  0  0
   -2.5806   -7.5369   -0.1994 H   0  0  0  0  0  0  0  0  0  0  0  0
   -3.5963   -6.6476   -1.3642 H   0  0  0  0  0  0  0  0  0  0  0  0
   -2.2062   -3.9172    1.6636 H   0  0  0  0  0  0  0  0  0  0  0  0
   -0.9500   -4.7974    2.4582 H   0  0  0  0  0  0  0  0  0  0  0  0
    1.4177   -4.7736    3.3267 H   0  0  0  0  0  0  0  0  0  0  0  0
    1.2951   -6.1919    2.0431 H   0  0  0  0  0  0  0  0  0  0  0  0
   -0.2336   -6.4610    1.0937 H   0  0  0  0  0  0  0  0  0  0  0  0
    1.1534   -5.4092    0.4620 H   0  0  0  0  0  0  0  0  0  0  0  0
    0.3955    1.1322    2.2674 H   0  0  0  0  0  0  0  0  0  0  0  0
   -0.0784   -1.4879    2.8256 H   0  0  0  0  0  0  0  0  0  0  0  0
    1.2850   -0.5155    3.4249 H   0  0  0  0  0  0  0  0  0  0  0  0
    1.5176   -1.5809    2.0360 H   0  0  0  0  0  0  0  0  0  0  0  0
   -2.4440    3.0955   -2.4816 H   0  0  0  0  0  0  0  0  0  0  0  0
   -2.6638    4.8088   -2.8506 H   0  0  0  0  0  0  0  0  0  0  0  0
   -4.0599    3.7491   -2.7942 H   0  0  0  0  0  0  0  0  0  0  0  0
    3.5075    0.9367    1.5016 H   0  0  0  0  0  0  0  0  0  0  0  0
    3.4143    2.7574    1.7623 H   0  0  0  0  0  0  0  0  0  0  0  0
    3.9425    2.0909    0.2097 H   0  0  0  0  0  0  0  0  0  0  0  0
  1  2  1  0
  2  3  1  0
  3  4  1  0
  4  5  1  0
  5  6  1  0
  6  7  1  0
  7  8  1  0
  3  9  1  0
  7  9  1  0
  9 10  1  0
 10 11  1  0
 11 12  1  0
 11 13  1  0
  5 14  1  0
 14 15  1  0
 15 16  1  0
 16 17  1  0
 17 18  1  0
 17 19  1  0
 19 20  1  0
 20 21  1  0
 20 22  1  0
 22 23  1  0
 22 24  1  0
 24 25  1  0
 25 26  1  0
 26 27  1  0
 26 28  1  0
 24 29  1  0
 29 30  1  0
 30 31  1  0
 30 32  1  0
 32 33  1  6
 32 34  1  0
 33 34  1  0
 32 35  1  0
 35 36  1  0
 36 37  1  0
 36 38  1  0
 38 39  1  0
 39 40  1  0
 40 41  1  0
 41 42  1  0
 42 43  1  0
 42 44  1  0
 44 45  1  0
 45 46  1  0
 46 47  1  0
 46 48  1  0
 40 49  1  0
 45 49  1  0
 49 50  1  0
 50 51  1  0
 51 52  1  0
 51 53  1  0
 15 54  1  0
 38 54  1  0
 54 55  1  0
 29 56  1  0
 16 57  1  0
  1 58  1  0
  1 59  1  0
  1 60  1  0
  3 61  1  1
  4 62  1  0
  4 63  1  0
  5 64  1  6
  7 65  1  1
  8 66  1  0
  8 67  1  0
  8 68  1  0
  9 69  1  6
 11 70  1  6
 12 71  1  0
 13 72  1  0
 13 73  1  0
 13 74  1  0
 15 75  1  6
 16 76  1  1
 17 77  1  0
 18 78  1  0
 20 79  1  6
 21 80  1  0
 21 81  1  0
 21 82  1  0
 22 83  1  6
 23 84  1  0
 23 85  1  0
 23 86  1  0
 24 87  1  1
 26 88  1  1
 27 89  1  0
 28 90  1  0
 28 91  1  0
 28 92  1  0
 29 93  1  6
 30 94  1  1
 31 95  1  0
 34 96  1  0
 34 97  1  0
 35 98  1  0
 35 99  1  0
 36100  1  6
 37101  1  0
 37102  1  0
 37103  1  0
 38104  1  6
 40105  1  6
 42106  1  6
 43107  1  0
 43108  1  0
 43109  1  0
 44110  1  0
 44111  1  0
 45112  1  6
 47113  1  0
 47114  1  0
 47115  1  0
 48116  1  0
 48117  1  0
 48118  1  0
 49119  1  1
 51120  1  1
 52121  1  0
 53122  1  0
 53123  1  0
 53124  1  0
 54125  1  1
 55126  1  0
 55127  1  0
 55128  1  0
 56129  1  0
 56130  1  0
 56131  1  0
 57132  1  0
 57133  1  0
 57134  1  0
M  END
>  <PDBID>  (1) 
1OND

>  <PDB ID>  (1) 
1OND

>  <Generic Name>  (1) 
Troleandomycin

>  <Brand Name>  (1) 
Tao#Triocetin

>  <DrugBank ID>  (1) 
DB01361

>  <ATC Codes>  (1) 
J01FA08

>  <Ligand ID>  (1) 
TAO

>  <Target Name>  (1) 
50S ribosomal protein L32

>  <UniProt ID>  (1) 
P49228

>  <PDB ID.1>  (1) 
1OND

>  <Seq. Identity>  (1) 
100%

$$$$
