PDB_DB09324_03
     RDKit          3D

 32 33  0  0  0  0  0  0  0  0999 V2000
   -1.5782   -0.7090    1.6368 C   0  0  0  0  0  0  0  0  0  0  0  0
   -0.9436   -0.6456    0.3092 C   0  0  0  0  0  0  0  0  0  0  0  0
   -1.7330   -1.2020   -0.8178 C   0  0  0  0  0  0  0  0  0  0  0  0
    0.6418   -1.6150    0.3872 S   0  0  0  0  0  0  0  0  0  0  0  0
    1.3755   -1.5451    1.9987 O   0  0  0  0  0  0  0  0  0  0  0  0
    0.3729   -3.3270   -0.0366 O   0  0  0  0  0  0  0  0  0  0  0  0
    1.4576   -0.6463   -0.8580 C   0  0  2  0  0  0  0  0  0  0  0  0
    2.5601    0.2254   -0.3272 C   0  0  0  0  0  0  0  0  0  0  0  0
    1.8085    1.3153   -1.0994 C   0  0  0  0  0  0  0  0  0  0  0  0
    1.7349    2.4661   -0.3563 O   0  0  0  0  0  0  0  0  0  0  0  0
    0.6094    0.4848   -1.0951 N   0  0  0  0  0  0  0  0  0  0  0  0
   -0.2716    0.6692   -0.0044 C   0  0  1  0  0  0  0  0  0  0  0  0
   -1.2606    1.7398   -0.3216 C   0  0  0  0  0  0  0  0  0  0  0  0
   -2.0415    1.4761   -1.4220 O   0  0  0  0  0  0  0  0  0  0  0  0
   -2.1391    1.8696    0.7782 O   0  0  0  0  0  0  0  0  0  0  0  0
   -1.3416   -1.6838    2.1086 H   0  0  0  0  0  0  0  0  0  0  0  0
   -1.1402    0.0966    2.2815 H   0  0  0  0  0  0  0  0  0  0  0  0
   -2.6452   -0.5207    1.5491 H   0  0  0  0  0  0  0  0  0  0  0  0
   -1.5741   -2.2977   -0.9083 H   0  0  0  0  0  0  0  0  0  0  0  0
   -2.8311   -1.0914   -0.5864 H   0  0  0  0  0  0  0  0  0  0  0  0
   -1.4909   -0.7637   -1.8015 H   0  0  0  0  0  0  0  0  0  0  0  0
    0.6366   -1.8104    2.6071 H   0  0  0  0  0  0  0  0  0  0  0  0
    1.3111   -3.6398   -0.0444 H   0  0  0  0  0  0  0  0  0  0  0  0
    1.6631   -1.1974   -1.7850 H   0  0  0  0  0  0  0  0  0  0  0  0
    3.5499   -0.0217   -0.7712 H   0  0  0  0  0  0  0  0  0  0  0  0
    2.5409    0.3391    0.7629 H   0  0  0  0  0  0  0  0  0  0  0  0
    2.1858    1.4191   -2.1407 H   0  0  0  0  0  0  0  0  0  0  0  0
    2.4492    2.4606    0.3559 H   0  0  0  0  0  0  0  0  0  0  0  0
    0.2691    0.9774    0.9239 H   0  0  0  0  0  0  0  0  0  0  0  0
   -0.7234    2.6922   -0.4606 H   0  0  0  0  0  0  0  0  0  0  0  0
   -1.6447    1.8967   -2.2240 H   0  0  0  0  0  0  0  0  0  0  0  0
   -1.8078    2.5885    1.3615 H   0  0  0  0  0  0  0  0  0  0  0  0
  2  1  1  0
  2  3  1  0
  2  4  1  0
  4  5  1  0
  4  6  1  0
  4  7  1  0
  7  8  1  0
  8  9  1  0
  9 10  1  0
  7 11  1  0
  9 11  1  0
  2 12  1  0
 11 12  1  0
 12 13  1  0
 13 14  1  0
 13 15  1  0
  1 16  1  0
  1 17  1  0
  1 18  1  0
  3 19  1  0
  3 20  1  0
  3 21  1  0
  5 22  1  0
  6 23  1  0
  7 24  1  6
  8 25  1  0
  8 26  1  0
  9 27  1  0
 10 28  1  0
 12 29  1  1
 13 30  1  0
 14 31  1  0
 15 32  1  0
M  END
>  <PDBID>  (1) 
4FH2

>  <PDB ID>  (1) 
4FH2

>  <Generic Name>  (1) 
Sulbactam

>  <Brand Name>  (1) 
Ampicillin Sodium and Sulbactam Sodium#Ampicillin and Sulbactam#Unasyn

>  <DrugBank ID>  (1) 
DB09324

>  <ATC Codes>  (1) 
J01CG01

>  <Ligand ID>  (1) 
0RN

>  <Target Name>  (1) 
Beta-lactamase

>  <UniProt ID>  (1) 
P00807

>  <PDB ID.1>  (1) 
4FH2

>  <Seq. Identity>  (1) 
31%

$$$$
