PDB_DB06228_02
     RDKit          3D

 63 66  0  0  0  0  0  0  0  0999 V2000
   -6.0544    0.3769    1.2464 C   0  0  0  0  0  0  0  0  0  0  0  0
   -5.1954   -0.4264    0.3619 N   0  0  0  0  0  0  0  0  0  0  0  0
   -7.4785    0.4435    0.7606 C   0  0  0  0  0  0  0  0  0  0  0  0
   -5.6060   -0.2134   -0.9604 C   0  0  0  0  0  0  0  0  0  0  0  0
   -7.5833    0.9679   -0.5116 O   0  0  0  0  0  0  0  0  0  0  0  0
   -6.3442    1.1057   -1.1339 C   0  0  0  0  0  0  0  0  0  0  0  0
   -0.9497    0.2666    0.3111 C   0  0  0  0  0  0  0  0  0  0  0  0
   -1.8557    0.8136    1.3961 C   0  0  0  0  0  0  0  0  0  0  0  0
   -1.7559   -0.6829   -0.5339 C   0  0  0  0  0  0  0  0  0  0  0  0
   -3.2163    1.0505    0.7248 C   0  0  0  0  0  0  0  0  0  0  0  0
   -2.9588   -1.2795    0.1406 C   0  0  0  0  0  0  0  0  0  0  0  0
   -3.8852   -0.2893    0.7850 C   0  0  0  0  0  0  0  0  0  0  0  0
   -4.6781   -0.4195   -1.9475 O   0  0  0  0  0  0  0  0  0  0  0  0
    0.2256   -0.3743    0.8754 N   0  0  0  0  0  0  0  0  0  0  0  0
    0.9976    0.5576    1.6781 C   0  0  0  0  0  0  0  0  0  0  0  0
    1.1028   -0.7077   -0.2283 C   0  0  0  0  0  0  0  0  0  0  0  0
    2.2873    0.5828    1.1890 O   0  0  0  0  0  0  0  0  0  0  0  0
    2.1339    0.3909   -0.1561 C   0  0  1  0  0  0  0  0  0  0  0  0
    0.9494    0.0527    2.9904 O   0  0  0  0  0  0  0  0  0  0  0  0
    3.4314    0.0233   -0.8765 C   0  0  0  0  0  0  0  0  0  0  0  0
    4.0119   -1.1497   -0.3924 N   0  0  0  0  0  0  0  0  0  0  0  0
    5.1604   -1.5983   -1.0698 C   0  0  0  0  0  0  0  0  0  0  0  0
    6.2315    0.8864   -1.7087 S   0  0  0  0  0  0  0  0  0  0  0  0
    6.7203    1.8503   -0.2219 C   0  0  0  0  0  0  0  0  0  0  0  0
    6.3912   -0.7708   -1.0206 C   0  0  0  0  0  0  0  0  0  0  0  0
    6.4476    0.8219    0.8539 C   0  0  0  0  0  0  0  0  0  0  0  0
    6.9048   -0.5125    0.3716 C   0  0  0  0  0  0  0  0  0  0  0  0
    5.4638   -2.9390   -0.6626 O   0  0  0  0  0  0  0  0  0  0  0  0
    8.4481    2.1975   -0.3785 Cl  0  0  0  0  0  0  0  0  0  0  0  0
   -6.0692   -0.0520    2.2706 H   0  0  0  0  0  0  0  0  0  0  0  0
   -5.6579    1.4099    1.2291 H   0  0  0  0  0  0  0  0  0  0  0  0
   -8.0119   -0.5261    0.8951 H   0  0  0  0  0  0  0  0  0  0  0  0
   -7.9974    1.1527    1.4576 H   0  0  0  0  0  0  0  0  0  0  0  0
   -6.4256   -0.9854   -1.1552 H   0  0  0  0  0  0  0  0  0  0  0  0
   -6.4704    1.2132   -2.2507 H   0  0  0  0  0  0  0  0  0  0  0  0
   -5.8388    1.9683   -0.7147 H   0  0  0  0  0  0  0  0  0  0  0  0
   -0.6740    1.1283   -0.3332 H   0  0  0  0  0  0  0  0  0  0  0  0
   -1.4857    1.8089    1.7775 H   0  0  0  0  0  0  0  0  0  0  0  0
   -2.0096    0.1021    2.2277 H   0  0  0  0  0  0  0  0  0  0  0  0
   -1.0951   -1.5544   -0.7721 H   0  0  0  0  0  0  0  0  0  0  0  0
   -1.9909   -0.2462   -1.5362 H   0  0  0  0  0  0  0  0  0  0  0  0
   -2.9773    1.3794   -0.3042 H   0  0  0  0  0  0  0  0  0  0  0  0
   -3.6919    1.8563    1.2715 H   0  0  0  0  0  0  0  0  0  0  0  0
   -2.5796   -2.0470    0.8587 H   0  0  0  0  0  0  0  0  0  0  0  0
   -3.4753   -1.8859   -0.6488 H   0  0  0  0  0  0  0  0  0  0  0  0
   -3.8377   -0.5510    1.9072 H   0  0  0  0  0  0  0  0  0  0  0  0
   -5.0946   -0.9272   -2.6832 H   0  0  0  0  0  0  0  0  0  0  0  0
    0.5912    1.5873    1.6523 H   0  0  0  0  0  0  0  0  0  0  0  0
    1.5447   -1.7110   -0.0709 H   0  0  0  0  0  0  0  0  0  0  0  0
    0.5791   -0.6762   -1.2287 H   0  0  0  0  0  0  0  0  0  0  0  0
    1.6966    1.3043   -0.5929 H   0  0  0  0  0  0  0  0  0  0  0  0
    0.5948   -0.8576    3.0353 H   0  0  0  0  0  0  0  0  0  0  0  0
    4.0457    0.9297   -0.8040 H   0  0  0  0  0  0  0  0  0  0  0  0
    3.1297   -0.0289   -1.9659 H   0  0  0  0  0  0  0  0  0  0  0  0
    3.9669   -1.2629    0.6199 H   0  0  0  0  0  0  0  0  0  0  0  0
    4.9423   -1.7415   -2.1881 H   0  0  0  0  0  0  0  0  0  0  0  0
    6.1057    2.7388   -0.1101 H   0  0  0  0  0  0  0  0  0  0  0  0
    7.2393   -1.3093   -1.5801 H   0  0  0  0  0  0  0  0  0  0  0  0
    7.0683    1.0501    1.7604 H   0  0  0  0  0  0  0  0  0  0  0  0
    5.3672    0.8601    1.1273 H   0  0  0  0  0  0  0  0  0  0  0  0
    8.0232   -0.4930    0.3483 H   0  0  0  0  0  0  0  0  0  0  0  0
    6.5385   -1.2683    1.1002 H   0  0  0  0  0  0  0  0  0  0  0  0
    4.6034   -3.3903   -0.4560 H   0  0  0  0  0  0  0  0  0  0  0  0
  1  2  1  0
  1  3  1  0
  2  4  1  0
  3  5  1  0
  4  6  1  0
  5  6  1  0
  7  8  1  0
  7  9  1  0
  8 10  1  0
  9 11  1  0
  2 12  1  0
 10 12  1  0
 11 12  1  0
  4 13  1  0
  7 14  1  0
 14 15  1  0
 14 16  1  0
 15 17  1  0
 16 18  1  0
 17 18  1  0
 15 19  1  0
 18 20  1  0
 20 21  1  0
 21 22  1  0
 23 24  1  0
 22 25  1  0
 23 25  1  0
 24 26  1  0
 25 27  1  0
 26 27  1  0
 22 28  1  0
 24 29  1  0
  1 30  1  0
  1 31  1  0
  3 32  1  0
  3 33  1  0
  4 34  1  0
  6 35  1  0
  6 36  1  0
  7 37  1  0
  8 38  1  0
  8 39  1  0
  9 40  1  0
  9 41  1  0
 10 42  1  0
 10 43  1  0
 11 44  1  0
 11 45  1  0
 12 46  1  0
 13 47  1  0
 15 48  1  0
 16 49  1  0
 16 50  1  0
 18 51  1  6
 19 52  1  0
 20 53  1  0
 20 54  1  0
 21 55  1  0
 22 56  1  0
 24 57  1  0
 25 58  1  0
 26 59  1  0
 26 60  1  0
 27 61  1  0
 27 62  1  0
 28 63  1  0
M  END
>  <PDBID>  (1) 
2W26

>  <PDB ID>  (1) 
2W26

>  <Generic Name>  (1) 
Rivaroxaban

>  <Brand Name>  (1) 
Xarelto

>  <DrugBank ID>  (1) 
DB06228

>  <ATC Codes>  (1) 
B01AF01

>  <Ligand ID>  (1) 
RIV

>  <Target Name>  (1) 
Coagulation factor X

>  <UniProt ID>  (1) 
P00742

>  <PDB ID.1>  (1) 
2W26

>  <Seq. Identity>  (1) 
100%

$$$$
