PDB_DB00705_05
     RDKit          3D

 78 81  0  0  0  0  0  0  0  0999 V2000
   -3.9824    0.2556    1.0499 C   0  0  0  0  0  0  0  0  0  0  0  0
   -5.0272    0.9821    0.2425 C   0  0  0  0  0  0  0  0  0  0  0  0
   -5.7030    1.9736    1.2140 C   0  0  0  0  0  0  0  0  0  0  0  0
   -5.8616    1.2560    2.5223 C   0  0  0  0  0  0  0  0  0  0  0  0
   -5.8843   -0.2389    2.3652 C   0  0  0  0  0  0  0  0  0  0  0  0
   -2.9486   -1.2076   -0.6365 C   0  0  0  0  0  0  0  0  0  0  0  0
   -1.6534   -2.0539   -0.6305 C   0  0  0  0  0  0  0  0  0  0  0  0
   -0.7897    0.1310   -0.7224 C   0  0  0  0  0  0  0  0  0  0  0  0
   -1.5722    0.2125    0.5949 C   0  0  0  0  0  0  0  0  0  0  0  0
    0.6893   -1.7832   -0.5737 C   0  0  0  0  0  0  0  0  0  0  0  0
    1.6783   -1.0104    0.2216 C   0  0  0  0  0  0  0  0  0  0  0  0
    2.6259   -0.2008   -0.6865 C   0  0  0  0  0  0  0  0  0  0  0  0
    5.1344    0.0054   -0.6687 C   0  0  0  0  0  0  0  0  0  0  0  0
    6.3001   -0.2461    0.2455 C   0  0  0  0  0  0  0  0  0  0  0  0
    6.2896   -1.6688    0.7906 C   0  0  0  0  0  0  0  0  0  0  0  0
    4.9697   -1.8944    1.5233 C   0  0  0  0  0  0  0  0  0  0  0  0
    3.9034   -1.7474    0.4615 C   0  0  0  0  0  0  0  0  0  0  0  0
    3.8815   -0.2723    0.1236 C   0  0  0  0  0  0  0  0  0  0  0  0
   -6.4780    0.6095   -1.6316 C   0  0  0  0  0  0  0  0  0  0  0  0
   -7.8636   -0.0058   -1.8536 C   0  0  0  0  0  0  0  0  0  0  0  0
   -6.6702    2.0975   -1.7657 C   0  0  0  0  0  0  0  0  0  0  0  0
    9.3264    2.2602   -0.2189 C   0  0  0  0  0  0  0  0  0  0  0  0
   -6.0688    0.1940   -0.3016 N   0  0  0  0  0  0  0  0  0  0  0  0
   -4.6698   -0.7764    1.8300 N   0  0  0  0  0  0  0  0  0  0  0  0
   -2.8871   -0.2095    0.3454 N   0  0  0  0  0  0  0  0  0  0  0  0
   -0.5119   -1.2334   -0.9985 N   0  0  0  0  0  0  0  0  0  0  0  0
    2.5767   -2.0048    0.8450 N   0  0  0  0  0  0  0  0  0  0  0  0
    7.5759    0.1188   -0.2663 N   0  0  0  0  0  0  0  0  0  0  0  0
    1.3409   -2.4778   -1.5779 O   0  0  0  0  0  0  0  0  0  0  0  0
    6.9120    2.3521   -1.5139 O   0  0  0  0  0  0  0  0  0  0  0  0
    7.0120    2.3659    1.1427 O   0  0  0  0  0  0  0  0  0  0  0  0
    7.7296    1.7561   -0.4949 S   0  0  0  0  0  0  0  0  0  0  0  0
   -3.6195    0.9799    1.8520 H   0  0  0  0  0  0  0  0  0  0  0  0
   -4.4468    1.5606   -0.5235 H   0  0  0  0  0  0  0  0  0  0  0  0
   -5.0368    2.8520    1.2792 H   0  0  0  0  0  0  0  0  0  0  0  0
   -6.6927    2.2925    0.8274 H   0  0  0  0  0  0  0  0  0  0  0  0
   -6.8424    1.5464    2.9519 H   0  0  0  0  0  0  0  0  0  0  0  0
   -5.0987    1.5183    3.2787 H   0  0  0  0  0  0  0  0  0  0  0  0
   -6.8101   -0.5872    1.8212 H   0  0  0  0  0  0  0  0  0  0  0  0
   -6.0370   -0.6523    3.4065 H   0  0  0  0  0  0  0  0  0  0  0  0
   -3.7999   -1.9221   -0.5674 H   0  0  0  0  0  0  0  0  0  0  0  0
   -3.0034   -0.7650   -1.6483 H   0  0  0  0  0  0  0  0  0  0  0  0
   -1.5350   -2.5151    0.3748 H   0  0  0  0  0  0  0  0  0  0  0  0
   -1.7959   -2.8299   -1.3942 H   0  0  0  0  0  0  0  0  0  0  0  0
   -1.4936    0.5120   -1.5041 H   0  0  0  0  0  0  0  0  0  0  0  0
    0.0402    0.8235   -0.7186 H   0  0  0  0  0  0  0  0  0  0  0  0
   -1.5185    1.3056    0.8819 H   0  0  0  0  0  0  0  0  0  0  0  0
   -1.0344   -0.3204    1.4180 H   0  0  0  0  0  0  0  0  0  0  0  0
    0.3697   -2.6527    0.1471 H   0  0  0  0  0  0  0  0  0  0  0  0
    1.2909   -0.4168    1.0585 H   0  0  0  0  0  0  0  0  0  0  0  0
    2.3601    0.8383   -0.7925 H   0  0  0  0  0  0  0  0  0  0  0  0
    2.7303   -0.7633   -1.6213 H   0  0  0  0  0  0  0  0  0  0  0  0
    5.2011   -0.7531   -1.4945 H   0  0  0  0  0  0  0  0  0  0  0  0
    5.1398    0.9939   -1.1194 H   0  0  0  0  0  0  0  0  0  0  0  0
    6.0992    0.3985    1.1587 H   0  0  0  0  0  0  0  0  0  0  0  0
    7.1417   -1.7878    1.4672 H   0  0  0  0  0  0  0  0  0  0  0  0
    6.3521   -2.3865   -0.0708 H   0  0  0  0  0  0  0  0  0  0  0  0
    5.0007   -2.8539    2.0298 H   0  0  0  0  0  0  0  0  0  0  0  0
    4.8496   -1.0213    2.2283 H   0  0  0  0  0  0  0  0  0  0  0  0
    4.2495   -2.2939   -0.4413 H   0  0  0  0  0  0  0  0  0  0  0  0
    3.8372    0.3834    1.0109 H   0  0  0  0  0  0  0  0  0  0  0  0
   -5.8242    0.1914   -2.4045 H   0  0  0  0  0  0  0  0  0  0  0  0
   -8.2822    0.2640   -2.8406 H   0  0  0  0  0  0  0  0  0  0  0  0
   -7.8438   -1.0871   -1.7489 H   0  0  0  0  0  0  0  0  0  0  0  0
   -8.5949    0.4156   -1.1086 H   0  0  0  0  0  0  0  0  0  0  0  0
   -5.8616    2.7156   -1.3825 H   0  0  0  0  0  0  0  0  0  0  0  0
   -6.7537    2.2973   -2.8696 H   0  0  0  0  0  0  0  0  0  0  0  0
   -7.6693    2.4293   -1.3715 H   0  0  0  0  0  0  0  0  0  0  0  0
    9.3670    3.1947    0.3677 H   0  0  0  0  0  0  0  0  0  0  0  0
    9.9328    1.5038    0.3082 H   0  0  0  0  0  0  0  0  0  0  0  0
    9.8540    2.4926   -1.1762 H   0  0  0  0  0  0  0  0  0  0  0  0
   -5.8539   -0.8008   -0.3480 H   0  0  0  0  0  0  0  0  0  0  0  0
   -4.0102   -0.9954    2.6387 H   0  0  0  0  0  0  0  0  0  0  0  0
    2.3391   -2.9860    0.5062 H   0  0  0  0  0  0  0  0  0  0  0  0
    8.3801   -0.2671    0.2601 H   0  0  0  0  0  0  0  0  0  0  0  0
    1.1867   -3.4543   -1.5814 H   0  0  0  0  0  0  0  0  0  0  0  0
    6.8464    3.2824   -1.7727 H   0  0  0  0  0  0  0  0  0  0  0  0
    7.5163    1.7816    1.7333 H   0  0  0  0  0  0  0  0  0  0  0  0
  1  2  1  0
  2  3  1  0
  3  4  1  0
  4  5  1  0
  6  7  1  0
  8  9  1  0
 10 11  1  0
 11 12  1  0
 13 14  1  0
 14 15  1  0
 15 16  1  0
 16 17  1  0
 12 18  1  0
 13 18  1  0
 17 18  1  0
 19 20  1  0
 19 21  1  0
  2 23  1  0
 19 23  1  0
  1 24  1  0
  5 24  1  0
  1 25  1  0
  6 25  1  0
  9 25  1  0
  7 26  1  0
  8 26  1  0
 10 26  1  0
 11 27  1  0
 17 27  1  0
 14 28  1  0
 10 29  1  0
 22 32  1  0
 28 32  1  0
 32 30  1  0
 31 32  1  0
  1 33  1  0
  2 34  1  0
  3 35  1  0
  3 36  1  0
  4 37  1  0
  4 38  1  0
  5 39  1  0
  5 40  1  0
  6 41  1  0
  6 42  1  0
  7 43  1  0
  7 44  1  0
  8 45  1  0
  8 46  1  0
  9 47  1  0
  9 48  1  0
 10 49  1  0
 11 50  1  0
 12 51  1  0
 12 52  1  0
 13 53  1  0
 13 54  1  0
 14 55  1  0
 15 56  1  0
 15 57  1  0
 16 58  1  0
 16 59  1  0
 17 60  1  0
 18 61  1  0
 19 62  1  0
 20 63  1  0
 20 64  1  0
 20 65  1  0
 21 66  1  0
 21 67  1  0
 21 68  1  0
 22 69  1  0
 22 70  1  0
 22 71  1  0
 23 72  1  0
 24 73  1  0
 27 74  1  0
 28 75  1  0
 29 76  1  0
 30 77  1  0
 31 78  1  0
M  END
>  <PDBID>  (1) 
1KLM

>  <PDB ID>  (1) 
1KLM

>  <Generic Name>  (1) 
Delavirdine

>  <Brand Name>  (1) 
Rescriptor

>  <DrugBank ID>  (1) 
DB00705

>  <ATC Codes>  (1) 
J05AG02

>  <Ligand ID>  (1) 
SPP

>  <Target Name>  (1) 
Reverse transcriptase/RNaseH

>  <UniProt ID>  (1) 
Q72547

>  <PDB ID.1>  (1) 
1KLM

>  <Seq. Identity>  (1) 
95%

$$$$
