PDB_DB08895_01
     RDKit          3D

114118  0  0  0  0  0  0  0  0999 V2000
    0.1727   -0.4480   -0.5669 C   0  0  1  0  0  0  0  0  0  0  0  0
    1.5689    0.1933   -0.4242 C   0  0  0  0  0  0  0  0  0  0  0  0
    2.4967   -1.8652   -1.2460 C   0  0  0  0  0  0  0  0  0  0  0  0
    1.5737   -2.5437   -0.2549 C   0  0  0  0  0  0  0  0  0  0  0  0
    0.2073   -1.8891   -0.5802 C   0  0  1  0  0  0  0  0  0  0  0  0
    2.6898   -0.5962   -0.6557 N   0  0  0  0  0  0  0  0  0  0  0  0
    4.7456   -1.4460    0.1307 O   0  0  0  0  0  0  0  0  0  0  0  0
    3.8116   -0.4490    0.2118 C   0  0  0  0  0  0  0  0  0  0  0  0
    4.3800    0.9302    0.0912 C   0  0  0  0  0  0  0  0  0  0  0  0
    5.5701    1.1682    0.9814 C   0  0  0  0  0  0  0  0  0  0  0  0
    6.0822    2.5137    0.8060 N   0  0  0  0  0  0  0  0  0  0  0  0
   -0.7568   -2.7156    0.2064 C   0  0  0  0  0  0  0  0  0  0  0  0
   -0.6205    0.3139    0.3310 N   0  0  0  0  0  0  0  0  0  0  0  0
   -0.5329    1.6984   -0.2055 C   0  0  0  0  0  0  0  0  0  0  0  0
   -2.0002    0.1090    0.5048 C   0  0  0  0  0  0  0  0  0  0  0  0
   -2.8843    0.3496   -0.6689 C   0  0  0  0  0  0  0  0  0  0  0  0
   -3.7212   -0.8747   -0.9907 C   0  0  0  0  0  0  0  0  0  0  0  0
   -5.0847   -0.3858   -1.3270 C   0  0  0  0  0  0  0  0  0  0  0  0
   -5.1151    1.0262   -1.1914 N   0  0  0  0  0  0  0  0  0  0  0  0
   -3.8515    1.4630   -0.5917 C   0  0  0  0  0  0  0  0  0  0  0  0
   -4.1805    1.9759    0.6957 N   0  0  0  0  0  0  0  0  0  0  0  0
   -3.7131    1.1952    1.7927 C   0  0  0  0  0  0  0  0  0  0  0  0
   -2.3367    0.9870    1.6512 N   0  0  0  0  0  0  0  0  0  0  0  0
    0.1727   -0.4480   -0.5669 C   0  0  1  0  0  0  0  0  0  0  0  0
    1.5689    0.1933   -0.4242 C   0  0  0  0  0  0  0  0  0  0  0  0
    2.4967   -1.8652   -1.2460 C   0  0  0  0  0  0  0  0  0  0  0  0
    1.5737   -2.5437   -0.2549 C   0  0  0  0  0  0  0  0  0  0  0  0
    0.2073   -1.8891   -0.5802 C   0  0  1  0  0  0  0  0  0  0  0  0
    2.6898   -0.5962   -0.6557 N   0  0  0  0  0  0  0  0  0  0  0  0
    4.7456   -1.4460    0.1307 O   0  0  0  0  0  0  0  0  0  0  0  0
    3.8116   -0.4490    0.2118 C   0  0  0  0  0  0  0  0  0  0  0  0
    4.3800    0.9302    0.0912 C   0  0  0  0  0  0  0  0  0  0  0  0
    5.5701    1.1682    0.9814 C   0  0  0  0  0  0  0  0  0  0  0  0
    6.0822    2.5137    0.8060 N   0  0  0  0  0  0  0  0  0  0  0  0
   -0.7568   -2.7156    0.2064 C   0  0  0  0  0  0  0  0  0  0  0  0
   -0.6205    0.3139    0.3310 N   0  0  0  0  0  0  0  0  0  0  0  0
   -0.5329    1.6984   -0.2055 C   0  0  0  0  0  0  0  0  0  0  0  0
   -2.0002    0.1090    0.5048 C   0  0  0  0  0  0  0  0  0  0  0  0
   -2.8843    0.3496   -0.6689 C   0  0  0  0  0  0  0  0  0  0  0  0
   -3.7212   -0.8747   -0.9907 C   0  0  0  0  0  0  0  0  0  0  0  0
   -5.0847   -0.3858   -1.3270 C   0  0  0  0  0  0  0  0  0  0  0  0
   -5.1151    1.0262   -1.1914 N   0  0  0  0  0  0  0  0  0  0  0  0
   -3.8515    1.4630   -0.5917 C   0  0  0  0  0  0  0  0  0  0  0  0
   -4.1805    1.9759    0.6957 N   0  0  0  0  0  0  0  0  0  0  0  0
   -3.7131    1.1952    1.7927 C   0  0  0  0  0  0  0  0  0  0  0  0
   -2.3367    0.9870    1.6512 N   0  0  0  0  0  0  0  0  0  0  0  0
   -0.1663   -0.0918   -1.5916 H   0  0  0  0  0  0  0  0  0  0  0  0
    1.6509    1.1158   -1.0711 H   0  0  0  0  0  0  0  0  0  0  0  0
    1.7092    0.6217    0.6155 H   0  0  0  0  0  0  0  0  0  0  0  0
    1.9827   -1.7314   -2.2189 H   0  0  0  0  0  0  0  0  0  0  0  0
    3.4196   -2.4057   -1.4266 H   0  0  0  0  0  0  0  0  0  0  0  0
    1.8690   -2.3635    0.7849 H   0  0  0  0  0  0  0  0  0  0  0  0
    1.4833   -3.5980   -0.5248 H   0  0  0  0  0  0  0  0  0  0  0  0
    0.0576   -2.2650   -1.6468 H   0  0  0  0  0  0  0  0  0  0  0  0
    4.5321   -2.2902    0.5449 H   0  0  0  0  0  0  0  0  0  0  0  0
    3.3873   -0.5028    1.2618 H   0  0  0  0  0  0  0  0  0  0  0  0
    4.7143    1.1214   -0.9631 H   0  0  0  0  0  0  0  0  0  0  0  0
    3.6310    1.7230    0.3123 H   0  0  0  0  0  0  0  0  0  0  0  0
    5.3159    1.0930    2.0576 H   0  0  0  0  0  0  0  0  0  0  0  0
    6.3831    0.4385    0.8200 H   0  0  0  0  0  0  0  0  0  0  0  0
    6.6824    2.7146    1.6365 H   0  0  0  0  0  0  0  0  0  0  0  0
    5.3473    3.2434    0.7721 H   0  0  0  0  0  0  0  0  0  0  0  0
   -0.6997   -2.5735    1.2950 H   0  0  0  0  0  0  0  0  0  0  0  0
   -0.3733   -3.7847    0.0850 H   0  0  0  0  0  0  0  0  0  0  0  0
   -1.7630   -2.8137   -0.2232 H   0  0  0  0  0  0  0  0  0  0  0  0
   -1.4638    2.2750   -0.0473 H   0  0  0  0  0  0  0  0  0  0  0  0
   -0.4070    1.6775   -1.3099 H   0  0  0  0  0  0  0  0  0  0  0  0
    0.2742    2.2506    0.3231 H   0  0  0  0  0  0  0  0  0  0  0  0
   -2.3191   -0.8614    0.9616 H   0  0  0  0  0  0  0  0  0  0  0  0
   -2.2245    0.5155   -1.5639 H   0  0  0  0  0  0  0  0  0  0  0  0
   -3.8061   -1.5292   -0.0727 H   0  0  0  0  0  0  0  0  0  0  0  0
   -3.2574   -1.4956   -1.7824 H   0  0  0  0  0  0  0  0  0  0  0  0
   -5.2784   -0.6370   -2.4071 H   0  0  0  0  0  0  0  0  0  0  0  0
   -5.8973   -0.9244   -0.7714 H   0  0  0  0  0  0  0  0  0  0  0  0
   -5.9455    1.3909   -0.6867 H   0  0  0  0  0  0  0  0  0  0  0  0
   -3.5386    2.3334   -1.2149 H   0  0  0  0  0  0  0  0  0  0  0  0
   -3.9995    2.9830    0.8234 H   0  0  0  0  0  0  0  0  0  0  0  0
   -4.2432    0.2234    1.9009 H   0  0  0  0  0  0  0  0  0  0  0  0
   -3.9006    1.7518    2.7232 H   0  0  0  0  0  0  0  0  0  0  0  0
   -1.6580    1.6849    1.8772 H   0  0  0  0  0  0  0  0  0  0  0  0
   -0.1663   -0.0918   -1.5916 H   0  0  0  0  0  0  0  0  0  0  0  0
    1.6509    1.1158   -1.0711 H   0  0  0  0  0  0  0  0  0  0  0  0
    1.7092    0.6217    0.6155 H   0  0  0  0  0  0  0  0  0  0  0  0
    1.9827   -1.7314   -2.2189 H   0  0  0  0  0  0  0  0  0  0  0  0
    3.4196   -2.4057   -1.4266 H   0  0  0  0  0  0  0  0  0  0  0  0
    1.8690   -2.3635    0.7849 H   0  0  0  0  0  0  0  0  0  0  0  0
    1.4833   -3.5980   -0.5248 H   0  0  0  0  0  0  0  0  0  0  0  0
    0.0576   -2.2650   -1.6468 H   0  0  0  0  0  0  0  0  0  0  0  0
    4.5321   -2.2902    0.5449 H   0  0  0  0  0  0  0  0  0  0  0  0
    3.3873   -0.5028    1.2618 H   0  0  0  0  0  0  0  0  0  0  0  0
    4.7143    1.1214   -0.9631 H   0  0  0  0  0  0  0  0  0  0  0  0
    3.6310    1.7230    0.3123 H   0  0  0  0  0  0  0  0  0  0  0  0
    5.3159    1.0930    2.0576 H   0  0  0  0  0  0  0  0  0  0  0  0
    6.3831    0.4385    0.8200 H   0  0  0  0  0  0  0  0  0  0  0  0
    6.6824    2.7146    1.6365 H   0  0  0  0  0  0  0  0  0  0  0  0
    5.3473    3.2434    0.7721 H   0  0  0  0  0  0  0  0  0  0  0  0
   -0.6997   -2.5735    1.2950 H   0  0  0  0  0  0  0  0  0  0  0  0
   -0.3733   -3.7847    0.0850 H   0  0  0  0  0  0  0  0  0  0  0  0
   -1.7630   -2.8137   -0.2232 H   0  0  0  0  0  0  0  0  0  0  0  0
   -1.4638    2.2750   -0.0473 H   0  0  0  0  0  0  0  0  0  0  0  0
   -0.4070    1.6775   -1.3099 H   0  0  0  0  0  0  0  0  0  0  0  0
    0.2742    2.2506    0.3231 H   0  0  0  0  0  0  0  0  0  0  0  0
   -2.3191   -0.8614    0.9616 H   0  0  0  0  0  0  0  0  0  0  0  0
   -2.2245    0.5155   -1.5639 H   0  0  0  0  0  0  0  0  0  0  0  0
   -3.8061   -1.5292   -0.0727 H   0  0  0  0  0  0  0  0  0  0  0  0
   -3.2574   -1.4956   -1.7824 H   0  0  0  0  0  0  0  0  0  0  0  0
   -5.2784   -0.6370   -2.4071 H   0  0  0  0  0  0  0  0  0  0  0  0
   -5.8973   -0.9244   -0.7714 H   0  0  0  0  0  0  0  0  0  0  0  0
   -5.9455    1.3909   -0.6867 H   0  0  0  0  0  0  0  0  0  0  0  0
   -3.5386    2.3334   -1.2149 H   0  0  0  0  0  0  0  0  0  0  0  0
   -3.9995    2.9830    0.8234 H   0  0  0  0  0  0  0  0  0  0  0  0
   -4.2432    0.2234    1.9009 H   0  0  0  0  0  0  0  0  0  0  0  0
   -3.9006    1.7518    2.7232 H   0  0  0  0  0  0  0  0  0  0  0  0
   -1.6580    1.6849    1.8772 H   0  0  0  0  0  0  0  0  0  0  0  0
  1  2  1  0
  3  4  1  0
  1  5  1  0
  4  5  1  0
  2  6  1  0
  3  6  1  0
  6  8  1  0
  7  8  1  0
  8  9  1  0
  9 10  1  0
 10 11  1  0
  5 12  1  0
  1 13  1  0
 13 14  1  0
 13 15  1  0
 15 16  1  0
 16 17  1  0
 17 18  1  0
 18 19  1  0
 16 20  1  0
 19 20  1  0
 20 21  1  0
 21 22  1  0
 15 23  1  0
 22 23  1  0
 24 25  1  0
 26 27  1  0
 24 28  1  0
 27 28  1  0
 25 29  1  0
 26 29  1  0
 29 31  1  0
 30 31  1  0
 31 32  1  0
 32 33  1  0
 33 34  1  0
 28 35  1  0
 24 36  1  0
 36 37  1  0
 36 38  1  0
 38 39  1  0
 39 40  1  0
 40 41  1  0
 41 42  1  0
 39 43  1  0
 42 43  1  0
 43 44  1  0
 44 45  1  0
 38 46  1  0
 45 46  1  0
  1 47  1  6
  2 48  1  0
  2 49  1  0
  3 50  1  0
  3 51  1  0
  4 52  1  0
  4 53  1  0
  5 54  1  6
  7 55  1  0
  8 56  1  0
  9 57  1  0
  9 58  1  0
 10 59  1  0
 10 60  1  0
 11 61  1  0
 11 62  1  0
 12 63  1  0
 12 64  1  0
 12 65  1  0
 14 66  1  0
 14 67  1  0
 14 68  1  0
 15 69  1  0
 16 70  1  0
 17 71  1  0
 17 72  1  0
 18 73  1  0
 18 74  1  0
 19 75  1  0
 20 76  1  0
 21 77  1  0
 22 78  1  0
 22 79  1  0
 23 80  1  0
 24 81  1  6
 25 82  1  0
 25 83  1  0
 26 84  1  0
 26 85  1  0
 27 86  1  0
 27 87  1  0
 28 88  1  6
 30 89  1  0
 31 90  1  0
 32 91  1  0
 32 92  1  0
 33 93  1  0
 33 94  1  0
 34 95  1  0
 34 96  1  0
 35 97  1  0
 35 98  1  0
 35 99  1  0
 37100  1  0
 37101  1  0
 37102  1  0
 38103  1  0
 39104  1  0
 40105  1  0
 40106  1  0
 41107  1  0
 41108  1  0
 42109  1  0
 43110  1  0
 44111  1  0
 45112  1  0
 45113  1  0
 46114  1  0
M  END
>  <PDBID>  (1) 
3FUP

>  <PDB ID>  (1) 
3FUP

>  <Generic Name>  (1) 
Tofacitinib

>  <Brand Name>  (1) 
Xeljanz#Xeljanz XR

>  <DrugBank ID>  (1) 
DB08895

>  <ATC Codes>  (1) 
L04AA29

>  <Ligand ID>  (1) 
MI1

>  <Target Name>  (1) 
Tyrosine-protein kinase JAK2

>  <UniProt ID>  (1) 
O60674

>  <PDB ID.1>  (1) 
3FUP

>  <Seq. Identity>  (1) 
100%

$$$$
