PDB_DB12332_03
     RDKit          3D

116122  0  0  0  0  0  0  0  0999 V2000
   -4.2582    0.7093    2.4268 O   0  0  0  0  0  0  0  0  0  0  0  0
   -4.3204    0.5036    1.0537 C   0  0  1  0  0  0  0  0  0  0  0  0
   -3.9779    1.6804    0.3585 N   0  0  0  0  0  0  0  0  0  0  0  0
   -2.8203    2.3739    0.6899 C   0  0  0  0  0  0  0  0  0  0  0  0
   -1.6766    1.6366    1.2767 C   0  0  0  0  0  0  0  0  0  0  0  0
   -1.1994    0.4442    0.5423 C   0  0  0  0  0  0  0  0  0  0  0  0
   -2.3862   -0.1596   -0.2168 C   0  0  0  0  0  0  0  0  0  0  0  0
   -3.4474   -0.6915    0.6306 C   0  0  0  0  0  0  0  0  0  0  0  0
   -4.3188   -1.6375   -0.1525 C   0  0  0  0  0  0  0  0  0  0  0  0
   -3.5954   -2.5607   -1.0639 C   0  0  0  0  0  0  0  0  0  0  0  0
   -4.4900   -3.1822   -1.8817 F   0  0  0  0  0  0  0  0  0  0  0  0
   -2.5725   -1.8385   -1.9470 C   0  0  0  0  0  0  0  0  0  0  0  0
   -1.5925   -1.2135   -0.9906 C   0  0  0  0  0  0  0  0  0  0  0  0
   -0.6259   -0.3379   -1.6307 N   0  0  0  0  0  0  0  0  0  0  0  0
   -0.2985    0.6814   -0.6127 C   0  0  2  0  0  0  0  0  0  0  0  0
    1.1617    0.5537   -0.3576 C   0  0  0  0  0  0  0  0  0  0  0  0
    1.5763   -0.8234    0.1193 C   0  0  0  0  0  0  0  0  0  0  0  0
    3.0508   -0.9087    0.3032 C   0  0  0  0  0  0  0  0  0  0  0  0
    1.6909    1.6142    0.5899 C   0  0  0  0  0  0  0  0  0  0  0  0
    3.1977    1.5900    0.6266 C   0  0  0  0  0  0  0  0  0  0  0  0
    3.8137    0.3492    0.0746 C   0  0  0  0  0  0  0  0  0  0  0  0
    5.1678    0.1921    0.7667 C   0  0  0  0  0  0  0  0  0  0  0  0
    5.9245   -0.9084    0.2576 N   0  0  0  0  0  0  0  0  0  0  0  0
    6.3807   -0.7161   -1.1011 C   0  0  0  0  0  0  0  0  0  0  0  0
   -4.2582    0.7093    2.4268 O   0  0  0  0  0  0  0  0  0  0  0  0
   -4.3204    0.5036    1.0537 C   0  0  1  0  0  0  0  0  0  0  0  0
   -3.9779    1.6804    0.3585 N   0  0  0  0  0  0  0  0  0  0  0  0
   -2.8203    2.3739    0.6899 C   0  0  0  0  0  0  0  0  0  0  0  0
   -1.6766    1.6366    1.2767 C   0  0  0  0  0  0  0  0  0  0  0  0
   -1.1994    0.4442    0.5423 C   0  0  0  0  0  0  0  0  0  0  0  0
   -2.3862   -0.1596   -0.2168 C   0  0  0  0  0  0  0  0  0  0  0  0
   -3.4474   -0.6915    0.6306 C   0  0  0  0  0  0  0  0  0  0  0  0
   -4.3188   -1.6375   -0.1525 C   0  0  0  0  0  0  0  0  0  0  0  0
   -3.5954   -2.5607   -1.0639 C   0  0  0  0  0  0  0  0  0  0  0  0
   -4.4900   -3.1822   -1.8817 F   0  0  0  0  0  0  0  0  0  0  0  0
   -2.5725   -1.8385   -1.9470 C   0  0  0  0  0  0  0  0  0  0  0  0
   -1.5925   -1.2135   -0.9906 C   0  0  0  0  0  0  0  0  0  0  0  0
   -0.6259   -0.3379   -1.6307 N   0  0  0  0  0  0  0  0  0  0  0  0
   -0.2985    0.6814   -0.6127 C   0  0  2  0  0  0  0  0  0  0  0  0
    1.1617    0.5537   -0.3576 C   0  0  0  0  0  0  0  0  0  0  0  0
    1.5763   -0.8234    0.1193 C   0  0  0  0  0  0  0  0  0  0  0  0
    3.0508   -0.9087    0.3032 C   0  0  0  0  0  0  0  0  0  0  0  0
    1.6909    1.6142    0.5899 C   0  0  0  0  0  0  0  0  0  0  0  0
    3.1977    1.5900    0.6266 C   0  0  0  0  0  0  0  0  0  0  0  0
    3.8137    0.3492    0.0746 C   0  0  0  0  0  0  0  0  0  0  0  0
    5.1678    0.1921    0.7667 C   0  0  0  0  0  0  0  0  0  0  0  0
    5.9245   -0.9084    0.2576 N   0  0  0  0  0  0  0  0  0  0  0  0
    6.3807   -0.7161   -1.1011 C   0  0  0  0  0  0  0  0  0  0  0  0
   -5.1488    1.0434    2.7685 H   0  0  0  0  0  0  0  0  0  0  0  0
   -5.4015    0.2740    0.8355 H   0  0  0  0  0  0  0  0  0  0  0  0
   -4.3815    1.8011   -0.5836 H   0  0  0  0  0  0  0  0  0  0  0  0
   -3.0919    3.1871    1.4276 H   0  0  0  0  0  0  0  0  0  0  0  0
   -2.4445    2.9479   -0.1994 H   0  0  0  0  0  0  0  0  0  0  0  0
   -1.9983    1.2867    2.3038 H   0  0  0  0  0  0  0  0  0  0  0  0
   -0.8804    2.3959    1.4998 H   0  0  0  0  0  0  0  0  0  0  0  0
   -0.7940   -0.3188    1.2122 H   0  0  0  0  0  0  0  0  0  0  0  0
   -2.6935    0.5888   -0.9510 H   0  0  0  0  0  0  0  0  0  0  0  0
   -3.0788   -1.1458    1.5600 H   0  0  0  0  0  0  0  0  0  0  0  0
   -5.1367   -1.1242   -0.7008 H   0  0  0  0  0  0  0  0  0  0  0  0
   -4.8316   -2.2841    0.6197 H   0  0  0  0  0  0  0  0  0  0  0  0
   -3.0912   -3.3439   -0.4620 H   0  0  0  0  0  0  0  0  0  0  0  0
   -2.1171   -2.6235   -2.5897 H   0  0  0  0  0  0  0  0  0  0  0  0
   -3.0935   -1.0575   -2.5070 H   0  0  0  0  0  0  0  0  0  0  0  0
   -1.1402   -1.9530   -0.3318 H   0  0  0  0  0  0  0  0  0  0  0  0
   -1.1631    0.1546   -2.4010 H   0  0  0  0  0  0  0  0  0  0  0  0
   -0.4810    1.6927   -1.0301 H   0  0  0  0  0  0  0  0  0  0  0  0
    1.6849    0.7192   -1.3229 H   0  0  0  0  0  0  0  0  0  0  0  0
    1.0919   -1.0763    1.0852 H   0  0  0  0  0  0  0  0  0  0  0  0
    1.2049   -1.5652   -0.6169 H   0  0  0  0  0  0  0  0  0  0  0  0
    3.3366   -1.3503    1.2996 H   0  0  0  0  0  0  0  0  0  0  0  0
    3.4408   -1.6591   -0.4449 H   0  0  0  0  0  0  0  0  0  0  0  0
    1.3017    1.4166    1.6025 H   0  0  0  0  0  0  0  0  0  0  0  0
    1.3875    2.5837    0.1759 H   0  0  0  0  0  0  0  0  0  0  0  0
    3.5117    1.7258    1.7009 H   0  0  0  0  0  0  0  0  0  0  0  0
    3.6253    2.5053    0.1200 H   0  0  0  0  0  0  0  0  0  0  0  0
    4.0303    0.4951   -1.0017 H   0  0  0  0  0  0  0  0  0  0  0  0
    5.0398    0.0528    1.8587 H   0  0  0  0  0  0  0  0  0  0  0  0
    5.7927    1.1151    0.6532 H   0  0  0  0  0  0  0  0  0  0  0  0
    5.5358   -1.8407    0.4473 H   0  0  0  0  0  0  0  0  0  0  0  0
    7.4942   -0.8669   -1.1566 H   0  0  0  0  0  0  0  0  0  0  0  0
    6.1895    0.3098   -1.4698 H   0  0  0  0  0  0  0  0  0  0  0  0
    5.9159   -1.4371   -1.7726 H   0  0  0  0  0  0  0  0  0  0  0  0
   -5.1488    1.0434    2.7685 H   0  0  0  0  0  0  0  0  0  0  0  0
   -5.4015    0.2740    0.8355 H   0  0  0  0  0  0  0  0  0  0  0  0
   -4.3815    1.8011   -0.5836 H   0  0  0  0  0  0  0  0  0  0  0  0
   -3.0919    3.1871    1.4276 H   0  0  0  0  0  0  0  0  0  0  0  0
   -2.4445    2.9479   -0.1994 H   0  0  0  0  0  0  0  0  0  0  0  0
   -1.9983    1.2867    2.3038 H   0  0  0  0  0  0  0  0  0  0  0  0
   -0.8804    2.3959    1.4998 H   0  0  0  0  0  0  0  0  0  0  0  0
   -0.7940   -0.3188    1.2122 H   0  0  0  0  0  0  0  0  0  0  0  0
   -2.6935    0.5888   -0.9510 H   0  0  0  0  0  0  0  0  0  0  0  0
   -3.0788   -1.1458    1.5600 H   0  0  0  0  0  0  0  0  0  0  0  0
   -5.1367   -1.1242   -0.7008 H   0  0  0  0  0  0  0  0  0  0  0  0
   -4.8316   -2.2841    0.6197 H   0  0  0  0  0  0  0  0  0  0  0  0
   -3.0912   -3.3439   -0.4620 H   0  0  0  0  0  0  0  0  0  0  0  0
   -2.1171   -2.6235   -2.5897 H   0  0  0  0  0  0  0  0  0  0  0  0
   -3.0935   -1.0575   -2.5070 H   0  0  0  0  0  0  0  0  0  0  0  0
   -1.1402   -1.9530   -0.3318 H   0  0  0  0  0  0  0  0  0  0  0  0
   -1.1631    0.1546   -2.4010 H   0  0  0  0  0  0  0  0  0  0  0  0
   -0.4810    1.6927   -1.0301 H   0  0  0  0  0  0  0  0  0  0  0  0
    1.6849    0.7192   -1.3229 H   0  0  0  0  0  0  0  0  0  0  0  0
    1.0919   -1.0763    1.0852 H   0  0  0  0  0  0  0  0  0  0  0  0
    1.2049   -1.5652   -0.6169 H   0  0  0  0  0  0  0  0  0  0  0  0
    3.3366   -1.3503    1.2996 H   0  0  0  0  0  0  0  0  0  0  0  0
    3.4408   -1.6591   -0.4449 H   0  0  0  0  0  0  0  0  0  0  0  0
    1.3017    1.4166    1.6025 H   0  0  0  0  0  0  0  0  0  0  0  0
    1.3875    2.5837    0.1759 H   0  0  0  0  0  0  0  0  0  0  0  0
    3.5117    1.7258    1.7009 H   0  0  0  0  0  0  0  0  0  0  0  0
    3.6253    2.5053    0.1200 H   0  0  0  0  0  0  0  0  0  0  0  0
    4.0303    0.4951   -1.0017 H   0  0  0  0  0  0  0  0  0  0  0  0
    5.0398    0.0528    1.8587 H   0  0  0  0  0  0  0  0  0  0  0  0
    5.7927    1.1151    0.6532 H   0  0  0  0  0  0  0  0  0  0  0  0
    5.5358   -1.8407    0.4473 H   0  0  0  0  0  0  0  0  0  0  0  0
    7.4942   -0.8669   -1.1566 H   0  0  0  0  0  0  0  0  0  0  0  0
    6.1895    0.3098   -1.4698 H   0  0  0  0  0  0  0  0  0  0  0  0
    5.9159   -1.4371   -1.7726 H   0  0  0  0  0  0  0  0  0  0  0  0
  1  2  1  0
  2  3  1  0
  3  4  1  0
  4  5  1  0
  5  6  1  0
  6  7  1  0
  2  8  1  0
  7  8  1  0
  8  9  1  0
  9 10  1  0
 10 11  1  0
 10 12  1  0
  7 13  1  0
 12 13  1  0
 13 14  1  0
  6 15  1  0
 14 15  1  0
 15 16  1  0
 16 17  1  0
 17 18  1  0
 16 19  1  0
 19 20  1  0
 18 21  1  0
 20 21  1  0
 21 22  1  0
 22 23  1  0
 23 24  1  0
 25 26  1  0
 26 27  1  0
 27 28  1  0
 28 29  1  0
 29 30  1  0
 30 31  1  0
 26 32  1  0
 31 32  1  0
 32 33  1  0
 33 34  1  0
 34 35  1  0
 34 36  1  0
 31 37  1  0
 36 37  1  0
 37 38  1  0
 30 39  1  0
 38 39  1  0
 39 40  1  0
 40 41  1  0
 41 42  1  0
 40 43  1  0
 43 44  1  0
 42 45  1  0
 44 45  1  0
 45 46  1  0
 46 47  1  0
 47 48  1  0
  1 49  1  0
  2 50  1  1
  3 51  1  0
  4 52  1  0
  4 53  1  0
  5 54  1  0
  5 55  1  0
  6 56  1  0
  7 57  1  0
  8 58  1  0
  9 59  1  0
  9 60  1  0
 10 61  1  0
 12 62  1  0
 12 63  1  0
 13 64  1  0
 14 65  1  0
 15 66  1  6
 16 67  1  0
 17 68  1  0
 17 69  1  0
 18 70  1  0
 18 71  1  0
 19 72  1  0
 19 73  1  0
 20 74  1  0
 20 75  1  0
 21 76  1  0
 22 77  1  0
 22 78  1  0
 23 79  1  0
 24 80  1  0
 24 81  1  0
 24 82  1  0
 25 83  1  0
 26 84  1  1
 27 85  1  0
 28 86  1  0
 28 87  1  0
 29 88  1  0
 29 89  1  0
 30 90  1  0
 31 91  1  0
 32 92  1  0
 33 93  1  0
 33 94  1  0
 34 95  1  0
 36 96  1  0
 36 97  1  0
 37 98  1  0
 38 99  1  0
 39100  1  6
 40101  1  0
 41102  1  0
 41103  1  0
 42104  1  0
 42105  1  0
 43106  1  0
 43107  1  0
 44108  1  0
 44109  1  0
 45110  1  0
 46111  1  0
 46112  1  0
 47113  1  0
 48114  1  0
 48115  1  0
 48116  1  0
M  END
>  <PDBID>  (1) 
4RV6

>  <PDB ID>  (1) 
4RV6

>  <Generic Name>  (1) 
Rucaparib

>  <Brand Name>  (1) 
Rubraca

>  <DrugBank ID>  (1) 
DB12332

>  <ATC Codes>  (1) 
nan

>  <Ligand ID>  (1) 
RPB

>  <Target Name>  (1) 
Poly [ADP-ribose] polymerase 1

>  <UniProt ID>  (1) 
P09874

>  <PDB ID.1>  (1) 
4RV6

>  <Seq. Identity>  (1) 
100%

$$$$
