PDB_DB01259_07
     RDKit          3D

 94 98  0  0  0  0  0  0  0  0999 V2000
   10.2373    4.0294   -0.1160 C   0  0  0  0  0  0  0  0  0  0  0  0
   10.0623    2.2724   -0.0760 S   0  0  0  0  0  0  0  0  0  0  0  0
   11.5177    1.7904    0.8359 O   0  0  0  0  0  0  0  0  0  0  0  0
   10.0230    1.6534   -1.3460 O   0  0  0  0  0  0  0  0  0  0  0  0
    8.8537    2.0014    1.1133 C   0  0  0  0  0  0  0  0  0  0  0  0
    8.5428    0.5460    1.3223 C   0  0  0  0  0  0  0  0  0  0  0  0
    8.0724   -0.1428    0.1643 N   0  0  0  0  0  0  0  0  0  0  0  0
    6.7827    0.2331   -0.3124 C   0  0  0  0  0  0  0  0  0  0  0  0
    5.7081   -0.1921    0.6596 C   0  0  0  0  0  0  0  0  0  0  0  0
    5.6398   -1.6956    0.8072 C   0  0  0  0  0  0  0  0  0  0  0  0
    4.4024   -2.1073   -0.0042 C   0  0  0  0  0  0  0  0  0  0  0  0
    4.0969   -0.8455   -0.7222 C   0  0  0  0  0  0  0  0  0  0  0  0
    4.4742    0.1958    0.1296 O   0  0  0  0  0  0  0  0  0  0  0  0
    2.6389   -0.6367   -1.0775 C   0  0  0  0  0  0  0  0  0  0  0  0
    2.1259   -1.7304   -1.9794 C   0  0  0  0  0  0  0  0  0  0  0  0
    1.5246   -2.8820   -1.2696 C   0  0  0  0  0  0  0  0  0  0  0  0
    0.5701   -2.5508   -0.1795 C   0  0  0  0  0  0  0  0  0  0  0  0
   -0.7742   -2.8075   -0.6798 N   0  0  0  0  0  0  0  0  0  0  0  0
   -1.1489   -1.9078   -1.7521 C   0  0  0  0  0  0  0  0  0  0  0  0
   -0.9304   -0.5543   -1.3737 N   0  0  0  0  0  0  0  0  0  0  0  0
   -0.7147   -0.4804    0.0387 C   0  0  0  0  0  0  0  0  0  0  0  0
   -1.7276   -1.1754    0.7335 N   0  0  0  0  0  0  0  0  0  0  0  0
   -2.8841   -0.4860    1.1579 C   0  0  0  0  0  0  0  0  0  0  0  0
   -3.7657    0.1066    0.1392 C   0  0  0  0  0  0  0  0  0  0  0  0
   -5.1035   -0.6265    0.0953 C   0  0  0  0  0  0  0  0  0  0  0  0
   -5.7976   -0.3739    1.3920 C   0  0  0  0  0  0  0  0  0  0  0  0
   -7.0571   -0.9267    1.3809 O   0  0  0  0  0  0  0  0  0  0  0  0
   -8.1049   -0.0956    1.6628 C   0  0  0  0  0  0  0  0  0  0  0  0
   -8.2183    1.0087    0.6642 C   0  0  0  0  0  0  0  0  0  0  0  0
   -9.3908    1.9322    0.9941 C   0  0  0  0  0  0  0  0  0  0  0  0
   -9.8720    2.5429   -0.2979 C   0  0  0  0  0  0  0  0  0  0  0  0
   -8.7554    2.7500   -1.2974 C   0  0  0  0  0  0  0  0  0  0  0  0
   -8.1135    1.4482   -1.7225 C   0  0  0  0  0  0  0  0  0  0  0  0
   -8.4154    1.0976   -3.0069 F   0  0  0  0  0  0  0  0  0  0  0  0
   -8.5348    0.4069   -0.7067 C   0  0  0  0  0  0  0  0  0  0  0  0
   -4.9653   -1.0068    2.4961 C   0  0  0  0  0  0  0  0  0  0  0  0
   -4.9310    0.0873    3.9155 Cl  0  0  0  0  0  0  0  0  0  0  0  0
   -3.6220   -1.4643    2.0831 C   0  0  0  0  0  0  0  0  0  0  0  0
    0.6169   -1.1894    0.3738 C   0  0  0  0  0  0  0  0  0  0  0  0
    1.7767   -0.3364    0.0974 C   0  0  0  0  0  0  0  0  0  0  0  0
   11.3149    4.3022   -0.1156 H   0  0  0  0  0  0  0  0  0  0  0  0
    9.7132    4.4209   -1.0089 H   0  0  0  0  0  0  0  0  0  0  0  0
    9.7791    4.5028    0.7760 H   0  0  0  0  0  0  0  0  0  0  0  0
   11.8278    0.9860    0.3113 H   0  0  0  0  0  0  0  0  0  0  0  0
   10.0230    2.1036   -2.2398 H   0  0  0  0  0  0  0  0  0  0  0  0
    7.9326    2.5775    0.8750 H   0  0  0  0  0  0  0  0  0  0  0  0
    9.2147    2.3899    2.0978 H   0  0  0  0  0  0  0  0  0  0  0  0
    9.4943    0.0485    1.6404 H   0  0  0  0  0  0  0  0  0  0  0  0
    7.8563    0.4825    2.1906 H   0  0  0  0  0  0  0  0  0  0  0  0
    8.8212   -0.1807   -0.5409 H   0  0  0  0  0  0  0  0  0  0  0  0
    6.6686    1.3239   -0.4750 H   0  0  0  0  0  0  0  0  0  0  0  0
    6.6286   -0.2510   -1.2943 H   0  0  0  0  0  0  0  0  0  0  0  0
    5.8500    0.3093    1.6355 H   0  0  0  0  0  0  0  0  0  0  0  0
    6.5685   -2.1664    0.3866 H   0  0  0  0  0  0  0  0  0  0  0  0
    5.5624   -1.9561    1.8592 H   0  0  0  0  0  0  0  0  0  0  0  0
    4.7249   -2.9059   -0.6785 H   0  0  0  0  0  0  0  0  0  0  0  0
    3.6576   -2.4001    0.7518 H   0  0  0  0  0  0  0  0  0  0  0  0
    4.6948   -0.7729   -1.6550 H   0  0  0  0  0  0  0  0  0  0  0  0
    2.6706    0.2841   -1.7373 H   0  0  0  0  0  0  0  0  0  0  0  0
    1.5098   -1.3010   -2.7954 H   0  0  0  0  0  0  0  0  0  0  0  0
    3.0443   -2.1214   -2.5154 H   0  0  0  0  0  0  0  0  0  0  0  0
    2.3685   -3.5391   -0.9006 H   0  0  0  0  0  0  0  0  0  0  0  0
    1.0329   -3.5337   -2.0550 H   0  0  0  0  0  0  0  0  0  0  0  0
    0.7203   -3.3402    0.6183 H   0  0  0  0  0  0  0  0  0  0  0  0
   -0.8045   -3.8050   -1.0484 H   0  0  0  0  0  0  0  0  0  0  0  0
   -2.2600   -2.0694   -1.8939 H   0  0  0  0  0  0  0  0  0  0  0  0
   -0.7018   -2.2145   -2.7224 H   0  0  0  0  0  0  0  0  0  0  0  0
   -0.3086    0.0077   -1.9538 H   0  0  0  0  0  0  0  0  0  0  0  0
   -0.5481    0.5694    0.4004 H   0  0  0  0  0  0  0  0  0  0  0  0
   -1.3671   -1.8766    1.4175 H   0  0  0  0  0  0  0  0  0  0  0  0
   -2.5529    0.3439    1.8475 H   0  0  0  0  0  0  0  0  0  0  0  0
   -3.3941    0.0619   -0.9023 H   0  0  0  0  0  0  0  0  0  0  0  0
   -4.0063    1.1763    0.3148 H   0  0  0  0  0  0  0  0  0  0  0  0
   -5.6351   -0.2081   -0.7832 H   0  0  0  0  0  0  0  0  0  0  0  0
   -4.8785   -1.7139   -0.0650 H   0  0  0  0  0  0  0  0  0  0  0  0
   -5.7914    0.7223    1.6025 H   0  0  0  0  0  0  0  0  0  0  0  0
   -8.0873    0.2933    2.7099 H   0  0  0  0  0  0  0  0  0  0  0  0
   -9.0340   -0.7358    1.6151 H   0  0  0  0  0  0  0  0  0  0  0  0
   -7.3218    1.6219    0.6708 H   0  0  0  0  0  0  0  0  0  0  0  0
  -10.2511    1.3313    1.3946 H   0  0  0  0  0  0  0  0  0  0  0  0
   -9.0882    2.7282    1.6722 H   0  0  0  0  0  0  0  0  0  0  0  0
  -10.3194    3.5489   -0.1102 H   0  0  0  0  0  0  0  0  0  0  0  0
  -10.6496    1.9296   -0.8071 H   0  0  0  0  0  0  0  0  0  0  0  0
   -7.9825    3.4571   -0.8863 H   0  0  0  0  0  0  0  0  0  0  0  0
   -9.2172    3.2729   -2.1701 H   0  0  0  0  0  0  0  0  0  0  0  0
   -6.9901    1.5433   -1.6401 H   0  0  0  0  0  0  0  0  0  0  0  0
   -9.6152    0.1895   -0.7709 H   0  0  0  0  0  0  0  0  0  0  0  0
   -8.0054   -0.5563   -0.8559 H   0  0  0  0  0  0  0  0  0  0  0  0
   -5.5332   -1.9112    2.8324 H   0  0  0  0  0  0  0  0  0  0  0  0
   -2.9846   -1.5377    2.9981 H   0  0  0  0  0  0  0  0  0  0  0  0
   -3.6002   -2.4619    1.6075 H   0  0  0  0  0  0  0  0  0  0  0  0
    0.5318   -1.2900    1.5046 H   0  0  0  0  0  0  0  0  0  0  0  0
    2.4777   -0.2996    0.9887 H   0  0  0  0  0  0  0  0  0  0  0  0
    1.4006    0.7318    0.0459 H   0  0  0  0  0  0  0  0  0  0  0  0
  1  2  1  0
  2  3  1  0
  2  4  1  0
  2  5  1  0
  5  6  1  0
  6  7  1  0
  7  8  1  0
  8  9  1  0
  9 10  1  0
 10 11  1  0
 11 12  1  0
  9 13  1  0
 12 13  1  0
 12 14  1  0
 14 15  1  0
 15 16  1  0
 16 17  1  0
 17 18  1  0
 18 19  1  0
 19 20  1  0
 20 21  1  0
 21 22  1  0
 22 23  1  0
 23 24  1  0
 24 25  1  0
 25 26  1  0
 26 27  1  0
 27 28  1  0
 28 29  1  0
 29 30  1  0
 30 31  1  0
 31 32  1  0
 32 33  1  0
 33 34  1  0
 29 35  1  0
 33 35  1  0
 26 36  1  0
 36 37  1  0
 23 38  1  0
 36 38  1  0
 17 39  1  0
 21 39  1  0
 14 40  1  0
 39 40  1  0
  1 41  1  0
  1 42  1  0
  1 43  1  0
  3 44  1  0
  4 45  1  0
  5 46  1  0
  5 47  1  0
  6 48  1  0
  6 49  1  0
  7 50  1  0
  8 51  1  0
  8 52  1  0
  9 53  1  0
 10 54  1  0
 10 55  1  0
 11 56  1  0
 11 57  1  0
 12 58  1  0
 14 59  1  0
 15 60  1  0
 15 61  1  0
 16 62  1  0
 16 63  1  0
 17 64  1  0
 18 65  1  0
 19 66  1  0
 19 67  1  0
 20 68  1  0
 21 69  1  0
 22 70  1  0
 23 71  1  0
 24 72  1  0
 24 73  1  0
 25 74  1  0
 25 75  1  0
 26 76  1  0
 28 77  1  0
 28 78  1  0
 29 79  1  0
 30 80  1  0
 30 81  1  0
 31 82  1  0
 31 83  1  0
 32 84  1  0
 32 85  1  0
 33 86  1  0
 35 87  1  0
 35 88  1  0
 36 89  1  0
 38 90  1  0
 38 91  1  0
 39 92  1  0
 40 93  1  0
 40 94  1  0
M  END
>  <PDBID>  (1) 
1XKK

>  <PDB ID>  (1) 
1XKK

>  <Generic Name>  (1) 
Lapatinib

>  <Brand Name>  (1) 
Tykerb#Tycerb

>  <DrugBank ID>  (1) 
DB01259

>  <ATC Codes>  (1) 
L01XE07

>  <Ligand ID>  (1) 
FMM

>  <Target Name>  (1) 
Receptor tyrosine-protein kinase erbB-2

>  <UniProt ID>  (1) 
P04626

>  <PDB ID.1>  (1) 
1XKK

>  <Seq. Identity>  (1) 
78%

$$$$
