PDB_DB00932_00
     RDKit          3D

 99102  0  0  0  0  0  0  0  0999 V2000
   -3.6350   -1.7565   -0.3428 O   0  0  0  0  0  0  0  0  0  0  0  0
   -2.5870   -1.9921   -1.2251 C   0  0  0  0  0  0  0  0  0  0  0  0
   -1.2877   -1.8457   -0.4167 C   0  0  0  0  0  0  0  0  0  0  0  0
   -1.1243   -0.3982   -0.1282 C   0  0  0  0  0  0  0  0  0  0  0  0
   -2.4384    0.3169    0.0880 C   0  0  0  0  0  0  0  0  0  0  0  0
   -3.6188   -0.5531    0.2983 C   0  0  2  0  0  0  0  0  0  0  0  0
   -2.5273   -1.0914   -2.2561 O   0  0  0  0  0  0  0  0  0  0  0  0
   -0.4905    0.3117   -1.1414 O   0  0  0  0  0  0  0  0  0  0  0  0
   -3.7836   -0.7775    1.7815 C   0  0  0  0  0  0  0  0  0  0  0  0
   -5.0512   -1.4551    2.1588 C   0  0  0  0  0  0  0  0  0  0  0  0
   -5.2093   -2.8213    1.5455 C   0  0  0  0  0  0  0  0  0  0  0  0
   -4.8539    0.2094   -0.2030 C   0  0  0  0  0  0  0  0  0  0  0  0
   -4.9711    1.5687    0.4192 C   0  0  0  0  0  0  0  0  0  0  0  0
   -6.1735    2.3330   -0.0666 C   0  0  0  0  0  0  0  0  0  0  0  0
   -6.2462    3.6954    0.5897 C   0  0  0  0  0  0  0  0  0  0  0  0
   -7.3658    4.5176    0.0419 C   0  0  0  0  0  0  0  0  0  0  0  0
   -8.0946    3.7496   -1.0251 C   0  0  0  0  0  0  0  0  0  0  0  0
   -8.5566    2.4039   -0.5537 C   0  0  0  0  0  0  0  0  0  0  0  0
   -7.4661    1.6299    0.1613 C   0  0  0  0  0  0  0  0  0  0  0  0
   -0.1390   -2.5702   -1.0140 C   0  0  2  0  0  0  0  0  0  0  0  0
   -0.3970   -4.0616   -1.1359 C   0  0  0  0  0  0  0  0  0  0  0  0
    0.8065   -4.7261   -1.7635 C   0  0  0  0  0  0  0  0  0  0  0  0
    1.1793   -2.4118   -0.3288 C   0  0  0  0  0  0  0  0  0  0  0  0
    1.1781   -2.8360    1.1025 C   0  0  0  0  0  0  0  0  0  0  0  0
    2.4573   -2.4289    1.7592 C   0  0  0  0  0  0  0  0  0  0  0  0
    3.6269   -2.4050    0.8027 C   0  0  0  0  0  0  0  0  0  0  0  0
    3.4285   -1.4569   -0.3306 C   0  0  0  0  0  0  0  0  0  0  0  0
    4.1766   -0.2374   -0.2151 N   0  0  0  0  0  0  0  0  0  0  0  0
    1.9148   -1.1376   -0.5078 C   0  0  0  0  0  0  0  0  0  0  0  0
    5.7370   -0.3977   -0.1518 S   0  0  0  0  0  0  0  0  0  0  0  0
    6.2237   -0.4949    1.4611 O   0  0  0  0  0  0  0  0  0  0  0  0
    6.3707   -1.6108   -0.9267 O   0  0  0  0  0  0  0  0  0  0  0  0
    6.5681    1.0790   -0.6747 C   0  0  1  0  0  0  0  0  0  0  0  0
    6.1911    2.1035    0.2520 N   0  0  0  0  0  0  0  0  0  0  0  0
    7.3153    2.7998    0.8229 C   0  0  0  0  0  0  0  0  0  0  0  0
    8.2950    3.2336   -0.2481 C   0  0  2  0  0  0  0  0  0  0  0  0
    8.8808    2.0131   -0.8836 C   0  0  0  0  0  0  0  0  0  0  0  0
    8.0503    0.8050   -0.5515 C   0  0  0  0  0  0  0  0  0  0  0  0
    9.3700    4.1033    0.3648 C   0  0  0  0  0  0  0  0  0  0  0  0
   10.0675    3.4023    1.3547 F   0  0  0  0  0  0  0  0  0  0  0  0
   10.2446    4.5042   -0.6233 F   0  0  0  0  0  0  0  0  0  0  0  0
    8.7781    5.1872    0.9660 F   0  0  0  0  0  0  0  0  0  0  0  0
   -2.6786   -3.0413   -1.5251 H   0  0  0  0  0  0  0  0  0  0  0  0
   -1.5388   -2.3961    0.5434 H   0  0  0  0  0  0  0  0  0  0  0  0
   -0.5209   -0.2946    0.7924 H   0  0  0  0  0  0  0  0  0  0  0  0
   -2.6395    1.0151   -0.7671 H   0  0  0  0  0  0  0  0  0  0  0  0
   -2.2975    0.9894    0.9580 H   0  0  0  0  0  0  0  0  0  0  0  0
   -1.6593   -1.0005   -2.6792 H   0  0  0  0  0  0  0  0  0  0  0  0
   -0.3772    1.2447   -0.8135 H   0  0  0  0  0  0  0  0  0  0  0  0
   -3.7277    0.2020    2.2843 H   0  0  0  0  0  0  0  0  0  0  0  0
   -2.9449   -1.3760    2.1927 H   0  0  0  0  0  0  0  0  0  0  0  0
   -5.0417   -1.5976    3.2607 H   0  0  0  0  0  0  0  0  0  0  0  0
   -5.9614   -0.8145    1.9657 H   0  0  0  0  0  0  0  0  0  0  0  0
   -5.9494   -3.3735    2.1932 H   0  0  0  0  0  0  0  0  0  0  0  0
   -5.6469   -2.7984    0.5402 H   0  0  0  0  0  0  0  0  0  0  0  0
   -4.2574   -3.3450    1.6244 H   0  0  0  0  0  0  0  0  0  0  0  0
   -4.7878    0.3615   -1.3067 H   0  0  0  0  0  0  0  0  0  0  0  0
   -5.7056   -0.4415   -0.0241 H   0  0  0  0  0  0  0  0  0  0  0  0
   -5.0763    1.4981    1.5227 H   0  0  0  0  0  0  0  0  0  0  0  0
   -4.0693    2.1849    0.2294 H   0  0  0  0  0  0  0  0  0  0  0  0
   -6.0828    2.5322   -1.1695 H   0  0  0  0  0  0  0  0  0  0  0  0
   -6.3279    3.5152    1.6871 H   0  0  0  0  0  0  0  0  0  0  0  0
   -5.2512    4.1886    0.4062 H   0  0  0  0  0  0  0  0  0  0  0  0
   -7.0454    5.4850   -0.3633 H   0  0  0  0  0  0  0  0  0  0  0  0
   -8.0986    4.6780    0.8752 H   0  0  0  0  0  0  0  0  0  0  0  0
   -9.0218    4.3437   -1.2632 H   0  0  0  0  0  0  0  0  0  0  0  0
   -7.5330    3.7103   -1.9874 H   0  0  0  0  0  0  0  0  0  0  0  0
   -9.4493    2.5565    0.0920 H   0  0  0  0  0  0  0  0  0  0  0  0
   -8.9319    1.8562   -1.4563 H   0  0  0  0  0  0  0  0  0  0  0  0
   -7.4909    0.6003   -0.2578 H   0  0  0  0  0  0  0  0  0  0  0  0
   -7.7282    1.6447    1.2443 H   0  0  0  0  0  0  0  0  0  0  0  0
   -0.0099   -2.2005   -2.0639 H   0  0  0  0  0  0  0  0  0  0  0  0
   -1.2521   -4.3355   -1.7496 H   0  0  0  0  0  0  0  0  0  0  0  0
   -0.5186   -4.4593   -0.0972 H   0  0  0  0  0  0  0  0  0  0  0  0
    1.3468   -4.1063   -2.4868 H   0  0  0  0  0  0  0  0  0  0  0  0
    0.4799   -5.6294   -2.3692 H   0  0  0  0  0  0  0  0  0  0  0  0
    1.5309   -5.1186   -1.0253 H   0  0  0  0  0  0  0  0  0  0  0  0
    1.8743   -3.1939   -0.8282 H   0  0  0  0  0  0  0  0  0  0  0  0
    1.0328   -3.9526    1.1163 H   0  0  0  0  0  0  0  0  0  0  0  0
    0.3484   -2.3382    1.6782 H   0  0  0  0  0  0  0  0  0  0  0  0
    2.4068   -1.4686    2.2903 H   0  0  0  0  0  0  0  0  0  0  0  0
    2.7099   -3.1980    2.5350 H   0  0  0  0  0  0  0  0  0  0  0  0
    3.8640   -3.4453    0.4391 H   0  0  0  0  0  0  0  0  0  0  0  0
    4.5145   -2.0822    1.3820 H   0  0  0  0  0  0  0  0  0  0  0  0
    3.7652   -1.9703   -1.2626 H   0  0  0  0  0  0  0  0  0  0  0  0
    3.7566    0.4556    0.4280 H   0  0  0  0  0  0  0  0  0  0  0  0
    1.7375   -0.3710    0.2663 H   0  0  0  0  0  0  0  0  0  0  0  0
    1.8914   -0.7503   -1.5535 H   0  0  0  0  0  0  0  0  0  0  0  0
    7.0231   -1.0986    1.4670 H   0  0  0  0  0  0  0  0  0  0  0  0
    6.5664   -1.5313   -1.8945 H   0  0  0  0  0  0  0  0  0  0  0  0
    6.2861    1.3188   -1.7206 H   0  0  0  0  0  0  0  0  0  0  0  0
    5.4150    2.7065   -0.0417 H   0  0  0  0  0  0  0  0  0  0  0  0
    7.0115    3.6980    1.3750 H   0  0  0  0  0  0  0  0  0  0  0  0
    7.8737    2.1605    1.5371 H   0  0  0  0  0  0  0  0  0  0  0  0
    7.8098    3.8404   -1.0387 H   0  0  0  0  0  0  0  0  0  0  0  0
    9.0206    2.1344   -1.9700 H   0  0  0  0  0  0  0  0  0  0  0  0
    9.9088    1.8677   -0.4545 H   0  0  0  0  0  0  0  0  0  0  0  0
    8.3625   -0.0142   -1.2368 H   0  0  0  0  0  0  0  0  0  0  0  0
    8.2417    0.4534    0.4852 H   0  0  0  0  0  0  0  0  0  0  0  0
  1  2  1  0
  2  3  1  0
  3  4  1  0
  4  5  1  0
  1  6  1  0
  5  6  1  0
  2  7  1  0
  4  8  1  0
  6  9  1  1
  9 10  1  0
 10 11  1  0
  6 12  1  0
 12 13  1  0
 13 14  1  0
 14 15  1  0
 15 16  1  0
 16 17  1  0
 17 18  1  0
 14 19  1  0
 18 19  1  0
  3 20  1  0
 20 21  1  0
 21 22  1  0
 20 23  1  0
 23 24  1  0
 24 25  1  0
 25 26  1  0
 26 27  1  0
 27 28  1  0
 23 29  1  0
 27 29  1  0
 28 30  1  0
 30 31  1  0
 30 32  1  0
 30 33  1  0
 33 34  1  0
 34 35  1  0
 35 36  1  0
 36 37  1  0
 33 38  1  0
 37 38  1  0
 36 39  1  0
 39 40  1  0
 39 41  1  0
 39 42  1  0
  2 43  1  0
  3 44  1  0
  4 45  1  0
  5 46  1  0
  5 47  1  0
  7 48  1  0
  8 49  1  0
  9 50  1  0
  9 51  1  0
 10 52  1  0
 10 53  1  0
 11 54  1  0
 11 55  1  0
 11 56  1  0
 12 57  1  0
 12 58  1  0
 13 59  1  0
 13 60  1  0
 14 61  1  0
 15 62  1  0
 15 63  1  0
 16 64  1  0
 16 65  1  0
 17 66  1  0
 17 67  1  0
 18 68  1  0
 18 69  1  0
 19 70  1  0
 19 71  1  0
 20 72  1  6
 21 73  1  0
 21 74  1  0
 22 75  1  0
 22 76  1  0
 22 77  1  0
 23 78  1  0
 24 79  1  0
 24 80  1  0
 25 81  1  0
 25 82  1  0
 26 83  1  0
 26 84  1  0
 27 85  1  0
 28 86  1  0
 29 87  1  0
 29 88  1  0
 31 89  1  0
 32 90  1  0
 33 91  1  6
 34 92  1  0
 35 93  1  0
 35 94  1  0
 36 95  1  6
 37 96  1  0
 37 97  1  0
 38 98  1  0
 38 99  1  0
M  END
>  <PDBID>  (1) 
2O4P

>  <PDB ID>  (1) 
2O4P

>  <Generic Name>  (1) 
Tipranavir

>  <Brand Name>  (1) 
Aptivus

>  <DrugBank ID>  (1) 
DB00932

>  <ATC Codes>  (1) 
J05AE09

>  <Ligand ID>  (1) 
TPV

>  <Target Name>  (1) 
Pol polyprotein

>  <UniProt ID>  (1) 
Q72874

>  <PDB ID.1>  (1) 
2O4P

>  <Seq. Identity>  (1) 
98%

$$$$
