PDB_DB00398_08
     RDKit          3D

 70 72  0  0  0  0  0  0  0  0999 V2000
    5.8419   -0.1615   -0.9825 C   0  0  0  0  0  0  0  0  0  0  0  0
    4.8973    0.2894    0.0640 C   0  0  2  0  0  0  0  0  0  0  0  0
    5.4306    1.2073    1.1036 C   0  0  0  0  0  0  0  0  0  0  0  0
    6.7865    0.8326    1.5939 C   0  0  0  0  0  0  0  0  0  0  0  0
    3.1810   -1.4135   -0.1946 C   0  0  0  0  0  0  0  0  0  0  0  0
    1.4143    0.2123    0.1545 C   0  0  0  0  0  0  0  0  0  0  0  0
    0.4350   -0.5703    0.9471 C   0  0  0  0  0  0  0  0  0  0  0  0
   -0.7178   -1.0215    0.1049 C   0  0  0  0  0  0  0  0  0  0  0  0
   -1.4881    0.1231   -0.4627 C   0  0  0  0  0  0  0  0  0  0  0  0
   -0.7546    1.4196   -0.1308 C   0  0  0  0  0  0  0  0  0  0  0  0
    0.6932    1.3312   -0.5645 C   0  0  0  0  0  0  0  0  0  0  0  0
   -2.7445    0.1799    0.0839 O   0  0  0  0  0  0  0  0  0  0  0  0
   -4.4004    1.6792   -0.5379 C   0  0  0  0  0  0  0  0  0  0  0  0
   -5.2577    1.5201    0.6803 C   0  0  0  0  0  0  0  0  0  0  0  0
   -6.1909   -0.0835   -0.7471 C   0  0  0  0  0  0  0  0  0  0  0  0
   -4.8115   -0.7148   -0.8576 C   0  0  0  0  0  0  0  0  0  0  0  0
   -8.6073   -0.4564   -0.9768 N   0  0  0  0  0  0  0  0  0  0  0  0
   -8.8522   -0.0311    0.3661 C   0  0  0  0  0  0  0  0  0  0  0  0
    7.7166    0.8371    0.3966 C   0  0  0  0  0  0  0  0  0  0  0  0
    7.2932   -0.1441   -0.6433 C   0  0  0  0  0  0  0  0  0  0  0  0
    7.8379   -1.5285   -0.3074 C   0  0  0  0  0  0  0  0  0  0  0  0
    7.6860   -2.4100   -1.3617 F   0  0  0  0  0  0  0  0  0  0  0  0
    9.2181   -1.4410   -0.1032 F   0  0  0  0  0  0  0  0  0  0  0  0
    7.2547   -2.0817    0.8011 F   0  0  0  0  0  0  0  0  0  0  0  0
    7.8772    2.4759   -0.2250 Cl  0  0  0  0  0  0  0  0  0  0  0  0
    4.1152   -0.7509    0.6957 N   0  0  0  0  0  0  0  0  0  0  0  0
    2.2406   -0.4783   -0.7611 N   0  0  0  0  0  0  0  0  0  0  0  0
    2.6273   -2.4708    0.4793 O   0  0  0  0  0  0  0  0  0  0  0  0
   -3.7486    0.3265   -0.8529 C   0  0  0  0  0  0  0  0  0  0  0  0
   -6.2522    0.4774    0.5870 N   0  0  0  0  0  0  0  0  0  0  0  0
   -7.2836   -1.0451   -1.0530 C   0  0  0  0  0  0  0  0  0  0  0  0
   -7.2800   -2.1224   -0.1784 O   0  0  0  0  0  0  0  0  0  0  0  0
    5.6826    0.4314   -1.9186 H   0  0  0  0  0  0  0  0  0  0  0  0
    5.6064   -1.2400   -1.2321 H   0  0  0  0  0  0  0  0  0  0  0  0
    4.0938    0.9034   -0.4939 H   0  0  0  0  0  0  0  0  0  0  0  0
    4.7293    1.1571    1.9901 H   0  0  0  0  0  0  0  0  0  0  0  0
    5.4871    2.2534    0.7192 H   0  0  0  0  0  0  0  0  0  0  0  0
    6.8534   -0.0741    2.1983 H   0  0  0  0  0  0  0  0  0  0  0  0
    7.1442    1.6644    2.2506 H   0  0  0  0  0  0  0  0  0  0  0  0
    3.7519   -1.8316   -1.0390 H   0  0  0  0  0  0  0  0  0  0  0  0
    2.1268    0.7105    0.8921 H   0  0  0  0  0  0  0  0  0  0  0  0
    0.0637    0.1296    1.7597 H   0  0  0  0  0  0  0  0  0  0  0  0
    0.8438   -1.4247    1.5131 H   0  0  0  0  0  0  0  0  0  0  0  0
   -1.3562   -1.6668    0.7829 H   0  0  0  0  0  0  0  0  0  0  0  0
   -0.3317   -1.7402   -0.6476 H   0  0  0  0  0  0  0  0  0  0  0  0
   -1.5496    0.1412   -1.5847 H   0  0  0  0  0  0  0  0  0  0  0  0
   -1.2276    2.2086   -0.7506 H   0  0  0  0  0  0  0  0  0  0  0  0
   -0.8811    1.7280    0.9235 H   0  0  0  0  0  0  0  0  0  0  0  0
    1.1471    2.3186   -0.3254 H   0  0  0  0  0  0  0  0  0  0  0  0
    0.6938    1.2076   -1.6522 H   0  0  0  0  0  0  0  0  0  0  0  0
   -4.8673    2.1507   -1.3986 H   0  0  0  0  0  0  0  0  0  0  0  0
   -3.5835    2.4087   -0.2275 H   0  0  0  0  0  0  0  0  0  0  0  0
   -4.5779    1.2521    1.5341 H   0  0  0  0  0  0  0  0  0  0  0  0
   -5.7091    2.4875    0.9887 H   0  0  0  0  0  0  0  0  0  0  0  0
   -6.3002    0.7664   -1.4633 H   0  0  0  0  0  0  0  0  0  0  0  0
   -4.7058   -1.3984    0.0099 H   0  0  0  0  0  0  0  0  0  0  0  0
   -4.7729   -1.3707   -1.7698 H   0  0  0  0  0  0  0  0  0  0  0  0
   -8.6331    0.3877   -1.5869 H   0  0  0  0  0  0  0  0  0  0  0  0
   -9.9437   -0.0662    0.6321 H   0  0  0  0  0  0  0  0  0  0  0  0
   -8.3402   -0.6914    1.1141 H   0  0  0  0  0  0  0  0  0  0  0  0
   -8.5481    1.0092    0.5962 H   0  0  0  0  0  0  0  0  0  0  0  0
    8.7139    0.4857    0.7862 H   0  0  0  0  0  0  0  0  0  0  0  0
    7.8599    0.1468   -1.5828 H   0  0  0  0  0  0  0  0  0  0  0  0
    4.6636   -1.4218    1.2484 H   0  0  0  0  0  0  0  0  0  0  0  0
    1.7590   -0.8453   -1.6062 H   0  0  0  0  0  0  0  0  0  0  0  0
    2.9808   -2.5524    1.4208 H   0  0  0  0  0  0  0  0  0  0  0  0
   -3.3087    0.3650   -1.8884 H   0  0  0  0  0  0  0  0  0  0  0  0
   -5.9954   -0.3330    1.2289 H   0  0  0  0  0  0  0  0  0  0  0  0
   -7.2018   -1.4618   -2.0917 H   0  0  0  0  0  0  0  0  0  0  0  0
   -6.5247   -2.1817    0.4179 H   0  0  0  0  0  0  0  0  0  0  0  0
  1  2  1  0
  2  3  1  0
  3  4  1  0
  6  7  1  0
  7  8  1  0
  8  9  1  0
  9 10  1  0
  6 11  1  0
 10 11  1  0
  9 12  1  0
 13 14  1  0
 15 16  1  0
 17 18  1  0
  4 19  1  0
  1 20  1  0
 19 20  1  0
 20 21  1  0
 21 22  1  0
 21 23  1  0
 21 24  1  0
 19 25  1  0
  2 26  1  0
  5 26  1  0
  5 27  1  0
  6 27  1  0
  5 28  1  0
 12 29  1  0
 13 29  1  0
 16 29  1  0
 14 30  1  0
 15 30  1  0
 15 31  1  0
 17 31  1  0
 31 32  1  0
  1 33  1  0
  1 34  1  0
  2 35  1  6
  3 36  1  0
  3 37  1  0
  4 38  1  0
  4 39  1  0
  5 40  1  0
  6 41  1  0
  7 42  1  0
  7 43  1  0
  8 44  1  0
  8 45  1  0
  9 46  1  0
 10 47  1  0
 10 48  1  0
 11 49  1  0
 11 50  1  0
 13 51  1  0
 13 52  1  0
 14 53  1  0
 14 54  1  0
 15 55  1  0
 16 56  1  0
 16 57  1  0
 17 58  1  0
 18 59  1  0
 18 60  1  0
 18 61  1  0
 19 62  1  0
 20 63  1  0
 26 64  1  0
 27 65  1  0
 28 66  1  0
 29 67  1  0
 30 68  1  0
 31 69  1  0
 32 70  1  0
M  END
>  <PDBID>  (1) 
3WZE

>  <PDB ID>  (1) 
3WZE

>  <Generic Name>  (1) 
Sorafenib

>  <Brand Name>  (1) 
Nexavar

>  <DrugBank ID>  (1) 
DB00398

>  <ATC Codes>  (1) 
L01XE05

>  <Ligand ID>  (1) 
BAX

>  <Target Name>  (1) 
Vascular endothelial growth factor receptor 3

>  <UniProt ID>  (1) 
P35916

>  <PDB ID.1>  (1) 
3WZE

>  <Seq. Identity>  (1) 
67%

$$$$
