PDB_DB00184_04
     RDKit          3D

 64 66  0  0  0  0  0  0  0  0999 V2000
    2.5186   -1.3739    0.5826 N   0  0  0  0  0  0  0  0  0  0  0  0
    1.3124   -1.0161    1.2440 C   0  0  0  0  0  0  0  0  0  0  0  0
    0.5635    0.1203    0.6602 C   0  0  0  0  0  0  0  0  0  0  0  0
    1.1946    0.5717   -0.6286 C   0  0  0  0  0  0  0  0  0  0  0  0
    2.6365    0.9391   -0.2511 C   0  0  0  0  0  0  0  0  0  0  0  0
    3.3295   -0.3341    0.0967 C   0  0  0  0  0  0  0  0  0  0  0  0
   -1.6536    0.8962   -0.0335 N   0  0  0  0  0  0  0  0  0  0  0  0
   -0.9027   -0.1828    0.5278 C   0  0  1  0  0  0  0  0  0  0  0  0
   -1.2026   -1.3284   -0.3804 C   0  0  0  0  0  0  0  0  0  0  0  0
   -2.6559   -1.0344   -0.7762 C   0  0  0  0  0  0  0  0  0  0  0  0
   -2.9830    0.2918   -0.1535 C   0  0  0  0  0  0  0  0  0  0  0  0
   -1.7064    2.0136    0.8749 C   0  0  0  0  0  0  0  0  0  0  0  0
    2.5186   -1.3739    0.5826 N   0  0  0  0  0  0  0  0  0  0  0  0
    1.3124   -1.0161    1.2440 C   0  0  0  0  0  0  0  0  0  0  0  0
    0.5635    0.1203    0.6602 C   0  0  0  0  0  0  0  0  0  0  0  0
    1.1946    0.5717   -0.6286 C   0  0  0  0  0  0  0  0  0  0  0  0
    2.6365    0.9391   -0.2511 C   0  0  0  0  0  0  0  0  0  0  0  0
    3.3295   -0.3341    0.0967 C   0  0  0  0  0  0  0  0  0  0  0  0
   -1.6536    0.8962   -0.0335 N   0  0  0  0  0  0  0  0  0  0  0  0
   -0.9027   -0.1828    0.5278 C   0  0  1  0  0  0  0  0  0  0  0  0
   -1.2026   -1.3284   -0.3804 C   0  0  0  0  0  0  0  0  0  0  0  0
   -2.6559   -1.0344   -0.7762 C   0  0  0  0  0  0  0  0  0  0  0  0
   -2.9830    0.2918   -0.1535 C   0  0  0  0  0  0  0  0  0  0  0  0
   -1.7064    2.0136    0.8749 C   0  0  0  0  0  0  0  0  0  0  0  0
    2.4782   -2.2357    0.0185 H   0  0  0  0  0  0  0  0  0  0  0  0
    1.5401   -0.8479    2.3337 H   0  0  0  0  0  0  0  0  0  0  0  0
    0.6405   -1.9139    1.2407 H   0  0  0  0  0  0  0  0  0  0  0  0
    0.6441    0.9862    1.3707 H   0  0  0  0  0  0  0  0  0  0  0  0
    0.6837    1.4308   -1.0847 H   0  0  0  0  0  0  0  0  0  0  0  0
    1.2786   -0.2424   -1.3751 H   0  0  0  0  0  0  0  0  0  0  0  0
    2.5376    1.5728    0.6785 H   0  0  0  0  0  0  0  0  0  0  0  0
    3.0961    1.5020   -1.0723 H   0  0  0  0  0  0  0  0  0  0  0  0
    4.1647   -0.1473    0.8125 H   0  0  0  0  0  0  0  0  0  0  0  0
    3.8430   -0.6945   -0.8419 H   0  0  0  0  0  0  0  0  0  0  0  0
   -1.2966   -0.3881    1.5393 H   0  0  0  0  0  0  0  0  0  0  0  0
   -0.5600   -1.3832   -1.2722 H   0  0  0  0  0  0  0  0  0  0  0  0
   -1.1849   -2.3229    0.1288 H   0  0  0  0  0  0  0  0  0  0  0  0
   -3.3374   -1.7888   -0.3137 H   0  0  0  0  0  0  0  0  0  0  0  0
   -2.8037   -1.0588   -1.8577 H   0  0  0  0  0  0  0  0  0  0  0  0
   -3.6766    0.9067   -0.7214 H   0  0  0  0  0  0  0  0  0  0  0  0
   -3.3149    0.1099    0.9030 H   0  0  0  0  0  0  0  0  0  0  0  0
   -1.1641    2.9060    0.4631 H   0  0  0  0  0  0  0  0  0  0  0  0
   -1.2608    1.7274    1.8570 H   0  0  0  0  0  0  0  0  0  0  0  0
   -2.7586    2.3186    1.0569 H   0  0  0  0  0  0  0  0  0  0  0  0
    2.4782   -2.2357    0.0185 H   0  0  0  0  0  0  0  0  0  0  0  0
    1.5401   -0.8479    2.3337 H   0  0  0  0  0  0  0  0  0  0  0  0
    0.6405   -1.9139    1.2407 H   0  0  0  0  0  0  0  0  0  0  0  0
    0.6441    0.9862    1.3707 H   0  0  0  0  0  0  0  0  0  0  0  0
    0.6837    1.4308   -1.0847 H   0  0  0  0  0  0  0  0  0  0  0  0
    1.2786   -0.2424   -1.3751 H   0  0  0  0  0  0  0  0  0  0  0  0
    2.5376    1.5728    0.6785 H   0  0  0  0  0  0  0  0  0  0  0  0
    3.0961    1.5020   -1.0723 H   0  0  0  0  0  0  0  0  0  0  0  0
    4.1647   -0.1473    0.8125 H   0  0  0  0  0  0  0  0  0  0  0  0
    3.8430   -0.6945   -0.8419 H   0  0  0  0  0  0  0  0  0  0  0  0
   -1.2966   -0.3881    1.5393 H   0  0  0  0  0  0  0  0  0  0  0  0
   -0.5600   -1.3832   -1.2722 H   0  0  0  0  0  0  0  0  0  0  0  0
   -1.1849   -2.3229    0.1288 H   0  0  0  0  0  0  0  0  0  0  0  0
   -3.3374   -1.7888   -0.3137 H   0  0  0  0  0  0  0  0  0  0  0  0
   -2.8037   -1.0588   -1.8577 H   0  0  0  0  0  0  0  0  0  0  0  0
   -3.6766    0.9067   -0.7214 H   0  0  0  0  0  0  0  0  0  0  0  0
   -3.3149    0.1099    0.9030 H   0  0  0  0  0  0  0  0  0  0  0  0
   -1.1641    2.9060    0.4631 H   0  0  0  0  0  0  0  0  0  0  0  0
   -1.2608    1.7274    1.8570 H   0  0  0  0  0  0  0  0  0  0  0  0
   -2.7586    2.3186    1.0569 H   0  0  0  0  0  0  0  0  0  0  0  0
  1  2  1  0
  2  3  1  0
  3  4  1  0
  4  5  1  0
  1  6  1  0
  5  6  1  0
  3  8  1  0
  7  8  1  0
  8  9  1  0
  9 10  1  0
  7 11  1  0
 10 11  1  0
  7 12  1  0
 13 14  1  0
 14 15  1  0
 15 16  1  0
 16 17  1  0
 13 18  1  0
 17 18  1  0
 15 20  1  0
 19 20  1  0
 20 21  1  0
 21 22  1  0
 19 23  1  0
 22 23  1  0
 19 24  1  0
  1 25  1  0
  2 26  1  0
  2 27  1  0
  3 28  1  0
  4 29  1  0
  4 30  1  0
  5 31  1  0
  5 32  1  0
  6 33  1  0
  6 34  1  0
  8 35  1  1
  9 36  1  0
  9 37  1  0
 10 38  1  0
 10 39  1  0
 11 40  1  0
 11 41  1  0
 12 42  1  0
 12 43  1  0
 12 44  1  0
 13 45  1  0
 14 46  1  0
 14 47  1  0
 15 48  1  0
 16 49  1  0
 16 50  1  0
 17 51  1  0
 17 52  1  0
 18 53  1  0
 18 54  1  0
 20 55  1  1
 21 56  1  0
 21 57  1  0
 22 58  1  0
 22 59  1  0
 23 60  1  0
 23 61  1  0
 24 62  1  0
 24 63  1  0
 24 64  1  0
M  END
>  <PDBID>  (1) 
5KXI

>  <PDB ID>  (1) 
5KXI

>  <Generic Name>  (1) 
Nicotine

>  <Brand Name>  (1) 
American Fare Nicotine Transdermal System#Berkley and Jensen Nicotine#Berkley and Jensen Nicotine Polacrilex#Care One Nicotine#Careone Mini Nicotine Polacrilex#Careone Nicotine#Careone Nicotine Polacrilex#Careone Nicotine Transdermal System Step 1#Careone Nicotine Transdermal System Step 2#Careone Nicotine Transdermal System Step 3#Equaline Nicotine#Equate Nicotine#Exchange Select Nicotine Transdermal System Step 3#Good Neighbor Pharmacy Nicotine#Good Neighbor Pharmacy Nicotine Mini#Good Sense Nicotine#Good Sense Nicotine Mint#Good Sense Nicotine Stop Smoking Aid#Habitrol Patch Nicotine Transdermal System, Step 1#Habitrol Patch Nicotine Transdermal System, Step 2#Habitrol Patch Nicotine Transdermal System, Step 3#Harris Teeter Nicotine#Health Mart Nicotine#Health Mart Nicotine Polacrilex#Healthmart Nicotine Transdermal System Step 1#Healthmart Nicotine Transdermal System Step 2#Healthmart Nicotine Transdermal System Step 3#Healthy Accents Nicotine#Humana Pharmacy Nicotine#In Control Nicotine#Kirkland Signature Quit 2#Kirkland Signature Quit 4#Kroger Nicotine Transdermal System Step 1#Kroger Nicotine Transdermal System Step 2#Kroger Nicotine Transdermal System Step 3#Leader Nicotine#Leader Nicotine Transdermal System Step 1#Leader Nicotine Transdermal System Step 2#Leader Nicotine Transdermal System Step 3#Meijer Nicotine Transdermal System Step 1#Meijer Nicotine Transdermal System Step 2#Meijer Nicotine Transdermal System Step 3#Members Mark Mini Nicotine#Members Mark Nicotine#Mini Nicotine#Nicoderm Cq#Nicoderm Trd 114mg Nicotine/21#Nicoderm Trd 36mg Nicotine/7 Sqcm Patch#Nicoderm Trd 78mg Nicotine/14#Nicorelief#Nicorette#Nicorette Cinnamon Surge#Nicorette Fresh Mint#Nicorette Fruit Chill#Nicorette Gum 2mg#Nicorette Invisipatch#Nicorette Mint#Nicorette Original#Nicorette Plus 4mg#Nicorette Spearmint Burst#Nicorette White Ice Mint#Nicotine#Nicotine Coated Mint#Nicotine Gum#Nicotine Mini#Nicotine Mint Flavor#Nicotine Original#Nicotine Polacrilex#Nicotine Polacrilex Stop Smoking Aid#Nicotine Polacrilex, Coated Fruit Flavor#Nicotine Polacrilex, Coated Mint Flavor#Nicotine Polacrilex, Original#Nicotine Stop Smoking Aid#Nicotine Transdermal System#Nicotine Transdermal System Patch Kit#Nicotine Transdermal System Step 1#Nicotine Transdermal System Step 2#Nicotine Transdermal System Step 3#Nicotine Un1654#Nicotrol#Nicotrol (professional Sample)#Nictoine Gum#Preferred Plus Nicotine#Preferred Plus Nicotine Polacrilex Gum, Original Flavor#Rexall Nicotine#Rite Aid Nicotine Transdermal System Step 1#Rite Aid Nicotine Transdermal System Step 2#Rite Aid Nicotine Transdermal System Step 3#Rugby Nicotine#Rugby Nicotine Polacrilex Gum, Coated Cinnamon Flavor#Rugby Nicotine Polacrilex Gum, Coated Fruit Flavor#Rugby Nicotine Polacrilex Gum, Coated Mint Flavor#Rugby Nicotine Polacrilex Gum, Mint Flavor#Rugby Nicotine Polacrilex Gum, Original Flavor#Safeway Nicotine Transdermal System Step 1#Safeway Nicotine Transdermal System Step 2#Safeway Nicotine Transdermal System Step 3#Signature Care Nicotine#Simply Right Nicotine#Smart Sense Nicotine#Smart Sense Nicotine Mint#Smart Sense Nicotine Polacrilex#Stop Smoking Aid#Stop Smoking Aid Nicotine#Sunmark Nicotine#Sunmark Nicotine Transdermal System Step 1#Sunmark Nicotine Transdermal System Step 2#Sunmark Nicotine Transdermal System Step 3#Topcare Nicotine#Topcare Nicotine Gum#Topcare Nicotine Polacrilex#Topcare Nicotine Stop Smoking Aid#Tru Relief Nicotine#Up and Up Nicotine#Up and Up Nicotine Polacrilex#Zonnic#Zonnic Nicotine#Zonnic Nicotine Mini#Zonnic Nicotine Polacrilex#Habitrol#Nicoderm

>  <DrugBank ID>  (1) 
DB00184

>  <ATC Codes>  (1) 
N07BA01

>  <Ligand ID>  (1) 
NCT

>  <Target Name>  (1) 
Neuronal acetylcholine receptor subunit alpha-4

>  <UniProt ID>  (1) 
P43681

>  <PDB ID.1>  (1) 
5KXI

>  <Seq. Identity>  (1) 
54%

$$$$
