PDB_DB09053_06
     RDKit          3D

 81 85  0  0  0  0  0  0  0  0999 V2000
   -1.7123    2.9257    2.7411 N   0  0  0  0  0  0  0  0  0  0  0  0
   -2.4731    3.7659    1.8358 C   0  0  0  0  0  0  0  0  0  0  0  0
   -3.0440    2.8722    0.8683 N   0  0  0  0  0  0  0  0  0  0  0  0
   -2.0451    2.2797    0.0791 C   0  0  0  0  0  0  0  0  0  0  0  0
   -0.6698    2.1244    0.6583 C   0  0  0  0  0  0  0  0  0  0  0  0
   -0.5141    2.4207    2.0971 C   0  0  1  0  0  0  0  0  0  0  0  0
   -8.7338   -1.3200   -0.8574 C   0  0  0  0  0  0  0  0  0  0  0  0
    0.4639    3.5074    2.3373 N   0  0  0  0  0  0  0  0  0  0  0  0
   -6.3152   -1.0513   -2.4661 O   0  0  0  0  0  0  0  0  0  0  0  0
   -7.3427   -1.0413   -0.2918 C   0  0  0  0  0  0  0  0  0  0  0  0
    8.4955   -1.8924    0.3009 C   0  0  0  0  0  0  0  0  0  0  0  0
    8.3987   -0.4541   -0.1017 C   0  0  0  0  0  0  0  0  0  0  0  0
    7.2111   -2.6201   -0.0376 C   0  0  0  0  0  0  0  0  0  0  0  0
    7.0018    0.1024   -0.0501 C   0  0  0  0  0  0  0  0  0  0  0  0
    6.6471   -1.9687   -1.2753 C   0  0  0  0  0  0  0  0  0  0  0  0
    3.4083    1.1162   -0.1081 C   0  0  0  0  0  0  0  0  0  0  0  0
    2.7386   -0.9842   -1.3679 C   0  0  0  0  0  0  0  0  0  0  0  0
    2.1711    0.7595    0.7149 C   0  0  0  0  0  0  0  0  0  0  0  0
    1.3544   -0.7820   -0.9165 C   0  0  0  0  0  0  0  0  0  0  0  0
   -3.4727   -1.6719    1.1781 C   0  0  0  0  0  0  0  0  0  0  0  0
   -3.5140   -0.1503    1.1610 C   0  0  0  0  0  0  0  0  0  0  0  0
   -4.6612   -2.2753    0.4964 C   0  0  0  0  0  0  0  0  0  0  0  0
   -4.0397   -0.6333   -1.1833 C   0  0  0  0  0  0  0  0  0  0  0  0
   -1.3025    0.2866   -0.7095 N   0  0  0  0  0  0  0  0  0  0  0  0
    4.8318   -0.7196   -0.2795 O   0  0  0  0  0  0  0  0  0  0  0  0
   -6.2704   -1.6027   -1.1966 C   0  0  0  0  0  0  0  0  0  0  0  0
    6.0335   -0.6608   -0.9300 C   0  0  0  0  0  0  0  0  0  0  0  0
    3.7931   -0.0557   -0.9239 C   0  0  0  0  0  0  0  0  0  0  0  0
    1.0877    0.5675   -0.2999 C   0  0  0  0  0  0  0  0  0  0  0  0
   -0.2789    0.7449    0.2029 C   0  0  0  0  0  0  0  0  0  0  0  0
   -3.6017    0.4233   -0.2111 C   0  0  2  0  0  0  0  0  0  0  0  0
   -2.4076    1.0775   -0.6199 N   0  0  0  0  0  0  0  0  0  0  0  0
   -4.9722   -1.5579   -0.6719 N   0  0  0  0  0  0  0  0  0  0  0  0
   -2.3120    2.1340    3.0251 H   0  0  0  0  0  0  0  0  0  0  0  0
   -1.7611    4.4775    1.3664 H   0  0  0  0  0  0  0  0  0  0  0  0
   -3.2363    4.2860    2.4508 H   0  0  0  0  0  0  0  0  0  0  0  0
   -3.7344    2.2705    1.3283 H   0  0  0  0  0  0  0  0  0  0  0  0
   -1.8873    3.0336   -0.7910 H   0  0  0  0  0  0  0  0  0  0  0  0
    0.0762    2.8093    0.1244 H   0  0  0  0  0  0  0  0  0  0  0  0
   -0.1137    1.5376    2.6242 H   0  0  0  0  0  0  0  0  0  0  0  0
   -9.0000   -0.5469   -1.5985 H   0  0  0  0  0  0  0  0  0  0  0  0
   -9.4705   -1.2450   -0.0297 H   0  0  0  0  0  0  0  0  0  0  0  0
   -8.7980   -2.3451   -1.2740 H   0  0  0  0  0  0  0  0  0  0  0  0
   -0.0312    4.4057    2.4708 H   0  0  0  0  0  0  0  0  0  0  0  0
    1.0584    3.6416    1.4876 H   0  0  0  0  0  0  0  0  0  0  0  0
   -6.8083   -0.1953   -2.5151 H   0  0  0  0  0  0  0  0  0  0  0  0
   -7.2794    0.0409   -0.1528 H   0  0  0  0  0  0  0  0  0  0  0  0
   -7.3179   -1.5190    0.7082 H   0  0  0  0  0  0  0  0  0  0  0  0
    9.2912   -2.3563   -0.3485 H   0  0  0  0  0  0  0  0  0  0  0  0
    8.7817   -2.0516    1.3546 H   0  0  0  0  0  0  0  0  0  0  0  0
    8.8908   -0.2524   -1.0936 H   0  0  0  0  0  0  0  0  0  0  0  0
    8.9994    0.1343    0.6304 H   0  0  0  0  0  0  0  0  0  0  0  0
    7.4177   -3.6996   -0.2716 H   0  0  0  0  0  0  0  0  0  0  0  0
    6.5425   -2.5337    0.8430 H   0  0  0  0  0  0  0  0  0  0  0  0
    7.0801    1.1729   -0.3649 H   0  0  0  0  0  0  0  0  0  0  0  0
    6.6951    0.1243    1.0112 H   0  0  0  0  0  0  0  0  0  0  0  0
    5.9869   -2.6483   -1.8493 H   0  0  0  0  0  0  0  0  0  0  0  0
    7.5172   -1.7678   -1.9491 H   0  0  0  0  0  0  0  0  0  0  0  0
    3.1599    1.9728   -0.7524 H   0  0  0  0  0  0  0  0  0  0  0  0
    4.1909    1.3774    0.6265 H   0  0  0  0  0  0  0  0  0  0  0  0
    3.0432   -2.0302   -1.0520 H   0  0  0  0  0  0  0  0  0  0  0  0
    2.7105   -1.0956   -2.4969 H   0  0  0  0  0  0  0  0  0  0  0  0
    1.9906    1.4493    1.5187 H   0  0  0  0  0  0  0  0  0  0  0  0
    2.3787   -0.2378    1.2045 H   0  0  0  0  0  0  0  0  0  0  0  0
    0.6103   -0.9210   -1.7270 H   0  0  0  0  0  0  0  0  0  0  0  0
    1.0564   -1.5360   -0.1281 H   0  0  0  0  0  0  0  0  0  0  0  0
   -3.5329   -1.9553    2.2611 H   0  0  0  0  0  0  0  0  0  0  0  0
   -2.5239   -2.0682    0.8117 H   0  0  0  0  0  0  0  0  0  0  0  0
   -4.4540    0.0938    1.7445 H   0  0  0  0  0  0  0  0  0  0  0  0
   -2.6714    0.1763    1.7686 H   0  0  0  0  0  0  0  0  0  0  0  0
   -4.3546   -3.3202    0.1906 H   0  0  0  0  0  0  0  0  0  0  0  0
   -5.5173   -2.4397    1.1910 H   0  0  0  0  0  0  0  0  0  0  0  0
   -4.4845   -0.1875   -2.1098 H   0  0  0  0  0  0  0  0  0  0  0  0
   -3.1474   -1.1811   -1.5384 H   0  0  0  0  0  0  0  0  0  0  0  0
   -1.3919   -0.7143   -0.7780 H   0  0  0  0  0  0  0  0  0  0  0  0
   -6.5481   -2.6905   -1.3379 H   0  0  0  0  0  0  0  0  0  0  0  0
    5.9754   -0.0703   -1.8929 H   0  0  0  0  0  0  0  0  0  0  0  0
    4.2797    0.3658   -1.8598 H   0  0  0  0  0  0  0  0  0  0  0  0
    1.2433    1.3118   -1.1448 H   0  0  0  0  0  0  0  0  0  0  0  0
   -0.3836    0.0897    1.1215 H   0  0  0  0  0  0  0  0  0  0  0  0
   -4.4816    1.1711   -0.2224 H   0  0  0  0  0  0  0  0  0  0  0  0
  1  2  1  0
  2  3  1  0
  3  4  1  0
  4  5  1  0
  1  6  1  0
  5  6  1  0
  6  8  1  0
  7 10  1  0
 11 12  1  0
 11 13  1  0
 12 14  1  0
 13 15  1  0
 16 18  1  0
 17 19  1  0
 20 21  1  0
 20 22  1  0
  9 26  1  0
 10 26  1  0
 14 27  1  0
 15 27  1  0
 25 27  1  0
 16 28  1  0
 17 28  1  0
 25 28  1  0
 18 29  1  0
 19 29  1  0
  5 30  1  0
 24 30  1  0
 29 30  1  0
 21 31  1  0
 23 31  1  0
  4 32  1  0
 24 32  1  0
 31 32  1  0
 22 33  1  0
 23 33  1  0
 26 33  1  0
  1 34  1  0
  2 35  1  0
  2 36  1  0
  3 37  1  0
  4 38  1  0
  5 39  1  0
  6 40  1  1
  7 41  1  0
  7 42  1  0
  7 43  1  0
  8 44  1  0
  8 45  1  0
  9 46  1  0
 10 47  1  0
 10 48  1  0
 11 49  1  0
 11 50  1  0
 12 51  1  0
 12 52  1  0
 13 53  1  0
 13 54  1  0
 14 55  1  0
 14 56  1  0
 15 57  1  0
 15 58  1  0
 16 59  1  0
 16 60  1  0
 17 61  1  0
 17 62  1  0
 18 63  1  0
 18 64  1  0
 19 65  1  0
 19 66  1  0
 20 67  1  0
 20 68  1  0
 21 69  1  0
 21 70  1  0
 22 71  1  0
 22 72  1  0
 23 73  1  0
 23 74  1  0
 24 75  1  0
 26 76  1  0
 27 77  1  0
 28 78  1  0
 29 79  1  0
 30 80  1  0
 31 81  1  1
M  END
>  <PDBID>  (1) 
5P9I

>  <PDB ID>  (1) 
5P9I

>  <Generic Name>  (1) 
Ibrutinib

>  <Brand Name>  (1) 
Imbruvica

>  <DrugBank ID>  (1) 
DB09053

>  <ATC Codes>  (1) 
L01XE27

>  <Ligand ID>  (1) 
100000000

>  <Target Name>  (1) 
Tyrosine-protein kinase BTK

>  <UniProt ID>  (1) 
Q06187

>  <PDB ID.1>  (1) 
5P9I

>  <Seq. Identity>  (1) 
100%

$$$$
