PDB_DB06626_01
     RDKit          3D

 70 73  0  0  0  0  0  0  0  0999 V2000
   -7.4654   -0.7710    0.1507 O   0  0  0  0  0  0  0  0  0  0  0  0
   -6.2081   -0.5954    0.7859 C   0  0  0  0  0  0  0  0  0  0  0  0
   -5.4420   -1.8144    0.6487 N   0  0  0  0  0  0  0  0  0  0  0  0
   -5.2945   -2.2771   -0.7010 C   0  0  0  0  0  0  0  0  0  0  0  0
   -5.4865    0.5404    0.1314 C   0  0  0  0  0  0  0  0  0  0  0  0
   -6.3060    1.8324    0.2282 C   0  0  0  0  0  0  0  0  0  0  0  0
   -5.5439    2.8044   -0.6842 C   0  0  0  0  0  0  0  0  0  0  0  0
   -4.2958    3.1564    0.0462 C   0  0  0  0  0  0  0  0  0  0  0  0
   -4.1845    0.7661    0.8938 C   0  0  0  0  0  0  0  0  0  0  0  0
   -3.4743    2.0176    0.5394 C   0  0  0  0  0  0  0  0  0  0  0  0
   -3.1515   -0.6706    0.5746 S   0  0  0  0  0  0  0  0  0  0  0  0
   -1.5880   -0.7160    1.4162 C   0  0  0  0  0  0  0  0  0  0  0  0
   -0.9465   -2.0730    1.0775 C   0  0  0  0  0  0  0  0  0  0  0  0
    0.1623   -1.9082    0.0614 C   0  0  0  0  0  0  0  0  0  0  0  0
   -0.6801    0.3776    0.9079 C   0  0  0  0  0  0  0  0  0  0  0  0
    0.7735    0.1295    1.3367 C   0  0  0  0  0  0  0  0  0  0  0  0
    1.5395    1.1812    0.6488 N   0  0  0  0  0  0  0  0  0  0  0  0
    2.7572    0.5171    0.4559 N   0  0  0  0  0  0  0  0  0  0  0  0
    2.3590   -0.6868   -0.2006 C   0  0  0  0  0  0  0  0  0  0  0  0
    1.2765   -1.1785    0.7739 C   0  0  0  0  0  0  0  0  0  0  0  0
    3.3653   -1.7424   -0.4027 C   0  0  0  0  0  0  0  0  0  0  0  0
    4.5410   -1.4186   -1.2106 C   0  0  0  0  0  0  0  0  0  0  0  0
    5.5397   -0.4296   -0.8346 C   0  0  0  0  0  0  0  0  0  0  0  0
    5.2027    0.9382   -0.6246 N   0  0  0  0  0  0  0  0  0  0  0  0
    6.3774    1.7306   -1.0992 C   0  0  0  0  0  0  0  0  0  0  0  0
    7.5716    1.3967   -0.2538 C   0  0  0  0  0  0  0  0  0  0  0  0
    7.7318   -0.0283    0.1251 C   0  0  0  0  0  0  0  0  0  0  0  0
    6.4686   -0.8158    0.3107 C   0  0  0  0  0  0  0  0  0  0  0  0
   -8.0199   -1.3904    0.7015 H   0  0  0  0  0  0  0  0  0  0  0  0
   -6.3973   -0.3957    1.8528 H   0  0  0  0  0  0  0  0  0  0  0  0
   -5.7922   -2.5746    1.2609 H   0  0  0  0  0  0  0  0  0  0  0  0
   -4.4382   -3.0119   -0.7271 H   0  0  0  0  0  0  0  0  0  0  0  0
   -6.1922   -2.9098   -0.9110 H   0  0  0  0  0  0  0  0  0  0  0  0
   -5.1344   -1.5182   -1.4637 H   0  0  0  0  0  0  0  0  0  0  0  0
   -5.2409    0.3947   -0.9228 H   0  0  0  0  0  0  0  0  0  0  0  0
   -7.3219    1.6458   -0.1179 H   0  0  0  0  0  0  0  0  0  0  0  0
   -6.2164    2.2422    1.2511 H   0  0  0  0  0  0  0  0  0  0  0  0
   -5.3322    2.2972   -1.6544 H   0  0  0  0  0  0  0  0  0  0  0  0
   -6.1311    3.7154   -0.8399 H   0  0  0  0  0  0  0  0  0  0  0  0
   -3.6609    3.7495   -0.6776 H   0  0  0  0  0  0  0  0  0  0  0  0
   -4.5655    3.8667    0.8586 H   0  0  0  0  0  0  0  0  0  0  0  0
   -4.4581    0.7844    1.9956 H   0  0  0  0  0  0  0  0  0  0  0  0
   -3.0012    2.3931    1.5024 H   0  0  0  0  0  0  0  0  0  0  0  0
   -2.6690    1.7916   -0.1934 H   0  0  0  0  0  0  0  0  0  0  0  0
   -1.7068   -0.6117    2.5197 H   0  0  0  0  0  0  0  0  0  0  0  0
   -0.4837   -2.4369    2.0136 H   0  0  0  0  0  0  0  0  0  0  0  0
   -1.7146   -2.8012    0.7418 H   0  0  0  0  0  0  0  0  0  0  0  0
   -0.1400   -1.3861   -0.8492 H   0  0  0  0  0  0  0  0  0  0  0  0
    0.5379   -2.9354   -0.1580 H   0  0  0  0  0  0  0  0  0  0  0  0
   -0.6917    0.4560   -0.1791 H   0  0  0  0  0  0  0  0  0  0  0  0
   -0.9282    1.3552    1.3702 H   0  0  0  0  0  0  0  0  0  0  0  0
    0.9038    0.2008    2.4135 H   0  0  0  0  0  0  0  0  0  0  0  0
    1.1399    1.3617   -0.3033 H   0  0  0  0  0  0  0  0  0  0  0  0
    3.1050    0.2596    1.4092 H   0  0  0  0  0  0  0  0  0  0  0  0
    1.8777   -0.4432   -1.1863 H   0  0  0  0  0  0  0  0  0  0  0  0
    1.7786   -1.8089    1.5062 H   0  0  0  0  0  0  0  0  0  0  0  0
    3.6271   -2.2046    0.5980 H   0  0  0  0  0  0  0  0  0  0  0  0
    2.8240   -2.6043   -0.9071 H   0  0  0  0  0  0  0  0  0  0  0  0
    4.1609   -1.2244   -2.2880 H   0  0  0  0  0  0  0  0  0  0  0  0
    5.1264   -2.3943   -1.4115 H   0  0  0  0  0  0  0  0  0  0  0  0
    6.2651   -0.3948   -1.7474 H   0  0  0  0  0  0  0  0  0  0  0  0
    5.2471    1.1877    0.4231 H   0  0  0  0  0  0  0  0  0  0  0  0
    6.0981    2.7815   -0.9101 H   0  0  0  0  0  0  0  0  0  0  0  0
    6.4993    1.5908   -2.1745 H   0  0  0  0  0  0  0  0  0  0  0  0
    7.6061    2.0815    0.6357 H   0  0  0  0  0  0  0  0  0  0  0  0
    8.4776    1.6872   -0.8597 H   0  0  0  0  0  0  0  0  0  0  0  0
    8.2550   -0.0463    1.1268 H   0  0  0  0  0  0  0  0  0  0  0  0
    8.4123   -0.5984   -0.5471 H   0  0  0  0  0  0  0  0  0  0  0  0
    6.7141   -1.8869    0.3036 H   0  0  0  0  0  0  0  0  0  0  0  0
    5.9815   -0.5273    1.2623 H   0  0  0  0  0  0  0  0  0  0  0  0
  1  2  1  0
  2  3  1  0
  3  4  1  0
  2  5  1  0
  5  6  1  0
  6  7  1  0
  7  8  1  0
  5  9  1  0
  8 10  1  0
  9 10  1  0
  9 11  1  0
 11 12  1  0
 12 13  1  0
 13 14  1  0
 12 15  1  0
 15 16  1  0
 16 17  1  0
 17 18  1  0
 18 19  1  0
 14 20  1  0
 16 20  1  0
 19 20  1  0
 19 21  1  0
 21 22  1  0
 22 23  1  0
 23 24  1  0
 24 25  1  0
 25 26  1  0
 26 27  1  0
 23 28  1  0
 27 28  1  0
  1 29  1  0
  2 30  1  0
  3 31  1  0
  4 32  1  0
  4 33  1  0
  4 34  1  0
  5 35  1  0
  6 36  1  0
  6 37  1  0
  7 38  1  0
  7 39  1  0
  8 40  1  0
  8 41  1  0
  9 42  1  0
 10 43  1  0
 10 44  1  0
 12 45  1  0
 13 46  1  0
 13 47  1  0
 14 48  1  0
 14 49  1  0
 15 50  1  0
 15 51  1  0
 16 52  1  0
 17 53  1  0
 18 54  1  0
 19 55  1  0
 20 56  1  0
 21 57  1  0
 21 58  1  0
 22 59  1  0
 22 60  1  0
 23 61  1  0
 24 62  1  0
 25 63  1  0
 25 64  1  0
 26 65  1  0
 26 66  1  0
 27 67  1  0
 27 68  1  0
 28 69  1  0
 28 70  1  0
M  END
>  <PDBID>  (1) 
4AG8

>  <PDB ID>  (1) 
4AG8

>  <Generic Name>  (1) 
Axitinib

>  <Brand Name>  (1) 
Inlyta

>  <DrugBank ID>  (1) 
DB06626

>  <ATC Codes>  (1) 
L01XE17

>  <Ligand ID>  (1) 
AXI

>  <Target Name>  (1) 
Vascular endothelial growth factor receptor 3

>  <UniProt ID>  (1) 
P35916

>  <PDB ID.1>  (1) 
4AG8

>  <Seq. Identity>  (1) 
67%

$$$$
