PDB_DB00259_01
     RDKit          3D

 27 27  0  0  0  0  0  0  0  0999 V2000
   -2.0947    0.1547   -0.3380 C   0  0  0  0  0  0  0  0  0  0  0  0
   -3.3898   -0.5161   -0.4281 N   0  0  0  0  0  0  0  0  0  0  0  0
   -1.6426    0.0806    1.0768 C   0  0  0  0  0  0  0  0  0  0  0  0
   -0.1586    0.0014    1.2559 C   0  0  0  0  0  0  0  0  0  0  0  0
    0.6267    0.5140    0.0859 C   0  0  0  0  0  0  0  0  0  0  0  0
    0.2432   -0.0851   -1.2281 C   0  0  0  0  0  0  0  0  0  0  0  0
   -1.1788   -0.5392   -1.3084 C   0  0  0  0  0  0  0  0  0  0  0  0
    2.2893    0.3271    0.3639 S   0  0  0  0  0  0  0  0  0  0  0  0
    2.8174   -1.0821    0.4852 N   0  0  0  0  0  0  0  0  0  0  0  0
    3.0910    1.1479   -0.8968 O   0  0  0  0  0  0  0  0  0  0  0  0
    2.6751    1.2297    1.7488 O   0  0  0  0  0  0  0  0  0  0  0  0
   -2.2920    1.2178   -0.6605 H   0  0  0  0  0  0  0  0  0  0  0  0
   -4.1860    0.1696   -0.3174 H   0  0  0  0  0  0  0  0  0  0  0  0
   -3.4900   -1.2480    0.3037 H   0  0  0  0  0  0  0  0  0  0  0  0
   -2.0769    0.9688    1.6169 H   0  0  0  0  0  0  0  0  0  0  0  0
   -2.0957   -0.8025    1.5644 H   0  0  0  0  0  0  0  0  0  0  0  0
    0.1906   -1.0195    1.5069 H   0  0  0  0  0  0  0  0  0  0  0  0
    0.1055    0.6366    2.1311 H   0  0  0  0  0  0  0  0  0  0  0  0
    0.3910    1.6177    0.0201 H   0  0  0  0  0  0  0  0  0  0  0  0
    0.9061   -0.9435   -1.4846 H   0  0  0  0  0  0  0  0  0  0  0  0
    0.4250    0.6731   -2.0276 H   0  0  0  0  0  0  0  0  0  0  0  0
   -1.2480   -1.6292   -1.1240 H   0  0  0  0  0  0  0  0  0  0  0  0
   -1.5790   -0.3580   -2.3336 H   0  0  0  0  0  0  0  0  0  0  0  0
    2.4052   -1.9732    0.1863 H   0  0  0  0  0  0  0  0  0  0  0  0
    3.7044   -1.2683    0.9608 H   0  0  0  0  0  0  0  0  0  0  0  0
    3.1568    2.0856   -0.5864 H   0  0  0  0  0  0  0  0  0  0  0  0
    2.4048    0.6400    2.5120 H   0  0  0  0  0  0  0  0  0  0  0  0
  1  2  1  0
  1  3  1  0
  3  4  1  0
  4  5  1  0
  5  6  1  0
  1  7  1  0
  6  7  1  0
  5  8  1  0
  8  9  1  0
  8 10  1  0
  8 11  1  0
  1 12  1  0
  2 13  1  0
  2 14  1  0
  3 15  1  0
  3 16  1  0
  4 17  1  0
  4 18  1  0
  5 19  1  0
  6 20  1  0
  6 21  1  0
  7 22  1  0
  7 23  1  0
  9 24  1  0
  9 25  1  0
 10 26  1  0
 11 27  1  0
M  END
>  <PDBID>  (1) 
1AJ0

>  <PDB ID>  (1) 
1AJ0

>  <Generic Name>  (1) 
Sulfanilamide

>  <Brand Name>  (1) 
AVC Vaginal#Avc#Avc Cream - 15%#Streptocid

>  <DrugBank ID>  (1) 
DB00259

>  <ATC Codes>  (1) 
J01EB06#D06BA05

>  <Ligand ID>  (1) 
SAN

>  <Target Name>  (1) 
Dihydropteroate synthase

>  <UniProt ID>  (1) 
P0AC13

>  <PDB ID.1>  (1) 
1AJ0

>  <Seq. Identity>  (1) 
100%

$$$$
