PDB_DB08895_03
     RDKit          3D

114118  0  0  0  0  0  0  0  0999 V2000
   -0.1493    1.2601    0.3481 C   0  0  1  0  0  0  0  0  0  0  0  0
    0.8404    0.3382   -0.3281 C   0  0  0  0  0  0  0  0  0  0  0  0
    2.7249    1.6948    0.2477 C   0  0  0  0  0  0  0  0  0  0  0  0
    1.7636    2.6818    0.8989 C   0  0  0  0  0  0  0  0  0  0  0  0
    0.3996    2.6447    0.2739 C   0  0  1  0  0  0  0  0  0  0  0  0
    2.1442    0.3967    0.3527 N   0  0  0  0  0  0  0  0  0  0  0  0
    3.2787   -0.1705   -1.5531 O   0  0  0  0  0  0  0  0  0  0  0  0
    2.9261   -0.6385   -0.2747 C   0  0  0  0  0  0  0  0  0  0  0  0
    4.1370   -0.9580    0.5323 C   0  0  0  0  0  0  0  0  0  0  0  0
    4.9325   -2.0752   -0.1754 C   0  0  0  0  0  0  0  0  0  0  0  0
    6.1010   -2.4083    0.5819 N   0  0  0  0  0  0  0  0  0  0  0  0
    0.4421    3.2332   -1.1062 C   0  0  0  0  0  0  0  0  0  0  0  0
   -1.4394    1.0906   -0.2987 N   0  0  0  0  0  0  0  0  0  0  0  0
   -2.4266    2.0312    0.1427 C   0  0  0  0  0  0  0  0  0  0  0  0
   -1.8226   -0.2726   -0.1924 C   0  0  0  0  0  0  0  0  0  0  0  0
   -3.2231   -0.5776    0.1856 C   0  0  0  0  0  0  0  0  0  0  0  0
   -3.6745   -0.1541    1.5391 C   0  0  0  0  0  0  0  0  0  0  0  0
   -4.5040   -1.3373    2.0413 C   0  0  0  0  0  0  0  0  0  0  0  0
   -4.5630   -2.2771    0.9255 N   0  0  0  0  0  0  0  0  0  0  0  0
   -3.2623   -2.1089    0.3548 C   0  0  0  0  0  0  0  0  0  0  0  0
   -3.0795   -2.7041   -0.9198 N   0  0  0  0  0  0  0  0  0  0  0  0
   -2.5163   -1.8214   -1.9030 C   0  0  0  0  0  0  0  0  0  0  0  0
   -1.4937   -0.9590   -1.4114 N   0  0  0  0  0  0  0  0  0  0  0  0
   -0.1493    1.2601    0.3481 C   0  0  1  0  0  0  0  0  0  0  0  0
    0.8404    0.3382   -0.3281 C   0  0  0  0  0  0  0  0  0  0  0  0
    2.7249    1.6948    0.2477 C   0  0  0  0  0  0  0  0  0  0  0  0
    1.7636    2.6818    0.8989 C   0  0  0  0  0  0  0  0  0  0  0  0
    0.3996    2.6447    0.2739 C   0  0  1  0  0  0  0  0  0  0  0  0
    2.1442    0.3967    0.3527 N   0  0  0  0  0  0  0  0  0  0  0  0
    3.2787   -0.1705   -1.5531 O   0  0  0  0  0  0  0  0  0  0  0  0
    2.9261   -0.6385   -0.2747 C   0  0  0  0  0  0  0  0  0  0  0  0
    4.1370   -0.9580    0.5323 C   0  0  0  0  0  0  0  0  0  0  0  0
    4.9325   -2.0752   -0.1754 C   0  0  0  0  0  0  0  0  0  0  0  0
    6.1010   -2.4083    0.5819 N   0  0  0  0  0  0  0  0  0  0  0  0
    0.4421    3.2332   -1.1062 C   0  0  0  0  0  0  0  0  0  0  0  0
   -1.4394    1.0906   -0.2987 N   0  0  0  0  0  0  0  0  0  0  0  0
   -2.4266    2.0312    0.1427 C   0  0  0  0  0  0  0  0  0  0  0  0
   -1.8226   -0.2726   -0.1924 C   0  0  0  0  0  0  0  0  0  0  0  0
   -3.2231   -0.5776    0.1856 C   0  0  0  0  0  0  0  0  0  0  0  0
   -3.6745   -0.1541    1.5391 C   0  0  0  0  0  0  0  0  0  0  0  0
   -4.5040   -1.3373    2.0413 C   0  0  0  0  0  0  0  0  0  0  0  0
   -4.5630   -2.2771    0.9255 N   0  0  0  0  0  0  0  0  0  0  0  0
   -3.2623   -2.1089    0.3548 C   0  0  0  0  0  0  0  0  0  0  0  0
   -3.0795   -2.7041   -0.9198 N   0  0  0  0  0  0  0  0  0  0  0  0
   -2.5163   -1.8214   -1.9030 C   0  0  0  0  0  0  0  0  0  0  0  0
   -1.4937   -0.9590   -1.4114 N   0  0  0  0  0  0  0  0  0  0  0  0
   -0.2493    0.9617    1.3972 H   0  0  0  0  0  0  0  0  0  0  0  0
    0.5716   -0.7335   -0.2875 H   0  0  0  0  0  0  0  0  0  0  0  0
    0.9624    0.6835   -1.3820 H   0  0  0  0  0  0  0  0  0  0  0  0
    3.6632    1.7198    0.8156 H   0  0  0  0  0  0  0  0  0  0  0  0
    2.9540    1.9583   -0.8030 H   0  0  0  0  0  0  0  0  0  0  0  0
    2.1862    3.7028    0.9192 H   0  0  0  0  0  0  0  0  0  0  0  0
    1.6695    2.3525    1.9610 H   0  0  0  0  0  0  0  0  0  0  0  0
   -0.2489    3.2905    0.9322 H   0  0  0  0  0  0  0  0  0  0  0  0
    4.2613   -0.0002   -1.5376 H   0  0  0  0  0  0  0  0  0  0  0  0
    2.2923   -1.5576   -0.4183 H   0  0  0  0  0  0  0  0  0  0  0  0
    3.8457   -1.3257    1.5223 H   0  0  0  0  0  0  0  0  0  0  0  0
    4.7719   -0.0417    0.6036 H   0  0  0  0  0  0  0  0  0  0  0  0
    5.1925   -1.7987   -1.2006 H   0  0  0  0  0  0  0  0  0  0  0  0
    4.2820   -3.0031   -0.1955 H   0  0  0  0  0  0  0  0  0  0  0  0
    6.2104   -3.4361    0.6217 H   0  0  0  0  0  0  0  0  0  0  0  0
    6.9537   -1.9497    0.2454 H   0  0  0  0  0  0  0  0  0  0  0  0
   -0.0876    4.2235   -1.1121 H   0  0  0  0  0  0  0  0  0  0  0  0
    1.4931    3.4643   -1.4322 H   0  0  0  0  0  0  0  0  0  0  0  0
   -0.0069    2.5354   -1.8351 H   0  0  0  0  0  0  0  0  0  0  0  0
   -3.3757    1.7842   -0.3766 H   0  0  0  0  0  0  0  0  0  0  0  0
   -2.5194    2.1520    1.2188 H   0  0  0  0  0  0  0  0  0  0  0  0
   -2.1285    3.0330   -0.2771 H   0  0  0  0  0  0  0  0  0  0  0  0
   -1.1864   -0.7557    0.6190 H   0  0  0  0  0  0  0  0  0  0  0  0
   -3.9856   -0.3573   -0.5773 H   0  0  0  0  0  0  0  0  0  0  0  0
   -2.8736    0.0144    2.2731 H   0  0  0  0  0  0  0  0  0  0  0  0
   -4.4134    0.7008    1.4919 H   0  0  0  0  0  0  0  0  0  0  0  0
   -5.5216   -1.0603    2.3387 H   0  0  0  0  0  0  0  0  0  0  0  0
   -3.9509   -1.8748    2.8550 H   0  0  0  0  0  0  0  0  0  0  0  0
   -5.3313   -2.0387    0.2505 H   0  0  0  0  0  0  0  0  0  0  0  0
   -2.5044   -2.3518    1.1171 H   0  0  0  0  0  0  0  0  0  0  0  0
   -3.9631   -3.1103   -1.2755 H   0  0  0  0  0  0  0  0  0  0  0  0
   -3.2904   -1.2706   -2.4594 H   0  0  0  0  0  0  0  0  0  0  0  0
   -2.0168   -2.4932   -2.6694 H   0  0  0  0  0  0  0  0  0  0  0  0
   -1.1915   -0.3263   -2.1812 H   0  0  0  0  0  0  0  0  0  0  0  0
   -0.2493    0.9617    1.3972 H   0  0  0  0  0  0  0  0  0  0  0  0
    0.5716   -0.7335   -0.2875 H   0  0  0  0  0  0  0  0  0  0  0  0
    0.9624    0.6835   -1.3820 H   0  0  0  0  0  0  0  0  0  0  0  0
    3.6632    1.7198    0.8156 H   0  0  0  0  0  0  0  0  0  0  0  0
    2.9540    1.9583   -0.8030 H   0  0  0  0  0  0  0  0  0  0  0  0
    2.1862    3.7028    0.9192 H   0  0  0  0  0  0  0  0  0  0  0  0
    1.6695    2.3525    1.9610 H   0  0  0  0  0  0  0  0  0  0  0  0
   -0.2489    3.2905    0.9322 H   0  0  0  0  0  0  0  0  0  0  0  0
    4.2613   -0.0002   -1.5376 H   0  0  0  0  0  0  0  0  0  0  0  0
    2.2923   -1.5576   -0.4183 H   0  0  0  0  0  0  0  0  0  0  0  0
    3.8457   -1.3257    1.5223 H   0  0  0  0  0  0  0  0  0  0  0  0
    4.7719   -0.0417    0.6036 H   0  0  0  0  0  0  0  0  0  0  0  0
    5.1925   -1.7987   -1.2006 H   0  0  0  0  0  0  0  0  0  0  0  0
    4.2820   -3.0031   -0.1955 H   0  0  0  0  0  0  0  0  0  0  0  0
    6.2104   -3.4361    0.6217 H   0  0  0  0  0  0  0  0  0  0  0  0
    6.9537   -1.9497    0.2454 H   0  0  0  0  0  0  0  0  0  0  0  0
   -0.0876    4.2235   -1.1121 H   0  0  0  0  0  0  0  0  0  0  0  0
    1.4931    3.4643   -1.4322 H   0  0  0  0  0  0  0  0  0  0  0  0
   -0.0069    2.5354   -1.8351 H   0  0  0  0  0  0  0  0  0  0  0  0
   -3.3757    1.7842   -0.3766 H   0  0  0  0  0  0  0  0  0  0  0  0
   -2.5194    2.1520    1.2188 H   0  0  0  0  0  0  0  0  0  0  0  0
   -2.1285    3.0330   -0.2771 H   0  0  0  0  0  0  0  0  0  0  0  0
   -1.1864   -0.7557    0.6190 H   0  0  0  0  0  0  0  0  0  0  0  0
   -3.9856   -0.3573   -0.5773 H   0  0  0  0  0  0  0  0  0  0  0  0
   -2.8736    0.0144    2.2731 H   0  0  0  0  0  0  0  0  0  0  0  0
   -4.4134    0.7008    1.4919 H   0  0  0  0  0  0  0  0  0  0  0  0
   -5.5216   -1.0603    2.3387 H   0  0  0  0  0  0  0  0  0  0  0  0
   -3.9509   -1.8748    2.8550 H   0  0  0  0  0  0  0  0  0  0  0  0
   -5.3313   -2.0387    0.2505 H   0  0  0  0  0  0  0  0  0  0  0  0
   -2.5044   -2.3518    1.1171 H   0  0  0  0  0  0  0  0  0  0  0  0
   -3.9631   -3.1103   -1.2755 H   0  0  0  0  0  0  0  0  0  0  0  0
   -3.2904   -1.2706   -2.4594 H   0  0  0  0  0  0  0  0  0  0  0  0
   -2.0168   -2.4932   -2.6694 H   0  0  0  0  0  0  0  0  0  0  0  0
   -1.1915   -0.3263   -2.1812 H   0  0  0  0  0  0  0  0  0  0  0  0
  1  2  1  0
  3  4  1  0
  1  5  1  0
  4  5  1  0
  2  6  1  0
  3  6  1  0
  6  8  1  0
  7  8  1  0
  8  9  1  0
  9 10  1  0
 10 11  1  0
  5 12  1  0
  1 13  1  0
 13 14  1  0
 13 15  1  0
 15 16  1  0
 16 17  1  0
 17 18  1  0
 18 19  1  0
 16 20  1  0
 19 20  1  0
 20 21  1  0
 21 22  1  0
 15 23  1  0
 22 23  1  0
 24 25  1  0
 26 27  1  0
 24 28  1  0
 27 28  1  0
 25 29  1  0
 26 29  1  0
 29 31  1  0
 30 31  1  0
 31 32  1  0
 32 33  1  0
 33 34  1  0
 28 35  1  0
 24 36  1  0
 36 37  1  0
 36 38  1  0
 38 39  1  0
 39 40  1  0
 40 41  1  0
 41 42  1  0
 39 43  1  0
 42 43  1  0
 43 44  1  0
 44 45  1  0
 38 46  1  0
 45 46  1  0
  1 47  1  1
  2 48  1  0
  2 49  1  0
  3 50  1  0
  3 51  1  0
  4 52  1  0
  4 53  1  0
  5 54  1  1
  7 55  1  0
  8 56  1  0
  9 57  1  0
  9 58  1  0
 10 59  1  0
 10 60  1  0
 11 61  1  0
 11 62  1  0
 12 63  1  0
 12 64  1  0
 12 65  1  0
 14 66  1  0
 14 67  1  0
 14 68  1  0
 15 69  1  0
 16 70  1  0
 17 71  1  0
 17 72  1  0
 18 73  1  0
 18 74  1  0
 19 75  1  0
 20 76  1  0
 21 77  1  0
 22 78  1  0
 22 79  1  0
 23 80  1  0
 24 81  1  1
 25 82  1  0
 25 83  1  0
 26 84  1  0
 26 85  1  0
 27 86  1  0
 27 87  1  0
 28 88  1  1
 30 89  1  0
 31 90  1  0
 32 91  1  0
 32 92  1  0
 33 93  1  0
 33 94  1  0
 34 95  1  0
 34 96  1  0
 35 97  1  0
 35 98  1  0
 35 99  1  0
 37100  1  0
 37101  1  0
 37102  1  0
 38103  1  0
 39104  1  0
 40105  1  0
 40106  1  0
 41107  1  0
 41108  1  0
 42109  1  0
 43110  1  0
 44111  1  0
 45112  1  0
 45113  1  0
 46114  1  0
M  END
>  <PDBID>  (1) 
3FUP

>  <PDB ID>  (1) 
3FUP

>  <Generic Name>  (1) 
Tofacitinib

>  <Brand Name>  (1) 
Xeljanz#Xeljanz XR

>  <DrugBank ID>  (1) 
DB08895

>  <ATC Codes>  (1) 
L04AA29

>  <Ligand ID>  (1) 
MI1

>  <Target Name>  (1) 
Tyrosine-protein kinase JAK2

>  <UniProt ID>  (1) 
O60674

>  <PDB ID.1>  (1) 
3FUP

>  <Seq. Identity>  (1) 
100%

$$$$
