PDB_DB06700_00
     RDKit          3D

 50 51  0  0  0  0  0  0  0  0999 V2000
   -0.9085   -1.6246   -0.8740 O   0  0  0  0  0  0  0  0  0  0  0  0
   -1.1261   -0.3736   -0.3018 C   0  0  0  0  0  0  0  0  0  0  0  0
   -1.7976   -0.6349    1.0219 C   0  0  0  0  0  0  0  0  0  0  0  0
   -2.1783    0.3783   -1.1202 C   0  0  0  0  0  0  0  0  0  0  0  0
   -3.1684   -0.6973   -1.5137 C   0  0  0  0  0  0  0  0  0  0  0  0
   -3.8730   -1.1865   -0.3098 C   0  0  0  0  0  0  0  0  0  0  0  0
   -3.0295   -1.4505    0.8847 C   0  0  0  0  0  0  0  0  0  0  0  0
    0.1592    0.3977   -0.1570 C   0  0  1  0  0  0  0  0  0  0  0  0
    0.0473    1.7326    0.4586 C   0  0  0  0  0  0  0  0  0  0  0  0
   -0.7743    2.6769   -0.2583 N   0  0  0  0  0  0  0  0  0  0  0  0
   -0.0928    3.0734   -1.4801 C   0  0  0  0  0  0  0  0  0  0  0  0
   -0.9727    3.8675    0.5458 C   0  0  0  0  0  0  0  0  0  0  0  0
    1.2298   -0.4832    0.3745 C   0  0  0  0  0  0  0  0  0  0  0  0
    1.5115   -1.6438   -0.5332 C   0  0  0  0  0  0  0  0  0  0  0  0
    3.0208   -1.9510   -0.5924 C   0  0  0  0  0  0  0  0  0  0  0  0
    3.4695   -2.1357    0.8155 C   0  0  0  0  0  0  0  0  0  0  0  0
    4.7450   -2.6741    0.9241 O   0  0  0  0  0  0  0  0  0  0  0  0
    3.3411   -0.8100    1.5172 C   0  0  0  0  0  0  0  0  0  0  0  0
    2.5338    0.1947    0.6751 C   0  0  0  0  0  0  0  0  0  0  0  0
   -1.3261   -2.3359   -0.3638 H   0  0  0  0  0  0  0  0  0  0  0  0
   -2.0247    0.3312    1.5610 H   0  0  0  0  0  0  0  0  0  0  0  0
   -1.0850   -1.2445    1.6346 H   0  0  0  0  0  0  0  0  0  0  0  0
   -2.7220    1.1292   -0.5241 H   0  0  0  0  0  0  0  0  0  0  0  0
   -1.7461    0.8718   -2.0098 H   0  0  0  0  0  0  0  0  0  0  0  0
   -2.5696   -1.5237   -1.9632 H   0  0  0  0  0  0  0  0  0  0  0  0
   -3.8985   -0.3628   -2.2591 H   0  0  0  0  0  0  0  0  0  0  0  0
   -4.7083   -0.4776   -0.0790 H   0  0  0  0  0  0  0  0  0  0  0  0
   -4.3993   -2.1449   -0.6000 H   0  0  0  0  0  0  0  0  0  0  0  0
   -3.6702   -1.2227    1.7908 H   0  0  0  0  0  0  0  0  0  0  0  0
   -2.8387   -2.5476    0.9774 H   0  0  0  0  0  0  0  0  0  0  0  0
    0.4657    0.5951   -1.2400 H   0  0  0  0  0  0  0  0  0  0  0  0
    1.0205    2.2524    0.6039 H   0  0  0  0  0  0  0  0  0  0  0  0
   -0.3835    1.7158    1.5009 H   0  0  0  0  0  0  0  0  0  0  0  0
   -0.7644    3.0158   -2.3465 H   0  0  0  0  0  0  0  0  0  0  0  0
    0.2011    4.1653   -1.4251 H   0  0  0  0  0  0  0  0  0  0  0  0
    0.8691    2.5439   -1.6151 H   0  0  0  0  0  0  0  0  0  0  0  0
   -0.1660    4.6125    0.3902 H   0  0  0  0  0  0  0  0  0  0  0  0
   -1.9297    4.3641    0.2595 H   0  0  0  0  0  0  0  0  0  0  0  0
   -1.0438    3.6485    1.6255 H   0  0  0  0  0  0  0  0  0  0  0  0
    0.8803   -0.9118    1.3472 H   0  0  0  0  0  0  0  0  0  0  0  0
    1.0712   -2.6036   -0.1922 H   0  0  0  0  0  0  0  0  0  0  0  0
    1.2590   -1.4622   -1.5992 H   0  0  0  0  0  0  0  0  0  0  0  0
    3.0968   -2.9332   -1.1249 H   0  0  0  0  0  0  0  0  0  0  0  0
    3.5735   -1.2173   -1.1685 H   0  0  0  0  0  0  0  0  0  0  0  0
    2.7660   -2.8447    1.3156 H   0  0  0  0  0  0  0  0  0  0  0  0
    5.2414   -2.4294    0.1015 H   0  0  0  0  0  0  0  0  0  0  0  0
    4.3404   -0.3580    1.6711 H   0  0  0  0  0  0  0  0  0  0  0  0
    2.8179   -0.8795    2.4944 H   0  0  0  0  0  0  0  0  0  0  0  0
    3.0870    0.5305   -0.2051 H   0  0  0  0  0  0  0  0  0  0  0  0
    2.4493    1.0671    1.3650 H   0  0  0  0  0  0  0  0  0  0  0  0
  2  1  1  0
  2  3  1  0
  2  4  1  0
  4  5  1  0
  5  6  1  0
  3  7  1  0
  6  7  1  0
  2  8  1  0
  8  9  1  0
  9 10  1  0
 10 11  1  0
 10 12  1  0
  8 13  1  0
 13 14  1  0
 14 15  1  0
 15 16  1  0
 16 17  1  0
 16 18  1  0
 13 19  1  0
 18 19  1  0
  1 20  1  0
  3 21  1  0
  3 22  1  0
  4 23  1  0
  4 24  1  0
  5 25  1  0
  5 26  1  0
  6 27  1  0
  6 28  1  0
  7 29  1  0
  7 30  1  0
  8 31  1  6
  9 32  1  0
  9 33  1  0
 11 34  1  0
 11 35  1  0
 11 36  1  0
 12 37  1  0
 12 38  1  0
 12 39  1  0
 13 40  1  0
 14 41  1  0
 14 42  1  0
 15 43  1  0
 15 44  1  0
 16 45  1  0
 17 46  1  0
 18 47  1  0
 18 48  1  0
 19 49  1  0
 19 50  1  0
M  END
>  <PDBID>  (1) 
4MM7

>  <PDB ID>  (1) 
4MM7

>  <Generic Name>  (1) 
Desvenlafaxine

>  <Brand Name>  (1) 
Desvenlafaxine#Desvenlafaxine Extended-release#Desvenlafaxine Succinate#Gd-desvenlafaxine#Khedezla Extended-release#Pristiq#Pristiq Extended Release#Pristiq Extended-release#Pristiq Extended-release Extended-release#Zyven-OD

>  <DrugBank ID>  (1) 
DB06700

>  <ATC Codes>  (1) 
N06AX23

>  <Ligand ID>  (1) 
29J

>  <Target Name>  (1) 
Sodium-dependent noradrenaline transporter

>  <UniProt ID>  (1) 
P23975

>  <PDB ID.1>  (1) 
4MM7

>  <Seq. Identity>  (1) 
30%

$$$$
