PDB_DB01072_01
     RDKit          3D

129131  0  0  0  0  0  0  0  0999 V2000
   -8.0251    2.2753   -1.3541 C   0  0  0  0  0  0  0  0  0  0  0  0
   -8.1403    0.8992   -1.2247 O   0  0  0  0  0  0  0  0  0  0  0  0
   -7.0454    0.3380   -0.5090 C   0  0  0  0  0  0  0  0  0  0  0  0
   -7.4903   -0.3023    0.6067 O   0  0  0  0  0  0  0  0  0  0  0  0
   -6.3789   -0.5150   -1.4324 N   0  0  0  0  0  0  0  0  0  0  0  0
   -5.3806   -1.3982   -0.9510 C   0  0  1  0  0  0  0  0  0  0  0  0
   -5.4299   -2.6796   -1.7936 C   0  0  0  0  0  0  0  0  0  0  0  0
   -5.1556   -2.4261   -3.2448 C   0  0  0  0  0  0  0  0  0  0  0  0
   -4.4852   -3.7332   -1.2970 C   0  0  0  0  0  0  0  0  0  0  0  0
   -6.8443   -3.2413   -1.7201 C   0  0  0  0  0  0  0  0  0  0  0  0
   -3.9687   -0.8404   -1.0028 C   0  0  0  0  0  0  0  0  0  0  0  0
   -3.8209   -0.4673   -2.3727 O   0  0  0  0  0  0  0  0  0  0  0  0
   -3.7096    0.2376   -0.1693 N   0  0  0  0  0  0  0  0  0  0  0  0
   -2.3352    0.2286    0.4327 C   0  0  1  0  0  0  0  0  0  0  0  0
   -2.2581   -0.9288    1.3518 C   0  0  0  0  0  0  0  0  0  0  0  0
   -3.3185   -0.8008    2.4299 C   0  0  0  0  0  0  0  0  0  0  0  0
   -3.1713    0.4638    3.2446 C   0  0  0  0  0  0  0  0  0  0  0  0
   -4.1747    0.3318    4.3972 C   0  0  0  0  0  0  0  0  0  0  0  0
   -3.5547   -0.6208    5.3768 C   0  0  0  0  0  0  0  0  0  0  0  0
   -2.7493   -1.6948    4.7214 C   0  0  0  0  0  0  0  0  0  0  0  0
   -3.1753   -2.0302    3.3234 C   0  0  0  0  0  0  0  0  0  0  0  0
   -1.3521    0.2526   -0.6733 C   0  0  1  0  0  0  0  0  0  0  0  0
   -1.5756    1.4322   -1.4445 O   0  0  0  0  0  0  0  0  0  0  0  0
   -0.0242   -0.2502   -0.6710 C   0  0  0  0  0  0  0  0  0  0  0  0
    1.1452    0.5190   -0.2637 N   0  0  0  0  0  0  0  0  0  0  0  0
    1.0231    1.8536   -0.5244 N   0  0  0  0  0  0  0  0  0  0  0  0
    2.1485    2.6955   -0.5550 C   0  0  0  0  0  0  0  0  0  0  0  0
    3.0589    2.4505   -1.5801 O   0  0  0  0  0  0  0  0  0  0  0  0
    1.7967    4.1543   -0.5933 C   0  0  2  0  0  0  0  0  0  0  0  0
    1.0868    4.6416   -1.8166 C   0  0  0  0  0  0  0  0  0  0  0  0
    1.8568    4.4033   -3.0875 C   0  0  0  0  0  0  0  0  0  0  0  0
    1.1109    6.1995   -1.6546 C   0  0  0  0  0  0  0  0  0  0  0  0
   -0.3345    4.2940   -1.9921 C   0  0  0  0  0  0  0  0  0  0  0  0
    2.9472    4.9736   -0.4294 N   0  0  0  0  0  0  0  0  0  0  0  0
    3.6895    5.0221    0.7433 C   0  0  0  0  0  0  0  0  0  0  0  0
    4.2485    3.8425    1.2181 O   0  0  0  0  0  0  0  0  0  0  0  0
    3.0931    5.7677    1.7730 O   0  0  0  0  0  0  0  0  0  0  0  0
    3.8386    6.9238    2.0755 C   0  0  0  0  0  0  0  0  0  0  0  0
    2.2988   -0.1463   -0.8163 C   0  0  0  0  0  0  0  0  0  0  0  0
    2.6949   -1.4664   -0.3052 C   0  0  0  0  0  0  0  0  0  0  0  0
    3.1920   -1.5446    1.0981 C   0  0  0  0  0  0  0  0  0  0  0  0
    4.7045   -1.6396    1.2262 C   0  0  0  0  0  0  0  0  0  0  0  0
    3.4671   -2.2485   -1.3423 C   0  0  0  0  0  0  0  0  0  0  0  0
    4.4596   -3.1798   -0.6527 C   0  0  0  0  0  0  0  0  0  0  0  0
    5.4110   -2.2211    0.0657 C   0  0  0  0  0  0  0  0  0  0  0  0
    6.7372   -2.8515    0.2746 C   0  0  0  0  0  0  0  0  0  0  0  0
    6.8030   -3.9814    1.2417 C   0  0  0  0  0  0  0  0  0  0  0  0
    8.2222   -4.5621    1.1500 C   0  0  0  0  0  0  0  0  0  0  0  0
    8.5021   -5.1340   -0.2245 C   0  0  0  0  0  0  0  0  0  0  0  0
    7.4049   -4.6770   -1.1768 C   0  0  0  0  0  0  0  0  0  0  0  0
    7.2024   -3.2587   -1.0579 N   0  0  0  0  0  0  0  0  0  0  0  0
   -7.9765    2.8023   -0.3958 H   0  0  0  0  0  0  0  0  0  0  0  0
   -8.9696    2.6393   -1.8554 H   0  0  0  0  0  0  0  0  0  0  0  0
   -7.1996    2.5282   -2.0627 H   0  0  0  0  0  0  0  0  0  0  0  0
   -6.3892    1.2127   -0.2126 H   0  0  0  0  0  0  0  0  0  0  0  0
   -7.5575   -1.2924    0.4912 H   0  0  0  0  0  0  0  0  0  0  0  0
   -6.0440    0.0012   -2.2848 H   0  0  0  0  0  0  0  0  0  0  0  0
   -5.5683   -1.7026    0.0993 H   0  0  0  0  0  0  0  0  0  0  0  0
   -4.0750   -2.5215   -3.4864 H   0  0  0  0  0  0  0  0  0  0  0  0
   -5.6034   -1.4961   -3.5775 H   0  0  0  0  0  0  0  0  0  0  0  0
   -5.6418   -3.2620   -3.8258 H   0  0  0  0  0  0  0  0  0  0  0  0
   -4.7907   -4.6839   -1.8165 H   0  0  0  0  0  0  0  0  0  0  0  0
   -3.4301   -3.5761   -1.6137 H   0  0  0  0  0  0  0  0  0  0  0  0
   -4.6131   -3.9346   -0.2258 H   0  0  0  0  0  0  0  0  0  0  0  0
   -7.1201   -3.5532   -0.6979 H   0  0  0  0  0  0  0  0  0  0  0  0
   -6.8989   -4.1392   -2.3849 H   0  0  0  0  0  0  0  0  0  0  0  0
   -7.5801   -2.5144   -2.1458 H   0  0  0  0  0  0  0  0  0  0  0  0
   -3.3025   -1.7385   -0.8244 H   0  0  0  0  0  0  0  0  0  0  0  0
   -3.9959    0.4978   -2.4633 H   0  0  0  0  0  0  0  0  0  0  0  0
   -4.3943    0.4134    0.5649 H   0  0  0  0  0  0  0  0  0  0  0  0
   -2.2847    1.1640    1.0104 H   0  0  0  0  0  0  0  0  0  0  0  0
   -1.2884   -0.9245    1.9522 H   0  0  0  0  0  0  0  0  0  0  0  0
   -2.4195   -1.9263    0.9112 H   0  0  0  0  0  0  0  0  0  0  0  0
   -4.3525   -0.8384    2.0499 H   0  0  0  0  0  0  0  0  0  0  0  0
   -3.5150    1.3136    2.6023 H   0  0  0  0  0  0  0  0  0  0  0  0
   -2.1792    0.5915    3.6644 H   0  0  0  0  0  0  0  0  0  0  0  0
   -4.2499    1.3555    4.8416 H   0  0  0  0  0  0  0  0  0  0  0  0
   -5.1647    0.0039    4.0410 H   0  0  0  0  0  0  0  0  0  0  0  0
   -4.3364   -0.9965    6.0713 H   0  0  0  0  0  0  0  0  0  0  0  0
   -2.8522   -0.0204    6.0259 H   0  0  0  0  0  0  0  0  0  0  0  0
   -2.9249   -2.6318    5.3294 H   0  0  0  0  0  0  0  0  0  0  0  0
   -1.6401   -1.5037    4.8072 H   0  0  0  0  0  0  0  0  0  0  0  0
   -4.1526   -2.5801    3.4244 H   0  0  0  0  0  0  0  0  0  0  0  0
   -2.4514   -2.7683    2.9282 H   0  0  0  0  0  0  0  0  0  0  0  0
   -1.9054   -0.5034   -1.4493 H   0  0  0  0  0  0  0  0  0  0  0  0
   -2.1242    2.0632   -0.9055 H   0  0  0  0  0  0  0  0  0  0  0  0
    0.2741   -0.6432   -1.7044 H   0  0  0  0  0  0  0  0  0  0  0  0
    0.0184   -1.1586    0.0020 H   0  0  0  0  0  0  0  0  0  0  0  0
    0.1519    2.2819   -0.1817 H   0  0  0  0  0  0  0  0  0  0  0  0
    2.6625    2.5524    0.4510 H   0  0  0  0  0  0  0  0  0  0  0  0
    2.7158    2.0230   -2.3710 H   0  0  0  0  0  0  0  0  0  0  0  0
    1.1329    4.4018    0.3130 H   0  0  0  0  0  0  0  0  0  0  0  0
    2.9363    4.3095   -2.9593 H   0  0  0  0  0  0  0  0  0  0  0  0
    1.4584    3.5236   -3.6477 H   0  0  0  0  0  0  0  0  0  0  0  0
    1.7279    5.2760   -3.8019 H   0  0  0  0  0  0  0  0  0  0  0  0
    2.0875    6.5786   -2.0009 H   0  0  0  0  0  0  0  0  0  0  0  0
    0.8394    6.4667   -0.6333 H   0  0  0  0  0  0  0  0  0  0  0  0
    0.3323    6.5999   -2.3410 H   0  0  0  0  0  0  0  0  0  0  0  0
   -0.4246    3.4805   -2.7699 H   0  0  0  0  0  0  0  0  0  0  0  0
   -0.8424    5.1637   -2.5260 H   0  0  0  0  0  0  0  0  0  0  0  0
   -0.9437    4.1412   -1.1061 H   0  0  0  0  0  0  0  0  0  0  0  0
    3.4843    5.2224   -1.2605 H   0  0  0  0  0  0  0  0  0  0  0  0
    4.6287    5.6555    0.4983 H   0  0  0  0  0  0  0  0  0  0  0  0
    4.3722    3.9896    2.2055 H   0  0  0  0  0  0  0  0  0  0  0  0
    4.8759    6.6387    2.4188 H   0  0  0  0  0  0  0  0  0  0  0  0
    4.0254    7.5433    1.1683 H   0  0  0  0  0  0  0  0  0  0  0  0
    3.3684    7.4731    2.9082 H   0  0  0  0  0  0  0  0  0  0  0  0
    3.1836    0.5333   -0.6001 H   0  0  0  0  0  0  0  0  0  0  0  0
    2.2704   -0.2292   -1.9329 H   0  0  0  0  0  0  0  0  0  0  0  0
    1.7259   -2.1451   -0.2297 H   0  0  0  0  0  0  0  0  0  0  0  0
    2.8952   -0.5770    1.5991 H   0  0  0  0  0  0  0  0  0  0  0  0
    2.6935   -2.3188    1.7334 H   0  0  0  0  0  0  0  0  0  0  0  0
    5.0757   -0.6011    1.4077 H   0  0  0  0  0  0  0  0  0  0  0  0
    4.8930   -2.1801    2.1862 H   0  0  0  0  0  0  0  0  0  0  0  0
    4.0930   -1.5150   -1.9088 H   0  0  0  0  0  0  0  0  0  0  0  0
    2.8428   -2.7790   -2.0699 H   0  0  0  0  0  0  0  0  0  0  0  0
    3.9364   -3.8267    0.0529 H   0  0  0  0  0  0  0  0  0  0  0  0
    4.9565   -3.7196   -1.4755 H   0  0  0  0  0  0  0  0  0  0  0  0
    5.5476   -1.3639   -0.6850 H   0  0  0  0  0  0  0  0  0  0  0  0
    7.4838   -2.0770    0.6025 H   0  0  0  0  0  0  0  0  0  0  0  0
    6.7239   -3.5771    2.2624 H   0  0  0  0  0  0  0  0  0  0  0  0
    6.1174   -4.8130    1.0066 H   0  0  0  0  0  0  0  0  0  0  0  0
    8.9349   -3.7947    1.4438 H   0  0  0  0  0  0  0  0  0  0  0  0
    8.2421   -5.4040    1.8690 H   0  0  0  0  0  0  0  0  0  0  0  0
    9.5009   -4.8410   -0.5304 H   0  0  0  0  0  0  0  0  0  0  0  0
    8.4295   -6.2471   -0.2245 H   0  0  0  0  0  0  0  0  0  0  0  0
    7.7694   -4.8559   -2.2144 H   0  0  0  0  0  0  0  0  0  0  0  0
    6.5318   -5.2975   -0.9783 H   0  0  0  0  0  0  0  0  0  0  0  0
    8.0173   -2.7283   -1.3803 H   0  0  0  0  0  0  0  0  0  0  0  0
  1  2  1  0
  2  3  1  0
  3  4  1  0
  3  5  1  0
  5  6  1  0
  6  7  1  0
  7  8  1  0
  7  9  1  0
  7 10  1  0
  6 11  1  0
 11 12  1  0
 11 13  1  0
 13 14  1  0
 14 15  1  0
 15 16  1  0
 16 17  1  0
 17 18  1  0
 18 19  1  0
 19 20  1  0
 16 21  1  0
 20 21  1  0
 14 22  1  0
 22 23  1  0
 22 24  1  0
 24 25  1  0
 25 26  1  0
 26 27  1  0
 27 28  1  0
 27 29  1  0
 29 30  1  0
 30 31  1  0
 30 32  1  0
 30 33  1  0
 29 34  1  0
 34 35  1  0
 35 36  1  0
 35 37  1  0
 37 38  1  0
 25 39  1  0
 39 40  1  0
 40 41  1  0
 41 42  1  0
 40 43  1  0
 43 44  1  0
 42 45  1  0
 44 45  1  0
 45 46  1  0
 46 47  1  0
 47 48  1  0
 48 49  1  0
 49 50  1  0
 46 51  1  0
 50 51  1  0
  1 52  1  0
  1 53  1  0
  1 54  1  0
  3 55  1  0
  4 56  1  0
  5 57  1  0
  6 58  1  1
  8 59  1  0
  8 60  1  0
  8 61  1  0
  9 62  1  0
  9 63  1  0
  9 64  1  0
 10 65  1  0
 10 66  1  0
 10 67  1  0
 11 68  1  0
 12 69  1  0
 13 70  1  0
 14 71  1  1
 15 72  1  0
 15 73  1  0
 16 74  1  0
 17 75  1  0
 17 76  1  0
 18 77  1  0
 18 78  1  0
 19 79  1  0
 19 80  1  0
 20 81  1  0
 20 82  1  0
 21 83  1  0
 21 84  1  0
 22 85  1  6
 23 86  1  0
 24 87  1  0
 24 88  1  0
 26 89  1  0
 27 90  1  0
 28 91  1  0
 29 92  1  1
 31 93  1  0
 31 94  1  0
 31 95  1  0
 32 96  1  0
 32 97  1  0
 32 98  1  0
 33 99  1  0
 33100  1  0
 33101  1  0
 34102  1  0
 35103  1  0
 36104  1  0
 38105  1  0
 38106  1  0
 38107  1  0
 39108  1  0
 39109  1  0
 40110  1  0
 41111  1  0
 41112  1  0
 42113  1  0
 42114  1  0
 43115  1  0
 43116  1  0
 44117  1  0
 44118  1  0
 45119  1  0
 46120  1  0
 47121  1  0
 47122  1  0
 48123  1  0
 48124  1  0
 49125  1  0
 49126  1  0
 50127  1  0
 50128  1  0
 51129  1  0
M  END
>  <PDBID>  (1) 
2AQU

>  <PDB ID>  (1) 
2AQU

>  <Generic Name>  (1) 
Atazanavir

>  <Brand Name>  (1) 
Evotaz#Reyataz#Latazanavir#Zrivada

>  <DrugBank ID>  (1) 
DB01072

>  <ATC Codes>  (1) 
J05AE08#J05AR15

>  <Ligand ID>  (1) 
DR7

>  <Target Name>  (1) 
Pol polyprotein

>  <UniProt ID>  (1) 
Q72874

>  <PDB ID.1>  (1) 
2AQU

>  <Seq. Identity>  (1) 
99%

$$$$
