PDB_DB00563_09
     RDKit          3D

 77 79  0  0  0  0  0  0  0  0999 V2000
    7.1035    0.2918    0.6708 N   0  0  0  0  0  0  0  0  0  0  0  0
    8.1314   -0.0362   -0.3319 C   0  0  0  0  0  0  0  0  0  0  0  0
    9.0317   -1.0489    0.1353 N   0  0  0  0  0  0  0  0  0  0  0  0
    7.5633   -0.4210   -1.5823 N   0  0  0  0  0  0  0  0  0  0  0  0
    6.3466   -1.1671   -1.5189 C   0  0  2  0  0  0  0  0  0  0  0  0
    5.8744   -1.4230   -2.8482 N   0  0  0  0  0  0  0  0  0  0  0  0
    5.2880   -0.4717   -0.6807 C   0  0  0  0  0  0  0  0  0  0  0  0
    4.1228   -0.1564   -1.4437 N   0  0  0  0  0  0  0  0  0  0  0  0
    3.1857    0.6262   -0.6357 C   0  0  0  0  0  0  0  0  0  0  0  0
    3.9129    1.8262   -0.1413 C   0  0  0  0  0  0  0  0  0  0  0  0
    5.0386    1.5227    0.7061 N   0  0  0  0  0  0  0  0  0  0  0  0
    5.9716    0.7635   -0.0975 C   0  0  0  0  0  0  0  0  0  0  0  0
    2.5373   -0.2229    0.3897 C   0  0  0  0  0  0  0  0  0  0  0  0
    1.5968    0.3543    1.2610 N   0  0  0  0  0  0  0  0  0  0  0  0
    1.0956   -0.6372    2.1803 C   0  0  0  0  0  0  0  0  0  0  0  0
   -2.2051    0.4100    1.1204 C   0  0  0  0  0  0  0  0  0  0  0  0
   -1.7259    0.6237   -0.2732 C   0  0  0  0  0  0  0  0  0  0  0  0
   -0.2460    0.2953   -0.2269 C   0  0  0  0  0  0  0  0  0  0  0  0
    0.5503    1.1613    0.6944 C   0  0  0  0  0  0  0  0  0  0  0  0
   -0.2395    1.8501    1.7603 C   0  0  0  0  0  0  0  0  0  0  0  0
   -1.5825    1.3762    2.0947 C   0  0  0  0  0  0  0  0  0  0  0  0
   -3.6982    0.5637    1.1822 C   0  0  2  0  0  0  0  0  0  0  0  0
   -4.0914    0.3329    2.5342 O   0  0  0  0  0  0  0  0  0  0  0  0
   -4.4604   -0.2868    0.3709 N   0  0  0  0  0  0  0  0  0  0  0  0
   -5.7123    0.2797   -0.0106 C   0  0  2  0  0  0  0  0  0  0  0  0
   -6.6407    0.5456    1.1373 C   0  0  0  0  0  0  0  0  0  0  0  0
   -7.8626    1.0436    0.5915 O   0  0  0  0  0  0  0  0  0  0  0  0
   -6.1589    1.6545    1.8821 O   0  0  0  0  0  0  0  0  0  0  0  0
   -6.3812   -0.4859   -1.1389 C   0  0  0  0  0  0  0  0  0  0  0  0
   -6.6533   -1.9176   -0.8162 C   0  0  0  0  0  0  0  0  0  0  0  0
   -7.3471   -2.5137   -2.0443 C   0  0  0  0  0  0  0  0  0  0  0  0
   -8.5393   -1.8283   -2.2939 O   0  0  0  0  0  0  0  0  0  0  0  0
   -6.4842   -2.4225   -3.1212 O   0  0  0  0  0  0  0  0  0  0  0  0
    6.8468   -0.6280    1.1069 H   0  0  0  0  0  0  0  0  0  0  0  0
    8.6928    0.9251   -0.4831 H   0  0  0  0  0  0  0  0  0  0  0  0
    8.5543   -1.6029    0.9009 H   0  0  0  0  0  0  0  0  0  0  0  0
    9.2249   -1.7143   -0.6445 H   0  0  0  0  0  0  0  0  0  0  0  0
    7.6569    0.2317   -2.3624 H   0  0  0  0  0  0  0  0  0  0  0  0
    6.6311   -2.1718   -1.0765 H   0  0  0  0  0  0  0  0  0  0  0  0
    5.7955   -2.4420   -3.0574 H   0  0  0  0  0  0  0  0  0  0  0  0
    6.4336   -0.9837   -3.6023 H   0  0  0  0  0  0  0  0  0  0  0  0
    5.1233   -1.1384    0.1904 H   0  0  0  0  0  0  0  0  0  0  0  0
    4.4151    0.4529   -2.2323 H   0  0  0  0  0  0  0  0  0  0  0  0
    2.3787    1.0161   -1.3176 H   0  0  0  0  0  0  0  0  0  0  0  0
    3.3294    2.6060    0.3357 H   0  0  0  0  0  0  0  0  0  0  0  0
    4.3707    2.3070   -1.0623 H   0  0  0  0  0  0  0  0  0  0  0  0
    4.7648    1.0249    1.5819 H   0  0  0  0  0  0  0  0  0  0  0  0
    6.3790    1.4249   -0.8803 H   0  0  0  0  0  0  0  0  0  0  0  0
    1.9624   -1.0258   -0.1810 H   0  0  0  0  0  0  0  0  0  0  0  0
    3.3232   -0.8188    0.9074 H   0  0  0  0  0  0  0  0  0  0  0  0
    0.3332   -0.2662    2.8673 H   0  0  0  0  0  0  0  0  0  0  0  0
    0.7815   -1.5760    1.6583 H   0  0  0  0  0  0  0  0  0  0  0  0
    1.9366   -0.9870    2.8573 H   0  0  0  0  0  0  0  0  0  0  0  0
   -1.9435   -0.6255    1.4125 H   0  0  0  0  0  0  0  0  0  0  0  0
   -2.1782   -0.1422   -0.9312 H   0  0  0  0  0  0  0  0  0  0  0  0
   -1.9272    1.6127   -0.6979 H   0  0  0  0  0  0  0  0  0  0  0  0
   -0.1751   -0.7815    0.0504 H   0  0  0  0  0  0  0  0  0  0  0  0
    0.0934    0.3509   -1.2834 H   0  0  0  0  0  0  0  0  0  0  0  0
    1.0711    1.9049    0.0302 H   0  0  0  0  0  0  0  0  0  0  0  0
   -0.2427    2.9483    1.5141 H   0  0  0  0  0  0  0  0  0  0  0  0
    0.3840    1.8036    2.7031 H   0  0  0  0  0  0  0  0  0  0  0  0
   -2.2845    2.2659    2.1304 H   0  0  0  0  0  0  0  0  0  0  0  0
   -1.7019    0.9313    3.1008 H   0  0  0  0  0  0  0  0  0  0  0  0
   -4.0057    1.6236    0.9855 H   0  0  0  0  0  0  0  0  0  0  0  0
   -3.7674    1.0762    3.1048 H   0  0  0  0  0  0  0  0  0  0  0  0
   -3.9909   -0.7783   -0.3929 H   0  0  0  0  0  0  0  0  0  0  0  0
   -5.5523    1.3232   -0.4754 H   0  0  0  0  0  0  0  0  0  0  0  0
   -6.7891   -0.2711    1.8326 H   0  0  0  0  0  0  0  0  0  0  0  0
   -7.7342    2.0108    0.3586 H   0  0  0  0  0  0  0  0  0  0  0  0
   -6.9164    2.1932    2.2152 H   0  0  0  0  0  0  0  0  0  0  0  0
   -7.3738   -0.0122   -1.3891 H   0  0  0  0  0  0  0  0  0  0  0  0
   -5.7859   -0.4269   -2.0629 H   0  0  0  0  0  0  0  0  0  0  0  0
   -5.6720   -2.4678   -0.7642 H   0  0  0  0  0  0  0  0  0  0  0  0
   -7.3028   -2.0960    0.0418 H   0  0  0  0  0  0  0  0  0  0  0  0
   -7.6079   -3.5811   -1.8969 H   0  0  0  0  0  0  0  0  0  0  0  0
   -9.1453   -1.8980   -1.5115 H   0  0  0  0  0  0  0  0  0  0  0  0
   -5.7075   -3.0092   -3.0868 H   0  0  0  0  0  0  0  0  0  0  0  0
  1  2  1  0
  2  3  1  0
  2  4  1  0
  4  5  1  0
  5  6  1  0
  5  7  1  0
  7  8  1  0
  8  9  1  0
  9 10  1  0
 10 11  1  0
  1 12  1  0
  7 12  1  0
 11 12  1  0
  9 13  1  0
 13 14  1  0
 14 15  1  0
 16 17  1  0
 17 18  1  0
 14 19  1  0
 18 19  1  0
 19 20  1  0
 16 21  1  0
 20 21  1  0
 16 22  1  0
 22 23  1  0
 22 24  1  0
 24 25  1  0
 25 26  1  0
 26 27  1  0
 26 28  1  0
 25 29  1  0
 29 30  1  0
 30 31  1  0
 31 32  1  0
 31 33  1  0
  1 34  1  0
  2 35  1  0
  3 36  1  0
  3 37  1  0
  4 38  1  0
  5 39  1  1
  6 40  1  0
  6 41  1  0
  7 42  1  0
  8 43  1  0
  9 44  1  0
 10 45  1  0
 10 46  1  0
 11 47  1  0
 12 48  1  0
 13 49  1  0
 13 50  1  0
 15 51  1  0
 15 52  1  0
 15 53  1  0
 16 54  1  0
 17 55  1  0
 17 56  1  0
 18 57  1  0
 18 58  1  0
 19 59  1  0
 20 60  1  0
 20 61  1  0
 21 62  1  0
 21 63  1  0
 22 64  1  6
 23 65  1  0
 24 66  1  0
 25 67  1  6
 26 68  1  0
 27 69  1  0
 28 70  1  0
 29 71  1  0
 29 72  1  0
 30 73  1  0
 30 74  1  0
 31 75  1  0
 32 76  1  0
 33 77  1  0
M  END
>  <PDBID>  (1) 
1U72

>  <PDB ID>  (1) 
1U72

>  <Generic Name>  (1) 
Methotrexate

>  <Brand Name>  (1) 
Apo-methotrexate#Jamp-methotrexate#Methotrexate#Methotrexate Dbl Inj 10mg/ml#Methotrexate Dbl Inj 2.5mg/ml#Methotrexate Dbl Inj 25mg/ml#Methotrexate Injection BP#Methotrexate Injection USP#Methotrexate Injection, BP#Methotrexate Injection, USP#Methotrexate PF/sa Injection#Methotrexate Sod Inj 25mg/ml USP#Methotrexate Sodium#Methotrexate Sodium Inj 20mg#Methotrexate Sodium Inj 25.0mg/ml#Methotrexate Sodium Inj 25mg/ml#Methotrexate Sodium Inj 25mg/ml USP#Methotrexate Sodium Injection#Methotrexate Sodium Injection USP#Methotrexate Tab 2.5mg#Methotrexate Tab 2.5mg USP#Methotrexate Tablets, USP#Methotrexate-liq Im IV Iar Int Ivr 25mg/ml#Methotrexate-pws Im IV Iar Int Ivr 20mg/vial#Metoject#Metoject Subcutaneous#Otrexup#Rasuvo#Ratio-methotrexate Sodium#Rheumatrex Dose Pack#Rheumatrex Tab 2.5mg#Rheumatrex-tab 2.5mg#Trexall#Abitrexate#Alltrex#Artrait#Atrexel#Bendatrexat#Carditrex#Dermotrex#Ebetrex#Emtexate#Ledertrexate#Maxtrex#Meisusheng#Mexate#Rheumatrex#Trexan#Zexate

>  <DrugBank ID>  (1) 
DB00563

>  <ATC Codes>  (1) 
L01BA01#L04AX03

>  <Ligand ID>  (1) 
MTX

>  <Target Name>  (1) 
Dihydrofolate reductase

>  <UniProt ID>  (1) 
P00374

>  <PDB ID.1>  (1) 
1U72

>  <Seq. Identity>  (1) 
100%

$$$$
