PDB_DB00685_08
     RDKit          3D

124132  0  0  0  0  0  0  0  0999 V2000
   -2.0483    1.9225   -0.9756 C   0  0  0  0  0  0  0  0  0  0  0  0
   -3.2702    2.7708   -1.1514 C   0  0  0  0  0  0  0  0  0  0  0  0
   -3.7432    3.4605    0.0812 C   0  0  0  0  0  0  0  0  0  0  0  0
   -3.3312    4.7738    0.1816 F   0  0  0  0  0  0  0  0  0  0  0  0
   -3.4076    2.7584    1.3643 C   0  0  0  0  0  0  0  0  0  0  0  0
   -3.3297    1.2616    1.0240 C   0  0  0  0  0  0  0  0  0  0  0  0
   -4.4472    0.9861    0.2834 F   0  0  0  0  0  0  0  0  0  0  0  0
   -2.0365    1.0960    0.2643 C   0  0  0  0  0  0  0  0  0  0  0  0
   -1.7087   -0.2744    0.1165 N   0  0  0  0  0  0  0  0  0  0  0  0
   -0.3896   -0.5602   -0.3773 C   0  0  0  0  0  0  0  0  0  0  0  0
    0.6228    0.3298    0.0929 N   0  0  0  0  0  0  0  0  0  0  0  0
    1.9183   -0.3707    0.0575 C   0  0  0  0  0  0  0  0  0  0  0  0
    3.0207    0.4655    0.0350 N   0  0  0  0  0  0  0  0  0  0  0  0
    3.3242    1.3842    1.0340 C   0  0  0  0  0  0  0  0  0  0  0  0
    4.8083    1.6855    0.7489 C   0  0  1  0  0  0  0  0  0  0  0  0
    5.6049    0.4768    0.4312 C   0  0  0  0  0  0  0  0  0  0  0  0
    7.0558    0.5010    0.5893 N   0  0  0  0  0  0  0  0  0  0  0  0
    5.0332    1.2413   -0.7004 C   0  0  1  0  0  0  0  0  0  0  0  0
    3.6700    0.7806   -1.1793 C   0  0  0  0  0  0  0  0  0  0  0  0
    2.0254   -1.3325    1.2153 C   0  0  0  0  0  0  0  0  0  0  0  0
    0.6462   -1.9232    1.4486 C   0  0  0  0  0  0  0  0  0  0  0  0
   -0.0481   -1.9641    0.1193 C   0  0  0  0  0  0  0  0  0  0  0  0
   -1.3373   -2.7835    0.2681 C   0  0  0  0  0  0  0  0  0  0  0  0
   -2.1754   -2.4232   -0.9477 C   0  0  0  0  0  0  0  0  0  0  0  0
   -2.6654   -0.9914   -0.6894 C   0  0  0  0  0  0  0  0  0  0  0  0
   -3.3440   -3.3667   -1.1001 C   0  0  0  0  0  0  0  0  0  0  0  0
   -4.1541   -3.3081    0.0134 O   0  0  0  0  0  0  0  0  0  0  0  0
   -2.8302   -4.6601   -1.1694 O   0  0  0  0  0  0  0  0  0  0  0  0
   -0.9596   -4.1189    0.2247 O   0  0  0  0  0  0  0  0  0  0  0  0
    2.8969   -2.3785    0.9011 F   0  0  0  0  0  0  0  0  0  0  0  0
   -1.1586    2.5955   -1.0524 H   0  0  0  0  0  0  0  0  0  0  0  0
   -3.0064    3.5680   -1.8982 H   0  0  0  0  0  0  0  0  0  0  0  0
   -4.2462    2.8610    2.0833 H   0  0  0  0  0  0  0  0  0  0  0  0
    2.7763    2.3588    0.9685 H   0  0  0  0  0  0  0  0  0  0  0  0
    3.2312    0.9430    2.0444 H   0  0  0  0  0  0  0  0  0  0  0  0
    5.2390    2.6216    1.0901 H   0  0  0  0  0  0  0  0  0  0  0  0
    5.1843   -0.5286    0.6636 H   0  0  0  0  0  0  0  0  0  0  0  0
    7.4480    1.4687    0.5215 H   0  0  0  0  0  0  0  0  0  0  0  0
    7.4579   -0.0706   -0.1866 H   0  0  0  0  0  0  0  0  0  0  0  0
    5.6564    1.8738   -1.3557 H   0  0  0  0  0  0  0  0  0  0  0  0
    3.8151   -0.1082   -1.8334 H   0  0  0  0  0  0  0  0  0  0  0  0
    3.2365    1.6166   -1.7656 H   0  0  0  0  0  0  0  0  0  0  0  0
    0.7928   -2.9658    1.7847 H   0  0  0  0  0  0  0  0  0  0  0  0
   -2.8323   -0.5589   -1.6828 H   0  0  0  0  0  0  0  0  0  0  0  0
   -2.0324    2.0504   -0.9140 C   0  0  0  0  0  0  0  0  0  0  0  0
   -3.2766    2.8614   -1.1155 C   0  0  0  0  0  0  0  0  0  0  0  0
   -3.8260    3.5004    0.1156 C   0  0  0  0  0  0  0  0  0  0  0  0
   -3.4880    4.8481    0.2397 F   0  0  0  0  0  0  0  0  0  0  0  0
   -3.4501    2.7958    1.4015 C   0  0  0  0  0  0  0  0  0  0  0  0
   -3.3483    1.3105    1.0201 C   0  0  0  0  0  0  0  0  0  0  0  0
   -4.4440    1.0773    0.2074 F   0  0  0  0  0  0  0  0  0  0  0  0
   -2.0328    1.1693    0.2850 C   0  0  0  0  0  0  0  0  0  0  0  0
   -1.7267   -0.1971    0.0845 N   0  0  0  0  0  0  0  0  0  0  0  0
   -0.4303   -0.5118   -0.4135 C   0  0  0  0  0  0  0  0  0  0  0  0
    0.6135    0.3432    0.0447 N   0  0  0  0  0  0  0  0  0  0  0  0
    1.8962   -0.3710   -0.0839 C   0  0  0  0  0  0  0  0  0  0  0  0
    3.0056    0.4615   -0.1074 N   0  0  0  0  0  0  0  0  0  0  0  0
    3.3339    1.3312    0.9186 C   0  0  0  0  0  0  0  0  0  0  0  0
    4.7866    1.6765    0.6566 C   0  0  1  0  0  0  0  0  0  0  0  0
    5.6903    0.4958    0.5942 C   0  0  0  0  0  0  0  0  0  0  0  0
    7.1239    0.6780    0.7643 N   0  0  0  0  0  0  0  0  0  0  0  0
    5.1314    1.0468   -0.6846 C   0  0  1  0  0  0  0  0  0  0  0  0
    3.8255    0.5231   -1.2349 C   0  0  0  0  0  0  0  0  0  0  0  0
    2.0423   -1.3698    1.0447 C   0  0  0  0  0  0  0  0  0  0  0  0
    0.6561   -1.8834    1.3739 C   0  0  0  0  0  0  0  0  0  0  0  0
   -0.1107   -1.9337    0.0762 C   0  0  0  0  0  0  0  0  0  0  0  0
   -1.3668   -2.7404    0.2743 C   0  0  0  0  0  0  0  0  0  0  0  0
   -2.3132   -2.3714   -0.8478 C   0  0  0  0  0  0  0  0  0  0  0  0
   -2.7512   -0.9376   -0.5777 C   0  0  0  0  0  0  0  0  0  0  0  0
   -3.5066   -3.3060   -0.8200 C   0  0  0  0  0  0  0  0  0  0  0  0
   -4.3922   -2.9961   -1.8336 O   0  0  0  0  0  0  0  0  0  0  0  0
   -3.0817   -4.6116   -1.0041 O   0  0  0  0  0  0  0  0  0  0  0  0
   -1.0571   -4.0899    0.1642 O   0  0  0  0  0  0  0  0  0  0  0  0
    2.7490   -2.4648    0.5599 F   0  0  0  0  0  0  0  0  0  0  0  0
   -1.1645    2.7743   -0.9052 H   0  0  0  0  0  0  0  0  0  0  0  0
   -3.0012    3.6986   -1.8232 H   0  0  0  0  0  0  0  0  0  0  0  0
   -4.3155    2.8642    2.0948 H   0  0  0  0  0  0  0  0  0  0  0  0
    2.7601    2.2881    0.9553 H   0  0  0  0  0  0  0  0  0  0  0  0
    3.2654    0.8786    1.9393 H   0  0  0  0  0  0  0  0  0  0  0  0
    5.1415    2.6973    0.8509 H   0  0  0  0  0  0  0  0  0  0  0  0
    5.3337   -0.4772    0.9876 H   0  0  0  0  0  0  0  0  0  0  0  0
    7.3919    1.6621    0.5946 H   0  0  0  0  0  0  0  0  0  0  0  0
    7.5911    0.1048    0.0282 H   0  0  0  0  0  0  0  0  0  0  0  0
    5.8172    1.5960   -1.3611 H   0  0  0  0  0  0  0  0  0  0  0  0
    3.9620   -0.4770   -1.7022 H   0  0  0  0  0  0  0  0  0  0  0  0
    3.5040    1.2626   -2.0175 H   0  0  0  0  0  0  0  0  0  0  0  0
    0.7497   -2.8955    1.7618 H   0  0  0  0  0  0  0  0  0  0  0  0
   -3.0715   -0.5123   -1.5361 H   0  0  0  0  0  0  0  0  0  0  0  0
   -1.9768    1.2774   -1.8979 H   0  0  0  0  0  0  0  0  0  0  0  0
   -4.1065    2.2014   -1.6535 H   0  0  0  0  0  0  0  0  0  0  0  0
   -4.8704    3.5095    0.0143 H   0  0  0  0  0  0  0  0  0  0  0  0
   -2.4608    3.1035    1.8206 H   0  0  0  0  0  0  0  0  0  0  0  0
   -3.3554    0.6500    1.9391 H   0  0  0  0  0  0  0  0  0  0  0  0
   -1.2545    1.5567    0.9407 H   0  0  0  0  0  0  0  0  0  0  0  0
   -0.3420   -0.6178   -1.4846 H   0  0  0  0  0  0  0  0  0  0  0  0
    0.4479    0.4713    1.1311 H   0  0  0  0  0  0  0  0  0  0  0  0
    1.8431   -0.9885   -0.8887 H   0  0  0  0  0  0  0  0  0  0  0  0
    2.4143   -0.8377    2.1173 H   0  0  0  0  0  0  0  0  0  0  0  0
    0.0765   -1.3939    2.2303 H   0  0  0  0  0  0  0  0  0  0  0  0
    0.5737   -2.5148   -0.5928 H   0  0  0  0  0  0  0  0  0  0  0  0
   -1.8039   -2.4932    1.2120 H   0  0  0  0  0  0  0  0  0  0  0  0
   -1.5060   -2.4256   -1.8201 H   0  0  0  0  0  0  0  0  0  0  0  0
   -3.5978   -1.1079   -0.0975 H   0  0  0  0  0  0  0  0  0  0  0  0
   -3.8634   -3.1149   -2.0475 H   0  0  0  0  0  0  0  0  0  0  0  0
   -4.6850   -4.1309    0.1053 H   0  0  0  0  0  0  0  0  0  0  0  0
   -0.5273   -4.2584   -0.6773 H   0  0  0  0  0  0  0  0  0  0  0  0
   -1.8867    1.4586   -1.8631 H   0  0  0  0  0  0  0  0  0  0  0  0
   -4.0667    2.2963   -1.6951 H   0  0  0  0  0  0  0  0  0  0  0  0
   -4.9513    3.4942    0.0098 H   0  0  0  0  0  0  0  0  0  0  0  0
   -2.5128    3.1639    1.8415 H   0  0  0  0  0  0  0  0  0  0  0  0
   -3.4307    0.6592    1.8912 H   0  0  0  0  0  0  0  0  0  0  0  0
   -1.2576    1.5817    0.9972 H   0  0  0  0  0  0  0  0  0  0  0  0
   -0.3648   -0.5744   -1.5294 H   0  0  0  0  0  0  0  0  0  0  0  0
    0.5054    0.5036    1.0713 H   0  0  0  0  0  0  0  0  0  0  0  0
    1.8022   -0.9599   -1.0289 H   0  0  0  0  0  0  0  0  0  0  0  0
    2.5771   -0.9971    1.9171 H   0  0  0  0  0  0  0  0  0  0  0  0
    0.1528   -1.2620    2.1368 H   0  0  0  0  0  0  0  0  0  0  0  0
    0.5115   -2.4741   -0.6633 H   0  0  0  0  0  0  0  0  0  0  0  0
   -1.8115   -2.5278    1.2712 H   0  0  0  0  0  0  0  0  0  0  0  0
   -1.7621   -2.4701   -1.7961 H   0  0  0  0  0  0  0  0  0  0  0  0
   -3.6000   -1.0481    0.1600 H   0  0  0  0  0  0  0  0  0  0  0  0
   -3.9751   -3.2413    0.1808 H   0  0  0  0  0  0  0  0  0  0  0  0
   -3.3458   -5.2043   -0.2478 H   0  0  0  0  0  0  0  0  0  0  0  0
   -0.7670   -4.2477   -0.7726 H   0  0  0  0  0  0  0  0  0  0  0  0
  1  2  1  0
  2  3  1  0
  3  4  1  0
  3  5  1  0
  5  6  1  0
  6  7  1  0
  1  8  1  0
  6  8  1  0
  8  9  1  0
  9 10  1  0
 10 11  1  0
 11 12  1  0
 12 13  1  0
 13 14  1  0
 14 15  1  0
 15 16  1  0
 16 17  1  0
 15 18  1  0
 16 18  1  0
 13 19  1  0
 18 19  1  0
 12 20  1  0
 20 21  1  0
 10 22  1  0
 21 22  1  0
 22 23  1  0
 23 24  1  0
  9 25  1  0
 24 25  1  0
 24 26  1  0
 26 27  1  0
 26 28  1  0
 23 29  1  0
 20 30  1  0
  1 31  1  0
  2 32  1  0
  5 33  1  0
 14 34  1  0
 14 35  1  0
 15 36  1  6
 16 37  1  0
 17 38  1  0
 17 39  1  0
 18 40  1  6
 19 41  1  0
 19 42  1  0
 21 43  1  0
 25 44  1  0
 45 46  1  0
 46 47  1  0
 47 48  1  0
 47 49  1  0
 49 50  1  0
 50 51  1  0
 45 52  1  0
 50 52  1  0
 52 53  1  0
 53 54  1  0
 54 55  1  0
 55 56  1  0
 56 57  1  0
 57 58  1  0
 58 59  1  0
 59 60  1  0
 60 61  1  0
 59 62  1  0
 60 62  1  0
 57 63  1  0
 62 63  1  0
 56 64  1  0
 64 65  1  0
 54 66  1  0
 65 66  1  0
 66 67  1  0
 67 68  1  0
 53 69  1  0
 68 69  1  0
 68 70  1  0
 70 71  1  0
 70 72  1  0
 67 73  1  0
 64 74  1  0
 45 75  1  0
 46 76  1  0
 49 77  1  0
 58 78  1  0
 58 79  1  0
 59 80  1  6
 60 81  1  0
 61 82  1  0
 61 83  1  0
 62 84  1  6
 63 85  1  0
 63 86  1  0
 65 87  1  0
 69 88  1  0
  1 89  1  0
  2 90  1  0
  3 91  1  0
  5 92  1  0
  6 93  1  0
  8 94  1  0
 10 95  1  0
 11 96  1  0
 12 97  1  0
 20 98  1  0
 21 99  1  0
 22100  1  0
 23101  1  0
 24102  1  0
 25103  1  0
 26104  1  0
 27105  1  0
 29106  1  0
 45107  1  0
 46108  1  0
 47109  1  0
 49110  1  0
 50111  1  0
 52112  1  0
 54113  1  0
 55114  1  0
 56115  1  0
 64116  1  0
 65117  1  0
 66118  1  0
 67119  1  0
 68120  1  0
 69121  1  0
 70122  1  0
 72123  1  0
 73124  1  0
M  CHG  2  28  -1  71  -1
M  END
>  <PDBID>  (1) 
4Z2E

>  <PDB ID>  (1) 
4Z2E

>  <Generic Name>  (1) 
Trovafloxacin

>  <Brand Name>  (1) 
Trovan I.V.#Trovan Tablets 100mg#Trovan Tablets 200mg#Trovan

>  <DrugBank ID>  (1) 
DB00685

>  <ATC Codes>  (1) 
J01MA13

>  <Ligand ID>  (1) 
TR6

>  <Target Name>  (1) 
DNA gyrase subunit A

>  <UniProt ID>  (1) 
P43700

>  <PDB ID.1>  (1) 
4Z2E

>  <Seq. Identity>  (1) 
50%

$$$$
