PDB_DB00398_03
     RDKit          3D

 70 72  0  0  0  0  0  0  0  0999 V2000
    6.2508   -0.1324   -0.5130 C   0  0  0  0  0  0  0  0  0  0  0  0
    5.0102    0.7129   -0.3422 C   0  0  2  0  0  0  0  0  0  0  0  0
    4.7653    1.1755    1.0555 C   0  0  0  0  0  0  0  0  0  0  0  0
    5.9453    1.9452    1.6214 C   0  0  0  0  0  0  0  0  0  0  0  0
    3.3409   -1.0468   -0.5294 C   0  0  0  0  0  0  0  0  0  0  0  0
    1.0514   -0.5220   -1.1920 C   0  0  0  0  0  0  0  0  0  0  0  0
    0.5226   -0.2591    0.1692 C   0  0  0  0  0  0  0  0  0  0  0  0
   -0.6469   -1.2263    0.4266 C   0  0  0  0  0  0  0  0  0  0  0  0
   -1.7753   -0.6813   -0.4052 C   0  0  0  0  0  0  0  0  0  0  0  0
   -1.4009   -0.8250   -1.8510 C   0  0  0  0  0  0  0  0  0  0  0  0
    0.0172   -0.8300   -2.2171 C   0  0  0  0  0  0  0  0  0  0  0  0
   -2.9772   -1.3508   -0.2060 O   0  0  0  0  0  0  0  0  0  0  0  0
   -4.5274   -1.0426    1.5713 C   0  0  0  0  0  0  0  0  0  0  0  0
   -5.8782   -1.6799    1.5224 C   0  0  0  0  0  0  0  0  0  0  0  0
   -6.4131   -0.1001   -0.2414 C   0  0  0  0  0  0  0  0  0  0  0  0
   -5.0662   -0.4158   -0.7961 C   0  0  0  0  0  0  0  0  0  0  0  0
   -6.1524    2.3290   -0.4683 N   0  0  0  0  0  0  0  0  0  0  0  0
   -6.8991    2.4975   -1.6733 C   0  0  0  0  0  0  0  0  0  0  0  0
    7.2177    1.6362    0.8630 C   0  0  0  0  0  0  0  0  0  0  0  0
    7.2390    0.1347    0.6324 C   0  0  0  0  0  0  0  0  0  0  0  0
    8.5897   -0.3546    0.1570 C   0  0  0  0  0  0  0  0  0  0  0  0
    8.4566   -1.7092   -0.1112 F   0  0  0  0  0  0  0  0  0  0  0  0
    8.8395    0.2500   -1.0703 F   0  0  0  0  0  0  0  0  0  0  0  0
    9.5828   -0.0854    1.0652 F   0  0  0  0  0  0  0  0  0  0  0  0
    8.6284    2.1574    1.8146 Cl  0  0  0  0  0  0  0  0  0  0  0  0
    3.8389    0.2169   -0.9569 N   0  0  0  0  0  0  0  0  0  0  0  0
    2.1463   -1.4404   -1.1985 N   0  0  0  0  0  0  0  0  0  0  0  0
    3.3004   -1.2920    0.8100 O   0  0  0  0  0  0  0  0  0  0  0  0
   -4.0034   -0.5620    0.2690 C   0  0  0  0  0  0  0  0  0  0  0  0
   -6.8293   -1.1352    0.6397 N   0  0  0  0  0  0  0  0  0  0  0  0
   -6.5499    1.2524    0.3727 C   0  0  0  0  0  0  0  0  0  0  0  0
   -7.9150    1.4274    0.6821 O   0  0  0  0  0  0  0  0  0  0  0  0
    6.8082    0.1099   -1.4410 H   0  0  0  0  0  0  0  0  0  0  0  0
    6.0417   -1.2115   -0.5285 H   0  0  0  0  0  0  0  0  0  0  0  0
    5.2651    1.6724   -0.9135 H   0  0  0  0  0  0  0  0  0  0  0  0
    3.9269    1.9224    0.9965 H   0  0  0  0  0  0  0  0  0  0  0  0
    4.4561    0.4235    1.7759 H   0  0  0  0  0  0  0  0  0  0  0  0
    5.7714    3.0379    1.6595 H   0  0  0  0  0  0  0  0  0  0  0  0
    6.1198    1.6192    2.6657 H   0  0  0  0  0  0  0  0  0  0  0  0
    4.1338   -1.7959   -0.9272 H   0  0  0  0  0  0  0  0  0  0  0  0
    1.5136    0.4704   -1.5254 H   0  0  0  0  0  0  0  0  0  0  0  0
    1.2966   -0.3451    0.9247 H   0  0  0  0  0  0  0  0  0  0  0  0
    0.0510    0.7580    0.1489 H   0  0  0  0  0  0  0  0  0  0  0  0
   -0.3362   -2.2105   -0.0206 H   0  0  0  0  0  0  0  0  0  0  0  0
   -0.8685   -1.2730    1.4935 H   0  0  0  0  0  0  0  0  0  0  0  0
   -1.8687    0.3978   -0.1350 H   0  0  0  0  0  0  0  0  0  0  0  0
   -1.8844    0.0683   -2.3715 H   0  0  0  0  0  0  0  0  0  0  0  0
   -1.9564   -1.7095   -2.2658 H   0  0  0  0  0  0  0  0  0  0  0  0
    0.1854   -0.2267   -3.1656 H   0  0  0  0  0  0  0  0  0  0  0  0
    0.2582   -1.8837   -2.5789 H   0  0  0  0  0  0  0  0  0  0  0  0
   -3.8172   -1.8265    1.9645 H   0  0  0  0  0  0  0  0  0  0  0  0
   -4.5020   -0.2447    2.3513 H   0  0  0  0  0  0  0  0  0  0  0  0
   -6.3127   -1.6711    2.5638 H   0  0  0  0  0  0  0  0  0  0  0  0
   -5.7739   -2.7802    1.2925 H   0  0  0  0  0  0  0  0  0  0  0  0
   -7.1239   -0.1230   -1.1225 H   0  0  0  0  0  0  0  0  0  0  0  0
   -5.1497   -1.4195   -1.2885 H   0  0  0  0  0  0  0  0  0  0  0  0
   -4.7423    0.2840   -1.5977 H   0  0  0  0  0  0  0  0  0  0  0  0
   -5.8460    3.1835    0.0012 H   0  0  0  0  0  0  0  0  0  0  0  0
   -6.8325    3.5875   -1.9454 H   0  0  0  0  0  0  0  0  0  0  0  0
   -7.9818    2.3169   -1.4572 H   0  0  0  0  0  0  0  0  0  0  0  0
   -6.5790    1.8419   -2.5093 H   0  0  0  0  0  0  0  0  0  0  0  0
    7.2231    2.1184   -0.1327 H   0  0  0  0  0  0  0  0  0  0  0  0
    6.9217   -0.3569    1.5697 H   0  0  0  0  0  0  0  0  0  0  0  0
    3.9522    0.1983   -1.9961 H   0  0  0  0  0  0  0  0  0  0  0  0
    1.7989   -2.3638   -0.7941 H   0  0  0  0  0  0  0  0  0  0  0  0
    3.6040   -2.1940    1.0781 H   0  0  0  0  0  0  0  0  0  0  0  0
   -3.5961    0.4680    0.4056 H   0  0  0  0  0  0  0  0  0  0  0  0
   -7.4439   -1.8287    0.1825 H   0  0  0  0  0  0  0  0  0  0  0  0
   -6.0208    1.3579    1.3403 H   0  0  0  0  0  0  0  0  0  0  0  0
   -8.4004    0.5837    0.6569 H   0  0  0  0  0  0  0  0  0  0  0  0
  1  2  1  0
  2  3  1  0
  3  4  1  0
  6  7  1  0
  7  8  1  0
  8  9  1  0
  9 10  1  0
  6 11  1  0
 10 11  1  0
  9 12  1  0
 13 14  1  0
 15 16  1  0
 17 18  1  0
  4 19  1  0
  1 20  1  0
 19 20  1  0
 20 21  1  0
 21 22  1  0
 21 23  1  0
 21 24  1  0
 19 25  1  0
  2 26  1  0
  5 26  1  0
  5 27  1  0
  6 27  1  0
  5 28  1  0
 12 29  1  0
 13 29  1  0
 16 29  1  0
 14 30  1  0
 15 30  1  0
 15 31  1  0
 17 31  1  0
 31 32  1  0
  1 33  1  0
  1 34  1  0
  2 35  1  6
  3 36  1  0
  3 37  1  0
  4 38  1  0
  4 39  1  0
  5 40  1  0
  6 41  1  0
  7 42  1  0
  7 43  1  0
  8 44  1  0
  8 45  1  0
  9 46  1  0
 10 47  1  0
 10 48  1  0
 11 49  1  0
 11 50  1  0
 13 51  1  0
 13 52  1  0
 14 53  1  0
 14 54  1  0
 15 55  1  0
 16 56  1  0
 16 57  1  0
 17 58  1  0
 18 59  1  0
 18 60  1  0
 18 61  1  0
 19 62  1  0
 20 63  1  0
 26 64  1  0
 27 65  1  0
 28 66  1  0
 29 67  1  0
 30 68  1  0
 31 69  1  0
 32 70  1  0
M  END
>  <PDBID>  (1) 
3WZE

>  <PDB ID>  (1) 
3WZE

>  <Generic Name>  (1) 
Sorafenib

>  <Brand Name>  (1) 
Nexavar

>  <DrugBank ID>  (1) 
DB00398

>  <ATC Codes>  (1) 
L01XE05

>  <Ligand ID>  (1) 
BAX

>  <Target Name>  (1) 
Vascular endothelial growth factor receptor 3

>  <UniProt ID>  (1) 
P35916

>  <PDB ID.1>  (1) 
3WZE

>  <Seq. Identity>  (1) 
67%

$$$$
