PDB_DB06700_07
     RDKit          3D

 50 51  0  0  0  0  0  0  0  0999 V2000
   -2.4442   -0.0167   -1.2053 O   0  0  0  0  0  0  0  0  0  0  0  0
   -1.3830   -0.4499   -0.3374 C   0  0  0  0  0  0  0  0  0  0  0  0
   -1.0795   -1.7956   -0.8885 C   0  0  0  0  0  0  0  0  0  0  0  0
   -2.0582   -0.5197    1.0280 C   0  0  0  0  0  0  0  0  0  0  0  0
   -2.3273   -1.9764    1.4087 C   0  0  0  0  0  0  0  0  0  0  0  0
   -3.1311   -2.6087    0.2889 C   0  0  0  0  0  0  0  0  0  0  0  0
   -2.4541   -2.4935   -1.0466 C   0  0  0  0  0  0  0  0  0  0  0  0
   -0.3446    0.6050   -0.4504 C   0  0  1  0  0  0  0  0  0  0  0  0
   -0.8834    1.9171   -0.0339 C   0  0  0  0  0  0  0  0  0  0  0  0
    0.0109    3.0495   -0.1045 N   0  0  0  0  0  0  0  0  0  0  0  0
   -0.8371    4.2869   -0.2338 C   0  0  0  0  0  0  0  0  0  0  0  0
    0.6881    3.3108    1.1722 C   0  0  0  0  0  0  0  0  0  0  0  0
    1.0662    0.3519   -0.2437 C   0  0  0  0  0  0  0  0  0  0  0  0
    1.6436   -0.6348   -1.3044 C   0  0  0  0  0  0  0  0  0  0  0  0
    3.1595   -0.4394   -1.1988 C   0  0  0  0  0  0  0  0  0  0  0  0
    3.5596   -1.2663    0.0137 C   0  0  0  0  0  0  0  0  0  0  0  0
    4.6560   -0.7085    0.6465 O   0  0  0  0  0  0  0  0  0  0  0  0
    2.3728   -1.4687    0.9332 C   0  0  0  0  0  0  0  0  0  0  0  0
    1.5503   -0.2010    1.0634 C   0  0  0  0  0  0  0  0  0  0  0  0
   -3.1466    0.4490   -0.7272 H   0  0  0  0  0  0  0  0  0  0  0  0
   -0.7172   -1.7086   -1.9104 H   0  0  0  0  0  0  0  0  0  0  0  0
   -0.5376   -2.4690   -0.2137 H   0  0  0  0  0  0  0  0  0  0  0  0
   -1.5226   -0.0081    1.8269 H   0  0  0  0  0  0  0  0  0  0  0  0
   -3.0783   -0.0442    1.0261 H   0  0  0  0  0  0  0  0  0  0  0  0
   -2.9891   -1.9341    2.2995 H   0  0  0  0  0  0  0  0  0  0  0  0
   -1.4165   -2.5332    1.6365 H   0  0  0  0  0  0  0  0  0  0  0  0
   -3.1939   -3.6986    0.5325 H   0  0  0  0  0  0  0  0  0  0  0  0
   -4.1551   -2.2289    0.2649 H   0  0  0  0  0  0  0  0  0  0  0  0
   -3.0366   -1.8520   -1.7285 H   0  0  0  0  0  0  0  0  0  0  0  0
   -2.3137   -3.4589   -1.5589 H   0  0  0  0  0  0  0  0  0  0  0  0
   -0.3301    0.7679   -1.6596 H   0  0  0  0  0  0  0  0  0  0  0  0
   -1.7826    2.2286   -0.6468 H   0  0  0  0  0  0  0  0  0  0  0  0
   -1.2938    1.8372    1.0308 H   0  0  0  0  0  0  0  0  0  0  0  0
   -1.2271    4.3803   -1.2567 H   0  0  0  0  0  0  0  0  0  0  0  0
   -0.1268    5.1120   -0.0394 H   0  0  0  0  0  0  0  0  0  0  0  0
   -1.5826    4.2503    0.5585 H   0  0  0  0  0  0  0  0  0  0  0  0
    1.0584    2.4349    1.6459 H   0  0  0  0  0  0  0  0  0  0  0  0
   -0.0645    3.8116    1.8615 H   0  0  0  0  0  0  0  0  0  0  0  0
    1.4780    4.0603    0.9298 H   0  0  0  0  0  0  0  0  0  0  0  0
    1.6233    1.2856   -0.4366 H   0  0  0  0  0  0  0  0  0  0  0  0
    1.2557   -0.3650   -2.2957 H   0  0  0  0  0  0  0  0  0  0  0  0
    1.4713   -1.6688   -1.0645 H   0  0  0  0  0  0  0  0  0  0  0  0
    3.6839   -0.7133   -2.1100 H   0  0  0  0  0  0  0  0  0  0  0  0
    3.3431    0.6199   -0.9358 H   0  0  0  0  0  0  0  0  0  0  0  0
    3.8532   -2.2656   -0.3644 H   0  0  0  0  0  0  0  0  0  0  0  0
    5.2410   -1.3842    1.0985 H   0  0  0  0  0  0  0  0  0  0  0  0
    1.7946   -2.3709    0.7562 H   0  0  0  0  0  0  0  0  0  0  0  0
    2.8429   -1.6234    1.9568 H   0  0  0  0  0  0  0  0  0  0  0  0
    2.2941    0.5183    1.5518 H   0  0  0  0  0  0  0  0  0  0  0  0
    0.8107   -0.3713    1.8331 H   0  0  0  0  0  0  0  0  0  0  0  0
  2  1  1  0
  2  3  1  0
  2  4  1  0
  4  5  1  0
  5  6  1  0
  3  7  1  0
  6  7  1  0
  2  8  1  0
  8  9  1  0
  9 10  1  0
 10 11  1  0
 10 12  1  0
  8 13  1  0
 13 14  1  0
 14 15  1  0
 15 16  1  0
 16 17  1  0
 16 18  1  0
 13 19  1  0
 18 19  1  0
  1 20  1  0
  3 21  1  0
  3 22  1  0
  4 23  1  0
  4 24  1  0
  5 25  1  0
  5 26  1  0
  6 27  1  0
  6 28  1  0
  7 29  1  0
  7 30  1  0
  8 31  1  6
  9 32  1  0
  9 33  1  0
 11 34  1  0
 11 35  1  0
 11 36  1  0
 12 37  1  0
 12 38  1  0
 12 39  1  0
 13 40  1  0
 14 41  1  0
 14 42  1  0
 15 43  1  0
 15 44  1  0
 16 45  1  0
 17 46  1  0
 18 47  1  0
 18 48  1  0
 19 49  1  0
 19 50  1  0
M  END
>  <PDBID>  (1) 
4MM7

>  <PDB ID>  (1) 
4MM7

>  <Generic Name>  (1) 
Desvenlafaxine

>  <Brand Name>  (1) 
Desvenlafaxine#Desvenlafaxine Extended-release#Desvenlafaxine Succinate#Gd-desvenlafaxine#Khedezla Extended-release#Pristiq#Pristiq Extended Release#Pristiq Extended-release#Pristiq Extended-release Extended-release#Zyven-OD

>  <DrugBank ID>  (1) 
DB06700

>  <ATC Codes>  (1) 
N06AX23

>  <Ligand ID>  (1) 
29J

>  <Target Name>  (1) 
Sodium-dependent noradrenaline transporter

>  <UniProt ID>  (1) 
P23975

>  <PDB ID.1>  (1) 
4MM7

>  <Seq. Identity>  (1) 
30%

$$$$
