PDB_DB01045_06
     RDKit          3D

141145  0  0  0  0  0  0  0  0999 V2000
    2.8541    0.7278    1.5907 C   0  0  0  0  0  0  0  0  0  0  0  0
    3.2805    1.3845    0.2999 C   0  0  2  0  0  0  0  0  0  0  0  0
    4.0455    0.3445   -0.4764 C   0  0  0  0  0  0  0  0  0  0  0  0
    3.3666   -0.9568   -0.6545 C   0  0  0  0  0  0  0  0  0  0  0  0
    1.1413   -1.9316   -0.4372 C   0  0  0  0  0  0  0  0  0  0  0  0
   -0.2032   -1.5259    0.1125 C   0  0  0  0  0  0  0  0  0  0  0  0
   -0.2667   -1.4654    1.6094 C   0  0  0  0  0  0  0  0  0  0  0  0
    0.9019   -0.7411    2.2412 C   0  0  0  0  0  0  0  0  0  0  0  0
    1.7539   -0.2303    1.1455 C   0  0  0  0  0  0  0  0  0  0  0  0
    2.3084   -1.3409    0.3049 C   0  0  0  0  0  0  0  0  0  0  0  0
    1.0313   -3.4364   -0.3119 C   0  0  0  0  0  0  0  0  0  0  0  0
   -0.4247   -3.5987   -0.7611 C   0  0  2  0  0  0  0  0  0  0  0  0
   -0.3742   -3.5767   -2.2718 C   0  0  0  0  0  0  0  0  0  0  0  0
   -1.5868   -0.8726    2.0253 C   0  0  0  0  0  0  0  0  0  0  0  0
    3.3417    3.7480    0.7573 C   0  0  0  0  0  0  0  0  0  0  0  0
    2.3446    4.1175   -0.2898 C   0  0  1  0  0  0  0  0  0  0  0  0
    0.9405    4.1370    0.2660 C   0  0  0  0  0  0  0  0  0  0  0  0
   -0.0445    3.4561   -0.6391 C   0  0  0  0  0  0  0  0  0  0  0  0
   -1.3140    3.1646    0.1285 C   0  0  0  0  0  0  0  0  0  0  0  0
   -2.5134    3.8468   -0.4609 C   0  0  1  0  0  0  0  0  0  0  0  0
   -3.6951    2.9991   -0.6984 C   0  0  1  0  0  0  0  0  0  0  0  0
   -4.0532    2.0118    0.3550 C   0  0  2  0  0  0  0  0  0  0  0  0
   -5.3418    1.3218   -0.0886 C   0  0  2  0  0  0  0  0  0  0  0  0
   -5.5052   -0.0255    0.5725 C   0  0  2  0  0  0  0  0  0  0  0  0
   -5.7397   -1.1235   -0.4444 C   0  0  1  0  0  0  0  0  0  0  0  0
   -4.5002   -1.8573   -0.8333 C   0  0  1  0  0  0  0  0  0  0  0  0
   -4.2299   -3.0482    0.0251 C   0  0  2  0  0  0  0  0  0  0  0  0
   -3.2741   -4.0002   -0.7047 C   0  0  0  0  0  0  0  0  0  0  0  0
   -2.2623   -4.6190    0.2027 C   0  0  0  0  0  0  0  0  0  0  0  0
    2.5976    5.5171   -0.8682 C   0  0  0  0  0  0  0  0  0  0  0  0
   -2.8758    5.0815    0.3564 C   0  0  0  0  0  0  0  0  0  0  0  0
   -4.3810    2.6718    1.6863 C   0  0  0  0  0  0  0  0  0  0  0  0
   -6.6674   -0.0433    1.5400 C   0  0  0  0  0  0  0  0  0  0  0  0
   -4.6046   -2.2698   -2.3065 C   0  0  0  0  0  0  0  0  0  0  0  0
   -7.8325   -1.9997   -0.9260 C   0  0  2  0  0  0  0  0  0  0  0  0
   -8.1183   -3.3654   -1.5190 C   0  0  0  0  0  0  0  0  0  0  0  0
   -5.5509   -3.7682    1.7614 C   0  0  0  0  0  0  0  0  0  0  0  0
   11.2574    0.9162   -0.0664 C   0  0  0  0  0  0  0  0  0  0  0  0
    9.4997   -0.3075    1.0432 C   0  0  0  0  0  0  0  0  0  0  0  0
    8.0068   -0.1419    0.8324 C   0  0  0  0  0  0  0  0  0  0  0  0
    8.3829   -1.0100   -1.3837 C   0  0  0  0  0  0  0  0  0  0  0  0
    9.3512    0.1508   -1.3075 C   0  0  0  0  0  0  0  0  0  0  0  0
    5.4514    0.2308    0.0715 C   0  0  0  0  0  0  0  0  0  0  0  0
    4.0922    2.5521    0.4532 N   0  0  0  0  0  0  0  0  0  0  0  0
    6.2276   -0.7506   -0.6389 N   0  0  0  0  0  0  0  0  0  0  0  0
    7.5086   -0.9429   -0.2304 N   0  0  0  0  0  0  0  0  0  0  0  0
   10.2371   -0.0933   -0.1854 N   0  0  0  0  0  0  0  0  0  0  0  0
    2.2503    1.6063    2.4785 O   0  0  0  0  0  0  0  0  0  0  0  0
    1.6087   -1.5249    3.1322 O   0  0  0  0  0  0  0  0  0  0  0  0
   -1.0918   -2.4671   -0.3337 O   0  0  0  0  0  0  0  0  0  0  0  0
    1.2693   -3.9214    0.9467 O   0  0  0  0  0  0  0  0  0  0  0  0
   -0.9974   -4.7702   -0.3521 O   0  0  0  0  0  0  0  0  0  0  0  0
   -5.3962   -3.7062    0.3892 O   0  0  0  0  0  0  0  0  0  0  0  0
   -6.7531   -2.0044   -0.0724 O   0  0  0  0  0  0  0  0  0  0  0  0
   -8.9625   -1.5831   -0.2327 O   0  0  0  0  0  0  0  0  0  0  0  0
   -5.1863    1.0728   -1.4668 O   0  0  0  0  0  0  0  0  0  0  0  0
   -4.8084    3.8552   -0.8605 O   0  0  0  0  0  0  0  0  0  0  0  0
    4.2924    4.7968    0.8043 O   0  0  0  0  0  0  0  0  0  0  0  0
    2.8843   -1.0886   -1.9768 O   0  0  0  0  0  0  0  0  0  0  0  0
    3.6780    0.1578    2.0584 H   0  0  0  0  0  0  0  0  0  0  0  0
    2.3627    1.5785   -0.3101 H   0  0  0  0  0  0  0  0  0  0  0  0
    4.1690    0.7955   -1.5151 H   0  0  0  0  0  0  0  0  0  0  0  0
    4.1718   -1.7515   -0.5914 H   0  0  0  0  0  0  0  0  0  0  0  0
    1.1279   -1.6919   -1.5148 H   0  0  0  0  0  0  0  0  0  0  0  0
   -0.5174   -0.5233   -0.3018 H   0  0  0  0  0  0  0  0  0  0  0  0
   -0.2388   -2.5012    2.0039 H   0  0  0  0  0  0  0  0  0  0  0  0
    0.4657    0.1502    2.7757 H   0  0  0  0  0  0  0  0  0  0  0  0
    1.1009    0.3987    0.4710 H   0  0  0  0  0  0  0  0  0  0  0  0
    2.6552   -2.1432    1.0125 H   0  0  0  0  0  0  0  0  0  0  0  0
    1.7215   -3.8591   -1.0838 H   0  0  0  0  0  0  0  0  0  0  0  0
    0.6627   -3.6826   -2.6741 H   0  0  0  0  0  0  0  0  0  0  0  0
   -0.7811   -2.6327   -2.6881 H   0  0  0  0  0  0  0  0  0  0  0  0
   -0.9772   -4.4243   -2.6482 H   0  0  0  0  0  0  0  0  0  0  0  0
   -2.0995   -1.5203    2.7803 H   0  0  0  0  0  0  0  0  0  0  0  0
   -1.4427    0.1474    2.4483 H   0  0  0  0  0  0  0  0  0  0  0  0
   -2.2698   -0.8468    1.1535 H   0  0  0  0  0  0  0  0  0  0  0  0
    2.8888    3.7299    1.7664 H   0  0  0  0  0  0  0  0  0  0  0  0
    2.3470    3.4415   -1.1671 H   0  0  0  0  0  0  0  0  0  0  0  0
    0.8757    3.6389    1.2549 H   0  0  0  0  0  0  0  0  0  0  0  0
    0.5864    5.1792    0.4253 H   0  0  0  0  0  0  0  0  0  0  0  0
    0.3474    2.5622   -1.1529 H   0  0  0  0  0  0  0  0  0  0  0  0
   -0.3262    4.2147   -1.4242 H   0  0  0  0  0  0  0  0  0  0  0  0
   -1.4148    2.0682    0.1937 H   0  0  0  0  0  0  0  0  0  0  0  0
   -1.2069    3.5309    1.1695 H   0  0  0  0  0  0  0  0  0  0  0  0
   -2.1766    4.2408   -1.4676 H   0  0  0  0  0  0  0  0  0  0  0  0
   -3.6124    2.4387   -1.6635 H   0  0  0  0  0  0  0  0  0  0  0  0
   -3.3163    1.1950    0.4763 H   0  0  0  0  0  0  0  0  0  0  0  0
   -6.1924    2.0046    0.0985 H   0  0  0  0  0  0  0  0  0  0  0  0
   -4.5916   -0.2503    1.1405 H   0  0  0  0  0  0  0  0  0  0  0  0
   -6.1223   -0.6315   -1.3906 H   0  0  0  0  0  0  0  0  0  0  0  0
   -3.6097   -1.1726   -0.7990 H   0  0  0  0  0  0  0  0  0  0  0  0
   -3.7327   -2.7326    0.9636 H   0  0  0  0  0  0  0  0  0  0  0  0
   -2.8547   -3.4516   -1.5586 H   0  0  0  0  0  0  0  0  0  0  0  0
   -3.9499   -4.7840   -1.1584 H   0  0  0  0  0  0  0  0  0  0  0  0
   -2.2548   -4.0699    1.1587 H   0  0  0  0  0  0  0  0  0  0  0  0
   -2.6210   -5.6532    0.4398 H   0  0  0  0  0  0  0  0  0  0  0  0
    3.5144    5.4296   -1.5025 H   0  0  0  0  0  0  0  0  0  0  0  0
    2.7269    6.2409   -0.0487 H   0  0  0  0  0  0  0  0  0  0  0  0
    1.7161    5.7413   -1.5102 H   0  0  0  0  0  0  0  0  0  0  0  0
   -2.2142    5.0994    1.2724 H   0  0  0  0  0  0  0  0  0  0  0  0
   -3.9369    5.1423    0.5935 H   0  0  0  0  0  0  0  0  0  0  0  0
   -2.6126    6.0292   -0.1787 H   0  0  0  0  0  0  0  0  0  0  0  0
   -4.5847    1.8934    2.4402 H   0  0  0  0  0  0  0  0  0  0  0  0
   -3.5664    3.2884    2.0711 H   0  0  0  0  0  0  0  0  0  0  0  0
   -5.2675    3.3280    1.5324 H   0  0  0  0  0  0  0  0  0  0  0  0
   -7.4927    0.5679    1.1213 H   0  0  0  0  0  0  0  0  0  0  0  0
   -7.0757   -1.0635    1.6887 H   0  0  0  0  0  0  0  0  0  0  0  0
   -6.3728    0.3025    2.5630 H   0  0  0  0  0  0  0  0  0  0  0  0
   -3.6505   -2.0908   -2.8476 H   0  0  0  0  0  0  0  0  0  0  0  0
   -5.3444   -1.5918   -2.7728 H   0  0  0  0  0  0  0  0  0  0  0  0
   -4.9787   -3.3005   -2.4028 H   0  0  0  0  0  0  0  0  0  0  0  0
   -7.7069   -1.2861   -1.7754 H   0  0  0  0  0  0  0  0  0  0  0  0
   -7.9265   -4.1179   -0.7446 H   0  0  0  0  0  0  0  0  0  0  0  0
   -9.2220   -3.3815   -1.7441 H   0  0  0  0  0  0  0  0  0  0  0  0
   -7.5324   -3.5628   -2.4389 H   0  0  0  0  0  0  0  0  0  0  0  0
   -6.5149   -4.3095    1.9619 H   0  0  0  0  0  0  0  0  0  0  0  0
   -5.5178   -2.7885    2.2508 H   0  0  0  0  0  0  0  0  0  0  0  0
   -4.7737   -4.4396    2.2245 H   0  0  0  0  0  0  0  0  0  0  0  0
   12.2774    0.4640    0.0779 H   0  0  0  0  0  0  0  0  0  0  0  0
   11.3229    1.4143   -1.0777 H   0  0  0  0  0  0  0  0  0  0  0  0
   11.0359    1.7130    0.6432 H   0  0  0  0  0  0  0  0  0  0  0  0
    9.7694   -1.2770    1.4985 H   0  0  0  0  0  0  0  0  0  0  0  0
    9.8131    0.4837    1.7605 H   0  0  0  0  0  0  0  0  0  0  0  0
    7.8206    0.9464    0.6857 H   0  0  0  0  0  0  0  0  0  0  0  0
    7.5102   -0.4413    1.7729 H   0  0  0  0  0  0  0  0  0  0  0  0
    7.7957   -0.9327   -2.3211 H   0  0  0  0  0  0  0  0  0  0  0  0
    8.9798   -1.9647   -1.3591 H   0  0  0  0  0  0  0  0  0  0  0  0
    8.7730    1.0635   -1.1089 H   0  0  0  0  0  0  0  0  0  0  0  0
    9.9613    0.2279   -2.2309 H   0  0  0  0  0  0  0  0  0  0  0  0
    5.4201   -0.0993    1.1260 H   0  0  0  0  0  0  0  0  0  0  0  0
    5.9454    1.2224    0.0487 H   0  0  0  0  0  0  0  0  0  0  0  0
    4.6661    2.6994   -0.4108 H   0  0  0  0  0  0  0  0  0  0  0  0
    6.1208   -0.5867   -1.6740 H   0  0  0  0  0  0  0  0  0  0  0  0
    2.4844    1.3017    3.3922 H   0  0  0  0  0  0  0  0  0  0  0  0
    2.5926   -1.3888    2.9928 H   0  0  0  0  0  0  0  0  0  0  0  0
    1.6625   -4.8294    0.8523 H   0  0  0  0  0  0  0  0  0  0  0  0
   -9.2847   -2.3152    0.3669 H   0  0  0  0  0  0  0  0  0  0  0  0
   -5.9743    1.3461   -1.9774 H   0  0  0  0  0  0  0  0  0  0  0  0
   -5.2804    3.7086   -1.6946 H   0  0  0  0  0  0  0  0  0  0  0  0
    4.7867    4.7437   -0.0518 H   0  0  0  0  0  0  0  0  0  0  0  0
    3.6114   -1.3821   -2.5805 H   0  0  0  0  0  0  0  0  0  0  0  0
  1  2  1  0
  2  3  1  0
  3  4  1  0
  5  6  1  0
  6  7  1  0
  7  8  1  0
  1  9  1  0
  8  9  1  0
  4 10  1  0
  5 10  1  0
  9 10  1  0
  5 11  1  0
 11 12  1  0
 12 13  1  6
  7 14  1  0
 15 16  1  0
 16 17  1  0
 17 18  1  0
 18 19  1  0
 19 20  1  0
 20 21  1  0
 21 22  1  0
 22 23  1  0
 23 24  1  0
 24 25  1  0
 25 26  1  0
 26 27  1  0
 27 28  1  0
 28 29  1  0
 16 30  1  0
 20 31  1  0
 22 32  1  0
 24 33  1  0
 26 34  1  0
 35 36  1  0
 39 40  1  0
 41 42  1  0
  3 43  1  0
  2 44  1  0
 15 44  1  0
 43 45  1  0
 40 46  1  0
 41 46  1  0
 45 46  1  0
 38 47  1  0
 39 47  1  0
 42 47  1  0
  1 48  1  0
  8 49  1  0
  6 50  1  0
 12 50  1  0
 11 51  1  0
 12 52  1  0
 29 52  1  0
 27 53  1  0
 37 53  1  0
 25 54  1  0
 35 54  1  0
 35 55  1  0
 23 56  1  0
 21 57  1  0
 15 58  1  0
  4 59  1  0
  1 60  1  0
  2 61  1  6
  3 62  1  0
  4 63  1  0
  5 64  1  0
  6 65  1  0
  7 66  1  0
  8 67  1  0
  9 68  1  0
 10 69  1  0
 11 70  1  0
 13 71  1  0
 13 72  1  0
 13 73  1  0
 14 74  1  0
 14 75  1  0
 14 76  1  0
 15 77  1  0
 16 78  1  6
 17 79  1  0
 17 80  1  0
 18 81  1  0
 18 82  1  0
 19 83  1  0
 19 84  1  0
 20 85  1  6
 21 86  1  6
 22 87  1  1
 23 88  1  6
 24 89  1  1
 25 90  1  6
 26 91  1  6
 27 92  1  1
 28 93  1  0
 28 94  1  0
 29 95  1  0
 29 96  1  0
 30 97  1  0
 30 98  1  0
 30 99  1  0
 31100  1  0
 31101  1  0
 31102  1  0
 32103  1  0
 32104  1  0
 32105  1  0
 33106  1  0
 33107  1  0
 33108  1  0
 34109  1  0
 34110  1  0
 34111  1  0
 35112  1  6
 36113  1  0
 36114  1  0
 36115  1  0
 37116  1  0
 37117  1  0
 37118  1  0
 38119  1  0
 38120  1  0
 38121  1  0
 39122  1  0
 39123  1  0
 40124  1  0
 40125  1  0
 41126  1  0
 41127  1  0
 42128  1  0
 42129  1  0
 43130  1  0
 43131  1  0
 44132  1  0
 45133  1  0
 48134  1  0
 49135  1  0
 51136  1  0
 55137  1  0
 56138  1  0
 57139  1  0
 58140  1  0
 59141  1  0
M  END
>  <PDBID>  (1) 
5UAC

>  <PDB ID>  (1) 
5UAC

>  <Generic Name>  (1) 
Rifampicin

>  <Brand Name>  (1) 
Isonarif#Rifadin#Rifadin Cap 300mg#Rifadin IV#Rifadin IV Novaplus#Rifamate#Rifampin#Rifater#Rofact 150mg#Rofact 300mg#Rifadine#Rifaldin#Rifoldin#Rimactan#Rimactane#Rofact#Tubocin

>  <DrugBank ID>  (1) 
DB01045

>  <ATC Codes>  (1) 
J04AM02#J04AB02#J04AM06#J04AM05

>  <Ligand ID>  (1) 
RFP

>  <Target Name>  (1) 
DNA-directed RNA polymerase subunit beta

>  <UniProt ID>  (1) 
P0A8V2

>  <PDB ID.1>  (1) 
5UAC

>  <Seq. Identity>  (1) 
100%

$$$$
