PDB_DB00190_04
     RDKit          3D

 74 74  0  0  0  0  0  0  0  0999 V2000
   -1.6754    1.4721   -0.2139 N   0  0  0  0  0  0  0  0  0  0  0  0
   -2.5983    2.0920   -1.0727 N   0  0  0  0  0  0  0  0  0  0  0  0
   -1.8766    0.0455   -0.1474 C   0  0  2  0  0  0  0  0  0  0  0  0
   -0.8438   -0.5899    0.7003 C   0  0  0  0  0  0  0  0  0  0  0  0
   -1.8864   -0.4647   -1.5756 C   0  0  0  0  0  0  0  0  0  0  0  0
    0.5812   -0.4275    0.2546 C   0  0  0  0  0  0  0  0  0  0  0  0
    0.9987    1.0061    0.1997 C   0  0  0  0  0  0  0  0  0  0  0  0
    2.4935    1.2179    0.2641 C   0  0  0  0  0  0  0  0  0  0  0  0
    1.4563   -1.2572    1.1689 C   0  0  0  0  0  0  0  0  0  0  0  0
    2.9213   -1.1026    0.8534 C   0  0  0  0  0  0  0  0  0  0  0  0
    3.1548   -0.0513   -0.2195 C   0  0  0  0  0  0  0  0  0  0  0  0
    4.5273    0.1474   -0.3852 O   0  0  0  0  0  0  0  0  0  0  0  0
    2.8688    2.2675   -0.5547 O   0  0  0  0  0  0  0  0  0  0  0  0
   -3.2445   -0.3011    0.4286 C   0  0  0  0  0  0  0  0  0  0  0  0
   -3.3734    0.2170    1.7335 O   0  0  0  0  0  0  0  0  0  0  0  0
   -3.3652   -1.6836    0.5522 O   0  0  0  0  0  0  0  0  0  0  0  0
   -1.6754    1.4721   -0.2139 N   0  0  0  0  0  0  0  0  0  0  0  0
   -2.5983    2.0920   -1.0727 N   0  0  0  0  0  0  0  0  0  0  0  0
   -1.8766    0.0455   -0.1474 C   0  0  2  0  0  0  0  0  0  0  0  0
   -0.8438   -0.5899    0.7003 C   0  0  0  0  0  0  0  0  0  0  0  0
   -1.8864   -0.4647   -1.5756 C   0  0  0  0  0  0  0  0  0  0  0  0
    0.5812   -0.4275    0.2546 C   0  0  0  0  0  0  0  0  0  0  0  0
    0.9987    1.0061    0.1997 C   0  0  0  0  0  0  0  0  0  0  0  0
    2.4935    1.2179    0.2641 C   0  0  0  0  0  0  0  0  0  0  0  0
    1.4563   -1.2572    1.1689 C   0  0  0  0  0  0  0  0  0  0  0  0
    2.9213   -1.1026    0.8534 C   0  0  0  0  0  0  0  0  0  0  0  0
    3.1548   -0.0513   -0.2195 C   0  0  0  0  0  0  0  0  0  0  0  0
    4.5273    0.1474   -0.3852 O   0  0  0  0  0  0  0  0  0  0  0  0
    2.8688    2.2675   -0.5547 O   0  0  0  0  0  0  0  0  0  0  0  0
   -3.2445   -0.3011    0.4286 C   0  0  0  0  0  0  0  0  0  0  0  0
   -3.3734    0.2170    1.7335 O   0  0  0  0  0  0  0  0  0  0  0  0
   -3.3652   -1.6836    0.5522 O   0  0  0  0  0  0  0  0  0  0  0  0
   -1.7159    1.9140    0.7449 H   0  0  0  0  0  0  0  0  0  0  0  0
   -3.5776    1.9845   -0.7341 H   0  0  0  0  0  0  0  0  0  0  0  0
   -1.0942   -1.6814    0.8610 H   0  0  0  0  0  0  0  0  0  0  0  0
   -0.9173   -0.1690    1.7475 H   0  0  0  0  0  0  0  0  0  0  0  0
   -2.9034   -0.2602   -1.9746 H   0  0  0  0  0  0  0  0  0  0  0  0
   -1.1790    0.0723   -2.2273 H   0  0  0  0  0  0  0  0  0  0  0  0
   -1.7583   -1.5663   -1.5984 H   0  0  0  0  0  0  0  0  0  0  0  0
    0.7522   -0.8436   -0.7661 H   0  0  0  0  0  0  0  0  0  0  0  0
    0.6433    1.5178   -0.7153 H   0  0  0  0  0  0  0  0  0  0  0  0
    0.5767    1.5500    1.0938 H   0  0  0  0  0  0  0  0  0  0  0  0
    2.7971    1.4024    1.3355 H   0  0  0  0  0  0  0  0  0  0  0  0
    1.1864   -2.3199    0.9956 H   0  0  0  0  0  0  0  0  0  0  0  0
    1.2072   -1.0238    2.2224 H   0  0  0  0  0  0  0  0  0  0  0  0
    3.4194   -2.0459    0.5836 H   0  0  0  0  0  0  0  0  0  0  0  0
    3.4151   -0.7209    1.7722 H   0  0  0  0  0  0  0  0  0  0  0  0
    2.6855   -0.4253   -1.1478 H   0  0  0  0  0  0  0  0  0  0  0  0
    4.9621   -0.7005   -0.1456 H   0  0  0  0  0  0  0  0  0  0  0  0
    3.1133    3.0517    0.0234 H   0  0  0  0  0  0  0  0  0  0  0  0
   -4.0653    0.0558   -0.1962 H   0  0  0  0  0  0  0  0  0  0  0  0
   -3.3535   -0.4792    2.4194 H   0  0  0  0  0  0  0  0  0  0  0  0
   -4.3320   -1.9004    0.5960 H   0  0  0  0  0  0  0  0  0  0  0  0
   -1.7159    1.9140    0.7449 H   0  0  0  0  0  0  0  0  0  0  0  0
   -3.5776    1.9845   -0.7341 H   0  0  0  0  0  0  0  0  0  0  0  0
   -1.0942   -1.6814    0.8610 H   0  0  0  0  0  0  0  0  0  0  0  0
   -0.9173   -0.1690    1.7475 H   0  0  0  0  0  0  0  0  0  0  0  0
   -2.9034   -0.2602   -1.9746 H   0  0  0  0  0  0  0  0  0  0  0  0
   -1.1790    0.0723   -2.2273 H   0  0  0  0  0  0  0  0  0  0  0  0
   -1.7583   -1.5663   -1.5984 H   0  0  0  0  0  0  0  0  0  0  0  0
    0.7522   -0.8436   -0.7661 H   0  0  0  0  0  0  0  0  0  0  0  0
    0.6433    1.5178   -0.7153 H   0  0  0  0  0  0  0  0  0  0  0  0
    0.5767    1.5500    1.0938 H   0  0  0  0  0  0  0  0  0  0  0  0
    2.7971    1.4024    1.3355 H   0  0  0  0  0  0  0  0  0  0  0  0
    1.1864   -2.3199    0.9956 H   0  0  0  0  0  0  0  0  0  0  0  0
    1.2072   -1.0238    2.2224 H   0  0  0  0  0  0  0  0  0  0  0  0
    3.4194   -2.0459    0.5836 H   0  0  0  0  0  0  0  0  0  0  0  0
    3.4151   -0.7209    1.7722 H   0  0  0  0  0  0  0  0  0  0  0  0
    2.6855   -0.4253   -1.1478 H   0  0  0  0  0  0  0  0  0  0  0  0
    4.9621   -0.7005   -0.1456 H   0  0  0  0  0  0  0  0  0  0  0  0
    3.1133    3.0517    0.0234 H   0  0  0  0  0  0  0  0  0  0  0  0
   -4.0653    0.0558   -0.1962 H   0  0  0  0  0  0  0  0  0  0  0  0
   -3.3535   -0.4792    2.4194 H   0  0  0  0  0  0  0  0  0  0  0  0
   -4.3320   -1.9004    0.5960 H   0  0  0  0  0  0  0  0  0  0  0  0
  1  2  1  0
  3  1  1  6
  3  4  1  0
  3  5  1  0
  4  6  1  0
  6  7  1  0
  7  8  1  0
  6  9  1  0
  9 10  1  0
  8 11  1  0
 10 11  1  0
 11 12  1  0
  8 13  1  0
  3 14  1  0
 14 15  1  0
 14 16  1  0
 17 18  1  0
 19 17  1  6
 19 20  1  0
 19 21  1  0
 20 22  1  0
 22 23  1  0
 23 24  1  0
 22 25  1  0
 25 26  1  0
 24 27  1  0
 26 27  1  0
 27 28  1  0
 24 29  1  0
 19 30  1  0
 30 31  1  0
 30 32  1  0
  1 33  1  0
  2 34  1  0
  4 35  1  0
  4 36  1  0
  5 37  1  0
  5 38  1  0
  5 39  1  0
  6 40  1  0
  7 41  1  0
  7 42  1  0
  8 43  1  0
  9 44  1  0
  9 45  1  0
 10 46  1  0
 10 47  1  0
 11 48  1  0
 12 49  1  0
 13 50  1  0
 14 51  1  0
 15 52  1  0
 16 53  1  0
 17 54  1  0
 18 55  1  0
 20 56  1  0
 20 57  1  0
 21 58  1  0
 21 59  1  0
 21 60  1  0
 22 61  1  0
 23 62  1  0
 23 63  1  0
 24 64  1  0
 25 65  1  0
 25 66  1  0
 26 67  1  0
 26 68  1  0
 27 69  1  0
 28 70  1  0
 29 71  1  0
 30 72  1  0
 31 73  1  0
 32 74  1  0
M  END
>  <PDBID>  (1) 
1JS3

>  <PDB ID>  (1) 
1JS3

>  <Generic Name>  (1) 
Carbidopa

>  <Brand Name>  (1) 
Apo-levocarb - Tab 10mg/100mg#Apo-levocarb - Tab 25mg/250mg#Apo-levocarb CR#Apo-levocarb-tab 25mg/100mg#Carbidopa#Carbidopa Tablets, 25 mg#Carbidopa and Levodopa#Carbidopa, Levodopa and Entacapone#Carbidopa, Levodopa, and Entacapone#Dom-levo-carbidopa#Duodopa#Duopa#Lodosyn#Mint-levocarb#Nu-levocarb - Tab 10mg/100mg#Nu-levocarb - Tab 25 Mg/100 mg#Nu-levocarb - Tablets 25 Mg/250 mg#PMS-levocarb CR#Parcopa#Pro-lecarb-100/10 - Tab#Pro-lecarb-100/25 - Tab#Pro-levocarb - 100/25#Ratio-levodopa/carbidopa#Rytary#Sinemet#Sinemet 100/10#Sinemet 100/25#Sinemet 250/25#Sinemet CR#Sinemet CR 100/25#Sinemet CR 200/50#Stalevo#Teva-levocarbidopa

>  <DrugBank ID>  (1) 
DB00190

>  <ATC Codes>  (1) 
nan

>  <Ligand ID>  (1) 
142

>  <Target Name>  (1) 
Aromatic-L-amino-acid decarboxylase

>  <UniProt ID>  (1) 
P20711

>  <PDB ID.1>  (1) 
1JS3

>  <Seq. Identity>  (1) 
90%

$$$$
