PDB_DB08882_06
     RDKit          3D

170178  0  0  0  0  0  0  0  0999 V2000
   -1.4443    0.1469   -0.0978 C   0  0  0  0  0  0  0  0  0  0  0  0
   -2.7422   -0.1599    0.2812 N   0  0  0  0  0  0  0  0  0  0  0  0
   -1.1100    1.3413    0.8221 C   0  0  0  0  0  0  0  0  0  0  0  0
   -0.3447   -0.8005    0.0234 C   0  0  0  0  0  0  0  0  0  0  0  0
   -3.3906    1.0364    0.7042 C   0  0  0  0  0  0  0  0  0  0  0  0
   -3.1405   -1.3712    0.8258 C   0  0  0  0  0  0  0  0  0  0  0  0
   -2.3433    2.0583    0.8075 N   0  0  0  0  0  0  0  0  0  0  0  0
    0.0066    1.9861    0.2434 N   0  0  0  0  0  0  0  0  0  0  0  0
    0.8551   -0.2314    0.6321 N   0  0  0  0  0  0  0  0  0  0  0  0
    0.0442   -1.2862   -1.2340 O   0  0  0  0  0  0  0  0  0  0  0  0
   -4.3662    1.5556   -0.1959 N   0  0  0  0  0  0  0  0  0  0  0  0
   -3.1402   -2.4891   -0.1631 C   0  0  0  0  0  0  0  0  0  0  0  0
    1.1597    1.0994    0.3246 C   0  0  0  0  0  0  0  0  0  0  0  0
   -0.1760    2.3855   -1.1177 C   0  0  0  0  0  0  0  0  0  0  0  0
    1.9072   -1.1463    0.3044 C   0  0  0  0  0  0  0  0  0  0  0  0
   -4.9725    2.7753    0.2455 C   0  0  0  0  0  0  0  0  0  0  0  0
   -5.2584    0.6209   -0.7890 C   0  0  0  0  0  0  0  0  0  0  0  0
   -3.5659   -3.8081    0.4618 C   0  0  0  0  0  0  0  0  0  0  0  0
    1.8429    1.6267    1.4695 O   0  0  0  0  0  0  0  0  0  0  0  0
    3.2771   -0.8707    0.8292 C   0  0  0  0  0  0  0  0  0  0  0  0
   -6.4601    2.7707    0.3264 C   0  0  1  0  0  0  0  0  0  0  0  0
   -6.1901    1.3816   -1.7149 C   0  0  0  0  0  0  0  0  0  0  0  0
   -3.5234   -4.8601   -0.6251 C   0  0  0  0  0  0  0  0  0  0  0  0
    3.8013    0.3456    0.3644 N   0  0  0  0  0  0  0  0  0  0  0  0
    4.1098   -2.0310    0.7614 N   0  0  0  0  0  0  0  0  0  0  0  0
   -7.1392    2.2104   -0.8932 C   0  0  0  0  0  0  0  0  0  0  0  0
   -6.9757    2.1880    1.5519 N   0  0  0  0  0  0  0  0  0  0  0  0
    4.7697    0.2130   -0.7187 C   0  0  0  0  0  0  0  0  0  0  0  0
    5.3155   -1.9878    0.0537 C   0  0  0  0  0  0  0  0  0  0  0  0
    5.8886   -0.6216   -0.0693 C   0  0  0  0  0  0  0  0  0  0  0  0
    5.3466    1.5627   -1.0287 C   0  0  0  0  0  0  0  0  0  0  0  0
    6.3718   -2.8695    0.7354 C   0  0  0  0  0  0  0  0  0  0  0  0
    7.1788   -0.5029   -0.7899 C   0  0  0  0  0  0  0  0  0  0  0  0
    6.5954    1.8695   -0.2311 C   0  0  0  0  0  0  0  0  0  0  0  0
    7.7183    0.9032   -0.4992 C   0  0  0  0  0  0  0  0  0  0  0  0
   -1.4443    0.1469   -0.0978 C   0  0  0  0  0  0  0  0  0  0  0  0
   -2.7422   -0.1599    0.2812 N   0  0  0  0  0  0  0  0  0  0  0  0
   -1.1100    1.3413    0.8221 C   0  0  0  0  0  0  0  0  0  0  0  0
   -0.3447   -0.8005    0.0234 C   0  0  0  0  0  0  0  0  0  0  0  0
   -3.3906    1.0364    0.7042 C   0  0  0  0  0  0  0  0  0  0  0  0
   -3.1405   -1.3712    0.8258 C   0  0  0  0  0  0  0  0  0  0  0  0
   -2.3433    2.0583    0.8075 N   0  0  0  0  0  0  0  0  0  0  0  0
    0.0066    1.9861    0.2434 N   0  0  0  0  0  0  0  0  0  0  0  0
    0.8551   -0.2314    0.6321 N   0  0  0  0  0  0  0  0  0  0  0  0
    0.0442   -1.2862   -1.2340 O   0  0  0  0  0  0  0  0  0  0  0  0
   -4.3662    1.5556   -0.1959 N   0  0  0  0  0  0  0  0  0  0  0  0
   -3.1402   -2.4891   -0.1631 C   0  0  0  0  0  0  0  0  0  0  0  0
    1.1597    1.0994    0.3246 C   0  0  0  0  0  0  0  0  0  0  0  0
   -0.1760    2.3855   -1.1177 C   0  0  0  0  0  0  0  0  0  0  0  0
    1.9072   -1.1463    0.3044 C   0  0  0  0  0  0  0  0  0  0  0  0
   -4.9725    2.7753    0.2455 C   0  0  0  0  0  0  0  0  0  0  0  0
   -5.2584    0.6209   -0.7890 C   0  0  0  0  0  0  0  0  0  0  0  0
   -3.5659   -3.8081    0.4618 C   0  0  0  0  0  0  0  0  0  0  0  0
    1.8429    1.6267    1.4695 O   0  0  0  0  0  0  0  0  0  0  0  0
    3.2771   -0.8707    0.8292 C   0  0  0  0  0  0  0  0  0  0  0  0
   -6.4601    2.7707    0.3264 C   0  0  1  0  0  0  0  0  0  0  0  0
   -6.1901    1.3816   -1.7149 C   0  0  0  0  0  0  0  0  0  0  0  0
   -3.5234   -4.8601   -0.6251 C   0  0  0  0  0  0  0  0  0  0  0  0
    3.8013    0.3456    0.3644 N   0  0  0  0  0  0  0  0  0  0  0  0
    4.1098   -2.0310    0.7614 N   0  0  0  0  0  0  0  0  0  0  0  0
   -7.1392    2.2104   -0.8932 C   0  0  0  0  0  0  0  0  0  0  0  0
   -6.9757    2.1880    1.5519 N   0  0  0  0  0  0  0  0  0  0  0  0
    4.7697    0.2130   -0.7187 C   0  0  0  0  0  0  0  0  0  0  0  0
    5.3155   -1.9878    0.0537 C   0  0  0  0  0  0  0  0  0  0  0  0
    5.8886   -0.6216   -0.0693 C   0  0  0  0  0  0  0  0  0  0  0  0
    5.3466    1.5627   -1.0287 C   0  0  0  0  0  0  0  0  0  0  0  0
    6.3718   -2.8695    0.7354 C   0  0  0  0  0  0  0  0  0  0  0  0
    7.1788   -0.5029   -0.7899 C   0  0  0  0  0  0  0  0  0  0  0  0
    6.5954    1.8695   -0.2311 C   0  0  0  0  0  0  0  0  0  0  0  0
    7.7183    0.9032   -0.4992 C   0  0  0  0  0  0  0  0  0  0  0  0
   -1.4337    0.5773   -1.1308 H   0  0  0  0  0  0  0  0  0  0  0  0
   -0.8351    0.9637    1.8328 H   0  0  0  0  0  0  0  0  0  0  0  0
   -0.5571   -1.7131    0.6299 H   0  0  0  0  0  0  0  0  0  0  0  0
   -3.8270    0.8922    1.7244 H   0  0  0  0  0  0  0  0  0  0  0  0
   -4.2227   -1.2648    1.1561 H   0  0  0  0  0  0  0  0  0  0  0  0
   -2.6320   -1.6568    1.7857 H   0  0  0  0  0  0  0  0  0  0  0  0
   -2.4853    2.6682    1.6257 H   0  0  0  0  0  0  0  0  0  0  0  0
    0.3728   -0.6108   -1.8467 H   0  0  0  0  0  0  0  0  0  0  0  0
   -2.2400   -2.5685   -0.7435 H   0  0  0  0  0  0  0  0  0  0  0  0
   -3.9537   -2.2273   -0.9123 H   0  0  0  0  0  0  0  0  0  0  0  0
    1.8182    1.1864   -0.5340 H   0  0  0  0  0  0  0  0  0  0  0  0
    0.3185    3.3940   -1.2496 H   0  0  0  0  0  0  0  0  0  0  0  0
    0.2982    1.7395   -1.8736 H   0  0  0  0  0  0  0  0  0  0  0  0
   -1.2384    2.5794   -1.3797 H   0  0  0  0  0  0  0  0  0  0  0  0
    1.5865   -2.1376    0.7723 H   0  0  0  0  0  0  0  0  0  0  0  0
    1.9179   -1.3983   -0.7895 H   0  0  0  0  0  0  0  0  0  0  0  0
   -4.6735    3.5774   -0.4833 H   0  0  0  0  0  0  0  0  0  0  0  0
   -4.5800    3.1206    1.2252 H   0  0  0  0  0  0  0  0  0  0  0  0
   -5.8063   -0.0341   -0.1121 H   0  0  0  0  0  0  0  0  0  0  0  0
   -4.6465   -0.0298   -1.4676 H   0  0  0  0  0  0  0  0  0  0  0  0
   -2.7679   -4.0678    1.1995 H   0  0  0  0  0  0  0  0  0  0  0  0
   -4.5483   -3.7508    0.9238 H   0  0  0  0  0  0  0  0  0  0  0  0
    2.0408    2.5776    1.2578 H   0  0  0  0  0  0  0  0  0  0  0  0
    3.1265   -0.7269    1.9551 H   0  0  0  0  0  0  0  0  0  0  0  0
   -6.7788    3.8551    0.3723 H   0  0  0  0  0  0  0  0  0  0  0  0
   -5.5876    2.0580   -2.3378 H   0  0  0  0  0  0  0  0  0  0  0  0
   -6.7588    0.6282   -2.2988 H   0  0  0  0  0  0  0  0  0  0  0  0
   -4.4892   -5.3754   -0.7544 H   0  0  0  0  0  0  0  0  0  0  0  0
   -2.7480   -5.6331   -0.4171 H   0  0  0  0  0  0  0  0  0  0  0  0
   -3.2336   -4.4177   -1.6135 H   0  0  0  0  0  0  0  0  0  0  0  0
    4.3947    0.7930    1.1402 H   0  0  0  0  0  0  0  0  0  0  0  0
    3.5214   -2.8584    0.4833 H   0  0  0  0  0  0  0  0  0  0  0  0
   -7.5202    3.0167   -1.5824 H   0  0  0  0  0  0  0  0  0  0  0  0
   -8.0327    1.6252   -0.5402 H   0  0  0  0  0  0  0  0  0  0  0  0
   -6.3587    1.4970    1.9886 H   0  0  0  0  0  0  0  0  0  0  0  0
   -7.9416    1.8815    1.3518 H   0  0  0  0  0  0  0  0  0  0  0  0
    4.3919   -0.3436   -1.5776 H   0  0  0  0  0  0  0  0  0  0  0  0
    5.2450   -2.4097   -0.9915 H   0  0  0  0  0  0  0  0  0  0  0  0
    6.0214   -0.2245    0.9780 H   0  0  0  0  0  0  0  0  0  0  0  0
    5.6081    1.6567   -2.0956 H   0  0  0  0  0  0  0  0  0  0  0  0
    4.6084    2.3472   -0.7747 H   0  0  0  0  0  0  0  0  0  0  0  0
    5.8547   -3.6655    1.3458 H   0  0  0  0  0  0  0  0  0  0  0  0
    6.9252   -2.2623    1.4661 H   0  0  0  0  0  0  0  0  0  0  0  0
    7.0352   -3.3575    0.0049 H   0  0  0  0  0  0  0  0  0  0  0  0
    7.8856   -1.2186   -0.3619 H   0  0  0  0  0  0  0  0  0  0  0  0
    7.0222   -0.6379   -1.8787 H   0  0  0  0  0  0  0  0  0  0  0  0
    6.9368    2.8800   -0.5333 H   0  0  0  0  0  0  0  0  0  0  0  0
    6.3591    1.9376    0.8670 H   0  0  0  0  0  0  0  0  0  0  0  0
    8.3119    0.8484    0.4610 H   0  0  0  0  0  0  0  0  0  0  0  0
    8.3900    1.2493   -1.2890 H   0  0  0  0  0  0  0  0  0  0  0  0
   -1.4337    0.5773   -1.1308 H   0  0  0  0  0  0  0  0  0  0  0  0
   -0.8351    0.9637    1.8328 H   0  0  0  0  0  0  0  0  0  0  0  0
   -0.5571   -1.7131    0.6299 H   0  0  0  0  0  0  0  0  0  0  0  0
   -3.8270    0.8922    1.7244 H   0  0  0  0  0  0  0  0  0  0  0  0
   -4.2227   -1.2648    1.1561 H   0  0  0  0  0  0  0  0  0  0  0  0
   -2.6320   -1.6568    1.7857 H   0  0  0  0  0  0  0  0  0  0  0  0
   -2.4853    2.6682    1.6257 H   0  0  0  0  0  0  0  0  0  0  0  0
    0.3728   -0.6108   -1.8467 H   0  0  0  0  0  0  0  0  0  0  0  0
   -2.2400   -2.5685   -0.7435 H   0  0  0  0  0  0  0  0  0  0  0  0
   -3.9537   -2.2273   -0.9123 H   0  0  0  0  0  0  0  0  0  0  0  0
    1.8182    1.1864   -0.5340 H   0  0  0  0  0  0  0  0  0  0  0  0
    0.3185    3.3940   -1.2496 H   0  0  0  0  0  0  0  0  0  0  0  0
    0.2982    1.7395   -1.8736 H   0  0  0  0  0  0  0  0  0  0  0  0
   -1.2384    2.5794   -1.3797 H   0  0  0  0  0  0  0  0  0  0  0  0
    1.5865   -2.1376    0.7723 H   0  0  0  0  0  0  0  0  0  0  0  0
    1.9179   -1.3983   -0.7895 H   0  0  0  0  0  0  0  0  0  0  0  0
   -4.6735    3.5774   -0.4833 H   0  0  0  0  0  0  0  0  0  0  0  0
   -4.5800    3.1206    1.2252 H   0  0  0  0  0  0  0  0  0  0  0  0
   -5.8063   -0.0341   -0.1121 H   0  0  0  0  0  0  0  0  0  0  0  0
   -4.6465   -0.0298   -1.4676 H   0  0  0  0  0  0  0  0  0  0  0  0
   -2.7679   -4.0678    1.1995 H   0  0  0  0  0  0  0  0  0  0  0  0
   -4.5483   -3.7508    0.9238 H   0  0  0  0  0  0  0  0  0  0  0  0
    2.0408    2.5776    1.2578 H   0  0  0  0  0  0  0  0  0  0  0  0
    3.1265   -0.7269    1.9551 H   0  0  0  0  0  0  0  0  0  0  0  0
   -6.7788    3.8551    0.3723 H   0  0  0  0  0  0  0  0  0  0  0  0
   -5.5876    2.0580   -2.3378 H   0  0  0  0  0  0  0  0  0  0  0  0
   -6.7588    0.6282   -2.2988 H   0  0  0  0  0  0  0  0  0  0  0  0
   -4.4892   -5.3754   -0.7544 H   0  0  0  0  0  0  0  0  0  0  0  0
   -2.7480   -5.6331   -0.4171 H   0  0  0  0  0  0  0  0  0  0  0  0
   -3.2336   -4.4177   -1.6135 H   0  0  0  0  0  0  0  0  0  0  0  0
    4.3947    0.7930    1.1402 H   0  0  0  0  0  0  0  0  0  0  0  0
    3.5214   -2.8584    0.4833 H   0  0  0  0  0  0  0  0  0  0  0  0
   -7.5202    3.0167   -1.5824 H   0  0  0  0  0  0  0  0  0  0  0  0
   -8.0327    1.6252   -0.5402 H   0  0  0  0  0  0  0  0  0  0  0  0
   -6.3587    1.4970    1.9886 H   0  0  0  0  0  0  0  0  0  0  0  0
   -7.9416    1.8815    1.3518 H   0  0  0  0  0  0  0  0  0  0  0  0
    4.3919   -0.3436   -1.5776 H   0  0  0  0  0  0  0  0  0  0  0  0
    5.2450   -2.4097   -0.9915 H   0  0  0  0  0  0  0  0  0  0  0  0
    6.0214   -0.2245    0.9780 H   0  0  0  0  0  0  0  0  0  0  0  0
    5.6081    1.6567   -2.0956 H   0  0  0  0  0  0  0  0  0  0  0  0
    4.6084    2.3472   -0.7747 H   0  0  0  0  0  0  0  0  0  0  0  0
    5.8547   -3.6655    1.3458 H   0  0  0  0  0  0  0  0  0  0  0  0
    6.9252   -2.2623    1.4661 H   0  0  0  0  0  0  0  0  0  0  0  0
    7.0352   -3.3575    0.0049 H   0  0  0  0  0  0  0  0  0  0  0  0
    7.8856   -1.2186   -0.3619 H   0  0  0  0  0  0  0  0  0  0  0  0
    7.0222   -0.6379   -1.8787 H   0  0  0  0  0  0  0  0  0  0  0  0
    6.9368    2.8800   -0.5333 H   0  0  0  0  0  0  0  0  0  0  0  0
    6.3591    1.9376    0.8670 H   0  0  0  0  0  0  0  0  0  0  0  0
    8.3119    0.8484    0.4610 H   0  0  0  0  0  0  0  0  0  0  0  0
    8.3900    1.2493   -1.2890 H   0  0  0  0  0  0  0  0  0  0  0  0
  1  2  1  0
  1  3  1  0
  1  4  1  0
  2  5  1  0
  2  6  1  0
  3  7  1  0
  5  7  1  0
  3  8  1  0
  4  9  1  0
  4 10  1  0
  5 11  1  0
  6 12  1  0
  8 13  1  0
  9 13  1  0
  8 14  1  0
  9 15  1  0
 11 16  1  0
 11 17  1  0
 12 18  1  0
 13 19  1  0
 15 20  1  0
 16 21  1  0
 17 22  1  0
 18 23  1  0
 20 24  1  0
 20 25  1  0
 21 26  1  0
 22 26  1  0
 21 27  1  0
 24 28  1  0
 25 29  1  0
 28 30  1  0
 29 30  1  0
 28 31  1  0
 29 32  1  0
 30 33  1  0
 31 34  1  0
 33 35  1  0
 34 35  1  0
 36 37  1  0
 36 38  1  0
 36 39  1  0
 37 40  1  0
 37 41  1  0
 38 42  1  0
 40 42  1  0
 38 43  1  0
 39 44  1  0
 39 45  1  0
 40 46  1  0
 41 47  1  0
 43 48  1  0
 44 48  1  0
 43 49  1  0
 44 50  1  0
 46 51  1  0
 46 52  1  0
 47 53  1  0
 48 54  1  0
 50 55  1  0
 51 56  1  0
 52 57  1  0
 53 58  1  0
 55 59  1  0
 55 60  1  0
 56 61  1  0
 57 61  1  0
 56 62  1  0
 59 63  1  0
 60 64  1  0
 63 65  1  0
 64 65  1  0
 63 66  1  0
 64 67  1  0
 65 68  1  0
 66 69  1  0
 68 70  1  0
 69 70  1  0
  1 71  1  0
  3 72  1  0
  4 73  1  0
  5 74  1  0
  6 75  1  0
  6 76  1  0
  7 77  1  0
 10 78  1  0
 12 79  1  0
 12 80  1  0
 13 81  1  0
 14 82  1  0
 14 83  1  0
 14 84  1  0
 15 85  1  0
 15 86  1  0
 16 87  1  0
 16 88  1  0
 17 89  1  0
 17 90  1  0
 18 91  1  0
 18 92  1  0
 19 93  1  0
 20 94  1  0
 21 95  1  1
 22 96  1  0
 22 97  1  0
 23 98  1  0
 23 99  1  0
 23100  1  0
 24101  1  0
 25102  1  0
 26103  1  0
 26104  1  0
 27105  1  0
 27106  1  0
 28107  1  0
 29108  1  0
 30109  1  0
 31110  1  0
 31111  1  0
 32112  1  0
 32113  1  0
 32114  1  0
 33115  1  0
 33116  1  0
 34117  1  0
 34118  1  0
 35119  1  0
 35120  1  0
 36121  1  0
 38122  1  0
 39123  1  0
 40124  1  0
 41125  1  0
 41126  1  0
 42127  1  0
 45128  1  0
 47129  1  0
 47130  1  0
 48131  1  0
 49132  1  0
 49133  1  0
 49134  1  0
 50135  1  0
 50136  1  0
 51137  1  0
 51138  1  0
 52139  1  0
 52140  1  0
 53141  1  0
 53142  1  0
 54143  1  0
 55144  1  0
 56145  1  1
 57146  1  0
 57147  1  0
 58148  1  0
 58149  1  0
 58150  1  0
 59151  1  0
 60152  1  0
 61153  1  0
 61154  1  0
 62155  1  0
 62156  1  0
 63157  1  0
 64158  1  0
 65159  1  0
 66160  1  0
 66161  1  0
 67162  1  0
 67163  1  0
 67164  1  0
 68165  1  0
 68166  1  0
 69167  1  0
 69168  1  0
 70169  1  0
 70170  1  0
M  END
>  <PDBID>  (1) 
2RGU

>  <PDB ID>  (1) 
2RGU

>  <Generic Name>  (1) 
Linagliptin

>  <Brand Name>  (1) 
Glyxambi#Jentadueto#Jentadueto XR#Tradjenta#Trajenta

>  <DrugBank ID>  (1) 
DB08882

>  <ATC Codes>  (1) 
A10BH05#A10BD19#A10BD11

>  <Ligand ID>  (1) 
356

>  <Target Name>  (1) 
Dipeptidyl peptidase 4

>  <UniProt ID>  (1) 
P27487

>  <PDB ID.1>  (1) 
2RGU

>  <Seq. Identity>  (1) 
100%

$$$$
