PDB_DB00282_03
     RDKit          3D

 28 27  0  0  0  0  0  0  0  0999 V2000
   -0.2540   -1.4560    0.4386 P   0  0  0  0  0  0  0  0  0  0  0  0
   -1.7807   -2.1851    0.2805 O   0  0  0  0  0  0  0  0  0  0  0  0
    0.0328   -1.9204   -0.9947 O   0  0  0  0  0  0  0  0  0  0  0  0
    1.0398   -2.3134    0.9913 O   0  0  0  0  0  0  0  0  0  0  0  0
   -0.1442    0.2657    0.2317 C   0  0  0  0  0  0  0  0  0  0  0  0
   -1.7420    0.9565    0.0205 P   0  0  0  0  0  0  0  0  0  0  0  0
   -1.5149    1.8255   -1.2020 O   0  0  0  0  0  0  0  0  0  0  0  0
   -2.9270    0.0990   -0.7113 O   0  0  0  0  0  0  0  0  0  0  0  0
   -2.1163    2.3805    0.8826 O   0  0  0  0  0  0  0  0  0  0  0  0
    0.3877    0.9744    1.3640 O   0  0  0  0  0  0  0  0  0  0  0  0
    0.8799    0.6239   -0.8329 C   0  0  0  0  0  0  0  0  0  0  0  0
    2.2562    0.1456   -0.5185 C   0  0  0  0  0  0  0  0  0  0  0  0
    3.2196    0.4996   -1.5384 N   0  0  0  0  0  0  0  0  0  0  0  0
   -0.6311   -1.3767    1.6717 H   0  0  0  0  0  0  0  0  0  0  0  0
   -1.6702   -3.1283    0.4251 H   0  0  0  0  0  0  0  0  0  0  0  0
   -0.4313   -1.4616   -1.7103 H   0  0  0  0  0  0  0  0  0  0  0  0
    0.7856   -3.2383    1.0580 H   0  0  0  0  0  0  0  0  0  0  0  0
   -2.1835    0.4293    1.1288 H   0  0  0  0  0  0  0  0  0  0  0  0
   -2.2079    2.3358   -1.6426 H   0  0  0  0  0  0  0  0  0  0  0  0
   -3.7254    0.6343   -0.7274 H   0  0  0  0  0  0  0  0  0  0  0  0
   -1.2554    2.6661    1.2110 H   0  0  0  0  0  0  0  0  0  0  0  0
    0.1683    0.3748    2.1332 H   0  0  0  0  0  0  0  0  0  0  0  0
    0.5892    0.2770   -1.8447 H   0  0  0  0  0  0  0  0  0  0  0  0
    0.8854    1.7497   -0.9057 H   0  0  0  0  0  0  0  0  0  0  0  0
    2.5347    0.5037    0.4925 H   0  0  0  0  0  0  0  0  0  0  0  0
    2.2311   -0.9724   -0.4749 H   0  0  0  0  0  0  0  0  0  0  0  0
    3.5569    1.4708   -1.3274 H   0  0  0  0  0  0  0  0  0  0  0  0
    4.0167   -0.1600   -1.5198 H   0  0  0  0  0  0  0  0  0  0  0  0
  1  2  1  0
  1  3  1  0
  1  4  1  0
  1  5  1  0
  5  6  1  0
  6  7  1  0
  6  8  1  0
  6  9  1  0
  5 10  1  0
  5 11  1  0
 11 12  1  0
 12 13  1  0
  1 14  1  0
  2 15  1  0
  3 16  1  0
  4 17  1  0
  6 18  1  0
  7 19  1  0
  8 20  1  0
  9 21  1  0
 10 22  1  0
 11 23  1  0
 11 24  1  0
 12 25  1  0
 12 26  1  0
 13 27  1  0
 13 28  1  0
M  END
>  <PDBID>  (1) 
2F89

>  <PDB ID>  (1) 
2F89

>  <Generic Name>  (1) 
Pamidronate

>  <Brand Name>  (1) 
Aredia#Aredia 30mg#Aredia 90mg#Aredia Liq Inj 3mg/ml#PMS-pamidronate#Pamidronate Disodium#Pamidronate Disodium Omega 3 mg/ml#Pamidronate Disodium Omega 6 mg/ml#Pamidronate Disodium Omega 9 mg/ml#Pamidronate Disodium for Injection#Val-pamidronate Disodium#Aminomux#Pamimed

>  <DrugBank ID>  (1) 
DB00282

>  <ATC Codes>  (1) 
M05BA03

>  <Ligand ID>  (1) 
210

>  <Target Name>  (1) 
Farnesyl pyrophosphate synthase

>  <UniProt ID>  (1) 
P14324

>  <PDB ID.1>  (1) 
2F89

>  <Seq. Identity>  (1) 
100%

$$$$
