PDB_DB00841_06
     RDKit          3D

114116  0  0  0  0  0  0  0  0999 V2000
   -6.8981   -0.8217   -0.7791 O   0  0  0  0  0  0  0  0  0  0  0  0
   -6.1319    0.3130   -0.6807 C   0  0  0  0  0  0  0  0  0  0  0  0
   -5.2594    0.2625    0.5539 C   0  0  0  0  0  0  0  0  0  0  0  0
   -4.1926   -0.8005    0.3691 C   0  0  0  0  0  0  0  0  0  0  0  0
   -5.2732    0.5915   -1.8665 C   0  0  0  0  0  0  0  0  0  0  0  0
   -4.0621   -0.2990   -1.9850 C   0  0  0  0  0  0  0  0  0  0  0  0
   -3.2466   -0.2589   -0.6682 C   0  0  0  0  0  0  0  0  0  0  0  0
   -2.0289   -1.0272   -0.9209 C   0  0  0  0  0  0  0  0  0  0  0  0
   -1.0141   -1.2771    0.0970 C   0  0  0  0  0  0  0  0  0  0  0  0
   -0.2433   -0.1035    0.6279 C   0  0  1  0  0  0  0  0  0  0  0  0
   -1.0747    0.9031    1.2735 C   0  0  0  0  0  0  0  0  0  0  0  0
    0.9237   -0.5461    1.3523 N   0  0  0  0  0  0  0  0  0  0  0  0
    1.5810    0.3767    2.1817 C   0  0  0  0  0  0  0  0  0  0  0  0
    2.2929    1.5161    1.5472 C   0  0  0  0  0  0  0  0  0  0  0  0
    3.4131    1.1825    0.6283 C   0  0  0  0  0  0  0  0  0  0  0  0
    3.0652    0.3456   -0.5542 C   0  0  0  0  0  0  0  0  0  0  0  0
    4.2627    0.1246   -1.4245 C   0  0  0  0  0  0  0  0  0  0  0  0
    4.3158   -1.2005   -1.8906 O   0  0  0  0  0  0  0  0  0  0  0  0
    5.5723    0.4394   -0.7858 C   0  0  0  0  0  0  0  0  0  0  0  0
    6.6020   -0.2042   -1.4918 O   0  0  0  0  0  0  0  0  0  0  0  0
    5.5871   -0.0961    0.6136 C   0  0  0  0  0  0  0  0  0  0  0  0
    4.5970    0.7155    1.4204 C   0  0  0  0  0  0  0  0  0  0  0  0
   -6.8981   -0.8217   -0.7791 O   0  0  0  0  0  0  0  0  0  0  0  0
   -6.1319    0.3130   -0.6807 C   0  0  0  0  0  0  0  0  0  0  0  0
   -5.2594    0.2625    0.5539 C   0  0  0  0  0  0  0  0  0  0  0  0
   -4.1926   -0.8005    0.3691 C   0  0  0  0  0  0  0  0  0  0  0  0
   -5.2732    0.5915   -1.8665 C   0  0  0  0  0  0  0  0  0  0  0  0
   -4.0621   -0.2990   -1.9850 C   0  0  0  0  0  0  0  0  0  0  0  0
   -3.2466   -0.2589   -0.6682 C   0  0  0  0  0  0  0  0  0  0  0  0
   -2.0289   -1.0272   -0.9209 C   0  0  0  0  0  0  0  0  0  0  0  0
   -1.0141   -1.2771    0.0970 C   0  0  0  0  0  0  0  0  0  0  0  0
   -0.2433   -0.1035    0.6279 C   0  0  1  0  0  0  0  0  0  0  0  0
   -1.0747    0.9031    1.2735 C   0  0  0  0  0  0  0  0  0  0  0  0
    0.9237   -0.5461    1.3523 N   0  0  0  0  0  0  0  0  0  0  0  0
    1.5810    0.3767    2.1817 C   0  0  0  0  0  0  0  0  0  0  0  0
    2.2929    1.5161    1.5472 C   0  0  0  0  0  0  0  0  0  0  0  0
    3.4131    1.1825    0.6283 C   0  0  0  0  0  0  0  0  0  0  0  0
    3.0652    0.3456   -0.5542 C   0  0  0  0  0  0  0  0  0  0  0  0
    4.2627    0.1246   -1.4245 C   0  0  0  0  0  0  0  0  0  0  0  0
    4.3158   -1.2005   -1.8906 O   0  0  0  0  0  0  0  0  0  0  0  0
    5.5723    0.4394   -0.7858 C   0  0  0  0  0  0  0  0  0  0  0  0
    6.6020   -0.2042   -1.4918 O   0  0  0  0  0  0  0  0  0  0  0  0
    5.5871   -0.0961    0.6136 C   0  0  0  0  0  0  0  0  0  0  0  0
    4.5970    0.7155    1.4204 C   0  0  0  0  0  0  0  0  0  0  0  0
   -6.4357   -1.5716   -1.2304 H   0  0  0  0  0  0  0  0  0  0  0  0
   -6.8164    1.1798   -0.5506 H   0  0  0  0  0  0  0  0  0  0  0  0
   -5.8330    0.1404    1.4791 H   0  0  0  0  0  0  0  0  0  0  0  0
   -4.7247    1.2451    0.6455 H   0  0  0  0  0  0  0  0  0  0  0  0
   -4.6966   -1.7111   -0.0298 H   0  0  0  0  0  0  0  0  0  0  0  0
   -3.7725   -1.0056    1.3500 H   0  0  0  0  0  0  0  0  0  0  0  0
   -5.8718    0.4316   -2.7882 H   0  0  0  0  0  0  0  0  0  0  0  0
   -4.9862    1.6665   -1.8773 H   0  0  0  0  0  0  0  0  0  0  0  0
   -3.4141    0.1101   -2.7808 H   0  0  0  0  0  0  0  0  0  0  0  0
   -4.3385   -1.3297   -2.1978 H   0  0  0  0  0  0  0  0  0  0  0  0
   -3.1396    0.8226   -0.4760 H   0  0  0  0  0  0  0  0  0  0  0  0
   -2.2814   -2.0101   -1.4572 H   0  0  0  0  0  0  0  0  0  0  0  0
   -1.4930   -0.4817   -1.7782 H   0  0  0  0  0  0  0  0  0  0  0  0
   -1.3603   -1.9424    0.9379 H   0  0  0  0  0  0  0  0  0  0  0  0
   -0.2097   -1.9381   -0.3775 H   0  0  0  0  0  0  0  0  0  0  0  0
    0.1974    0.3766   -0.3174 H   0  0  0  0  0  0  0  0  0  0  0  0
   -1.3061    1.7502    0.5537 H   0  0  0  0  0  0  0  0  0  0  0  0
   -0.5783    1.4611    2.1151 H   0  0  0  0  0  0  0  0  0  0  0  0
   -2.0455    0.5344    1.6290 H   0  0  0  0  0  0  0  0  0  0  0  0
    0.7019   -1.4038    1.9010 H   0  0  0  0  0  0  0  0  0  0  0  0
    2.4032   -0.2223    2.7086 H   0  0  0  0  0  0  0  0  0  0  0  0
    0.9691    0.7017    3.0781 H   0  0  0  0  0  0  0  0  0  0  0  0
    2.7593    2.1041    2.3953 H   0  0  0  0  0  0  0  0  0  0  0  0
    1.5355    2.1854    1.0788 H   0  0  0  0  0  0  0  0  0  0  0  0
    3.7412    2.1866    0.1886 H   0  0  0  0  0  0  0  0  0  0  0  0
    2.5829   -0.6063   -0.3447 H   0  0  0  0  0  0  0  0  0  0  0  0
    2.3410    0.9616   -1.1655 H   0  0  0  0  0  0  0  0  0  0  0  0
    4.2149    0.7422   -2.3670 H   0  0  0  0  0  0  0  0  0  0  0  0
    4.6406   -1.7495   -1.1419 H   0  0  0  0  0  0  0  0  0  0  0  0
    5.7336    1.5339   -0.7550 H   0  0  0  0  0  0  0  0  0  0  0  0
    7.2516    0.4570   -1.8598 H   0  0  0  0  0  0  0  0  0  0  0  0
    6.6171    0.0745    1.0132 H   0  0  0  0  0  0  0  0  0  0  0  0
    5.3198   -1.1609    0.6858 H   0  0  0  0  0  0  0  0  0  0  0  0
    5.1752    1.6029    1.8181 H   0  0  0  0  0  0  0  0  0  0  0  0
    4.3310    0.1323    2.2996 H   0  0  0  0  0  0  0  0  0  0  0  0
   -6.4357   -1.5716   -1.2304 H   0  0  0  0  0  0  0  0  0  0  0  0
   -6.8164    1.1798   -0.5506 H   0  0  0  0  0  0  0  0  0  0  0  0
   -5.8330    0.1404    1.4791 H   0  0  0  0  0  0  0  0  0  0  0  0
   -4.7247    1.2451    0.6455 H   0  0  0  0  0  0  0  0  0  0  0  0
   -4.6966   -1.7111   -0.0298 H   0  0  0  0  0  0  0  0  0  0  0  0
   -3.7725   -1.0056    1.3500 H   0  0  0  0  0  0  0  0  0  0  0  0
   -5.8718    0.4316   -2.7882 H   0  0  0  0  0  0  0  0  0  0  0  0
   -4.9862    1.6665   -1.8773 H   0  0  0  0  0  0  0  0  0  0  0  0
   -3.4141    0.1101   -2.7808 H   0  0  0  0  0  0  0  0  0  0  0  0
   -4.3385   -1.3297   -2.1978 H   0  0  0  0  0  0  0  0  0  0  0  0
   -3.1396    0.8226   -0.4760 H   0  0  0  0  0  0  0  0  0  0  0  0
   -2.2814   -2.0101   -1.4572 H   0  0  0  0  0  0  0  0  0  0  0  0
   -1.4930   -0.4817   -1.7782 H   0  0  0  0  0  0  0  0  0  0  0  0
   -1.3603   -1.9424    0.9379 H   0  0  0  0  0  0  0  0  0  0  0  0
   -0.2097   -1.9381   -0.3775 H   0  0  0  0  0  0  0  0  0  0  0  0
    0.1974    0.3766   -0.3174 H   0  0  0  0  0  0  0  0  0  0  0  0
   -1.3061    1.7502    0.5537 H   0  0  0  0  0  0  0  0  0  0  0  0
   -0.5783    1.4611    2.1151 H   0  0  0  0  0  0  0  0  0  0  0  0
   -2.0455    0.5344    1.6290 H   0  0  0  0  0  0  0  0  0  0  0  0
    0.7019   -1.4038    1.9010 H   0  0  0  0  0  0  0  0  0  0  0  0
    2.4032   -0.2223    2.7086 H   0  0  0  0  0  0  0  0  0  0  0  0
    0.9691    0.7017    3.0781 H   0  0  0  0  0  0  0  0  0  0  0  0
    2.7593    2.1041    2.3953 H   0  0  0  0  0  0  0  0  0  0  0  0
    1.5355    2.1854    1.0788 H   0  0  0  0  0  0  0  0  0  0  0  0
    3.7412    2.1866    0.1886 H   0  0  0  0  0  0  0  0  0  0  0  0
    2.5829   -0.6063   -0.3447 H   0  0  0  0  0  0  0  0  0  0  0  0
    2.3410    0.9616   -1.1655 H   0  0  0  0  0  0  0  0  0  0  0  0
    4.2149    0.7422   -2.3670 H   0  0  0  0  0  0  0  0  0  0  0  0
    4.6406   -1.7495   -1.1419 H   0  0  0  0  0  0  0  0  0  0  0  0
    5.7336    1.5339   -0.7550 H   0  0  0  0  0  0  0  0  0  0  0  0
    7.2516    0.4570   -1.8598 H   0  0  0  0  0  0  0  0  0  0  0  0
    6.6171    0.0745    1.0132 H   0  0  0  0  0  0  0  0  0  0  0  0
    5.3198   -1.1609    0.6858 H   0  0  0  0  0  0  0  0  0  0  0  0
    5.1752    1.6029    1.8181 H   0  0  0  0  0  0  0  0  0  0  0  0
    4.3310    0.1323    2.2996 H   0  0  0  0  0  0  0  0  0  0  0  0
  1  2  1  0
  2  3  1  0
  3  4  1  0
  2  5  1  0
  5  6  1  0
  4  7  1  0
  6  7  1  0
  7  8  1  0
  8  9  1  0
  9 10  1  0
 10 11  1  0
 10 12  1  0
 12 13  1  0
 13 14  1  0
 14 15  1  0
 15 16  1  0
 16 17  1  0
 17 18  1  0
 17 19  1  0
 19 20  1  0
 19 21  1  0
 15 22  1  0
 21 22  1  0
 23 24  1  0
 24 25  1  0
 25 26  1  0
 24 27  1  0
 27 28  1  0
 26 29  1  0
 28 29  1  0
 29 30  1  0
 30 31  1  0
 31 32  1  0
 32 33  1  0
 32 34  1  0
 34 35  1  0
 35 36  1  0
 36 37  1  0
 37 38  1  0
 38 39  1  0
 39 40  1  0
 39 41  1  0
 41 42  1  0
 41 43  1  0
 37 44  1  0
 43 44  1  0
  1 45  1  0
  2 46  1  0
  3 47  1  0
  3 48  1  0
  4 49  1  0
  4 50  1  0
  5 51  1  0
  5 52  1  0
  6 53  1  0
  6 54  1  0
  7 55  1  0
  8 56  1  0
  8 57  1  0
  9 58  1  0
  9 59  1  0
 10 60  1  6
 11 61  1  0
 11 62  1  0
 11 63  1  0
 12 64  1  0
 13 65  1  0
 13 66  1  0
 14 67  1  0
 14 68  1  0
 15 69  1  0
 16 70  1  0
 16 71  1  0
 17 72  1  0
 18 73  1  0
 19 74  1  0
 20 75  1  0
 21 76  1  0
 21 77  1  0
 22 78  1  0
 22 79  1  0
 23 80  1  0
 24 81  1  0
 25 82  1  0
 25 83  1  0
 26 84  1  0
 26 85  1  0
 27 86  1  0
 27 87  1  0
 28 88  1  0
 28 89  1  0
 29 90  1  0
 30 91  1  0
 30 92  1  0
 31 93  1  0
 31 94  1  0
 32 95  1  6
 33 96  1  0
 33 97  1  0
 33 98  1  0
 34 99  1  0
 35100  1  0
 35101  1  0
 36102  1  0
 36103  1  0
 37104  1  0
 38105  1  0
 38106  1  0
 39107  1  0
 40108  1  0
 41109  1  0
 42110  1  0
 43111  1  0
 43112  1  0
 44113  1  0
 44114  1  0
M  END
>  <PDBID>  (1) 
2Y00

>  <PDB ID>  (1) 
2Y00

>  <Generic Name>  (1) 
Dobutamine

>  <Brand Name>  (1) 
Dobutamine#Dobutamine 12.5mg/ml#Dobutamine Hydrochloride#Dobutamine Hydrochloride In Dextrose#Dobutamine Hydrochloride Injection USP#Dobutamine Hydrochloride Injection-12.5mg/ml#Dobutamine Injection Sdz#Dobutamine Injection USP#Dobutrex#Dobuject#Dobusafe#Dobutamin#Dobutan#Dobutel#Dobutil#Dopmin#Inotrex

>  <DrugBank ID>  (1) 
DB00841

>  <ATC Codes>  (1) 
C01CA07

>  <Ligand ID>  (1) 
Y00

>  <Target Name>  (1) 
Beta-1 adrenergic receptor

>  <UniProt ID>  (1) 
P08588

>  <PDB ID.1>  (1) 
2Y00

>  <Seq. Identity>  (1) 
63%

$$$$
