PDB_DB06616_09
     RDKit          3D

170176  0  0  0  0  0  0  0  0999 V2000
    1.4855   -0.8667   -1.8567 C   0  0  0  0  0  0  0  0  0  0  0  0
   -5.4650    2.9734   -2.0641 O   0  0  0  0  0  0  0  0  0  0  0  0
    3.9872    1.5559    0.2387 C   0  0  0  0  0  0  0  0  0  0  0  0
   -4.1043   -4.6928   -0.4211 N   0  0  0  0  0  0  0  0  0  0  0  0
   -7.0206    3.6083    0.5182 Cl  0  0  0  0  0  0  0  0  0  0  0  0
   -7.4936   -0.9335   -0.1340 Cl  0  0  0  0  0  0  0  0  0  0  0  0
   -4.0270   -3.5580    0.4816 C   0  0  0  0  0  0  0  0  0  0  0  0
   -1.6883   -3.2653   -0.1991 C   0  0  0  0  0  0  0  0  0  0  0  0
   -6.2381    1.1007    1.0143 C   0  0  0  0  0  0  0  0  0  0  0  0
   -5.2124    0.6971   -1.6403 C   0  0  0  0  0  0  0  0  0  0  0  0
    0.3053   -1.4195    2.3089 C   0  0  0  0  0  0  0  0  0  0  0  0
   -0.9579    0.0037    0.1189 C   0  0  0  0  0  0  0  0  0  0  0  0
    3.6286    1.2115    1.6427 C   0  0  0  0  0  0  0  0  0  0  0  0
    3.4048   -0.2113    1.9527 C   0  0  0  0  0  0  0  0  0  0  0  0
    9.1083    1.2764   -1.4519 C   0  0  0  0  0  0  0  0  0  0  0  0
    5.4015    1.3620   -1.6101 C   0  0  0  0  0  0  0  0  0  0  0  0
    6.3666    1.1915    0.5206 C   0  0  0  0  0  0  0  0  0  0  0  0
    6.8379    1.7420   -1.8780 C   0  0  0  0  0  0  0  0  0  0  0  0
    7.4819    0.3120   -0.0623 C   0  0  0  0  0  0  0  0  0  0  0  0
   -0.7871   -3.0710    0.8598 N   0  0  0  0  0  0  0  0  0  0  0  0
   -3.5770   -0.1988   -0.1824 N   0  0  0  0  0  0  0  0  0  0  0  0
    0.8118   -1.2190   -0.7195 O   0  0  0  0  0  0  0  0  0  0  0  0
    2.4407   -0.9128    1.3348 O   0  0  0  0  0  0  0  0  0  0  0  0
   -5.3450    2.0811   -1.0219 C   0  0  0  0  0  0  0  0  0  0  0  0
   -6.5636    2.0406   -0.1282 C   0  0  0  0  0  0  0  0  0  0  0  0
   -5.9482   -0.2969    0.5264 C   0  0  0  0  0  0  0  0  0  0  0  0
   -2.9987   -2.5807   -0.1001 C   0  0  0  0  0  0  0  0  0  0  0  0
   -4.9373   -0.3673   -0.5645 C   0  0  0  0  0  0  0  0  0  0  0  0
    0.5289   -0.1632    0.1482 C   0  0  0  0  0  0  0  0  0  0  0  0
    1.1242   -0.4798    1.4675 C   0  0  0  0  0  0  0  0  0  0  0  0
   -3.0204   -1.2709    0.6200 C   0  0  0  0  0  0  0  0  0  0  0  0
   -0.9361   -1.9525    1.6904 C   0  0  0  0  0  0  0  0  0  0  0  0
   -1.7007   -0.7914    1.1246 C   0  0  0  0  0  0  0  0  0  0  0  0
    5.1945    0.9275   -0.2512 N   0  0  0  0  0  0  0  0  0  0  0  0
    7.7624    0.7439   -1.3942 N   0  0  0  0  0  0  0  0  0  0  0  0
   -4.4040    3.8810   -2.1387 C   0  0  0  0  0  0  0  0  0  0  0  0
    1.4855   -0.8667   -1.8567 C   0  0  0  0  0  0  0  0  0  0  0  0
   -5.4650    2.9734   -2.0641 O   0  0  0  0  0  0  0  0  0  0  0  0
    3.9872    1.5559    0.2387 C   0  0  0  0  0  0  0  0  0  0  0  0
   -4.1043   -4.6928   -0.4211 N   0  0  0  0  0  0  0  0  0  0  0  0
   -7.0206    3.6083    0.5182 Cl  0  0  0  0  0  0  0  0  0  0  0  0
   -7.4936   -0.9335   -0.1340 Cl  0  0  0  0  0  0  0  0  0  0  0  0
   -4.0270   -3.5580    0.4816 C   0  0  0  0  0  0  0  0  0  0  0  0
   -1.6883   -3.2653   -0.1991 C   0  0  0  0  0  0  0  0  0  0  0  0
   -6.2381    1.1007    1.0143 C   0  0  0  0  0  0  0  0  0  0  0  0
   -5.2124    0.6971   -1.6403 C   0  0  0  0  0  0  0  0  0  0  0  0
    0.3053   -1.4195    2.3089 C   0  0  0  0  0  0  0  0  0  0  0  0
   -0.9579    0.0037    0.1189 C   0  0  0  0  0  0  0  0  0  0  0  0
    3.6286    1.2115    1.6427 C   0  0  0  0  0  0  0  0  0  0  0  0
    3.4048   -0.2113    1.9527 C   0  0  0  0  0  0  0  0  0  0  0  0
    9.1083    1.2764   -1.4519 C   0  0  0  0  0  0  0  0  0  0  0  0
    5.4015    1.3620   -1.6101 C   0  0  0  0  0  0  0  0  0  0  0  0
    6.3666    1.1915    0.5206 C   0  0  0  0  0  0  0  0  0  0  0  0
    6.8379    1.7420   -1.8780 C   0  0  0  0  0  0  0  0  0  0  0  0
    7.4819    0.3120   -0.0623 C   0  0  0  0  0  0  0  0  0  0  0  0
   -0.7871   -3.0710    0.8598 N   0  0  0  0  0  0  0  0  0  0  0  0
   -3.5770   -0.1988   -0.1824 N   0  0  0  0  0  0  0  0  0  0  0  0
    0.8118   -1.2190   -0.7195 O   0  0  0  0  0  0  0  0  0  0  0  0
    2.4407   -0.9128    1.3348 O   0  0  0  0  0  0  0  0  0  0  0  0
   -5.3450    2.0811   -1.0219 C   0  0  0  0  0  0  0  0  0  0  0  0
   -6.5636    2.0406   -0.1282 C   0  0  0  0  0  0  0  0  0  0  0  0
   -5.9482   -0.2969    0.5264 C   0  0  0  0  0  0  0  0  0  0  0  0
   -2.9987   -2.5807   -0.1001 C   0  0  0  0  0  0  0  0  0  0  0  0
   -4.9373   -0.3673   -0.5645 C   0  0  0  0  0  0  0  0  0  0  0  0
    0.5289   -0.1632    0.1482 C   0  0  0  0  0  0  0  0  0  0  0  0
    1.1242   -0.4798    1.4675 C   0  0  0  0  0  0  0  0  0  0  0  0
   -3.0204   -1.2709    0.6200 C   0  0  0  0  0  0  0  0  0  0  0  0
   -0.9361   -1.9525    1.6904 C   0  0  0  0  0  0  0  0  0  0  0  0
   -1.7007   -0.7914    1.1246 C   0  0  0  0  0  0  0  0  0  0  0  0
    5.1945    0.9275   -0.2512 N   0  0  0  0  0  0  0  0  0  0  0  0
    7.7624    0.7439   -1.3942 N   0  0  0  0  0  0  0  0  0  0  0  0
   -4.4040    3.8810   -2.1387 C   0  0  0  0  0  0  0  0  0  0  0  0
    1.6650   -1.7780   -2.5025 H   0  0  0  0  0  0  0  0  0  0  0  0
    2.5382   -0.5097   -1.6532 H   0  0  0  0  0  0  0  0  0  0  0  0
    1.0134   -0.1185   -2.4901 H   0  0  0  0  0  0  0  0  0  0  0  0
    4.2233    2.6710    0.2528 H   0  0  0  0  0  0  0  0  0  0  0  0
    3.2039    1.4540   -0.5082 H   0  0  0  0  0  0  0  0  0  0  0  0
   -4.0957   -4.4156   -1.4207 H   0  0  0  0  0  0  0  0  0  0  0  0
   -4.8174   -5.3776   -0.1550 H   0  0  0  0  0  0  0  0  0  0  0  0
   -3.6127   -3.9444    1.4433 H   0  0  0  0  0  0  0  0  0  0  0  0
   -4.9903   -3.1037    0.6889 H   0  0  0  0  0  0  0  0  0  0  0  0
   -1.8866   -4.3812   -0.2660 H   0  0  0  0  0  0  0  0  0  0  0  0
   -1.1600   -3.0629   -1.1778 H   0  0  0  0  0  0  0  0  0  0  0  0
   -5.4424    1.5473    1.6111 H   0  0  0  0  0  0  0  0  0  0  0  0
   -7.1597    1.0368    1.6465 H   0  0  0  0  0  0  0  0  0  0  0  0
   -4.3032    0.7163   -2.2705 H   0  0  0  0  0  0  0  0  0  0  0  0
   -6.1072    0.4441   -2.2380 H   0  0  0  0  0  0  0  0  0  0  0  0
    0.0400   -0.9238    3.2638 H   0  0  0  0  0  0  0  0  0  0  0  0
    0.9365   -2.2862    2.5896 H   0  0  0  0  0  0  0  0  0  0  0  0
   -1.3524   -0.2683   -0.8975 H   0  0  0  0  0  0  0  0  0  0  0  0
   -1.2492    1.0668    0.2459 H   0  0  0  0  0  0  0  0  0  0  0  0
    4.4999    1.5502    2.2843 H   0  0  0  0  0  0  0  0  0  0  0  0
    2.8109    1.8975    1.9483 H   0  0  0  0  0  0  0  0  0  0  0  0
    3.3924   -0.3722    3.0776 H   0  0  0  0  0  0  0  0  0  0  0  0
    4.3803   -0.7338    1.6817 H   0  0  0  0  0  0  0  0  0  0  0  0
    9.6977    1.0474   -0.5489 H   0  0  0  0  0  0  0  0  0  0  0  0
    9.0680    2.3651   -1.6358 H   0  0  0  0  0  0  0  0  0  0  0  0
    9.6315    0.8128   -2.3135 H   0  0  0  0  0  0  0  0  0  0  0  0
    5.1272    0.5617   -2.3374 H   0  0  0  0  0  0  0  0  0  0  0  0
    4.7835    2.2510   -1.8838 H   0  0  0  0  0  0  0  0  0  0  0  0
    6.2839    0.8726    1.5804 H   0  0  0  0  0  0  0  0  0  0  0  0
    6.6255    2.2508    0.5177 H   0  0  0  0  0  0  0  0  0  0  0  0
    6.9552    1.7912   -2.9818 H   0  0  0  0  0  0  0  0  0  0  0  0
    7.0837    2.7582   -1.4815 H   0  0  0  0  0  0  0  0  0  0  0  0
    8.3500    0.3039    0.6140 H   0  0  0  0  0  0  0  0  0  0  0  0
    7.0156   -0.7137   -0.1359 H   0  0  0  0  0  0  0  0  0  0  0  0
    0.1273   -3.4659    0.6772 H   0  0  0  0  0  0  0  0  0  0  0  0
   -3.4756    0.6742    0.3399 H   0  0  0  0  0  0  0  0  0  0  0  0
   -4.4077    2.3120   -0.4807 H   0  0  0  0  0  0  0  0  0  0  0  0
   -7.4043    1.6437   -0.7462 H   0  0  0  0  0  0  0  0  0  0  0  0
   -5.6539   -0.9080    1.3746 H   0  0  0  0  0  0  0  0  0  0  0  0
   -3.3400   -2.3689   -1.1579 H   0  0  0  0  0  0  0  0  0  0  0  0
   -5.1017   -1.3444   -1.1037 H   0  0  0  0  0  0  0  0  0  0  0  0
    0.9513    0.7408   -0.3326 H   0  0  0  0  0  0  0  0  0  0  0  0
    1.1966    0.4625    2.0544 H   0  0  0  0  0  0  0  0  0  0  0  0
   -3.6902   -1.3917    1.5026 H   0  0  0  0  0  0  0  0  0  0  0  0
   -1.5812   -2.2998    2.5630 H   0  0  0  0  0  0  0  0  0  0  0  0
   -1.9100   -0.1185    2.0087 H   0  0  0  0  0  0  0  0  0  0  0  0
   -3.4789    3.2488   -2.2803 H   0  0  0  0  0  0  0  0  0  0  0  0
   -4.5676    4.4876   -3.0555 H   0  0  0  0  0  0  0  0  0  0  0  0
   -4.2579    4.4612   -1.2225 H   0  0  0  0  0  0  0  0  0  0  0  0
    1.6650   -1.7780   -2.5025 H   0  0  0  0  0  0  0  0  0  0  0  0
    2.5382   -0.5097   -1.6532 H   0  0  0  0  0  0  0  0  0  0  0  0
    1.0134   -0.1185   -2.4901 H   0  0  0  0  0  0  0  0  0  0  0  0
    4.2233    2.6710    0.2528 H   0  0  0  0  0  0  0  0  0  0  0  0
    3.2039    1.4540   -0.5082 H   0  0  0  0  0  0  0  0  0  0  0  0
   -4.0957   -4.4156   -1.4207 H   0  0  0  0  0  0  0  0  0  0  0  0
   -4.8174   -5.3776   -0.1550 H   0  0  0  0  0  0  0  0  0  0  0  0
   -3.6127   -3.9444    1.4433 H   0  0  0  0  0  0  0  0  0  0  0  0
   -4.9903   -3.1037    0.6889 H   0  0  0  0  0  0  0  0  0  0  0  0
   -1.8866   -4.3812   -0.2660 H   0  0  0  0  0  0  0  0  0  0  0  0
   -1.1600   -3.0629   -1.1778 H   0  0  0  0  0  0  0  0  0  0  0  0
   -5.4424    1.5473    1.6111 H   0  0  0  0  0  0  0  0  0  0  0  0
   -7.1597    1.0368    1.6465 H   0  0  0  0  0  0  0  0  0  0  0  0
   -4.3032    0.7163   -2.2705 H   0  0  0  0  0  0  0  0  0  0  0  0
   -6.1072    0.4441   -2.2380 H   0  0  0  0  0  0  0  0  0  0  0  0
    0.0400   -0.9238    3.2638 H   0  0  0  0  0  0  0  0  0  0  0  0
    0.9365   -2.2862    2.5896 H   0  0  0  0  0  0  0  0  0  0  0  0
   -1.3524   -0.2683   -0.8975 H   0  0  0  0  0  0  0  0  0  0  0  0
   -1.2492    1.0668    0.2459 H   0  0  0  0  0  0  0  0  0  0  0  0
    4.4999    1.5502    2.2843 H   0  0  0  0  0  0  0  0  0  0  0  0
    2.8109    1.8975    1.9483 H   0  0  0  0  0  0  0  0  0  0  0  0
    3.3924   -0.3722    3.0776 H   0  0  0  0  0  0  0  0  0  0  0  0
    4.3803   -0.7338    1.6817 H   0  0  0  0  0  0  0  0  0  0  0  0
    9.6977    1.0474   -0.5489 H   0  0  0  0  0  0  0  0  0  0  0  0
    9.0680    2.3651   -1.6358 H   0  0  0  0  0  0  0  0  0  0  0  0
    9.6315    0.8128   -2.3135 H   0  0  0  0  0  0  0  0  0  0  0  0
    5.1272    0.5617   -2.3374 H   0  0  0  0  0  0  0  0  0  0  0  0
    4.7835    2.2510   -1.8838 H   0  0  0  0  0  0  0  0  0  0  0  0
    6.2839    0.8726    1.5804 H   0  0  0  0  0  0  0  0  0  0  0  0
    6.6255    2.2508    0.5177 H   0  0  0  0  0  0  0  0  0  0  0  0
    6.9552    1.7912   -2.9818 H   0  0  0  0  0  0  0  0  0  0  0  0
    7.0837    2.7582   -1.4815 H   0  0  0  0  0  0  0  0  0  0  0  0
    8.3500    0.3039    0.6140 H   0  0  0  0  0  0  0  0  0  0  0  0
    7.0156   -0.7137   -0.1359 H   0  0  0  0  0  0  0  0  0  0  0  0
    0.1273   -3.4659    0.6772 H   0  0  0  0  0  0  0  0  0  0  0  0
   -3.4756    0.6742    0.3399 H   0  0  0  0  0  0  0  0  0  0  0  0
   -4.4077    2.3120   -0.4807 H   0  0  0  0  0  0  0  0  0  0  0  0
   -7.4043    1.6437   -0.7462 H   0  0  0  0  0  0  0  0  0  0  0  0
   -5.6539   -0.9080    1.3746 H   0  0  0  0  0  0  0  0  0  0  0  0
   -3.3400   -2.3689   -1.1579 H   0  0  0  0  0  0  0  0  0  0  0  0
   -5.1017   -1.3444   -1.1037 H   0  0  0  0  0  0  0  0  0  0  0  0
    0.9513    0.7408   -0.3326 H   0  0  0  0  0  0  0  0  0  0  0  0
    1.1966    0.4625    2.0544 H   0  0  0  0  0  0  0  0  0  0  0  0
   -3.6902   -1.3917    1.5026 H   0  0  0  0  0  0  0  0  0  0  0  0
   -1.5812   -2.2998    2.5630 H   0  0  0  0  0  0  0  0  0  0  0  0
   -1.9100   -0.1185    2.0087 H   0  0  0  0  0  0  0  0  0  0  0  0
   -3.4789    3.2488   -2.2803 H   0  0  0  0  0  0  0  0  0  0  0  0
   -4.5676    4.4876   -3.0555 H   0  0  0  0  0  0  0  0  0  0  0  0
   -4.2579    4.4612   -1.2225 H   0  0  0  0  0  0  0  0  0  0  0  0
  4  7  1  0
  3 13  1  0
 13 14  1  0
 16 18  1  0
 17 19  1  0
  8 20  1  0
  1 22  1  0
 14 23  1  0
  2 24  1  0
 10 24  1  0
  5 25  1  0
  9 25  1  0
 24 25  1  0
  6 26  1  0
  9 26  1  0
  7 27  1  0
  8 27  1  0
 10 28  1  0
 21 28  1  0
 26 28  1  0
 12 29  1  0
 22 29  1  0
 11 30  1  0
 23 30  1  0
 29 30  1  0
 21 31  1  0
 27 31  1  0
 11 32  1  0
 20 32  1  0
 12 33  1  0
 31 33  1  0
 32 33  1  0
  3 34  1  0
 16 34  1  0
 17 34  1  0
 15 35  1  0
 18 35  1  0
 19 35  1  0
  2 36  1  0
 40 43  1  0
 39 49  1  0
 49 50  1  0
 52 54  1  0
 53 55  1  0
 44 56  1  0
 37 58  1  0
 50 59  1  0
 38 60  1  0
 46 60  1  0
 41 61  1  0
 45 61  1  0
 60 61  1  0
 42 62  1  0
 45 62  1  0
 43 63  1  0
 44 63  1  0
 46 64  1  0
 57 64  1  0
 62 64  1  0
 48 65  1  0
 58 65  1  0
 47 66  1  0
 59 66  1  0
 65 66  1  0
 57 67  1  0
 63 67  1  0
 47 68  1  0
 56 68  1  0
 48 69  1  0
 67 69  1  0
 68 69  1  0
 39 70  1  0
 52 70  1  0
 53 70  1  0
 51 71  1  0
 54 71  1  0
 55 71  1  0
 38 72  1  0
  1 73  1  0
  1 74  1  0
  1 75  1  0
  3 76  1  0
  3 77  1  0
  4 78  1  0
  4 79  1  0
  7 80  1  0
  7 81  1  0
  8 82  1  0
  8 83  1  0
  9 84  1  0
  9 85  1  0
 10 86  1  0
 10 87  1  0
 11 88  1  0
 11 89  1  0
 12 90  1  0
 12 91  1  0
 13 92  1  0
 13 93  1  0
 14 94  1  0
 14 95  1  0
 15 96  1  0
 15 97  1  0
 15 98  1  0
 16 99  1  0
 16100  1  0
 17101  1  0
 17102  1  0
 18103  1  0
 18104  1  0
 19105  1  0
 19106  1  0
 20107  1  0
 21108  1  0
 24109  1  0
 25110  1  0
 26111  1  0
 27112  1  0
 28113  1  0
 29114  1  0
 30115  1  0
 31116  1  0
 32117  1  0
 33118  1  0
 36119  1  0
 36120  1  0
 36121  1  0
 37122  1  0
 37123  1  0
 37124  1  0
 39125  1  0
 39126  1  0
 40127  1  0
 40128  1  0
 43129  1  0
 43130  1  0
 44131  1  0
 44132  1  0
 45133  1  0
 45134  1  0
 46135  1  0
 46136  1  0
 47137  1  0
 47138  1  0
 48139  1  0
 48140  1  0
 49141  1  0
 49142  1  0
 50143  1  0
 50144  1  0
 51145  1  0
 51146  1  0
 51147  1  0
 52148  1  0
 52149  1  0
 53150  1  0
 53151  1  0
 54152  1  0
 54153  1  0
 55154  1  0
 55155  1  0
 56156  1  0
 57157  1  0
 60158  1  0
 61159  1  0
 62160  1  0
 63161  1  0
 64162  1  0
 65163  1  0
 66164  1  0
 67165  1  0
 68166  1  0
 69167  1  0
 72168  1  0
 72169  1  0
 72170  1  0
M  END
>  <PDBID>  (1) 
3UE4

>  <PDB ID>  (1) 
3UE4

>  <Generic Name>  (1) 
Bosutinib

>  <Brand Name>  (1) 
Bosulif

>  <DrugBank ID>  (1) 
DB06616

>  <ATC Codes>  (1) 
L01XE14

>  <Ligand ID>  (1) 
DB8

>  <Target Name>  (1) 
Tyrosine-protein kinase ABL1

>  <UniProt ID>  (1) 
P00519

>  <PDB ID.1>  (1) 
3UE4

>  <Seq. Identity>  (1) 
95%

$$$$
