PDB_DB00147_08
     RDKit          3D

 58 58  0  0  0  0  0  0  0  0999 V2000
    3.1707   -1.1473   -0.2455 O   0  0  0  0  0  0  0  0  0  0  0  0
    2.4619    0.0618   -0.3309 C   0  0  0  0  0  0  0  0  0  0  0  0
    1.0288   -0.2459   -0.0481 C   0  0  0  0  0  0  0  0  0  0  0  0
    0.5063   -1.2516   -1.0828 C   0  0  0  0  0  0  0  0  0  0  0  0
   -0.8472   -1.6158   -0.8382 N   0  0  0  0  0  0  0  0  0  0  0  0
   -1.7486   -0.5350   -0.6243 C   0  0  0  0  0  0  0  0  0  0  0  0
   -1.2269    0.4593    0.4194 C   0  0  0  0  0  0  0  0  0  0  0  0
    0.1171    0.9370   -0.1194 C   0  0  0  0  0  0  0  0  0  0  0  0
    0.6212    2.1361    0.6368 C   0  0  0  0  0  0  0  0  0  0  0  0
    0.7982    1.9034    1.9806 O   0  0  0  0  0  0  0  0  0  0  0  0
   -0.9987   -0.2655    1.5712 O   0  0  0  0  0  0  0  0  0  0  0  0
   -3.0829   -1.0742   -0.1706 C   0  0  0  0  0  0  0  0  0  0  0  0
    3.1707   -1.1473   -0.2455 O   0  0  0  0  0  0  0  0  0  0  0  0
    2.4619    0.0618   -0.3309 C   0  0  0  0  0  0  0  0  0  0  0  0
    1.0288   -0.2459   -0.0481 C   0  0  0  0  0  0  0  0  0  0  0  0
    0.5063   -1.2516   -1.0828 C   0  0  0  0  0  0  0  0  0  0  0  0
   -0.8472   -1.6158   -0.8382 N   0  0  0  0  0  0  0  0  0  0  0  0
   -1.7486   -0.5350   -0.6243 C   0  0  0  0  0  0  0  0  0  0  0  0
   -1.2269    0.4593    0.4194 C   0  0  0  0  0  0  0  0  0  0  0  0
    0.1171    0.9370   -0.1194 C   0  0  0  0  0  0  0  0  0  0  0  0
    0.6212    2.1361    0.6368 C   0  0  0  0  0  0  0  0  0  0  0  0
    0.7982    1.9034    1.9806 O   0  0  0  0  0  0  0  0  0  0  0  0
   -0.9987   -0.2655    1.5712 O   0  0  0  0  0  0  0  0  0  0  0  0
   -3.0829   -1.0742   -0.1706 C   0  0  0  0  0  0  0  0  0  0  0  0
    3.9939   -1.1296   -0.7883 H   0  0  0  0  0  0  0  0  0  0  0  0
    2.5848    0.4508   -1.3662 H   0  0  0  0  0  0  0  0  0  0  0  0
    2.8582    0.7433    0.4299 H   0  0  0  0  0  0  0  0  0  0  0  0
    0.9427   -0.6705    0.9799 H   0  0  0  0  0  0  0  0  0  0  0  0
    0.5412   -0.6921   -2.0575 H   0  0  0  0  0  0  0  0  0  0  0  0
    1.1434   -2.1324   -1.0903 H   0  0  0  0  0  0  0  0  0  0  0  0
   -0.9845   -2.4379   -0.2357 H   0  0  0  0  0  0  0  0  0  0  0  0
   -1.9043    0.0626   -1.5482 H   0  0  0  0  0  0  0  0  0  0  0  0
   -1.9610    1.2536    0.5071 H   0  0  0  0  0  0  0  0  0  0  0  0
   -0.0205    1.2276   -1.1728 H   0  0  0  0  0  0  0  0  0  0  0  0
   -0.1493    2.9305    0.5342 H   0  0  0  0  0  0  0  0  0  0  0  0
    1.5597    2.4585    0.1521 H   0  0  0  0  0  0  0  0  0  0  0  0
    1.7462    1.8707    2.2499 H   0  0  0  0  0  0  0  0  0  0  0  0
   -0.8146    0.2561    2.3667 H   0  0  0  0  0  0  0  0  0  0  0  0
   -3.0314   -2.1449    0.0725 H   0  0  0  0  0  0  0  0  0  0  0  0
   -3.4259   -0.5104    0.7441 H   0  0  0  0  0  0  0  0  0  0  0  0
   -3.8787   -0.8983   -0.9255 H   0  0  0  0  0  0  0  0  0  0  0  0
    3.9939   -1.1296   -0.7883 H   0  0  0  0  0  0  0  0  0  0  0  0
    2.5848    0.4508   -1.3662 H   0  0  0  0  0  0  0  0  0  0  0  0
    2.8582    0.7433    0.4299 H   0  0  0  0  0  0  0  0  0  0  0  0
    0.9427   -0.6705    0.9799 H   0  0  0  0  0  0  0  0  0  0  0  0
    0.5412   -0.6921   -2.0575 H   0  0  0  0  0  0  0  0  0  0  0  0
    1.1434   -2.1324   -1.0903 H   0  0  0  0  0  0  0  0  0  0  0  0
   -0.9845   -2.4379   -0.2357 H   0  0  0  0  0  0  0  0  0  0  0  0
   -1.9043    0.0626   -1.5482 H   0  0  0  0  0  0  0  0  0  0  0  0
   -1.9610    1.2536    0.5071 H   0  0  0  0  0  0  0  0  0  0  0  0
   -0.0205    1.2276   -1.1728 H   0  0  0  0  0  0  0  0  0  0  0  0
   -0.1493    2.9305    0.5342 H   0  0  0  0  0  0  0  0  0  0  0  0
    1.5597    2.4585    0.1521 H   0  0  0  0  0  0  0  0  0  0  0  0
    1.7462    1.8707    2.2499 H   0  0  0  0  0  0  0  0  0  0  0  0
   -0.8146    0.2561    2.3667 H   0  0  0  0  0  0  0  0  0  0  0  0
   -3.0314   -2.1449    0.0725 H   0  0  0  0  0  0  0  0  0  0  0  0
   -3.4259   -0.5104    0.7441 H   0  0  0  0  0  0  0  0  0  0  0  0
   -3.8787   -0.8983   -0.9255 H   0  0  0  0  0  0  0  0  0  0  0  0
  1  2  1  0
  2  3  1  0
  3  4  1  0
  4  5  1  0
  5  6  1  0
  6  7  1  0
  3  8  1  0
  7  8  1  0
  8  9  1  0
  9 10  1  0
  7 11  1  0
  6 12  1  0
 13 14  1  0
 14 15  1  0
 15 16  1  0
 16 17  1  0
 17 18  1  0
 18 19  1  0
 15 20  1  0
 19 20  1  0
 20 21  1  0
 21 22  1  0
 19 23  1  0
 18 24  1  0
  1 25  1  0
  2 26  1  0
  2 27  1  0
  3 28  1  0
  4 29  1  0
  4 30  1  0
  5 31  1  0
  6 32  1  0
  7 33  1  0
  8 34  1  0
  9 35  1  0
  9 36  1  0
 10 37  1  0
 11 38  1  0
 12 39  1  0
 12 40  1  0
 12 41  1  0
 13 42  1  0
 14 43  1  0
 14 44  1  0
 15 45  1  0
 16 46  1  0
 16 47  1  0
 17 48  1  0
 18 49  1  0
 19 50  1  0
 20 51  1  0
 21 52  1  0
 21 53  1  0
 22 54  1  0
 23 55  1  0
 24 56  1  0
 24 57  1  0
 24 58  1  0
M  END
>  <PDBID>  (1) 
3FHX

>  <PDB ID>  (1) 
3FHX

>  <Generic Name>  (1) 
Pyridoxal

>  <Brand Name>  (1) 
nan

>  <DrugBank ID>  (1) 
DB00147

>  <ATC Codes>  (1) 
nan

>  <Ligand ID>  (1) 
PXL

>  <Target Name>  (1) 
Pyridoxal kinase

>  <UniProt ID>  (1) 
O00764

>  <PDB ID.1>  (1) 
3FHX

>  <Seq. Identity>  (1) 
100%

$$$$
