PDB_DB00443_01
     RDKit          3D

130136  0  0  0  0  0  0  0  0999 V2000
    3.5832   -0.8904   -0.5201 C   0  0  0  0  0  0  0  0  0  0  0  0
    4.8404   -0.6835    0.3075 C   0  0  0  0  0  0  0  0  0  0  0  0
    5.2940    0.7321    0.3258 C   0  0  0  0  0  0  0  0  0  0  0  0
    4.3445    1.5469   -0.4725 C   0  0  0  0  0  0  0  0  0  0  0  0
    2.8853    1.3779   -0.0962 C   0  0  0  0  0  0  0  0  0  0  0  0
    2.1634    2.1610   -1.1509 C   0  0  0  0  0  0  0  0  0  0  0  0
    0.7036    2.0647   -1.1624 C   0  0  0  0  0  0  0  0  0  0  0  0
    0.2491    0.9276   -0.2730 C   0  0  2  0  0  0  0  0  0  0  0  0
    1.1533   -0.2621   -0.5706 C   0  0  1  0  0  0  0  0  0  0  0  0
    2.4457   -0.0367    0.0782 C   0  0  1  0  0  0  0  0  0  0  0  0
    0.4247   -1.5212   -0.3408 C   0  0  2  0  0  0  0  0  0  0  0  0
   -0.6796   -1.5047    0.6940 C   0  0  0  0  0  0  0  0  0  0  0  0
   -1.6128   -0.3584    0.6131 C   0  0  1  0  0  0  0  0  0  0  0  0
   -1.1334    0.4996   -0.5447 C   0  0  1  0  0  0  0  0  0  0  0  0
   -2.2030    1.5265   -0.5965 C   0  0  0  0  0  0  0  0  0  0  0  0
   -3.4290    0.5846   -0.6219 C   0  0  2  0  0  0  0  0  0  0  0  0
   -3.0006   -0.6772    0.0903 C   0  0  2  0  0  0  0  0  0  0  0  0
   -1.6444    0.3322    1.9279 C   0  0  0  0  0  0  0  0  0  0  0  0
    2.5027   -0.3972    1.5650 C   0  0  0  0  0  0  0  0  0  0  0  0
   -3.9977   -1.0076    1.1422 C   0  0  0  0  0  0  0  0  0  0  0  0
   -5.3111   -1.4362    0.5856 C   0  0  0  0  0  0  0  0  0  0  0  0
   -3.5897    0.2289   -2.1032 C   0  0  0  0  0  0  0  0  0  0  0  0
    1.4102   -0.1806   -1.9547 F   0  0  0  0  0  0  0  0  0  0  0  0
    6.5409    0.8145   -0.3329 O   0  0  0  0  0  0  0  0  0  0  0  0
    1.1844   -2.6301   -0.0592 O   0  0  0  0  0  0  0  0  0  0  0  0
   -2.8602   -1.7734   -0.7564 O   0  0  0  0  0  0  0  0  0  0  0  0
   -4.2381    0.0528    2.0320 O   0  0  0  0  0  0  0  0  0  0  0  0
   -6.0193   -0.4760   -0.0956 O   0  0  0  0  0  0  0  0  0  0  0  0
   -1.2488   -0.1121   -1.4715 H   0  0  0  0  0  0  0  0  0  0  0  0
    3.3342    0.5503    1.4464 C   0  0  0  0  0  0  0  0  0  0  0  0
    4.8111    0.4420    1.3026 C   0  0  0  0  0  0  0  0  0  0  0  0
    5.2633   -0.8700    0.7242 C   0  0  0  0  0  0  0  0  0  0  0  0
    4.6171   -0.9762   -0.6635 C   0  0  0  0  0  0  0  0  0  0  0  0
    3.1380   -1.1007   -0.4258 C   0  0  0  0  0  0  0  0  0  0  0  0
    2.4299   -1.4463   -1.6787 C   0  0  0  0  0  0  0  0  0  0  0  0
    0.9601   -1.3101   -1.6678 C   0  0  0  0  0  0  0  0  0  0  0  0
    0.4276   -0.1627   -0.8467 C   0  0  2  0  0  0  0  0  0  0  0  0
    1.1340   -0.1577    0.4909 C   0  0  1  0  0  0  0  0  0  0  0  0
    2.5623    0.1569    0.2320 C   0  0  1  0  0  0  0  0  0  0  0  0
    0.4946    0.7088    1.5165 C   0  0  2  0  0  0  0  0  0  0  0  0
   -0.9710    0.4583    1.6686 C   0  0  0  0  0  0  0  0  0  0  0  0
   -1.6551    0.5569    0.3472 C   0  0  1  0  0  0  0  0  0  0  0  0
   -1.0165   -0.4482   -0.5738 C   0  0  1  0  0  0  0  0  0  0  0  0
   -1.9173   -0.3310   -1.7720 C   0  0  0  0  0  0  0  0  0  0  0  0
   -3.2992   -0.2225   -1.1083 C   0  0  2  0  0  0  0  0  0  0  0  0
   -3.0682    0.0145    0.3469 C   0  0  2  0  0  0  0  0  0  0  0  0
   -1.6760    1.9456   -0.2195 C   0  0  0  0  0  0  0  0  0  0  0  0
    2.7475    1.2740   -0.7996 C   0  0  0  0  0  0  0  0  0  0  0  0
   -4.0218    0.9822    0.9968 C   0  0  0  0  0  0  0  0  0  0  0  0
   -5.3599    0.3240    1.1840 C   0  0  0  0  0  0  0  0  0  0  0  0
   -4.1482   -1.4101   -1.4465 C   0  0  0  0  0  0  0  0  0  0  0  0
    1.0721   -1.4739    0.9626 F   0  0  0  0  0  0  0  0  0  0  0  0
    6.6299   -0.9423    0.6722 O   0  0  0  0  0  0  0  0  0  0  0  0
    0.7719    2.0728    1.3340 O   0  0  0  0  0  0  0  0  0  0  0  0
   -3.0091   -1.1566    1.1043 O   0  0  0  0  0  0  0  0  0  0  0  0
   -4.1768    2.1796    0.3531 O   0  0  0  0  0  0  0  0  0  0  0  0
   -6.0566    0.0883    0.0194 O   0  0  0  0  0  0  0  0  0  0  0  0
    3.7306   -0.6646   -1.5772 H   0  0  0  0  0  0  0  0  0  0  0  0
    3.3839   -1.9759   -0.4186 H   0  0  0  0  0  0  0  0  0  0  0  0
    5.6124   -1.3424   -0.1949 H   0  0  0  0  0  0  0  0  0  0  0  0
    4.6987   -1.1304    1.3068 H   0  0  0  0  0  0  0  0  0  0  0  0
    5.4036    1.1689    1.3422 H   0  0  0  0  0  0  0  0  0  0  0  0
    4.4610    1.3588   -1.5809 H   0  0  0  0  0  0  0  0  0  0  0  0
    4.5401    2.6566   -0.3799 H   0  0  0  0  0  0  0  0  0  0  0  0
    2.7529    1.9263    0.8718 H   0  0  0  0  0  0  0  0  0  0  0  0
    2.4452    3.2323   -0.9902 H   0  0  0  0  0  0  0  0  0  0  0  0
    2.5973    1.9253   -2.1679 H   0  0  0  0  0  0  0  0  0  0  0  0
    0.1881    2.9845   -0.8060 H   0  0  0  0  0  0  0  0  0  0  0  0
    0.3032    1.8668   -2.1764 H   0  0  0  0  0  0  0  0  0  0  0  0
    0.3402    1.3043    0.7482 H   0  0  0  0  0  0  0  0  0  0  0  0
   -0.1214   -1.7862   -1.2990 H   0  0  0  0  0  0  0  0  0  0  0  0
   -0.2299   -1.6836    1.6918 H   0  0  0  0  0  0  0  0  0  0  0  0
   -1.2700   -2.4542    0.5092 H   0  0  0  0  0  0  0  0  0  0  0  0
   -2.2465    2.2498    0.2067 H   0  0  0  0  0  0  0  0  0  0  0  0
   -2.1875    2.1165   -1.5555 H   0  0  0  0  0  0  0  0  0  0  0  0
   -4.3035    1.0765   -0.2023 H   0  0  0  0  0  0  0  0  0  0  0  0
   -2.2511    1.2526    1.9753 H   0  0  0  0  0  0  0  0  0  0  0  0
   -0.6330    0.5431    2.3196 H   0  0  0  0  0  0  0  0  0  0  0  0
   -2.0678   -0.3974    2.6807 H   0  0  0  0  0  0  0  0  0  0  0  0
    1.5913   -0.2058    2.1129 H   0  0  0  0  0  0  0  0  0  0  0  0
    2.7351   -1.4870    1.7014 H   0  0  0  0  0  0  0  0  0  0  0  0
    3.3418    0.1957    2.0225 H   0  0  0  0  0  0  0  0  0  0  0  0
   -3.6167   -1.9017    1.7316 H   0  0  0  0  0  0  0  0  0  0  0  0
   -5.2525   -2.3307   -0.0650 H   0  0  0  0  0  0  0  0  0  0  0  0
   -5.9619   -1.7596    1.4510 H   0  0  0  0  0  0  0  0  0  0  0  0
   -3.0422   -0.7088   -2.3449 H   0  0  0  0  0  0  0  0  0  0  0  0
   -4.6364    0.0615   -2.3912 H   0  0  0  0  0  0  0  0  0  0  0  0
   -3.1154    1.0080   -2.7609 H   0  0  0  0  0  0  0  0  0  0  0  0
    7.0637   -0.0069   -0.1394 H   0  0  0  0  0  0  0  0  0  0  0  0
    1.3541   -3.1577   -0.8687 H   0  0  0  0  0  0  0  0  0  0  0  0
   -3.1903   -2.6146   -0.3493 H   0  0  0  0  0  0  0  0  0  0  0  0
   -4.6649   -0.3616    2.8414 H   0  0  0  0  0  0  0  0  0  0  0  0
   -6.5102    0.1397    0.5164 H   0  0  0  0  0  0  0  0  0  0  0  0
    3.0927    1.6224    1.6631 H   0  0  0  0  0  0  0  0  0  0  0  0
    3.0278   -0.0060    2.3623 H   0  0  0  0  0  0  0  0  0  0  0  0
    5.2486    1.2629    0.6651 H   0  0  0  0  0  0  0  0  0  0  0  0
    5.2611    0.6152    2.3146 H   0  0  0  0  0  0  0  0  0  0  0  0
    4.8181   -1.6984    1.3250 H   0  0  0  0  0  0  0  0  0  0  0  0
    4.9714   -1.9083   -1.0991 H   0  0  0  0  0  0  0  0  0  0  0  0
    4.9056   -0.1433   -1.3081 H   0  0  0  0  0  0  0  0  0  0  0  0
    3.0037   -1.9531    0.2936 H   0  0  0  0  0  0  0  0  0  0  0  0
    2.8352   -0.9006   -2.5811 H   0  0  0  0  0  0  0  0  0  0  0  0
    2.6683   -2.5290   -1.9072 H   0  0  0  0  0  0  0  0  0  0  0  0
    0.4670   -2.2404   -1.3105 H   0  0  0  0  0  0  0  0  0  0  0  0
    0.5737   -1.1557   -2.7140 H   0  0  0  0  0  0  0  0  0  0  0  0
    0.5178    0.8061   -1.3807 H   0  0  0  0  0  0  0  0  0  0  0  0
    0.9705    0.4493    2.5025 H   0  0  0  0  0  0  0  0  0  0  0  0
   -1.3724    1.2531    2.3538 H   0  0  0  0  0  0  0  0  0  0  0  0
   -1.1738   -0.5117    2.1236 H   0  0  0  0  0  0  0  0  0  0  0  0
   -1.0679   -1.4391   -0.0862 H   0  0  0  0  0  0  0  0  0  0  0  0
   -1.8779   -1.2121   -2.4437 H   0  0  0  0  0  0  0  0  0  0  0  0
   -1.6705    0.5564   -2.3603 H   0  0  0  0  0  0  0  0  0  0  0  0
   -3.7846    0.6837   -1.5292 H   0  0  0  0  0  0  0  0  0  0  0  0
   -2.3458    2.0519   -1.0874 H   0  0  0  0  0  0  0  0  0  0  0  0
   -0.6623    2.2656   -0.5879 H   0  0  0  0  0  0  0  0  0  0  0  0
   -1.9069    2.6556    0.6038 H   0  0  0  0  0  0  0  0  0  0  0  0
    3.8392    1.5159   -0.7877 H   0  0  0  0  0  0  0  0  0  0  0  0
    2.5054    0.9587   -1.8117 H   0  0  0  0  0  0  0  0  0  0  0  0
    2.1343    2.1587   -0.5624 H   0  0  0  0  0  0  0  0  0  0  0  0
   -3.6172    1.1455    2.0431 H   0  0  0  0  0  0  0  0  0  0  0  0
   -5.9766    0.9171    1.9247 H   0  0  0  0  0  0  0  0  0  0  0  0
   -5.2625   -0.6778    1.6895 H   0  0  0  0  0  0  0  0  0  0  0  0
   -4.9329   -1.0968   -2.1599 H   0  0  0  0  0  0  0  0  0  0  0  0
   -4.4912   -2.0190   -0.6150 H   0  0  0  0  0  0  0  0  0  0  0  0
   -3.4875   -2.1085   -2.0535 H   0  0  0  0  0  0  0  0  0  0  0  0
    6.9891   -1.2946   -0.1850 H   0  0  0  0  0  0  0  0  0  0  0  0
    0.3677    2.5274    2.1296 H   0  0  0  0  0  0  0  0  0  0  0  0
   -2.8867   -1.9748    0.6073 H   0  0  0  0  0  0  0  0  0  0  0  0
   -5.1334    2.4454    0.2064 H   0  0  0  0  0  0  0  0  0  0  0  0
   -6.5652   -0.7679    0.0307 H   0  0  0  0  0  0  0  0  0  0  0  0
  1  2  1  0
  2  3  1  0
  3  4  1  0
  4  5  1  0
  5  6  1  0
  6  7  1  0
  7  8  1  0
  8  9  1  0
  1 10  1  0
  5 10  1  0
  9 10  1  0
  9 11  1  0
 11 12  1  0
 12 13  1  0
  8 14  1  0
 13 14  1  0
 14 15  1  0
 15 16  1  0
 13 17  1  0
 16 17  1  0
 13 18  1  1
 10 19  1  1
 17 20  1  0
 20 21  1  0
 16 22  1  0
  9 23  1  6
  3 24  1  0
 11 25  1  0
 17 26  1  6
 20 27  1  0
 21 28  1  0
 14 29  1  6
 30 31  1  0
 31 32  1  0
 32 33  1  0
 33 34  1  0
 34 35  1  0
 35 36  1  0
 36 37  1  0
 37 38  1  0
 30 39  1  0
 34 39  1  0
 38 39  1  0
 38 40  1  0
 40 41  1  0
 41 42  1  0
 37 43  1  0
 42 43  1  0
 43 44  1  0
 44 45  1  0
 42 46  1  0
 45 46  1  0
 42 47  1  6
 39 48  1  6
 46 49  1  0
 49 50  1  0
 45 51  1  0
 38 52  1  1
 32 53  1  0
 40 54  1  0
 46 55  1  1
 49 56  1  0
 50 57  1  0
  1 58  1  0
  1 59  1  0
  2 60  1  0
  2 61  1  0
  3 62  1  0
  4 63  1  0
  4 64  1  0
  5 65  1  0
  6 66  1  0
  6 67  1  0
  7 68  1  0
  7 69  1  0
  8 70  1  1
 11 71  1  6
 12 72  1  0
 12 73  1  0
 15 74  1  0
 15 75  1  0
 16 76  1  1
 18 77  1  0
 18 78  1  0
 18 79  1  0
 19 80  1  0
 19 81  1  0
 19 82  1  0
 20 83  1  0
 21 84  1  0
 21 85  1  0
 22 86  1  0
 22 87  1  0
 22 88  1  0
 24 89  1  0
 25 90  1  0
 26 91  1  0
 27 92  1  0
 28 93  1  0
 30 94  1  0
 30 95  1  0
 31 96  1  0
 31 97  1  0
 32 98  1  0
 33 99  1  0
 33100  1  0
 34101  1  0
 35102  1  0
 35103  1  0
 36104  1  0
 36105  1  0
 37106  1  6
 40107  1  1
 41108  1  0
 41109  1  0
 43110  1  1
 44111  1  0
 44112  1  0
 45113  1  6
 47114  1  0
 47115  1  0
 47116  1  0
 48117  1  0
 48118  1  0
 48119  1  0
 49120  1  0
 50121  1  0
 50122  1  0
 51123  1  0
 51124  1  0
 51125  1  0
 53126  1  0
 54127  1  0
 55128  1  0
 56129  1  0
 57130  1  0
M  END
>  <PDBID>  (1) 
1M2Z

>  <PDB ID>  (1) 
1M2Z

>  <Generic Name>  (1) 
Betamethasone

>  <Brand Name>  (1) 
Beben Gel 0.025%#Beta 1 Kit#Betacort Scalp Lotion 0.1%#Betaderm Crm 0.05%#Betaderm Crm 0.1%#Betaderm Lotion 0.1%#Betaderm Ont 0.05%#Betaderm Ont 0.1%#Betagel - 0.1%#Betaject#Betaloan Suik#Betamethasone#Betamethasone Clotrimazole#Betamethasone Combo 6mg/ml PF#Betamethasone Combo 7mg/ml#Betamethasone Dipropionate#Betamethasone Dipropionate Augmented#Betamethasone Sodium Phosphate and Betamethasone Acetate#Betamethasone Sp 24mg/2ml PF#Betamethasone Valerate#Betamethasone Valerate Lot 0.1% USP#Betamycin Ophthalmic/otic Solution#Betaprolene Cream 0.05%#Betaprolene Ointment 0.05%#Betaprone Cream 0.05%#Betaprone Lotion 0.05%#Betaprone Ointment 0.05%#Beteflam#Betnesol Eye and Ear Drops#Betnesol Eye and Ear Drops 0.1%#Betnesol Pellets 0.1mg#Betnesol Retention Enema 5mg/100ml#Betnesol Retention Enemas#Betnesol Tab 0.5mg#Betnesol Tablets#Betnovate 1/2 Crm 0.05%#Betnovate 1/2 Lot 0.05%#Betnovate 1/2 Ont 0.05%#Betnovate Crm 0.1%#Betnovate Lot 0.1%#Betnovate Lotion 0.1%#Betnovate Ont 0.1%#Calcipotriene 0.005% and Betamethasone Dipropionate 0.064%#Calcipotriene and Betamethasone Dipropionate#Celestoderm V#Celestoderm V Crm 0.1%#Celestoderm V Ont 0.1%#Celestoderm V/2#Celestoderm V/2 Cream .05%#Celestoderm V/2 Ointment 0.05%#Celestone Repetabs 1mg#Celestone Soluspan#Celestone Tab 0.5mg#Clotrimazole and Betamethasone Dipropionate#Dermacinrx Therazole Pak#Diprogen Cream#Diprogen Ointment#Diprolene#Diprolene AF#Diprosalic#Diprosone Cream 0.05%#Diprosone Lotion 0.05%#Diprosone Ointment 0.05%#Dom-gentamicin-betamethasone#Dovobet Gel#Dovobet Ointment#Dr. Throwers Beta#Dr. Throwers Pbc No. 1#Enstilar#Garasone Ophthalmic Ointment#Garasone Ophthalmic and Otic Solution#Lotriderm Cream#Lotrisone#Luxiq#Marbeta 25 Kit#Occlucort Film Forming Lot 0.05#PMS-clotrimazole-betamethasone#PMS-gentamicin-betamethasone#Prevex B Cream 0.1%#Pro-lene Glycol Cream - 0.05%#Pro-lene Glycol Lotion - 0.05%#Pro-lene Glycol Ointment - 0.05%#Pro-sone Cream - 0.05%#Pro-sone Lotion -  0.05%#Pro-sone Ointment - 0.05%#Ratio-ectosone#Ratio-ectosone Mild Cream 0.05%#Ratio-ectosone Mild Lotion 0.05%#Ratio-ectosone Regular Cream 0.1%#Ratio-ectosone Regular Lotion 0.1%#Ratio-topilene#Ratio-topisalic#Ratio-topisone#Readysharp Betamethasone#Rhoprolene Glycol Cream 0.5mg/gm#Rhoprolene Glycol Lotion 0.5mg/gm#Rhoprolene Glycol Ointment 0.5mg/gm#Rhoprosone Cream 0.05%#Rhoprosone Lotion 0.05%#Rhoprosone Oint 0.05%#Rivasone Scalp Lot 0.1%#Rolene Cream 0.05%#Rolene Lotion 0.05%#Rolene Ointment 0.05%#Rosone Cream 0.05%#Rosone Lotion 0.05%#Rosone Ointment 0.05%#Sandoz Pentasone#Sernivo#Taclonex#Taclonex Scalp#Taro Sone Lot 0.05%#Taro Sone Ont#Taro-sone Cream 0.05%#Valisone Scalp Lotion#Valisone-G Cream#Valisone-G Ointment#Bentelan#Betnovate#Celestamine#Celestone#Diprosone#Fucibet#Procort#Rinderon

>  <DrugBank ID>  (1) 
DB00443

>  <ATC Codes>  (1) 
S01BB04#R03BA04#S01CA05#H02AB01#R01AD06#D07BC01#C05AA05#D07CC01#D07AC01#S01CB04#D07XC01#S02BA07#A07EA04#S03BA03#S01BA06#S03CA06

>  <Ligand ID>  (1) 
DEX

>  <Target Name>  (1) 
Glucocorticoid receptor

>  <UniProt ID>  (1) 
P04150

>  <PDB ID.1>  (1) 
1M2Z

>  <Seq. Identity>  (1) 
100%

$$$$
