PDB_DB00190_06
     RDKit          3D

 74 74  0  0  0  0  0  0  0  0999 V2000
   -3.0465   -1.3190   -0.1286 N   0  0  0  0  0  0  0  0  0  0  0  0
   -4.2485   -0.6519   -0.1256 N   0  0  0  0  0  0  0  0  0  0  0  0
   -1.9036   -0.3839   -0.0001 C   0  0  2  0  0  0  0  0  0  0  0  0
   -0.7111   -1.2260   -0.0111 C   0  0  0  0  0  0  0  0  0  0  0  0
   -2.1498    0.4206    1.2223 C   0  0  0  0  0  0  0  0  0  0  0  0
    0.6396   -0.6951    0.1004 C   0  0  0  0  0  0  0  0  0  0  0  0
    1.1165    0.2674   -0.9356 C   0  0  0  0  0  0  0  0  0  0  0  0
    2.6524    0.1658   -0.9387 C   0  0  0  0  0  0  0  0  0  0  0  0
    1.0161   -0.1119    1.4405 C   0  0  0  0  0  0  0  0  0  0  0  0
    2.5267   -0.2114    1.5482 C   0  0  0  0  0  0  0  0  0  0  0  0
    3.2239    0.4650    0.4187 C   0  0  0  0  0  0  0  0  0  0  0  0
    4.5531   -0.0218    0.4029 O   0  0  0  0  0  0  0  0  0  0  0  0
    3.0269   -1.1211   -1.3042 O   0  0  0  0  0  0  0  0  0  0  0  0
   -2.0709    0.5230   -1.2108 C   0  0  0  0  0  0  0  0  0  0  0  0
   -3.3437    1.1259   -1.0492 O   0  0  0  0  0  0  0  0  0  0  0  0
   -2.1298   -0.1790   -2.3926 O   0  0  0  0  0  0  0  0  0  0  0  0
   -3.0465   -1.3190   -0.1286 N   0  0  0  0  0  0  0  0  0  0  0  0
   -4.2485   -0.6519   -0.1256 N   0  0  0  0  0  0  0  0  0  0  0  0
   -1.9036   -0.3839   -0.0001 C   0  0  2  0  0  0  0  0  0  0  0  0
   -0.7111   -1.2260   -0.0111 C   0  0  0  0  0  0  0  0  0  0  0  0
   -2.1498    0.4206    1.2223 C   0  0  0  0  0  0  0  0  0  0  0  0
    0.6396   -0.6951    0.1004 C   0  0  0  0  0  0  0  0  0  0  0  0
    1.1165    0.2674   -0.9356 C   0  0  0  0  0  0  0  0  0  0  0  0
    2.6524    0.1658   -0.9387 C   0  0  0  0  0  0  0  0  0  0  0  0
    1.0161   -0.1119    1.4405 C   0  0  0  0  0  0  0  0  0  0  0  0
    2.5267   -0.2114    1.5482 C   0  0  0  0  0  0  0  0  0  0  0  0
    3.2239    0.4650    0.4187 C   0  0  0  0  0  0  0  0  0  0  0  0
    4.5531   -0.0218    0.4029 O   0  0  0  0  0  0  0  0  0  0  0  0
    3.0269   -1.1211   -1.3042 O   0  0  0  0  0  0  0  0  0  0  0  0
   -2.0709    0.5230   -1.2108 C   0  0  0  0  0  0  0  0  0  0  0  0
   -3.3437    1.1259   -1.0492 O   0  0  0  0  0  0  0  0  0  0  0  0
   -2.1298   -0.1790   -2.3926 O   0  0  0  0  0  0  0  0  0  0  0  0
   -2.9623   -1.8138   -1.0602 H   0  0  0  0  0  0  0  0  0  0  0  0
   -4.8621   -0.9310    0.6689 H   0  0  0  0  0  0  0  0  0  0  0  0
   -0.8358   -1.9954    0.8079 H   0  0  0  0  0  0  0  0  0  0  0  0
   -0.7525   -1.8629   -0.9458 H   0  0  0  0  0  0  0  0  0  0  0  0
   -3.2573    0.6412    1.2611 H   0  0  0  0  0  0  0  0  0  0  0  0
   -1.6872    1.4482    1.1837 H   0  0  0  0  0  0  0  0  0  0  0  0
   -1.9222   -0.1033    2.1595 H   0  0  0  0  0  0  0  0  0  0  0  0
    1.3189   -1.6041   -0.0056 H   0  0  0  0  0  0  0  0  0  0  0  0
    0.9291    1.3287   -0.6347 H   0  0  0  0  0  0  0  0  0  0  0  0
    0.8173    0.0381   -1.9681 H   0  0  0  0  0  0  0  0  0  0  0  0
    3.0885    0.8848   -1.6510 H   0  0  0  0  0  0  0  0  0  0  0  0
    0.5802   -0.6283    2.2909 H   0  0  0  0  0  0  0  0  0  0  0  0
    0.8143    0.9970    1.4357 H   0  0  0  0  0  0  0  0  0  0  0  0
    2.7600   -1.3063    1.5012 H   0  0  0  0  0  0  0  0  0  0  0  0
    2.8249    0.2364    2.5024 H   0  0  0  0  0  0  0  0  0  0  0  0
    3.3279    1.5609    0.5999 H   0  0  0  0  0  0  0  0  0  0  0  0
    4.9396   -0.0570    1.3055 H   0  0  0  0  0  0  0  0  0  0  0  0
    3.4212   -1.1482   -2.2163 H   0  0  0  0  0  0  0  0  0  0  0  0
   -1.3720    1.3676   -1.2255 H   0  0  0  0  0  0  0  0  0  0  0  0
   -3.2788    1.8526   -0.3809 H   0  0  0  0  0  0  0  0  0  0  0  0
   -3.0431   -0.4159   -2.6653 H   0  0  0  0  0  0  0  0  0  0  0  0
   -2.9623   -1.8138   -1.0602 H   0  0  0  0  0  0  0  0  0  0  0  0
   -4.8621   -0.9310    0.6689 H   0  0  0  0  0  0  0  0  0  0  0  0
   -0.8358   -1.9954    0.8079 H   0  0  0  0  0  0  0  0  0  0  0  0
   -0.7525   -1.8629   -0.9458 H   0  0  0  0  0  0  0  0  0  0  0  0
   -3.2573    0.6412    1.2611 H   0  0  0  0  0  0  0  0  0  0  0  0
   -1.6872    1.4482    1.1837 H   0  0  0  0  0  0  0  0  0  0  0  0
   -1.9222   -0.1033    2.1595 H   0  0  0  0  0  0  0  0  0  0  0  0
    1.3189   -1.6041   -0.0056 H   0  0  0  0  0  0  0  0  0  0  0  0
    0.9291    1.3287   -0.6347 H   0  0  0  0  0  0  0  0  0  0  0  0
    0.8173    0.0381   -1.9681 H   0  0  0  0  0  0  0  0  0  0  0  0
    3.0885    0.8848   -1.6510 H   0  0  0  0  0  0  0  0  0  0  0  0
    0.5802   -0.6283    2.2909 H   0  0  0  0  0  0  0  0  0  0  0  0
    0.8143    0.9970    1.4357 H   0  0  0  0  0  0  0  0  0  0  0  0
    2.7600   -1.3063    1.5012 H   0  0  0  0  0  0  0  0  0  0  0  0
    2.8249    0.2364    2.5024 H   0  0  0  0  0  0  0  0  0  0  0  0
    3.3279    1.5609    0.5999 H   0  0  0  0  0  0  0  0  0  0  0  0
    4.9396   -0.0570    1.3055 H   0  0  0  0  0  0  0  0  0  0  0  0
    3.4212   -1.1482   -2.2163 H   0  0  0  0  0  0  0  0  0  0  0  0
   -1.3720    1.3676   -1.2255 H   0  0  0  0  0  0  0  0  0  0  0  0
   -3.2788    1.8526   -0.3809 H   0  0  0  0  0  0  0  0  0  0  0  0
   -3.0431   -0.4159   -2.6653 H   0  0  0  0  0  0  0  0  0  0  0  0
  1  2  1  0
  3  1  1  6
  3  4  1  0
  3  5  1  0
  4  6  1  0
  6  7  1  0
  7  8  1  0
  6  9  1  0
  9 10  1  0
  8 11  1  0
 10 11  1  0
 11 12  1  0
  8 13  1  0
  3 14  1  0
 14 15  1  0
 14 16  1  0
 17 18  1  0
 19 17  1  6
 19 20  1  0
 19 21  1  0
 20 22  1  0
 22 23  1  0
 23 24  1  0
 22 25  1  0
 25 26  1  0
 24 27  1  0
 26 27  1  0
 27 28  1  0
 24 29  1  0
 19 30  1  0
 30 31  1  0
 30 32  1  0
  1 33  1  0
  2 34  1  0
  4 35  1  0
  4 36  1  0
  5 37  1  0
  5 38  1  0
  5 39  1  0
  6 40  1  0
  7 41  1  0
  7 42  1  0
  8 43  1  0
  9 44  1  0
  9 45  1  0
 10 46  1  0
 10 47  1  0
 11 48  1  0
 12 49  1  0
 13 50  1  0
 14 51  1  0
 15 52  1  0
 16 53  1  0
 17 54  1  0
 18 55  1  0
 20 56  1  0
 20 57  1  0
 21 58  1  0
 21 59  1  0
 21 60  1  0
 22 61  1  0
 23 62  1  0
 23 63  1  0
 24 64  1  0
 25 65  1  0
 25 66  1  0
 26 67  1  0
 26 68  1  0
 27 69  1  0
 28 70  1  0
 29 71  1  0
 30 72  1  0
 31 73  1  0
 32 74  1  0
M  END
>  <PDBID>  (1) 
1JS3

>  <PDB ID>  (1) 
1JS3

>  <Generic Name>  (1) 
Carbidopa

>  <Brand Name>  (1) 
Apo-levocarb - Tab 10mg/100mg#Apo-levocarb - Tab 25mg/250mg#Apo-levocarb CR#Apo-levocarb-tab 25mg/100mg#Carbidopa#Carbidopa Tablets, 25 mg#Carbidopa and Levodopa#Carbidopa, Levodopa and Entacapone#Carbidopa, Levodopa, and Entacapone#Dom-levo-carbidopa#Duodopa#Duopa#Lodosyn#Mint-levocarb#Nu-levocarb - Tab 10mg/100mg#Nu-levocarb - Tab 25 Mg/100 mg#Nu-levocarb - Tablets 25 Mg/250 mg#PMS-levocarb CR#Parcopa#Pro-lecarb-100/10 - Tab#Pro-lecarb-100/25 - Tab#Pro-levocarb - 100/25#Ratio-levodopa/carbidopa#Rytary#Sinemet#Sinemet 100/10#Sinemet 100/25#Sinemet 250/25#Sinemet CR#Sinemet CR 100/25#Sinemet CR 200/50#Stalevo#Teva-levocarbidopa

>  <DrugBank ID>  (1) 
DB00190

>  <ATC Codes>  (1) 
nan

>  <Ligand ID>  (1) 
142

>  <Target Name>  (1) 
Aromatic-L-amino-acid decarboxylase

>  <UniProt ID>  (1) 
P20711

>  <PDB ID.1>  (1) 
1JS3

>  <Seq. Identity>  (1) 
90%

$$$$
