PDB_DB08916_06
     RDKit          3D

158164  0  0  0  0  0  0  0  0999 V2000
    4.3179    1.4489    0.4233 C   0  0  0  0  0  0  0  0  0  0  0  0
    3.9505    0.1551    0.9215 N   0  0  0  0  0  0  0  0  0  0  0  0
    3.1708    2.3010    0.5539 N   0  0  0  0  0  0  0  0  0  0  0  0
    3.1675   -0.5166   -0.1271 C   0  0  0  0  0  0  0  0  0  0  0  0
    1.9016    1.5519    0.4814 C   0  0  0  0  0  0  0  0  0  0  0  0
    2.0715    0.4190   -0.5113 C   0  0  0  0  0  0  0  0  0  0  0  0
   -0.2027    0.8209   -1.2815 C   0  0  0  0  0  0  0  0  0  0  0  0
    0.7436   -0.2325   -0.7291 C   0  0  0  0  0  0  0  0  0  0  0  0
   -0.4875    1.8737   -0.3029 C   0  0  0  0  0  0  0  0  0  0  0  0
    0.9024    2.5424   -0.0071 C   0  0  0  0  0  0  0  0  0  0  0  0
    2.7448   -1.7529    0.4249 N   0  0  0  0  0  0  0  0  0  0  0  0
    5.4451   -2.9479   -1.5563 C   0  0  0  0  0  0  0  0  0  0  0  0
    6.5242   -3.1753   -0.5066 C   0  0  0  0  0  0  0  0  0  0  0  0
    4.0703   -3.1851   -1.0782 C   0  0  0  0  0  0  0  0  0  0  0  0
    6.1823   -2.2515    0.6273 C   0  0  0  0  0  0  0  0  0  0  0  0
    3.7370   -2.8202    0.3209 C   0  0  0  0  0  0  0  0  0  0  0  0
    4.8862   -2.6296    1.2443 C   0  0  0  0  0  0  0  0  0  0  0  0
    6.6547   -4.4826   -0.1462 F   0  0  0  0  0  0  0  0  0  0  0  0
    5.8201   -4.0984   -2.8894 Cl  0  0  0  0  0  0  0  0  0  0  0  0
   -1.1940    2.9205   -0.8986 O   0  0  0  0  0  0  0  0  0  0  0  0
   -2.1555    3.5074   -0.1021 C   0  0  2  0  0  0  0  0  0  0  0  0
   -3.4308    3.6522   -0.8634 C   0  0  0  0  0  0  0  0  0  0  0  0
   -4.0000    4.8780   -0.5214 O   0  0  0  0  0  0  0  0  0  0  0  0
   -3.0466    5.7067   -0.0148 C   0  0  0  0  0  0  0  0  0  0  0  0
   -1.7534    4.9875    0.0707 C   0  0  0  0  0  0  0  0  0  0  0  0
   -1.2108    0.3286   -2.0919 N   0  0  0  0  0  0  0  0  0  0  0  0
   -2.1489   -0.6209   -1.7378 C   0  0  0  0  0  0  0  0  0  0  0  0
   -3.0749   -0.2032   -0.6324 C   0  0  0  0  0  0  0  0  0  0  0  0
   -2.9820   -0.8534   -2.8744 O   0  0  0  0  0  0  0  0  0  0  0  0
   -4.0858   -1.3363   -0.3387 C   0  0  0  0  0  0  0  0  0  0  0  0
   -5.0292   -0.9336    0.7696 C   0  0  0  0  0  0  0  0  0  0  0  0
   -5.9439   -2.0110    0.9849 N   0  0  0  0  0  0  0  0  0  0  0  0
   -5.3754   -3.1898    1.5473 C   0  0  0  0  0  0  0  0  0  0  0  0
   -7.2173   -1.6638    1.5142 C   0  0  0  0  0  0  0  0  0  0  0  0
    4.3179    1.4489    0.4233 C   0  0  0  0  0  0  0  0  0  0  0  0
    3.9505    0.1551    0.9215 N   0  0  0  0  0  0  0  0  0  0  0  0
    3.1708    2.3010    0.5539 N   0  0  0  0  0  0  0  0  0  0  0  0
    3.1675   -0.5166   -0.1271 C   0  0  0  0  0  0  0  0  0  0  0  0
    1.9016    1.5519    0.4814 C   0  0  0  0  0  0  0  0  0  0  0  0
    2.0715    0.4190   -0.5113 C   0  0  0  0  0  0  0  0  0  0  0  0
   -0.2027    0.8209   -1.2815 C   0  0  0  0  0  0  0  0  0  0  0  0
    0.7436   -0.2325   -0.7291 C   0  0  0  0  0  0  0  0  0  0  0  0
   -0.4875    1.8737   -0.3029 C   0  0  0  0  0  0  0  0  0  0  0  0
    0.9024    2.5424   -0.0071 C   0  0  0  0  0  0  0  0  0  0  0  0
    2.7448   -1.7529    0.4249 N   0  0  0  0  0  0  0  0  0  0  0  0
    5.4451   -2.9479   -1.5563 C   0  0  0  0  0  0  0  0  0  0  0  0
    6.5242   -3.1753   -0.5066 C   0  0  0  0  0  0  0  0  0  0  0  0
    4.0703   -3.1851   -1.0782 C   0  0  0  0  0  0  0  0  0  0  0  0
    6.1823   -2.2515    0.6273 C   0  0  0  0  0  0  0  0  0  0  0  0
    3.7370   -2.8202    0.3209 C   0  0  0  0  0  0  0  0  0  0  0  0
    4.8862   -2.6296    1.2443 C   0  0  0  0  0  0  0  0  0  0  0  0
    6.6547   -4.4826   -0.1462 F   0  0  0  0  0  0  0  0  0  0  0  0
    5.8201   -4.0984   -2.8894 Cl  0  0  0  0  0  0  0  0  0  0  0  0
   -1.1940    2.9205   -0.8986 O   0  0  0  0  0  0  0  0  0  0  0  0
   -2.1555    3.5074   -0.1021 C   0  0  2  0  0  0  0  0  0  0  0  0
   -3.4308    3.6522   -0.8634 C   0  0  0  0  0  0  0  0  0  0  0  0
   -4.0000    4.8780   -0.5214 O   0  0  0  0  0  0  0  0  0  0  0  0
   -3.0466    5.7067   -0.0148 C   0  0  0  0  0  0  0  0  0  0  0  0
   -1.7534    4.9875    0.0707 C   0  0  0  0  0  0  0  0  0  0  0  0
   -1.2108    0.3286   -2.0919 N   0  0  0  0  0  0  0  0  0  0  0  0
   -2.1489   -0.6209   -1.7378 C   0  0  0  0  0  0  0  0  0  0  0  0
   -3.0749   -0.2032   -0.6324 C   0  0  0  0  0  0  0  0  0  0  0  0
   -2.9820   -0.8534   -2.8744 O   0  0  0  0  0  0  0  0  0  0  0  0
   -4.0858   -1.3363   -0.3387 C   0  0  0  0  0  0  0  0  0  0  0  0
   -5.0292   -0.9336    0.7696 C   0  0  0  0  0  0  0  0  0  0  0  0
   -5.9439   -2.0110    0.9849 N   0  0  0  0  0  0  0  0  0  0  0  0
   -5.3754   -3.1898    1.5473 C   0  0  0  0  0  0  0  0  0  0  0  0
   -7.2173   -1.6638    1.5142 C   0  0  0  0  0  0  0  0  0  0  0  0
    5.1610    1.8768    1.0353 H   0  0  0  0  0  0  0  0  0  0  0  0
    4.6319    1.4360   -0.6388 H   0  0  0  0  0  0  0  0  0  0  0  0
    3.4332    0.2387    1.8033 H   0  0  0  0  0  0  0  0  0  0  0  0
    3.1966    2.9398    1.3612 H   0  0  0  0  0  0  0  0  0  0  0  0
    3.8558   -0.6055   -0.9897 H   0  0  0  0  0  0  0  0  0  0  0  0
    1.6359    1.1630    1.5007 H   0  0  0  0  0  0  0  0  0  0  0  0
    2.3104    0.9474   -1.4850 H   0  0  0  0  0  0  0  0  0  0  0  0
    0.5276    1.3656   -2.0466 H   0  0  0  0  0  0  0  0  0  0  0  0
    0.3419   -0.5772    0.2440 H   0  0  0  0  0  0  0  0  0  0  0  0
    0.7997   -1.0984   -1.4207 H   0  0  0  0  0  0  0  0  0  0  0  0
   -0.9047    1.6065    0.6590 H   0  0  0  0  0  0  0  0  0  0  0  0
    1.2267    2.9392   -0.9765 H   0  0  0  0  0  0  0  0  0  0  0  0
    0.7313    3.2929    0.7858 H   0  0  0  0  0  0  0  0  0  0  0  0
    1.7931   -2.0648    0.1895 H   0  0  0  0  0  0  0  0  0  0  0  0
    5.6275   -1.9437   -1.9879 H   0  0  0  0  0  0  0  0  0  0  0  0
    7.4834   -2.8256   -0.9431 H   0  0  0  0  0  0  0  0  0  0  0  0
    3.8061   -4.2551   -1.3410 H   0  0  0  0  0  0  0  0  0  0  0  0
    3.3639   -2.5995   -1.7420 H   0  0  0  0  0  0  0  0  0  0  0  0
    6.2895   -1.2232    0.2874 H   0  0  0  0  0  0  0  0  0  0  0  0
    6.9765   -2.3920    1.4181 H   0  0  0  0  0  0  0  0  0  0  0  0
    3.1685   -3.7127    0.7411 H   0  0  0  0  0  0  0  0  0  0  0  0
    5.0971   -3.5440    1.8769 H   0  0  0  0  0  0  0  0  0  0  0  0
    4.6061   -1.8548    1.9899 H   0  0  0  0  0  0  0  0  0  0  0  0
   -2.2776    3.0403    0.8842 H   0  0  0  0  0  0  0  0  0  0  0  0
   -4.1896    2.8624   -0.6557 H   0  0  0  0  0  0  0  0  0  0  0  0
   -3.2260    3.6741   -1.9687 H   0  0  0  0  0  0  0  0  0  0  0  0
   -2.9229    6.6477   -0.6120 H   0  0  0  0  0  0  0  0  0  0  0  0
   -3.3694    6.0454    1.0039 H   0  0  0  0  0  0  0  0  0  0  0  0
   -1.1474    5.2591   -0.8233 H   0  0  0  0  0  0  0  0  0  0  0  0
   -1.2636    5.1885    1.0173 H   0  0  0  0  0  0  0  0  0  0  0  0
   -1.2962    0.7472   -3.0515 H   0  0  0  0  0  0  0  0  0  0  0  0
   -1.7123   -1.6454   -1.5138 H   0  0  0  0  0  0  0  0  0  0  0  0
   -2.5606    0.0700    0.3034 H   0  0  0  0  0  0  0  0  0  0  0  0
   -3.7176    0.6502   -0.9223 H   0  0  0  0  0  0  0  0  0  0  0  0
   -3.4918    0.0126   -2.9665 H   0  0  0  0  0  0  0  0  0  0  0  0
   -3.5506   -2.2470   -0.0337 H   0  0  0  0  0  0  0  0  0  0  0  0
   -4.7100   -1.4880   -1.2454 H   0  0  0  0  0  0  0  0  0  0  0  0
   -4.4792   -0.6902    1.7087 H   0  0  0  0  0  0  0  0  0  0  0  0
   -5.6034   -0.0191    0.5198 H   0  0  0  0  0  0  0  0  0  0  0  0
   -4.9744   -3.8442    0.7215 H   0  0  0  0  0  0  0  0  0  0  0  0
   -6.1949   -3.7791    2.0499 H   0  0  0  0  0  0  0  0  0  0  0  0
   -4.6027   -2.9820    2.3055 H   0  0  0  0  0  0  0  0  0  0  0  0
   -7.6929   -2.5513    1.9857 H   0  0  0  0  0  0  0  0  0  0  0  0
   -7.2089   -0.8632    2.2843 H   0  0  0  0  0  0  0  0  0  0  0  0
   -7.9187   -1.3865    0.6733 H   0  0  0  0  0  0  0  0  0  0  0  0
    5.1610    1.8768    1.0353 H   0  0  0  0  0  0  0  0  0  0  0  0
    4.6319    1.4360   -0.6388 H   0  0  0  0  0  0  0  0  0  0  0  0
    3.4332    0.2387    1.8033 H   0  0  0  0  0  0  0  0  0  0  0  0
    3.1966    2.9398    1.3612 H   0  0  0  0  0  0  0  0  0  0  0  0
    3.8558   -0.6055   -0.9897 H   0  0  0  0  0  0  0  0  0  0  0  0
    1.6359    1.1630    1.5007 H   0  0  0  0  0  0  0  0  0  0  0  0
    2.3104    0.9474   -1.4850 H   0  0  0  0  0  0  0  0  0  0  0  0
    0.5276    1.3656   -2.0466 H   0  0  0  0  0  0  0  0  0  0  0  0
    0.3419   -0.5772    0.2440 H   0  0  0  0  0  0  0  0  0  0  0  0
    0.7997   -1.0984   -1.4207 H   0  0  0  0  0  0  0  0  0  0  0  0
   -0.9047    1.6065    0.6590 H   0  0  0  0  0  0  0  0  0  0  0  0
    1.2267    2.9392   -0.9765 H   0  0  0  0  0  0  0  0  0  0  0  0
    0.7313    3.2929    0.7858 H   0  0  0  0  0  0  0  0  0  0  0  0
    1.7931   -2.0648    0.1895 H   0  0  0  0  0  0  0  0  0  0  0  0
    5.6275   -1.9437   -1.9879 H   0  0  0  0  0  0  0  0  0  0  0  0
    7.4834   -2.8256   -0.9431 H   0  0  0  0  0  0  0  0  0  0  0  0
    3.8061   -4.2551   -1.3410 H   0  0  0  0  0  0  0  0  0  0  0  0
    3.3639   -2.5995   -1.7420 H   0  0  0  0  0  0  0  0  0  0  0  0
    6.2895   -1.2232    0.2874 H   0  0  0  0  0  0  0  0  0  0  0  0
    6.9765   -2.3920    1.4181 H   0  0  0  0  0  0  0  0  0  0  0  0
    3.1685   -3.7127    0.7411 H   0  0  0  0  0  0  0  0  0  0  0  0
    5.0971   -3.5440    1.8769 H   0  0  0  0  0  0  0  0  0  0  0  0
    4.6061   -1.8548    1.9899 H   0  0  0  0  0  0  0  0  0  0  0  0
   -2.2776    3.0403    0.8842 H   0  0  0  0  0  0  0  0  0  0  0  0
   -4.1896    2.8624   -0.6557 H   0  0  0  0  0  0  0  0  0  0  0  0
   -3.2260    3.6741   -1.9687 H   0  0  0  0  0  0  0  0  0  0  0  0
   -2.9229    6.6477   -0.6120 H   0  0  0  0  0  0  0  0  0  0  0  0
   -3.3694    6.0454    1.0039 H   0  0  0  0  0  0  0  0  0  0  0  0
   -1.1474    5.2591   -0.8233 H   0  0  0  0  0  0  0  0  0  0  0  0
   -1.2636    5.1885    1.0173 H   0  0  0  0  0  0  0  0  0  0  0  0
   -1.2962    0.7472   -3.0515 H   0  0  0  0  0  0  0  0  0  0  0  0
   -1.7123   -1.6454   -1.5138 H   0  0  0  0  0  0  0  0  0  0  0  0
   -2.5606    0.0700    0.3034 H   0  0  0  0  0  0  0  0  0  0  0  0
   -3.7176    0.6502   -0.9223 H   0  0  0  0  0  0  0  0  0  0  0  0
   -3.4918    0.0126   -2.9665 H   0  0  0  0  0  0  0  0  0  0  0  0
   -3.5506   -2.2470   -0.0337 H   0  0  0  0  0  0  0  0  0  0  0  0
   -4.7100   -1.4880   -1.2454 H   0  0  0  0  0  0  0  0  0  0  0  0
   -4.4792   -0.6902    1.7087 H   0  0  0  0  0  0  0  0  0  0  0  0
   -5.6034   -0.0191    0.5198 H   0  0  0  0  0  0  0  0  0  0  0  0
   -4.9744   -3.8442    0.7215 H   0  0  0  0  0  0  0  0  0  0  0  0
   -6.1949   -3.7791    2.0499 H   0  0  0  0  0  0  0  0  0  0  0  0
   -4.6027   -2.9820    2.3055 H   0  0  0  0  0  0  0  0  0  0  0  0
   -7.6929   -2.5513    1.9857 H   0  0  0  0  0  0  0  0  0  0  0  0
   -7.2089   -0.8632    2.2843 H   0  0  0  0  0  0  0  0  0  0  0  0
   -7.9187   -1.3865    0.6733 H   0  0  0  0  0  0  0  0  0  0  0  0
  1  2  1  0
  1  3  1  0
  2  4  1  0
  3  5  1  0
  4  6  1  0
  5  6  1  0
  6  8  1  0
  7  8  1  0
  7  9  1  0
  5 10  1  0
  9 10  1  0
  4 11  1  0
 12 13  1  0
 12 14  1  0
 13 15  1  0
 11 16  1  0
 14 16  1  0
 15 17  1  0
 16 17  1  0
 13 18  1  0
 12 19  1  0
  9 20  1  0
 20 21  1  0
 21 22  1  0
 22 23  1  0
 23 24  1  0
 21 25  1  0
 24 25  1  0
  7 26  1  0
 26 27  1  0
 27 28  1  0
 27 29  1  0
 28 30  1  0
 30 31  1  0
 31 32  1  0
 32 33  1  0
 32 34  1  0
 35 36  1  0
 35 37  1  0
 36 38  1  0
 37 39  1  0
 38 40  1  0
 39 40  1  0
 40 42  1  0
 41 42  1  0
 41 43  1  0
 39 44  1  0
 43 44  1  0
 38 45  1  0
 46 47  1  0
 46 48  1  0
 47 49  1  0
 45 50  1  0
 48 50  1  0
 49 51  1  0
 50 51  1  0
 47 52  1  0
 46 53  1  0
 43 54  1  0
 54 55  1  0
 55 56  1  0
 56 57  1  0
 57 58  1  0
 55 59  1  0
 58 59  1  0
 41 60  1  0
 60 61  1  0
 61 62  1  0
 61 63  1  0
 62 64  1  0
 64 65  1  0
 65 66  1  0
 66 67  1  0
 66 68  1  0
  1 69  1  0
  1 70  1  0
  2 71  1  0
  3 72  1  0
  4 73  1  0
  5 74  1  0
  6 75  1  0
  7 76  1  0
  8 77  1  0
  8 78  1  0
  9 79  1  0
 10 80  1  0
 10 81  1  0
 11 82  1  0
 12 83  1  0
 13 84  1  0
 14 85  1  0
 14 86  1  0
 15 87  1  0
 15 88  1  0
 16 89  1  0
 17 90  1  0
 17 91  1  0
 21 92  1  1
 22 93  1  0
 22 94  1  0
 24 95  1  0
 24 96  1  0
 25 97  1  0
 25 98  1  0
 26 99  1  0
 27100  1  0
 28101  1  0
 28102  1  0
 29103  1  0
 30104  1  0
 30105  1  0
 31106  1  0
 31107  1  0
 33108  1  0
 33109  1  0
 33110  1  0
 34111  1  0
 34112  1  0
 34113  1  0
 35114  1  0
 35115  1  0
 36116  1  0
 37117  1  0
 38118  1  0
 39119  1  0
 40120  1  0
 41121  1  0
 42122  1  0
 42123  1  0
 43124  1  0
 44125  1  0
 44126  1  0
 45127  1  0
 46128  1  0
 47129  1  0
 48130  1  0
 48131  1  0
 49132  1  0
 49133  1  0
 50134  1  0
 51135  1  0
 51136  1  0
 55137  1  1
 56138  1  0
 56139  1  0
 58140  1  0
 58141  1  0
 59142  1  0
 59143  1  0
 60144  1  0
 61145  1  0
 62146  1  0
 62147  1  0
 63148  1  0
 64149  1  0
 64150  1  0
 65151  1  0
 65152  1  0
 67153  1  0
 67154  1  0
 67155  1  0
 68156  1  0
 68157  1  0
 68158  1  0
M  END
>  <PDBID>  (1) 
4G5J

>  <PDB ID>  (1) 
4G5J

>  <Generic Name>  (1) 
Afatinib

>  <Brand Name>  (1) 
Gilotrif#Giotrif

>  <DrugBank ID>  (1) 
DB08916

>  <ATC Codes>  (1) 
L01XE13

>  <Ligand ID>  (1) 
0WM

>  <Target Name>  (1) 
Receptor tyrosine-protein kinase erbB-2

>  <UniProt ID>  (1) 
P04626

>  <PDB ID.1>  (1) 
4G5J

>  <Seq. Identity>  (1) 
78%

$$$$
