PDB_DB00127_04
     RDKit          3D

 80 78  0  0  0  0  0  0  0  0999 V2000
   -6.2803   -1.2861   -0.3800 N   0  0  0  0  0  0  0  0  0  0  0  0
   -5.1784   -0.3908   -0.2625 C   0  0  0  0  0  0  0  0  0  0  0  0
   -4.3199   -0.6390    0.9568 C   0  0  0  0  0  0  0  0  0  0  0  0
   -3.1478    0.3434    1.0389 C   0  0  0  0  0  0  0  0  0  0  0  0
   -2.3350    0.2653   -0.1309 N   0  0  0  0  0  0  0  0  0  0  0  0
   -1.1115    1.0520   -0.0792 C   0  0  0  0  0  0  0  0  0  0  0  0
   -0.5131    0.9238   -1.4838 C   0  0  0  0  0  0  0  0  0  0  0  0
    0.7780    1.6344   -1.6536 C   0  0  0  0  0  0  0  0  0  0  0  0
    1.8206    1.0887   -0.6975 C   0  0  0  0  0  0  0  0  0  0  0  0
    2.0222   -0.2925   -0.9338 N   0  0  0  0  0  0  0  0  0  0  0  0
    3.0672   -0.8541   -0.1477 C   0  0  0  0  0  0  0  0  0  0  0  0
    4.4002   -0.3604   -0.5682 C   0  0  0  0  0  0  0  0  0  0  0  0
    5.5667   -0.9726    0.1881 C   0  0  0  0  0  0  0  0  0  0  0  0
    5.5304   -0.7377    1.5993 N   0  0  0  0  0  0  0  0  0  0  0  0
   -6.2803   -1.2861   -0.3800 N   0  0  0  0  0  0  0  0  0  0  0  0
   -5.1784   -0.3908   -0.2625 C   0  0  0  0  0  0  0  0  0  0  0  0
   -4.3199   -0.6390    0.9568 C   0  0  0  0  0  0  0  0  0  0  0  0
   -3.1478    0.3434    1.0389 C   0  0  0  0  0  0  0  0  0  0  0  0
   -2.3350    0.2653   -0.1309 N   0  0  0  0  0  0  0  0  0  0  0  0
   -1.1115    1.0520   -0.0792 C   0  0  0  0  0  0  0  0  0  0  0  0
   -0.5131    0.9238   -1.4838 C   0  0  0  0  0  0  0  0  0  0  0  0
    0.7780    1.6344   -1.6536 C   0  0  0  0  0  0  0  0  0  0  0  0
    1.8206    1.0887   -0.6975 C   0  0  0  0  0  0  0  0  0  0  0  0
    2.0222   -0.2925   -0.9338 N   0  0  0  0  0  0  0  0  0  0  0  0
    3.0672   -0.8541   -0.1477 C   0  0  0  0  0  0  0  0  0  0  0  0
    4.4002   -0.3604   -0.5682 C   0  0  0  0  0  0  0  0  0  0  0  0
    5.5667   -0.9726    0.1881 C   0  0  0  0  0  0  0  0  0  0  0  0
    5.5304   -0.7377    1.5993 N   0  0  0  0  0  0  0  0  0  0  0  0
   -7.2105   -0.8636   -0.3624 H   0  0  0  0  0  0  0  0  0  0  0  0
   -6.1681   -2.2256    0.0003 H   0  0  0  0  0  0  0  0  0  0  0  0
   -5.5082    0.6525   -0.2536 H   0  0  0  0  0  0  0  0  0  0  0  0
   -4.5205   -0.5813   -1.1484 H   0  0  0  0  0  0  0  0  0  0  0  0
   -3.9557   -1.6754    1.0373 H   0  0  0  0  0  0  0  0  0  0  0  0
   -4.9351   -0.4371    1.8845 H   0  0  0  0  0  0  0  0  0  0  0  0
   -3.5978    1.3632    1.0880 H   0  0  0  0  0  0  0  0  0  0  0  0
   -2.5922    0.1633    1.9536 H   0  0  0  0  0  0  0  0  0  0  0  0
   -2.8566    0.5376   -1.0008 H   0  0  0  0  0  0  0  0  0  0  0  0
   -1.3299    2.1022    0.0982 H   0  0  0  0  0  0  0  0  0  0  0  0
   -0.4458    0.5904    0.6669 H   0  0  0  0  0  0  0  0  0  0  0  0
   -1.2641    1.3916   -2.2121 H   0  0  0  0  0  0  0  0  0  0  0  0
   -0.4238   -0.1367   -1.7003 H   0  0  0  0  0  0  0  0  0  0  0  0
    1.1091    1.4796   -2.7201 H   0  0  0  0  0  0  0  0  0  0  0  0
    0.6790    2.7509   -1.5125 H   0  0  0  0  0  0  0  0  0  0  0  0
    1.4235    1.2767    0.3324 H   0  0  0  0  0  0  0  0  0  0  0  0
    2.7653    1.6968   -0.7858 H   0  0  0  0  0  0  0  0  0  0  0  0
    1.1309   -0.8559   -0.8457 H   0  0  0  0  0  0  0  0  0  0  0  0
    2.8542   -0.5855    0.9252 H   0  0  0  0  0  0  0  0  0  0  0  0
    2.9677   -1.9643   -0.1838 H   0  0  0  0  0  0  0  0  0  0  0  0
    4.5906   -0.5020   -1.6479 H   0  0  0  0  0  0  0  0  0  0  0  0
    4.4247    0.7542   -0.3828 H   0  0  0  0  0  0  0  0  0  0  0  0
    6.5179   -0.6471   -0.2466 H   0  0  0  0  0  0  0  0  0  0  0  0
    5.5238   -2.0883   -0.0013 H   0  0  0  0  0  0  0  0  0  0  0  0
    4.6184   -0.3936    1.8981 H   0  0  0  0  0  0  0  0  0  0  0  0
    5.9039   -1.5770    2.0911 H   0  0  0  0  0  0  0  0  0  0  0  0
   -7.2105   -0.8636   -0.3624 H   0  0  0  0  0  0  0  0  0  0  0  0
   -6.1681   -2.2256    0.0003 H   0  0  0  0  0  0  0  0  0  0  0  0
   -5.5082    0.6525   -0.2536 H   0  0  0  0  0  0  0  0  0  0  0  0
   -4.5205   -0.5813   -1.1484 H   0  0  0  0  0  0  0  0  0  0  0  0
   -3.9557   -1.6754    1.0373 H   0  0  0  0  0  0  0  0  0  0  0  0
   -4.9351   -0.4371    1.8845 H   0  0  0  0  0  0  0  0  0  0  0  0
   -3.5978    1.3632    1.0880 H   0  0  0  0  0  0  0  0  0  0  0  0
   -2.5922    0.1633    1.9536 H   0  0  0  0  0  0  0  0  0  0  0  0
   -2.8566    0.5376   -1.0008 H   0  0  0  0  0  0  0  0  0  0  0  0
   -1.3299    2.1022    0.0982 H   0  0  0  0  0  0  0  0  0  0  0  0
   -0.4458    0.5904    0.6669 H   0  0  0  0  0  0  0  0  0  0  0  0
   -1.2641    1.3916   -2.2121 H   0  0  0  0  0  0  0  0  0  0  0  0
   -0.4238   -0.1367   -1.7003 H   0  0  0  0  0  0  0  0  0  0  0  0
    1.1091    1.4796   -2.7201 H   0  0  0  0  0  0  0  0  0  0  0  0
    0.6790    2.7509   -1.5125 H   0  0  0  0  0  0  0  0  0  0  0  0
    1.4235    1.2767    0.3324 H   0  0  0  0  0  0  0  0  0  0  0  0
    2.7653    1.6968   -0.7858 H   0  0  0  0  0  0  0  0  0  0  0  0
    1.1309   -0.8559   -0.8457 H   0  0  0  0  0  0  0  0  0  0  0  0
    2.8542   -0.5855    0.9252 H   0  0  0  0  0  0  0  0  0  0  0  0
    2.9677   -1.9643   -0.1838 H   0  0  0  0  0  0  0  0  0  0  0  0
    4.5906   -0.5020   -1.6479 H   0  0  0  0  0  0  0  0  0  0  0  0
    4.4247    0.7542   -0.3828 H   0  0  0  0  0  0  0  0  0  0  0  0
    6.5179   -0.6471   -0.2466 H   0  0  0  0  0  0  0  0  0  0  0  0
    5.5238   -2.0883   -0.0013 H   0  0  0  0  0  0  0  0  0  0  0  0
    4.6184   -0.3936    1.8981 H   0  0  0  0  0  0  0  0  0  0  0  0
    5.9039   -1.5770    2.0911 H   0  0  0  0  0  0  0  0  0  0  0  0
  1  2  1  0
  2  3  1  0
  3  4  1  0
  4  5  1  0
  5  6  1  0
  6  7  1  0
  7  8  1  0
  8  9  1  0
  9 10  1  0
 10 11  1  0
 11 12  1  0
 12 13  1  0
 13 14  1  0
 15 16  1  0
 16 17  1  0
 17 18  1  0
 18 19  1  0
 19 20  1  0
 20 21  1  0
 21 22  1  0
 22 23  1  0
 23 24  1  0
 24 25  1  0
 25 26  1  0
 26 27  1  0
 27 28  1  0
  1 29  1  0
  1 30  1  0
  2 31  1  0
  2 32  1  0
  3 33  1  0
  3 34  1  0
  4 35  1  0
  4 36  1  0
  5 37  1  0
  6 38  1  0
  6 39  1  0
  7 40  1  0
  7 41  1  0
  8 42  1  0
  8 43  1  0
  9 44  1  0
  9 45  1  0
 10 46  1  0
 11 47  1  0
 11 48  1  0
 12 49  1  0
 12 50  1  0
 13 51  1  0
 13 52  1  0
 14 53  1  0
 14 54  1  0
 15 55  1  0
 15 56  1  0
 16 57  1  0
 16 58  1  0
 17 59  1  0
 17 60  1  0
 18 61  1  0
 18 62  1  0
 19 63  1  0
 20 64  1  0
 20 65  1  0
 21 66  1  0
 21 67  1  0
 22 68  1  0
 22 69  1  0
 23 70  1  0
 23 71  1  0
 24 72  1  0
 25 73  1  0
 25 74  1  0
 26 75  1  0
 26 76  1  0
 27 77  1  0
 27 78  1  0
 28 79  1  0
 28 80  1  0
M  END
>  <PDBID>  (1) 
3KU9

>  <PDB ID>  (1) 
3KU9

>  <Generic Name>  (1) 
Spermine

>  <Brand Name>  (1) 
nan

>  <DrugBank ID>  (1) 
DB00127

>  <ATC Codes>  (1) 
nan

>  <Ligand ID>  (1) 
SPM

>  <Target Name>  (1) 
Spermine oxidase

>  <UniProt ID>  (1) 
Q9NWM0

>  <PDB ID.1>  (1) 
3KU9

>  <Seq. Identity>  (1) 
31%

$$$$
