PDB_DB08912_07
     RDKit          3D

316328  0  0  0  0  0  0  0  0999 V2000
   -4.8597   -2.0961   -1.6101 C   0  0  0  0  0  0  0  0  0  0  0  0
   -2.8925   -1.0359   -0.7321 C   0  0  2  0  0  0  0  0  0  0  0  0
   -3.9512   -2.0366   -0.4854 N   0  0  0  0  0  0  0  0  0  0  0  0
   -1.9792   -1.6449   -1.7352 C   0  0  0  0  0  0  0  0  0  0  0  0
   -4.0665   -2.3900   -2.7838 N   0  0  0  0  0  0  0  0  0  0  0  0
   -2.7230   -2.8044   -2.4182 C   0  0  0  0  0  0  0  0  0  0  0  0
   -5.8347   -3.1204   -1.3213 N   0  0  0  0  0  0  0  0  0  0  0  0
   -2.3168   -0.7356    0.6078 C   0  0  0  0  0  0  0  0  0  0  0  0
   -3.7523   -0.0906    1.5902 S   0  0  0  0  0  0  0  0  0  0  0  0
   -3.3318    1.6926    1.4292 C   0  0  1  0  0  0  0  0  0  0  0  0
   -2.3204    1.6365    0.3905 N   0  0  0  0  0  0  0  0  0  0  0  0
   -1.4886    0.5011    0.7067 C   0  0  0  0  0  0  0  0  0  0  0  0
   -4.5381    2.4958    1.0688 C   0  0  0  0  0  0  0  0  0  0  0  0
   -5.1641    2.0887   -0.2227 C   0  0  0  0  0  0  0  0  0  0  0  0
   -4.1890    3.9627    0.9820 C   0  0  0  0  0  0  0  0  0  0  0  0
   -5.5638    2.3690    2.1949 C   0  0  0  0  0  0  0  0  0  0  0  0
   -0.1817    0.5180    0.0278 C   0  0  2  0  0  0  0  0  0  0  0  0
    1.6499   -0.1777    1.6528 C   0  0  2  0  0  0  0  0  0  0  0  0
    0.7960   -0.4857    0.4747 C   0  0  0  0  0  0  0  0  0  0  0  0
    1.3880    1.1779    2.2708 C   0  0  0  0  0  0  0  0  0  0  0  0
    0.3947    1.8928    0.0580 C   0  0  0  0  0  0  0  0  0  0  0  0
    1.0962    2.2632    1.3073 C   0  0  0  0  0  0  0  0  0  0  0  0
    1.6527   -0.7592   -0.6048 F   0  0  0  0  0  0  0  0  0  0  0  0
    3.0428   -0.4225    1.4293 N   0  0  0  0  0  0  0  0  0  0  0  0
    3.9328    0.2127    0.4355 S   0  0  0  0  0  0  0  0  0  0  0  0
    5.3707   -0.7500    0.1726 C   0  0  0  0  0  0  0  0  0  0  0  0
    7.5520   -0.6150   -1.0654 C   0  0  0  0  0  0  0  0  0  0  0  0
    6.2199    0.0429   -0.8277 C   0  0  0  0  0  0  0  0  0  0  0  0
    7.3142   -2.0129   -1.6088 C   0  0  0  0  0  0  0  0  0  0  0  0
    5.0992   -2.0840   -0.4235 C   0  0  0  0  0  0  0  0  0  0  0  0
    6.4509   -2.7694   -0.6247 C   0  0  0  0  0  0  0  0  0  0  0  0
    4.3900   -2.9085    0.4231 F   0  0  0  0  0  0  0  0  0  0  0  0
    6.4230    1.3277   -0.4014 F   0  0  0  0  0  0  0  0  0  0  0  0
    4.8621    1.5834    1.3297 O   0  0  0  0  0  0  0  0  0  0  0  0
    3.5764    0.9488   -0.8675 O   0  0  0  0  0  0  0  0  0  0  0  0
   -5.5537   -2.3865    0.4266 C   0  0  0  0  0  0  0  0  0  0  0  0
   -3.9553   -1.2937   -0.8834 C   0  0  0  0  0  0  0  0  0  0  0  0
   -4.5186   -1.3504    0.4317 N   0  0  0  0  0  0  0  0  0  0  0  0
   -3.3424   -2.6241   -1.2203 C   0  0  0  0  0  0  0  0  0  0  0  0
   -5.7111   -2.9264   -0.8862 N   0  0  0  0  0  0  0  0  0  0  0  0
   -4.5277   -3.5842   -1.4045 C   0  0  0  0  0  0  0  0  0  0  0  0
   -5.2864   -3.4068    1.4233 N   0  0  0  0  0  0  0  0  0  0  0  0
   -3.0860   -0.1073   -1.0995 C   0  0  0  0  0  0  0  0  0  0  0  0
   -4.1710    1.3635   -0.8244 S   0  0  0  0  0  0  0  0  0  0  0  0
   -3.1282    2.0984    0.5015 C   0  0  1  0  0  0  0  0  0  0  0  0
   -1.8404    1.5722    0.0520 N   0  0  0  0  0  0  0  0  0  0  0  0
   -2.0390    0.1460   -0.0798 C   0  0  2  0  0  0  0  0  0  0  0  0
   -3.1777    3.5869    0.4649 C   0  0  0  0  0  0  0  0  0  0  0  0
   -4.6393    3.9951    0.6690 C   0  0  0  0  0  0  0  0  0  0  0  0
   -2.6560    4.1788   -0.8183 C   0  0  0  0  0  0  0  0  0  0  0  0
   -2.4248    4.1035    1.6726 C   0  0  0  0  0  0  0  0  0  0  0  0
   -0.7209   -0.5272   -0.3505 C   0  0  2  0  0  0  0  0  0  0  0  0
    1.3466   -1.1733    0.8060 C   0  0  0  0  0  0  0  0  0  0  0  0
    0.2073   -0.1345    0.8079 C   0  0  0  0  0  0  0  0  0  0  0  0
    1.5169   -1.7434   -0.5787 C   0  0  0  0  0  0  0  0  0  0  0  0
   -0.0540   -0.0631   -1.5987 C   0  0  0  0  0  0  0  0  0  0  0  0
    1.3224   -0.6905   -1.6619 C   0  0  0  0  0  0  0  0  0  0  0  0
    0.7308    1.1206    0.5691 F   0  0  0  0  0  0  0  0  0  0  0  0
    2.5888   -0.5564    1.2005 N   0  0  0  0  0  0  0  0  0  0  0  0
    3.9118   -1.1969    1.4143 S   0  0  0  0  0  0  0  0  0  0  0  0
    5.3403   -0.5287    0.7775 C   0  0  0  0  0  0  0  0  0  0  0  0
    7.0313    1.2313    0.8473 C   0  0  0  0  0  0  0  0  0  0  0  0
    5.6621    0.8522    1.3054 C   0  0  0  0  0  0  0  0  0  0  0  0
    7.1613    1.2465   -0.6587 C   0  0  0  0  0  0  0  0  0  0  0  0
    5.3807   -0.4879   -0.7162 C   0  0  0  0  0  0  0  0  0  0  0  0
    6.6771   -0.0075   -1.2988 C   0  0  0  0  0  0  0  0  0  0  0  0
    5.1669   -1.7841   -1.1959 F   0  0  0  0  0  0  0  0  0  0  0  0
    5.6668    0.8403    2.6894 F   0  0  0  0  0  0  0  0  0  0  0  0
    4.3395   -1.3315    3.1074 O   0  0  0  0  0  0  0  0  0  0  0  0
    3.9492   -2.8114    0.9999 O   0  0  0  0  0  0  0  0  0  0  0  0
   -4.8100   -2.7649   -0.3123 C   0  0  0  0  0  0  0  0  0  0  0  0
   -3.0716   -1.3775   -1.0365 C   0  0  2  0  0  0  0  0  0  0  0  0
   -3.8938   -1.6832    0.0856 N   0  0  0  0  0  0  0  0  0  0  0  0
   -2.0802   -2.4804   -1.2187 C   0  0  0  0  0  0  0  0  0  0  0  0
   -4.2587   -3.4636   -1.4397 N   0  0  0  0  0  0  0  0  0  0  0  0
   -2.8741   -3.7870   -1.2973 C   0  0  0  0  0  0  0  0  0  0  0  0
   -5.1152   -3.6286    0.7990 N   0  0  0  0  0  0  0  0  0  0  0  0
   -2.5216    0.0174   -1.0921 C   0  0  1  0  0  0  0  0  0  0  0  0
   -4.0465    1.0651   -1.1331 S   0  0  0  0  0  0  0  0  0  0  0  0
   -3.7665    1.7826    0.5321 C   0  0  0  0  0  0  0  0  0  0  0  0
   -2.3597    1.8266    0.4949 N   0  0  0  0  0  0  0  0  0  0  0  0
   -1.8132    0.5162    0.1099 C   0  0  0  0  0  0  0  0  0  0  0  0
   -4.3039    3.1931    0.4568 C   0  0  0  0  0  0  0  0  0  0  0  0
   -5.7813    3.0697    0.1070 C   0  0  0  0  0  0  0  0  0  0  0  0
   -3.6591    3.9989   -0.6370 C   0  0  0  0  0  0  0  0  0  0  0  0
   -4.1890    3.9191    1.7676 C   0  0  0  0  0  0  0  0  0  0  0  0
   -0.3602    0.9254   -0.1443 C   0  0  2  0  0  0  0  0  0  0  0  0
    1.2121   -0.9987    0.3408 C   0  0  2  0  0  0  0  0  0  0  0  0
    0.5545   -0.0865   -0.6464 C   0  0  0  0  0  0  0  0  0  0  0  0
    0.7540   -0.7803    1.7634 C   0  0  0  0  0  0  0  0  0  0  0  0
    0.2309    1.5933    1.0751 C   0  0  0  0  0  0  0  0  0  0  0  0
    0.5435    0.6286    2.1592 C   0  0  0  0  0  0  0  0  0  0  0  0
    1.6095    0.6042   -1.2806 F   0  0  0  0  0  0  0  0  0  0  0  0
    2.6398   -1.0914    0.2328 N   0  0  0  0  0  0  0  0  0  0  0  0
    3.6601   -0.0276    0.3927 S   0  0  0  0  0  0  0  0  0  0  0  0
    5.2658   -0.7044    0.1185 C   0  0  0  0  0  0  0  0  0  0  0  0
    7.6758   -0.0292    0.1552 C   0  0  0  0  0  0  0  0  0  0  0  0
    6.2451    0.4327    0.3210 C   0  0  0  0  0  0  0  0  0  0  0  0
    7.8710   -0.7540   -1.1389 C   0  0  0  0  0  0  0  0  0  0  0  0
    5.4114   -1.2363   -1.2691 C   0  0  0  0  0  0  0  0  0  0  0  0
    6.8093   -1.7708   -1.4266 C   0  0  0  0  0  0  0  0  0  0  0  0
    5.2649   -0.2061   -2.1838 F   0  0  0  0  0  0  0  0  0  0  0  0
    6.1190    0.9715    1.5869 F   0  0  0  0  0  0  0  0  0  0  0  0
    3.9430    0.1239    2.2772 O   0  0  0  0  0  0  0  0  0  0  0  0
    3.6715    1.4301    0.0178 O   0  0  0  0  0  0  0  0  0  0  0  0
   -5.4674   -2.4456    0.1518 C   0  0  0  0  0  0  0  0  0  0  0  0
   -3.8179   -1.3599   -1.0865 C   0  0  2  0  0  0  0  0  0  0  0  0
   -4.4321   -1.4102    0.2035 N   0  0  0  0  0  0  0  0  0  0  0  0
   -3.1160   -2.6689   -1.3256 C   0  0  0  0  0  0  0  0  0  0  0  0
   -5.5154   -3.0832   -1.1328 N   0  0  0  0  0  0  0  0  0  0  0  0
   -4.2452   -3.6954   -1.5225 C   0  0  0  0  0  0  0  0  0  0  0  0
   -5.2961   -3.4142    1.2175 N   0  0  0  0  0  0  0  0  0  0  0  0
   -2.9887   -0.1392   -1.2675 C   0  0  1  0  0  0  0  0  0  0  0  0
   -4.1734    1.2679   -1.0550 S   0  0  0  0  0  0  0  0  0  0  0  0
   -3.2711    2.0396    0.3534 C   0  0  1  0  0  0  0  0  0  0  0  0
   -1.9222    1.6186   -0.0306 N   0  0  0  0  0  0  0  0  0  0  0  0
   -2.0261    0.1713   -0.1809 C   0  0  2  0  0  0  0  0  0  0  0  0
   -3.4312    3.5171    0.3509 C   0  0  0  0  0  0  0  0  0  0  0  0
   -4.9039    3.8429    0.4704 C   0  0  0  0  0  0  0  0  0  0  0  0
   -2.8445    4.1994   -0.8451 C   0  0  0  0  0  0  0  0  0  0  0  0
   -2.7567    4.0620    1.5916 C   0  0  0  0  0  0  0  0  0  0  0  0
   -0.6639   -0.4386   -0.3507 C   0  0  2  0  0  0  0  0  0  0  0  0
    1.6576   -0.0690    0.5516 C   0  0  2  0  0  0  0  0  0  0  0  0
    0.1588    0.0015    0.8538 C   0  0  0  0  0  0  0  0  0  0  0  0
    1.8367   -1.2566   -0.3965 C   0  0  0  0  0  0  0  0  0  0  0  0
    0.0527    0.0025   -1.5840 C   0  0  0  0  0  0  0  0  0  0  0  0
    1.2485   -0.9472   -1.7557 C   0  0  0  0  0  0  0  0  0  0  0  0
   -0.1814   -0.8008    1.9030 F   0  0  0  0  0  0  0  0  0  0  0  0
    2.4188   -0.3127    1.7199 N   0  0  0  0  0  0  0  0  0  0  0  0
    3.8358   -0.2806    1.9703 S   0  0  0  0  0  0  0  0  0  0  0  0
    5.0606   -0.5505    0.8012 C   0  0  0  0  0  0  0  0  0  0  0  0
    6.1872    0.3458   -1.2412 C   0  0  0  0  0  0  0  0  0  0  0  0
    5.0225    0.5108   -0.2706 C   0  0  0  0  0  0  0  0  0  0  0  0
    7.5142    0.3259   -0.5495 C   0  0  0  0  0  0  0  0  0  0  0  0
    6.4171   -0.3923    1.4937 C   0  0  2  0  0  0  0  0  0  0  0  0
    7.5155   -0.7479    0.5255 C   0  0  0  0  0  0  0  0  0  0  0  0
    6.4919   -1.1402    2.6378 F   0  0  0  0  0  0  0  0  0  0  0  0
    5.1023    1.7845    0.2361 F   0  0  0  0  0  0  0  0  0  0  0  0
    4.0947   -1.9620    2.8352 O   0  0  0  0  0  0  0  0  0  0  0  0
    4.4807    0.5857    3.2074 O   0  0  0  0  0  0  0  0  0  0  0  0
   -5.4196   -1.1377   -1.7079 H   0  0  0  0  0  0  0  0  0  0  0  0
   -3.4298   -0.1431   -1.1024 H   0  0  0  0  0  0  0  0  0  0  0  0
   -4.4396   -1.8354    0.4132 H   0  0  0  0  0  0  0  0  0  0  0  0
   -1.0966   -2.0915   -1.2830 H   0  0  0  0  0  0  0  0  0  0  0  0
   -1.7432   -0.9480   -2.5879 H   0  0  0  0  0  0  0  0  0  0  0  0
   -4.5065   -3.2085   -3.2529 H   0  0  0  0  0  0  0  0  0  0  0  0
   -2.1844   -3.1179   -3.3187 H   0  0  0  0  0  0  0  0  0  0  0  0
   -2.8211   -3.6222   -1.6866 H   0  0  0  0  0  0  0  0  0  0  0  0
   -6.4125   -2.7717   -0.5246 H   0  0  0  0  0  0  0  0  0  0  0  0
   -5.3998   -4.0510   -1.1286 H   0  0  0  0  0  0  0  0  0  0  0  0
   -1.8419   -1.5695    1.1138 H   0  0  0  0  0  0  0  0  0  0  0  0
   -2.8365    2.0413    2.3572 H   0  0  0  0  0  0  0  0  0  0  0  0
   -2.6698    1.6690   -0.5666 H   0  0  0  0  0  0  0  0  0  0  0  0
   -1.2763    0.6168    1.8163 H   0  0  0  0  0  0  0  0  0  0  0  0
   -6.1503    2.6092   -0.2870 H   0  0  0  0  0  0  0  0  0  0  0  0
   -4.5120    2.3608   -1.0750 H   0  0  0  0  0  0  0  0  0  0  0  0
   -5.3302    0.9952   -0.1933 H   0  0  0  0  0  0  0  0  0  0  0  0
   -3.9318    4.1988   -0.0666 H   0  0  0  0  0  0  0  0  0  0  0  0
   -5.0262    4.5890    1.3523 H   0  0  0  0  0  0  0  0  0  0  0  0
   -3.3231    4.1180    1.6704 H   0  0  0  0  0  0  0  0  0  0  0  0
   -5.1592    2.9666    3.0418 H   0  0  0  0  0  0  0  0  0  0  0  0
   -5.7298    1.3233    2.4604 H   0  0  0  0  0  0  0  0  0  0  0  0
   -6.4900    2.8772    1.8455 H   0  0  0  0  0  0  0  0  0  0  0  0
   -0.3957    0.3223   -1.0712 H   0  0  0  0  0  0  0  0  0  0  0  0
    1.3412   -0.9041    2.4653 H   0  0  0  0  0  0  0  0  0  0  0  0
    0.2346   -1.4621    0.5991 H   0  0  0  0  0  0  0  0  0  0  0  0
    0.6653    1.1297    3.1159 H   0  0  0  0  0  0  0  0  0  0  0  0
    2.3634    1.4521    2.7787 H   0  0  0  0  0  0  0  0  0  0  0  0
    1.0558    2.0293   -0.8479 H   0  0  0  0  0  0  0  0  0  0  0  0
   -0.4586    2.6037   -0.1407 H   0  0  0  0  0  0  0  0  0  0  0  0
    2.0173    2.8461    1.0165 H   0  0  0  0  0  0  0  0  0  0  0  0
    0.4735    3.0336    1.8513 H   0  0  0  0  0  0  0  0  0  0  0  0
    3.2385   -1.4273    1.7254 H   0  0  0  0  0  0  0  0  0  0  0  0
    5.9497   -0.8839    1.1089 H   0  0  0  0  0  0  0  0  0  0  0  0
    8.1001   -0.6230   -0.1090 H   0  0  0  0  0  0  0  0  0  0  0  0
    8.0885   -0.0058   -1.8074 H   0  0  0  0  0  0  0  0  0  0  0  0
    5.6131    0.0883   -1.7564 H   0  0  0  0  0  0  0  0  0  0  0  0
    8.2823   -2.5080   -1.6640 H   0  0  0  0  0  0  0  0  0  0  0  0
    6.8121   -1.9037   -2.5794 H   0  0  0  0  0  0  0  0  0  0  0  0
    4.5488   -2.0408   -1.3809 H   0  0  0  0  0  0  0  0  0  0  0  0
    6.9733   -2.6870    0.3722 H   0  0  0  0  0  0  0  0  0  0  0  0
    6.3396   -3.8159   -0.9461 H   0  0  0  0  0  0  0  0  0  0  0  0
    4.8579    1.1744    2.2305 H   0  0  0  0  0  0  0  0  0  0  0  0
    3.5714    1.9392   -0.8423 H   0  0  0  0  0  0  0  0  0  0  0  0
   -6.4919   -1.8726    0.6975 H   0  0  0  0  0  0  0  0  0  0  0  0
   -4.8394   -1.1941   -1.5849 H   0  0  0  0  0  0  0  0  0  0  0  0
   -3.8249   -1.6272    1.1628 H   0  0  0  0  0  0  0  0  0  0  0  0
   -2.7447   -3.0631   -0.4084 H   0  0  0  0  0  0  0  0  0  0  0  0
   -2.7374   -2.6299   -2.1347 H   0  0  0  0  0  0  0  0  0  0  0  0
   -6.5423   -3.5338   -0.9187 H   0  0  0  0  0  0  0  0  0  0  0  0
   -4.3957   -4.5241   -0.8613 H   0  0  0  0  0  0  0  0  0  0  0  0
   -4.7070   -3.7829   -2.4851 H   0  0  0  0  0  0  0  0  0  0  0  0
   -4.3789   -3.1629    1.8782 H   0  0  0  0  0  0  0  0  0  0  0  0
   -5.2883   -4.3673    1.0125 H   0  0  0  0  0  0  0  0  0  0  0  0
   -2.7436   -0.0039   -2.1449 H   0  0  0  0  0  0  0  0  0  0  0  0
   -3.4168    1.7443    1.4882 H   0  0  0  0  0  0  0  0  0  0  0  0
   -1.6477    2.0290   -0.8765 H   0  0  0  0  0  0  0  0  0  0  0  0
   -2.3948   -0.2120    0.9067 H   0  0  0  0  0  0  0  0  0  0  0  0
   -5.1610    4.1291   -0.3001 H   0  0  0  0  0  0  0  0  0  0  0  0
   -5.1891    3.1773    1.2102 H   0  0  0  0  0  0  0  0  0  0  0  0
   -4.7023    4.8991    1.3125 H   0  0  0  0  0  0  0  0  0  0  0  0
   -2.7933    3.5362   -1.6937 H   0  0  0  0  0  0  0  0  0  0  0  0
   -3.2567    5.1130   -1.0010 H   0  0  0  0  0  0  0  0  0  0  0  0
   -1.6092    4.5273   -0.6947 H   0  0  0  0  0  0  0  0  0  0  0  0
   -2.7286    5.1205    1.9705 H   0  0  0  0  0  0  0  0  0  0  0  0
   -2.6189    3.3703    2.4944 H   0  0  0  0  0  0  0  0  0  0  0  0
   -1.3400    4.0208    1.4525 H   0  0  0  0  0  0  0  0  0  0  0  0
   -0.8570   -1.6033   -0.2710 H   0  0  0  0  0  0  0  0  0  0  0  0
    1.0203   -1.9825    1.4758 H   0  0  0  0  0  0  0  0  0  0  0  0
   -0.3484   -0.1642    1.7476 H   0  0  0  0  0  0  0  0  0  0  0  0
    0.8760   -2.6287   -0.7558 H   0  0  0  0  0  0  0  0  0  0  0  0
    2.5597   -2.0872   -0.6816 H   0  0  0  0  0  0  0  0  0  0  0  0
    0.1088    1.0360   -1.5091 H   0  0  0  0  0  0  0  0  0  0  0  0
   -0.5878   -0.3344   -2.5251 H   0  0  0  0  0  0  0  0  0  0  0  0
    1.4688   -1.2500   -2.6320 H   0  0  0  0  0  0  0  0  0  0  0  0
    2.1381    0.0460   -1.6278 H   0  0  0  0  0  0  0  0  0  0  0  0
    2.4782    0.4842    1.2786 H   0  0  0  0  0  0  0  0  0  0  0  0
    6.2072   -1.1864    1.0859 H   0  0  0  0  0  0  0  0  0  0  0  0
    7.2170    2.2859    1.1834 H   0  0  0  0  0  0  0  0  0  0  0  0
    7.8170    0.6193    1.2922 H   0  0  0  0  0  0  0  0  0  0  0  0
    4.9217    1.6054    0.9699 H   0  0  0  0  0  0  0  0  0  0  0  0
    8.2641    1.3305   -0.8792 H   0  0  0  0  0  0  0  0  0  0  0  0
    6.6859    2.1149   -1.1323 H   0  0  0  0  0  0  0  0  0  0  0  0
    4.5688    0.1312   -1.1594 H   0  0  0  0  0  0  0  0  0  0  0  0
    7.4088   -0.8486   -1.1996 H   0  0  0  0  0  0  0  0  0  0  0  0
    6.5012    0.1756   -2.3824 H   0  0  0  0  0  0  0  0  0  0  0  0
    5.2344   -1.7823    3.0993 H   0  0  0  0  0  0  0  0  0  0  0  0
    4.7026   -3.2743    1.4773 H   0  0  0  0  0  0  0  0  0  0  0  0
   -5.7593   -2.3008   -0.6498 H   0  0  0  0  0  0  0  0  0  0  0  0
   -3.7534   -1.4650   -1.9424 H   0  0  0  0  0  0  0  0  0  0  0  0
   -4.4913   -0.9385    0.4448 H   0  0  0  0  0  0  0  0  0  0  0  0
   -1.4812   -2.5496   -0.2894 H   0  0  0  0  0  0  0  0  0  0  0  0
   -1.4313   -2.3659   -2.1104 H   0  0  0  0  0  0  0  0  0  0  0  0
   -4.8585   -4.2444   -1.7198 H   0  0  0  0  0  0  0  0  0  0  0  0
   -2.5541   -4.3188   -2.2177 H   0  0  0  0  0  0  0  0  0  0  0  0
   -2.6877   -4.4446   -0.4360 H   0  0  0  0  0  0  0  0  0  0  0  0
   -4.3851   -3.6012    1.5449 H   0  0  0  0  0  0  0  0  0  0  0  0
   -5.3514   -4.5876    0.4975 H   0  0  0  0  0  0  0  0  0  0  0  0
   -1.9624    0.1312   -2.0307 H   0  0  0  0  0  0  0  0  0  0  0  0
   -4.2409    1.2456    1.3338 H   0  0  0  0  0  0  0  0  0  0  0  0
   -2.0998    2.4584   -0.3249 H   0  0  0  0  0  0  0  0  0  0  0  0
   -1.8472   -0.1846    0.9729 H   0  0  0  0  0  0  0  0  0  0  0  0
   -6.3034    4.0436    0.1425 H   0  0  0  0  0  0  0  0  0  0  0  0
   -5.8469    2.5787   -0.8862 H   0  0  0  0  0  0  0  0  0  0  0  0
   -6.2009    2.3304    0.8387 H   0  0  0  0  0  0  0  0  0  0  0  0
   -4.3650    4.8313   -0.9257 H   0  0  0  0  0  0  0  0  0  0  0  0
   -3.5000    3.4219   -1.5637 H   0  0  0  0  0  0  0  0  0  0  0  0
   -2.7412    4.5150   -0.2765 H   0  0  0  0  0  0  0  0  0  0  0  0
   -3.2555    4.5346    1.8067 H   0  0  0  0  0  0  0  0  0  0  0  0
   -4.2768    3.2385    2.6444 H   0  0  0  0  0  0  0  0  0  0  0  0
   -5.0265    4.6424    1.8462 H   0  0  0  0  0  0  0  0  0  0  0  0
   -0.4391    1.7465   -0.9194 H   0  0  0  0  0  0  0  0  0  0  0  0
    0.8231   -2.0351    0.0867 H   0  0  0  0  0  0  0  0  0  0  0  0
    0.0860   -0.6226   -1.5110 H   0  0  0  0  0  0  0  0  0  0  0  0
   -0.1033   -1.4311    2.0326 H   0  0  0  0  0  0  0  0  0  0  0  0
    1.6009   -1.1757    2.4029 H   0  0  0  0  0  0  0  0  0  0  0  0
    1.1221    2.1715    0.7062 H   0  0  0  0  0  0  0  0  0  0  0  0
   -0.4459    2.3821    1.4885 H   0  0  0  0  0  0  0  0  0  0  0  0
    1.4002    1.0523    2.7618 H   0  0  0  0  0  0  0  0  0  0  0  0
   -0.3162    0.6416    2.8935 H   0  0  0  0  0  0  0  0  0  0  0  0
    2.9730   -2.0950    0.0776 H   0  0  0  0  0  0  0  0  0  0  0  0
    5.4943   -1.5166    0.8348 H   0  0  0  0  0  0  0  0  0  0  0  0
    7.9627   -0.6400    1.0342 H   0  0  0  0  0  0  0  0  0  0  0  0
    8.3129    0.8726    0.1390 H   0  0  0  0  0  0  0  0  0  0  0  0
    6.0490    1.2452   -0.3973 H   0  0  0  0  0  0  0  0  0  0  0  0
    8.8402   -1.2933   -1.0787 H   0  0  0  0  0  0  0  0  0  0  0  0
    7.9953   -0.0139   -1.9674 H   0  0  0  0  0  0  0  0  0  0  0  0
    4.7137   -2.0730   -1.4700 H   0  0  0  0  0  0  0  0  0  0  0  0
    6.9891   -2.1441   -2.4667 H   0  0  0  0  0  0  0  0  0  0  0  0
    6.9595   -2.6092   -0.6907 H   0  0  0  0  0  0  0  0  0  0  0  0
    4.0059   -0.8391    2.3835 H   0  0  0  0  0  0  0  0  0  0  0  0
    3.8196    2.1780    0.6508 H   0  0  0  0  0  0  0  0  0  0  0  0
   -6.4323   -1.8906    0.2624 H   0  0  0  0  0  0  0  0  0  0  0  0
   -4.6248   -1.3109   -1.8801 H   0  0  0  0  0  0  0  0  0  0  0  0
   -3.7145   -1.7703    0.9001 H   0  0  0  0  0  0  0  0  0  0  0  0
   -2.5574   -3.0346   -0.4469 H   0  0  0  0  0  0  0  0  0  0  0  0
   -2.5252   -2.6774   -2.2438 H   0  0  0  0  0  0  0  0  0  0  0  0
   -6.2141   -3.8353   -1.1394 H   0  0  0  0  0  0  0  0  0  0  0  0
   -4.3449   -3.9633   -2.5842 H   0  0  0  0  0  0  0  0  0  0  0  0
   -4.1002   -4.5951   -0.9199 H   0  0  0  0  0  0  0  0  0  0  0  0
   -4.3743   -3.2404    1.7172 H   0  0  0  0  0  0  0  0  0  0  0  0
   -5.2233   -4.3717    0.7900 H   0  0  0  0  0  0  0  0  0  0  0  0
   -2.5828   -0.0163   -2.2883 H   0  0  0  0  0  0  0  0  0  0  0  0
   -3.5878    1.6243    1.3094 H   0  0  0  0  0  0  0  0  0  0  0  0
   -1.7685    1.9906   -0.9974 H   0  0  0  0  0  0  0  0  0  0  0  0
   -2.4380   -0.1981    0.7802 H   0  0  0  0  0  0  0  0  0  0  0  0
   -5.0681    4.7478    1.0934 H   0  0  0  0  0  0  0  0  0  0  0  0
   -5.3979    3.9877   -0.4887 H   0  0  0  0  0  0  0  0  0  0  0  0
   -5.4131    3.0022    0.9860 H   0  0  0  0  0  0  0  0  0  0  0  0
   -3.3866    3.9311   -1.7697 H   0  0  0  0  0  0  0  0  0  0  0  0
   -1.7618    4.0288   -0.9014 H   0  0  0  0  0  0  0  0  0  0  0  0
   -2.9746    5.3024   -0.6879 H   0  0  0  0  0  0  0  0  0  0  0  0
   -3.2786    4.9680    1.9814 H   0  0  0  0  0  0  0  0  0  0  0  0
   -2.8376    3.2916    2.3954 H   0  0  0  0  0  0  0  0  0  0  0  0
   -1.6820    4.2352    1.4310 H   0  0  0  0  0  0  0  0  0  0  0  0
   -0.7086   -1.5388   -0.3252 H   0  0  0  0  0  0  0  0  0  0  0  0
    1.9703    0.8770    0.0802 H   0  0  0  0  0  0  0  0  0  0  0  0
   -0.0854    1.0484    1.1285 H   0  0  0  0  0  0  0  0  0  0  0  0
    2.8841   -1.5389   -0.4490 H   0  0  0  0  0  0  0  0  0  0  0  0
    1.2751   -2.1012    0.0932 H   0  0  0  0  0  0  0  0  0  0  0  0
    0.4206    1.0426   -1.4337 H   0  0  0  0  0  0  0  0  0  0  0  0
   -0.5210   -0.0635   -2.5052 H   0  0  0  0  0  0  0  0  0  0  0  0
    1.9785   -0.5590   -2.4706 H   0  0  0  0  0  0  0  0  0  0  0  0
    0.8399   -1.8988   -2.1594 H   0  0  0  0  0  0  0  0  0  0  0  0
    1.7253   -0.7471    2.4238 H   0  0  0  0  0  0  0  0  0  0  0  0
    5.0527   -1.5292    0.3246 H   0  0  0  0  0  0  0  0  0  0  0  0
    6.1638    1.2151   -1.9271 H   0  0  0  0  0  0  0  0  0  0  0  0
    6.0767   -0.5759   -1.8468 H   0  0  0  0  0  0  0  0  0  0  0  0
    4.1122    0.4551   -0.8962 H   0  0  0  0  0  0  0  0  0  0  0  0
    8.2707    0.0325   -1.3214 H   0  0  0  0  0  0  0  0  0  0  0  0
    7.7645    1.3238   -0.1224 H   0  0  0  0  0  0  0  0  0  0  0  0
    6.5609    0.6715    1.7708 H   0  0  0  0  0  0  0  0  0  0  0  0
    7.3174   -1.7169   -0.0032 H   0  0  0  0  0  0  0  0  0  0  0  0
    8.4878   -0.7451    1.0493 H   0  0  0  0  0  0  0  0  0  0  0  0
    3.9278   -2.5248    2.0605 H   0  0  0  0  0  0  0  0  0  0  0  0
    4.7327    1.5074    2.9778 H   0  0  0  0  0  0  0  0  0  0  0  0
  1  3  1  0
  2  3  1  0
  2  4  1  0
  1  5  1  0
  4  6  1  0
  5  6  1  0
  1  7  1  0
  2  8  1  0
  8  9  1  0
  9 10  1  0
 10 11  1  0
  8 12  1  0
 11 12  1  0
 10 13  1  0
 13 14  1  0
 13 15  1  0
 13 16  1  0
 12 17  1  0
 17 19  1  0
 18 19  1  0
 18 20  1  0
 17 21  1  0
 20 22  1  0
 21 22  1  0
 19 23  1  0
 18 24  1  0
 24 25  1  0
 25 26  1  0
 26 28  1  0
 27 28  1  0
 27 29  1  0
 26 30  1  0
 29 31  1  0
 30 31  1  0
 30 32  1  0
 28 33  1  0
 25 34  1  0
 25 35  1  0
 36 38  1  0
 37 38  1  0
 37 39  1  0
 36 40  1  0
 39 41  1  0
 40 41  1  0
 36 42  1  0
 37 43  1  0
 43 44  1  0
 44 45  1  0
 45 46  1  0
 43 47  1  0
 46 47  1  0
 45 48  1  0
 48 49  1  0
 48 50  1  0
 48 51  1  0
 47 52  1  0
 52 54  1  0
 53 54  1  0
 53 55  1  0
 52 56  1  0
 55 57  1  0
 56 57  1  0
 54 58  1  0
 53 59  1  0
 59 60  1  0
 60 61  1  0
 61 63  1  0
 62 63  1  0
 62 64  1  0
 61 65  1  0
 64 66  1  0
 65 66  1  0
 65 67  1  0
 63 68  1  0
 60 69  1  0
 60 70  1  0
 71 73  1  0
 72 73  1  0
 72 74  1  0
 71 75  1  0
 74 76  1  0
 75 76  1  0
 71 77  1  0
 72 78  1  0
 78 79  1  0
 79 80  1  0
 80 81  1  0
 78 82  1  0
 81 82  1  0
 80 83  1  0
 83 84  1  0
 83 85  1  0
 83 86  1  0
 82 87  1  0
 87 89  1  0
 88 89  1  0
 88 90  1  0
 87 91  1  0
 90 92  1  0
 91 92  1  0
 89 93  1  0
 88 94  1  0
 94 95  1  0
 95 96  1  0
 96 98  1  0
 97 98  1  0
 97 99  1  0
 96100  1  0
 99101  1  0
100101  1  0
100102  1  0
 98103  1  0
 95104  1  0
 95105  1  0
106108  1  0
107108  1  0
107109  1  0
106110  1  0
109111  1  0
110111  1  0
106112  1  0
107113  1  0
113114  1  0
114115  1  0
115116  1  0
113117  1  0
116117  1  0
115118  1  0
118119  1  0
118120  1  0
118121  1  0
117122  1  0
122124  1  0
123124  1  0
123125  1  0
122126  1  0
125127  1  0
126127  1  0
124128  1  0
123129  1  0
129130  1  0
130131  1  0
131133  1  0
132133  1  0
132134  1  0
131135  1  0
134136  1  0
135136  1  0
135137  1  0
133138  1  0
130139  1  0
130140  1  0
  1141  1  0
  2142  1  6
  3143  1  0
  4144  1  0
  4145  1  0
  5146  1  0
  6147  1  0
  6148  1  0
  7149  1  0
  7150  1  0
  8151  1  0
 10152  1  1
 11153  1  0
 12154  1  0
 14155  1  0
 14156  1  0
 14157  1  0
 15158  1  0
 15159  1  0
 15160  1  0
 16161  1  0
 16162  1  0
 16163  1  0
 17164  1  6
 18165  1  1
 19166  1  0
 20167  1  0
 20168  1  0
 21169  1  0
 21170  1  0
 22171  1  0
 22172  1  0
 24173  1  0
 26174  1  0
 27175  1  0
 27176  1  0
 28177  1  0
 29178  1  0
 29179  1  0
 30180  1  0
 31181  1  0
 31182  1  0
 34183  1  0
 35184  1  0
 36185  1  0
 37186  1  0
 38187  1  0
 39188  1  0
 39189  1  0
 40190  1  0
 41191  1  0
 41192  1  0
 42193  1  0
 42194  1  0
 43195  1  0
 45196  1  1
 46197  1  0
 47198  1  1
 49199  1  0
 49200  1  0
 49201  1  0
 50202  1  0
 50203  1  0
 50204  1  0
 51205  1  0
 51206  1  0
 51207  1  0
 52208  1  6
 53209  1  0
 54210  1  0
 55211  1  0
 55212  1  0
 56213  1  0
 56214  1  0
 57215  1  0
 57216  1  0
 59217  1  0
 61218  1  0
 62219  1  0
 62220  1  0
 63221  1  0
 64222  1  0
 64223  1  0
 65224  1  0
 66225  1  0
 66226  1  0
 69227  1  0
 70228  1  0
 71229  1  0
 72230  1  6
 73231  1  0
 74232  1  0
 74233  1  0
 75234  1  0
 76235  1  0
 76236  1  0
 77237  1  0
 77238  1  0
 78239  1  6
 80240  1  0
 81241  1  0
 82242  1  0
 84243  1  0
 84244  1  0
 84245  1  0
 85246  1  0
 85247  1  0
 85248  1  0
 86249  1  0
 86250  1  0
 86251  1  0
 87252  1  6
 88253  1  6
 89254  1  0
 90255  1  0
 90256  1  0
 91257  1  0
 91258  1  0
 92259  1  0
 92260  1  0
 94261  1  0
 96262  1  0
 97263  1  0
 97264  1  0
 98265  1  0
 99266  1  0
 99267  1  0
100268  1  0
101269  1  0
101270  1  0
104271  1  0
105272  1  0
106273  1  0
107274  1  6
108275  1  0
109276  1  0
109277  1  0
110278  1  0
111279  1  0
111280  1  0
112281  1  0
112282  1  0
113283  1  6
115284  1  1
116285  1  0
117286  1  1
119287  1  0
119288  1  0
119289  1  0
120290  1  0
120291  1  0
120292  1  0
121293  1  0
121294  1  0
121295  1  0
122296  1  6
123297  1  6
124298  1  0
125299  1  0
125300  1  0
126301  1  0
126302  1  0
127303  1  0
127304  1  0
129305  1  0
131306  1  0
132307  1  0
132308  1  0
133309  1  0
134310  1  0
134311  1  0
135312  1  1
136313  1  0
136314  1  0
139315  1  0
140316  1  0
M  END
>  <PDBID>  (1) 
5HIE

>  <PDB ID>  (1) 
5HIE

>  <Generic Name>  (1) 
Dabrafenib

>  <Brand Name>  (1) 
Tafinlar

>  <DrugBank ID>  (1) 
DB08912

>  <ATC Codes>  (1) 
L01XE23

>  <Ligand ID>  (1) 
P06

>  <Target Name>  (1) 
RAF proto-oncogene serine/threonine-protein kinase

>  <UniProt ID>  (1) 
P04049

>  <PDB ID.1>  (1) 
5HIE

>  <Seq. Identity>  (1) 
77%

$$$$
