PDB_DB01092_01
     RDKit          3D

178188  0  0  0  0  0  0  0  0999 V2000
    1.2590   -0.0541   -1.4970 C   0  0  2  0  0  0  0  0  0  0  0  0
    2.7211   -0.0972   -1.3985 C   0  0  0  0  0  0  0  0  0  0  0  0
    3.3252    0.8045   -0.3575 C   0  0  1  0  0  0  0  0  0  0  0  0
    2.4464    1.1192    0.7771 C   0  0  0  0  0  0  0  0  0  0  0  0
    0.9811    1.1411    0.5597 C   0  0  1  0  0  0  0  0  0  0  0  0
    0.5295    2.3848   -0.1723 C   0  0  0  0  0  0  0  0  0  0  0  0
   -0.9752    2.4968   -0.2122 C   0  0  0  0  0  0  0  0  0  0  0  0
   -1.6738    1.1811    0.0646 C   0  0  2  0  0  0  0  0  0  0  0  0
   -0.9591    0.0025   -0.5664 C   0  0  1  0  0  0  0  0  0  0  0  0
    0.4879   -0.0627   -0.1759 C   0  0  1  0  0  0  0  0  0  0  0  0
   -1.7845   -1.2112   -0.2999 C   0  0  1  0  0  0  0  0  0  0  0  0
   -2.8645   -0.9890    0.7252 C   0  0  0  0  0  0  0  0  0  0  0  0
   -3.8291    0.1128    0.3710 C   0  0  1  0  0  0  0  0  0  0  0  0
   -3.1148    1.2798   -0.3199 C   0  0  2  0  0  0  0  0  0  0  0  0
   -3.4798    1.2911   -1.7297 C   0  0  0  0  0  0  0  0  0  0  0  0
   -4.7227    0.4163   -1.8650 C   0  0  0  0  0  0  0  0  0  0  0  0
   -4.8958   -0.3057   -0.5671 C   0  0  2  0  0  0  0  0  0  0  0  0
   -4.3203    0.6318    1.7092 C   0  0  0  0  0  0  0  0  0  0  0  0
    0.8903   -1.3600    0.4772 C   0  0  0  0  0  0  0  0  0  0  0  0
   -6.3047   -0.2279   -0.0384 C   0  0  1  0  0  0  0  0  0  0  0  0
   -7.3153   -0.6726   -1.0775 C   0  0  0  0  0  0  0  0  0  0  0  0
   -6.5570   -1.2123    1.0794 C   0  0  0  0  0  0  0  0  0  0  0  0
   -7.9402   -1.7170    0.7849 C   0  0  0  0  0  0  0  0  0  0  0  0
    5.6239    0.8759   -0.0981 C   0  0  2  0  0  0  0  0  0  0  0  0
    6.3109    1.1422    1.2250 C   0  0  1  0  0  0  0  0  0  0  0  0
    6.5182   -0.1499    1.9253 C   0  0  1  0  0  0  0  0  0  0  0  0
    6.4854   -1.3572    1.0570 C   0  0  2  0  0  0  0  0  0  0  0  0
    6.7530   -1.1220   -0.3801 C   0  0  2  0  0  0  0  0  0  0  0  0
    8.2013   -1.4631   -0.7311 C   0  0  0  0  0  0  0  0  0  0  0  0
    0.8341   -1.2311   -2.1629 O   0  0  0  0  0  0  0  0  0  0  0  0
    4.4653    0.1617    0.1322 O   0  0  0  0  0  0  0  0  0  0  0  0
    0.4549    1.2639    1.8511 O   0  0  0  0  0  0  0  0  0  0  0  0
   -2.4705   -1.6785   -1.4530 O   0  0  0  0  0  0  0  0  0  0  0  0
   -3.5725    2.4932    0.2601 O   0  0  0  0  0  0  0  0  0  0  0  0
    0.3480   -1.6282    1.6799 O   0  0  0  0  0  0  0  0  0  0  0  0
   -8.4232   -0.9686   -0.2846 O   0  0  0  0  0  0  0  0  0  0  0  0
   -7.9561   -3.0531    0.4198 O   0  0  0  0  0  0  0  0  0  0  0  0
    7.5818    1.6869    0.9414 O   0  0  0  0  0  0  0  0  0  0  0  0
    7.6986   -0.0614    2.6937 O   0  0  0  0  0  0  0  0  0  0  0  0
    5.2893   -2.0855    1.2494 O   0  0  0  0  0  0  0  0  0  0  0  0
    6.4750    0.1180   -0.8594 O   0  0  0  0  0  0  0  0  0  0  0  0
    1.2803   -0.2224   -1.3666 C   0  0  2  0  0  0  0  0  0  0  0  0
    2.7429   -0.1460   -1.3021 C   0  0  0  0  0  0  0  0  0  0  0  0
    3.3001    0.8916   -0.3712 C   0  0  1  0  0  0  0  0  0  0  0  0
    2.4204    1.2760    0.7402 C   0  0  0  0  0  0  0  0  0  0  0  0
    0.9535    1.1761    0.5584 C   0  0  1  0  0  0  0  0  0  0  0  0
    0.3990    2.2904   -0.3083 C   0  0  0  0  0  0  0  0  0  0  0  0
   -1.1062    2.2685   -0.3506 C   0  0  0  0  0  0  0  0  0  0  0  0
   -1.7098    0.9534    0.0556 C   0  0  2  0  0  0  0  0  0  0  0  0
   -0.9025   -0.2527   -0.3773 C   0  0  1  0  0  0  0  0  0  0  0  0
    0.5496   -0.1388   -0.0086 C   0  0  1  0  0  0  0  0  0  0  0  0
   -1.6225   -1.4624    0.1101 C   0  0  1  0  0  0  0  0  0  0  0  0
   -2.7004   -1.1427    1.1202 C   0  0  0  0  0  0  0  0  0  0  0  0
   -3.7667   -0.1994    0.6037 C   0  0  1  0  0  0  0  0  0  0  0  0
   -3.1526    0.8846   -0.2867 C   0  0  2  0  0  0  0  0  0  0  0  0
   -3.5551    0.6019   -1.6669 C   0  0  0  0  0  0  0  0  0  0  0  0
   -4.6717   -0.4332   -1.6246 C   0  0  0  0  0  0  0  0  0  0  0  0
   -4.7911   -0.9066   -0.1978 C   0  0  2  0  0  0  0  0  0  0  0  0
   -4.3168    0.4834    1.8382 C   0  0  0  0  0  0  0  0  0  0  0  0
    1.0951   -1.3133    0.7571 C   0  0  0  0  0  0  0  0  0  0  0  0
   -6.1929   -0.8697    0.3124 C   0  0  0  0  0  0  0  0  0  0  0  0
   -6.8390    0.4589    0.3967 C   0  0  0  0  0  0  0  0  0  0  0  0
   -7.1406   -1.6740   -0.5446 C   0  0  0  0  0  0  0  0  0  0  0  0
   -8.2193   -0.7092   -0.9157 C   0  0  0  0  0  0  0  0  0  0  0  0
    5.5940    1.0997   -0.1268 C   0  0  2  0  0  0  0  0  0  0  0  0
    6.4052    1.4748    1.0996 C   0  0  1  0  0  0  0  0  0  0  0  0
    6.6953    0.2335    1.8687 C   0  0  1  0  0  0  0  0  0  0  0  0
    6.6133   -1.0282    1.0976 C   0  0  2  0  0  0  0  0  0  0  0  0
    6.7162   -0.9116   -0.3707 C   0  0  2  0  0  0  0  0  0  0  0  0
    8.1005   -1.3413   -0.8703 C   0  0  0  0  0  0  0  0  0  0  0  0
    0.9421   -1.5153   -1.8440 O   0  0  0  0  0  0  0  0  0  0  0  0
    4.4850    0.3591    0.1707 O   0  0  0  0  0  0  0  0  0  0  0  0
    0.4339    1.4266    1.8349 O   0  0  0  0  0  0  0  0  0  0  0  0
   -2.2926   -2.1671   -0.9255 O   0  0  0  0  0  0  0  0  0  0  0  0
   -3.6856    2.1414    0.0990 O   0  0  0  0  0  0  0  0  0  0  0  0
    0.6395   -1.5035    2.0042 O   0  0  0  0  0  0  0  0  0  0  0  0
   -8.1382    0.3771   -0.0935 O   0  0  0  0  0  0  0  0  0  0  0  0
   -9.4711   -1.3292   -0.8986 O   0  0  0  0  0  0  0  0  0  0  0  0
    7.6359    1.9833    0.6351 O   0  0  0  0  0  0  0  0  0  0  0  0
    7.9591    0.3845    2.4845 O   0  0  0  0  0  0  0  0  0  0  0  0
    5.4437   -1.7331    1.4654 O   0  0  0  0  0  0  0  0  0  0  0  0
    6.4449    0.3068   -0.9106 O   0  0  0  0  0  0  0  0  0  0  0  0
    0.8837    0.7739   -2.1678 H   0  0  0  0  0  0  0  0  0  0  0  0
    3.0785   -1.1567   -1.2816 H   0  0  0  0  0  0  0  0  0  0  0  0
    3.1424    0.2241   -2.3770 H   0  0  0  0  0  0  0  0  0  0  0  0
    3.6908    1.7635   -0.8207 H   0  0  0  0  0  0  0  0  0  0  0  0
    2.7281    2.1269    1.2087 H   0  0  0  0  0  0  0  0  0  0  0  0
    2.6455    0.4173    1.6427 H   0  0  0  0  0  0  0  0  0  0  0  0
    0.8802    3.2504    0.4645 H   0  0  0  0  0  0  0  0  0  0  0  0
    1.0154    2.5307   -1.1475 H   0  0  0  0  0  0  0  0  0  0  0  0
   -1.3253    2.8741   -1.2150 H   0  0  0  0  0  0  0  0  0  0  0  0
   -1.3734    3.2256    0.5265 H   0  0  0  0  0  0  0  0  0  0  0  0
   -1.7163    0.9807    1.1574 H   0  0  0  0  0  0  0  0  0  0  0  0
   -1.0841    0.1970   -1.6779 H   0  0  0  0  0  0  0  0  0  0  0  0
   -1.2219   -2.1050    0.0389 H   0  0  0  0  0  0  0  0  0  0  0  0
   -2.3801   -0.8635    1.7097 H   0  0  0  0  0  0  0  0  0  0  0  0
   -3.4483   -1.9317    0.7853 H   0  0  0  0  0  0  0  0  0  0  0  0
   -3.7945    2.3219   -2.0781 H   0  0  0  0  0  0  0  0  0  0  0  0
   -2.7771    0.9501   -2.4787 H   0  0  0  0  0  0  0  0  0  0  0  0
   -4.6465   -0.2744   -2.7429 H   0  0  0  0  0  0  0  0  0  0  0  0
   -5.6342    1.0312   -2.0700 H   0  0  0  0  0  0  0  0  0  0  0  0
   -4.7234   -1.4011   -0.7926 H   0  0  0  0  0  0  0  0  0  0  0  0
   -4.3148   -0.1624    2.4841 H   0  0  0  0  0  0  0  0  0  0  0  0
   -5.2160    1.2428    1.6648 H   0  0  0  0  0  0  0  0  0  0  0  0
   -3.5062    1.3375    2.0617 H   0  0  0  0  0  0  0  0  0  0  0  0
    0.7788   -2.1563   -0.2884 H   0  0  0  0  0  0  0  0  0  0  0  0
    2.0113   -1.3037    0.6346 H   0  0  0  0  0  0  0  0  0  0  0  0
   -6.6225    0.7575    0.2927 H   0  0  0  0  0  0  0  0  0  0  0  0
   -7.6176    0.1716   -1.7349 H   0  0  0  0  0  0  0  0  0  0  0  0
   -7.0281   -1.5746   -1.6138 H   0  0  0  0  0  0  0  0  0  0  0  0
   -5.8197   -2.0250    1.1269 H   0  0  0  0  0  0  0  0  0  0  0  0
   -6.6087   -0.6670    2.0572 H   0  0  0  0  0  0  0  0  0  0  0  0
   -8.6440   -1.5357    1.6316 H   0  0  0  0  0  0  0  0  0  0  0  0
    5.4210    1.8276   -0.6311 H   0  0  0  0  0  0  0  0  0  0  0  0
    5.7313    1.8859    1.7923 H   0  0  0  0  0  0  0  0  0  0  0  0
    5.6968   -0.2524    2.6926 H   0  0  0  0  0  0  0  0  0  0  0  0
    7.2876   -2.0571    1.4383 H   0  0  0  0  0  0  0  0  0  0  0  0
    6.1347   -1.8620   -0.9671 H   0  0  0  0  0  0  0  0  0  0  0  0
    8.6080   -2.0443    0.1197 H   0  0  0  0  0  0  0  0  0  0  0  0
    8.2756   -2.0712   -1.6439 H   0  0  0  0  0  0  0  0  0  0  0  0
    8.7756   -0.5183   -0.7693 H   0  0  0  0  0  0  0  0  0  0  0  0
    1.0404   -1.1125   -3.1235 H   0  0  0  0  0  0  0  0  0  0  0  0
    0.9389    2.0052    2.2765 H   0  0  0  0  0  0  0  0  0  0  0  0
   -1.9605   -1.3781   -2.2360 H   0  0  0  0  0  0  0  0  0  0  0  0
   -3.4698    3.2247   -0.3991 H   0  0  0  0  0  0  0  0  0  0  0  0
    0.8534   -1.4210    2.4790 H   0  0  0  0  0  0  0  0  0  0  0  0
   -7.8711   -3.1036   -0.5593 H   0  0  0  0  0  0  0  0  0  0  0  0
    7.5764    2.0560    0.0140 H   0  0  0  0  0  0  0  0  0  0  0  0
    7.6812    0.8712    3.0649 H   0  0  0  0  0  0  0  0  0  0  0  0
    5.4072   -2.9648    0.8547 H   0  0  0  0  0  0  0  0  0  0  0  0
    0.7928    0.4625   -2.1101 H   0  0  0  0  0  0  0  0  0  0  0  0
    3.1760   -1.1619   -1.0852 H   0  0  0  0  0  0  0  0  0  0  0  0
    3.1177    0.1025   -2.3194 H   0  0  0  0  0  0  0  0  0  0  0  0
    3.6197    1.8189   -0.9207 H   0  0  0  0  0  0  0  0  0  0  0  0
    2.6385    2.3404    1.0577 H   0  0  0  0  0  0  0  0  0  0  0  0
    2.6816    0.6845    1.6687 H   0  0  0  0  0  0  0  0  0  0  0  0
    0.7540    3.2429    0.1907 H   0  0  0  0  0  0  0  0  0  0  0  0
    0.8685    2.3296   -1.3133 H   0  0  0  0  0  0  0  0  0  0  0  0
   -1.4939    2.6047   -1.3519 H   0  0  0  0  0  0  0  0  0  0  0  0
   -1.4780    3.0290    0.3686 H   0  0  0  0  0  0  0  0  0  0  0  0
   -1.7080    0.9372    1.1848 H   0  0  0  0  0  0  0  0  0  0  0  0
   -1.0625   -0.2660   -1.5040 H   0  0  0  0  0  0  0  0  0  0  0  0
   -1.0019   -2.2465    0.5697 H   0  0  0  0  0  0  0  0  0  0  0  0
   -2.2766   -0.8014    2.0959 H   0  0  0  0  0  0  0  0  0  0  0  0
   -3.2181   -2.1067    1.3446 H   0  0  0  0  0  0  0  0  0  0  0  0
   -4.0306    1.5138   -2.1437 H   0  0  0  0  0  0  0  0  0  0  0  0
   -2.7860    0.3036   -2.3872 H   0  0  0  0  0  0  0  0  0  0  0  0
   -4.4432   -1.2422   -2.3449 H   0  0  0  0  0  0  0  0  0  0  0  0
   -5.6540   -0.0226   -1.9239 H   0  0  0  0  0  0  0  0  0  0  0  0
   -4.5119   -2.0026   -0.2247 H   0  0  0  0  0  0  0  0  0  0  0  0
   -4.9761   -0.1594    2.4212 H   0  0  0  0  0  0  0  0  0  0  0  0
   -4.6870    1.5107    1.6448 H   0  0  0  0  0  0  0  0  0  0  0  0
   -3.4221    0.6579    2.5148 H   0  0  0  0  0  0  0  0  0  0  0  0
    0.9719   -2.2156    0.1239 H   0  0  0  0  0  0  0  0  0  0  0  0
    2.2193   -1.1921    0.8241 H   0  0  0  0  0  0  0  0  0  0  0  0
   -6.2286   -1.3672    1.3300 H   0  0  0  0  0  0  0  0  0  0  0  0
   -6.2744    1.2809   -0.1147 H   0  0  0  0  0  0  0  0  0  0  0  0
   -6.9419    0.7712    1.4622 H   0  0  0  0  0  0  0  0  0  0  0  0
   -6.6212   -2.1139   -1.4310 H   0  0  0  0  0  0  0  0  0  0  0  0
   -7.5976   -2.5325   -0.0126 H   0  0  0  0  0  0  0  0  0  0  0  0
   -8.0373   -0.3780   -1.9648 H   0  0  0  0  0  0  0  0  0  0  0  0
    5.3218    1.9773   -0.7420 H   0  0  0  0  0  0  0  0  0  0  0  0
    5.9104    2.2702    1.6911 H   0  0  0  0  0  0  0  0  0  0  0  0
    5.9725    0.1926    2.7350 H   0  0  0  0  0  0  0  0  0  0  0  0
    7.4543   -1.6960    1.4495 H   0  0  0  0  0  0  0  0  0  0  0  0
    6.0080   -1.6601   -0.8302 H   0  0  0  0  0  0  0  0  0  0  0  0
    8.5409   -1.9912   -0.0899 H   0  0  0  0  0  0  0  0  0  0  0  0
    8.0396   -1.8672   -1.8257 H   0  0  0  0  0  0  0  0  0  0  0  0
    8.7139   -0.4146   -0.9529 H   0  0  0  0  0  0  0  0  0  0  0  0
    1.0891   -1.5240   -2.8068 H   0  0  0  0  0  0  0  0  0  0  0  0
    0.9023    2.2492    2.1532 H   0  0  0  0  0  0  0  0  0  0  0  0
   -1.7955   -2.0466   -1.7855 H   0  0  0  0  0  0  0  0  0  0  0  0
   -3.5764    2.7820   -0.6474 H   0  0  0  0  0  0  0  0  0  0  0  0
    1.0440   -1.0160    2.7380 H   0  0  0  0  0  0  0  0  0  0  0  0
   -9.3227   -2.2863   -1.1285 H   0  0  0  0  0  0  0  0  0  0  0  0
    7.5465    2.4424   -0.2264 H   0  0  0  0  0  0  0  0  0  0  0  0
    7.9395    1.1875    3.0596 H   0  0  0  0  0  0  0  0  0  0  0  0
    5.2475   -2.4526    0.8084 H   0  0  0  0  0  0  0  0  0  0  0  0
  1  2  1  0
  2  3  1  0
  3  4  1  0
  4  5  1  0
  5  6  1  0
  6  7  1  0
  7  8  1  0
  8  9  1  0
  1 10  1  0
  5 10  1  0
  9 10  1  0
  9 11  1  0
 11 12  1  0
 12 13  1  0
  8 14  1  0
 13 14  1  0
 14 15  1  0
 15 16  1  0
 13 17  1  0
 16 17  1  0
 13 18  1  1
 10 19  1  1
 17 20  1  0
 20 21  1  0
 20 22  1  0
 22 23  1  0
 24 25  1  0
 25 26  1  0
 26 27  1  0
 27 28  1  0
 28 29  1  0
  1 30  1  0
  3 31  1  0
 24 31  1  0
  5 32  1  1
 11 33  1  0
 14 34  1  1
 19 35  1  0
 21 36  1  0
 23 36  1  0
 23 37  1  0
 25 38  1  0
 26 39  1  0
 27 40  1  0
 24 41  1  0
 28 41  1  0
 42 43  1  0
 43 44  1  0
 44 45  1  0
 45 46  1  0
 46 47  1  0
 47 48  1  0
 48 49  1  0
 49 50  1  0
 42 51  1  0
 46 51  1  0
 50 51  1  0
 50 52  1  0
 52 53  1  0
 53 54  1  0
 49 55  1  0
 54 55  1  0
 55 56  1  0
 56 57  1  0
 54 58  1  0
 57 58  1  0
 54 59  1  1
 51 60  1  1
 58 61  1  0
 61 62  1  0
 61 63  1  0
 63 64  1  0
 65 66  1  0
 66 67  1  0
 67 68  1  0
 68 69  1  0
 69 70  1  0
 42 71  1  0
 44 72  1  0
 65 72  1  0
 46 73  1  1
 52 74  1  0
 55 75  1  1
 60 76  1  0
 62 77  1  0
 64 77  1  0
 64 78  1  0
 66 79  1  0
 67 80  1  0
 68 81  1  0
 65 82  1  0
 69 82  1  0
  1 83  1  6
  2 84  1  0
  2 85  1  0
  3 86  1  6
  4 87  1  0
  4 88  1  0
  6 89  1  0
  6 90  1  0
  7 91  1  0
  7 92  1  0
  8 93  1  1
  9 94  1  6
 11 95  1  1
 12 96  1  0
 12 97  1  0
 15 98  1  0
 15 99  1  0
 16100  1  0
 16101  1  0
 17102  1  6
 18103  1  0
 18104  1  0
 18105  1  0
 19106  1  0
 19107  1  0
 20108  1  1
 21109  1  0
 21110  1  0
 22111  1  0
 22112  1  0
 23113  1  0
 24114  1  6
 25115  1  1
 26116  1  1
 27117  1  1
 28118  1  6
 29119  1  0
 29120  1  0
 29121  1  0
 30122  1  0
 32123  1  0
 33124  1  0
 34125  1  0
 35126  1  0
 37127  1  0
 38128  1  0
 39129  1  0
 40130  1  0
 42131  1  6
 43132  1  0
 43133  1  0
 44134  1  6
 45135  1  0
 45136  1  0
 47137  1  0
 47138  1  0
 48139  1  0
 48140  1  0
 49141  1  1
 50142  1  6
 52143  1  1
 53144  1  0
 53145  1  0
 56146  1  0
 56147  1  0
 57148  1  0
 57149  1  0
 58150  1  6
 59151  1  0
 59152  1  0
 59153  1  0
 60154  1  0
 60155  1  0
 61156  1  0
 62157  1  0
 62158  1  0
 63159  1  0
 63160  1  0
 64161  1  0
 65162  1  6
 66163  1  1
 67164  1  1
 68165  1  1
 69166  1  6
 70167  1  0
 70168  1  0
 70169  1  0
 71170  1  0
 73171  1  0
 74172  1  0
 75173  1  0
 76174  1  0
 78175  1  0
 79176  1  0
 80177  1  0
 81178  1  0
M  END
>  <PDBID>  (1) 
3N23

>  <PDB ID>  (1) 
3N23

>  <Generic Name>  (1) 
Ouabain

>  <Brand Name>  (1) 
Strodival

>  <DrugBank ID>  (1) 
DB01092

>  <ATC Codes>  (1) 
C01AC01

>  <Ligand ID>  (1) 
OBN

>  <Target Name>  (1) 
Sodium/potassium-transporting ATPase subunit alpha-1

>  <UniProt ID>  (1) 
P05023

>  <PDB ID.1>  (1) 
3N23

>  <Seq. Identity>  (1) 
95%

$$$$
