PDB_DB03849_09
     RDKit          3D

124128  0  0  0  0  0  0  0  0999 V2000
    5.9557    1.9618    1.0371 O   0  0  0  0  0  0  0  0  0  0  0  0
    5.2770    0.7983    1.4266 C   0  0  0  0  0  0  0  0  0  0  0  0
    6.2336   -0.0622    1.9643 O   0  0  0  0  0  0  0  0  0  0  0  0
    4.6460    0.1137    0.2220 C   0  0  0  0  0  0  0  0  0  0  0  0
    3.6630    0.9713   -0.4859 C   0  0  0  0  0  0  0  0  0  0  0  0
    2.2620    0.8871    0.0005 C   0  0  0  0  0  0  0  0  0  0  0  0
    4.1438   -1.2378    0.6173 C   0  0  0  0  0  0  0  0  0  0  0  0
    2.8368   -1.4672   -0.1540 C   0  0  0  0  0  0  0  0  0  0  0  0
    1.8078   -0.4910    0.3512 C   0  0  0  0  0  0  0  0  0  0  0  0
    1.6455   -0.5617    1.8592 C   0  0  0  0  0  0  0  0  0  0  0  0
    1.2036   -1.8954    2.2249 N   0  0  0  0  0  0  0  0  0  0  0  0
    0.4652   -0.8554   -0.2449 C   0  0  0  0  0  0  0  0  0  0  0  0
    0.4481   -0.8060   -1.7452 C   0  0  0  0  0  0  0  0  0  0  0  0
   -0.8245   -1.5350   -2.1970 C   0  0  0  0  0  0  0  0  0  0  0  0
   -1.9692   -1.2800   -1.2462 C   0  0  0  0  0  0  0  0  0  0  0  0
   -2.0102   -2.2942   -0.3205 O   0  0  0  0  0  0  0  0  0  0  0  0
   -3.2290   -2.9665   -0.3204 C   0  0  0  0  0  0  0  0  0  0  0  0
   -1.7557    0.0867   -0.6431 C   0  0  0  0  0  0  0  0  0  0  0  0
   -0.6440    0.0113    0.3550 C   0  0  0  0  0  0  0  0  0  0  0  0
   -2.9423    0.5523   -0.1590 O   0  0  0  0  0  0  0  0  0  0  0  0
   -3.4213    1.6918   -0.7691 C   0  0  0  0  0  0  0  0  0  0  0  0
   -4.7469    1.3493   -1.4188 C   0  0  0  0  0  0  0  0  0  0  0  0
   -5.8303    1.7980   -0.4938 C   0  0  0  0  0  0  0  0  0  0  0  0
   -5.1355    2.2717    0.7805 C   0  0  0  0  0  0  0  0  0  0  0  0
   -3.8094    2.7481    0.2241 C   0  0  0  0  0  0  0  0  0  0  0  0
    5.9557    1.9618    1.0371 O   0  0  0  0  0  0  0  0  0  0  0  0
    5.2770    0.7983    1.4266 C   0  0  0  0  0  0  0  0  0  0  0  0
    6.2336   -0.0622    1.9643 O   0  0  0  0  0  0  0  0  0  0  0  0
    4.6460    0.1137    0.2220 C   0  0  0  0  0  0  0  0  0  0  0  0
    3.6630    0.9713   -0.4859 C   0  0  0  0  0  0  0  0  0  0  0  0
    2.2620    0.8871    0.0005 C   0  0  0  0  0  0  0  0  0  0  0  0
    4.1438   -1.2378    0.6173 C   0  0  0  0  0  0  0  0  0  0  0  0
    2.8368   -1.4672   -0.1540 C   0  0  0  0  0  0  0  0  0  0  0  0
    1.8078   -0.4910    0.3512 C   0  0  0  0  0  0  0  0  0  0  0  0
    1.6455   -0.5617    1.8592 C   0  0  0  0  0  0  0  0  0  0  0  0
    1.2036   -1.8954    2.2249 N   0  0  0  0  0  0  0  0  0  0  0  0
    0.4652   -0.8554   -0.2449 C   0  0  0  0  0  0  0  0  0  0  0  0
    0.4481   -0.8060   -1.7452 C   0  0  0  0  0  0  0  0  0  0  0  0
   -0.8245   -1.5350   -2.1970 C   0  0  0  0  0  0  0  0  0  0  0  0
   -1.9692   -1.2800   -1.2462 C   0  0  0  0  0  0  0  0  0  0  0  0
   -2.0102   -2.2942   -0.3205 O   0  0  0  0  0  0  0  0  0  0  0  0
   -3.2290   -2.9665   -0.3204 C   0  0  0  0  0  0  0  0  0  0  0  0
   -1.7557    0.0867   -0.6431 C   0  0  0  0  0  0  0  0  0  0  0  0
   -0.6440    0.0113    0.3550 C   0  0  0  0  0  0  0  0  0  0  0  0
   -2.9423    0.5523   -0.1590 O   0  0  0  0  0  0  0  0  0  0  0  0
   -3.4213    1.6918   -0.7691 C   0  0  0  0  0  0  0  0  0  0  0  0
   -4.7469    1.3493   -1.4188 C   0  0  0  0  0  0  0  0  0  0  0  0
   -5.8303    1.7980   -0.4938 C   0  0  0  0  0  0  0  0  0  0  0  0
   -5.1355    2.2717    0.7805 C   0  0  0  0  0  0  0  0  0  0  0  0
   -3.8094    2.7481    0.2241 C   0  0  0  0  0  0  0  0  0  0  0  0
    6.5187    1.8171    0.2440 H   0  0  0  0  0  0  0  0  0  0  0  0
    4.5152    1.0880    2.1809 H   0  0  0  0  0  0  0  0  0  0  0  0
    6.7200    0.4518    2.6740 H   0  0  0  0  0  0  0  0  0  0  0  0
    5.5057   -0.0580   -0.4929 H   0  0  0  0  0  0  0  0  0  0  0  0
    4.0001    2.0418   -0.3767 H   0  0  0  0  0  0  0  0  0  0  0  0
    3.6882    0.7811   -1.5867 H   0  0  0  0  0  0  0  0  0  0  0  0
    2.1426    1.6089    0.8582 H   0  0  0  0  0  0  0  0  0  0  0  0
    1.5894    1.2771   -0.8017 H   0  0  0  0  0  0  0  0  0  0  0  0
    4.8208   -2.0691    0.2590 H   0  0  0  0  0  0  0  0  0  0  0  0
    4.0258   -1.3958    1.6902 H   0  0  0  0  0  0  0  0  0  0  0  0
    3.0872   -1.1472   -1.2082 H   0  0  0  0  0  0  0  0  0  0  0  0
    2.5303   -2.5115   -0.1180 H   0  0  0  0  0  0  0  0  0  0  0  0
    0.8098    0.1227    2.1151 H   0  0  0  0  0  0  0  0  0  0  0  0
    2.5202   -0.2251    2.4113 H   0  0  0  0  0  0  0  0  0  0  0  0
    0.6129   -1.8944    3.0818 H   0  0  0  0  0  0  0  0  0  0  0  0
    1.9932   -2.5723    2.2740 H   0  0  0  0  0  0  0  0  0  0  0  0
    0.2617   -1.9030    0.0606 H   0  0  0  0  0  0  0  0  0  0  0  0
    0.4358    0.2216   -2.1393 H   0  0  0  0  0  0  0  0  0  0  0  0
    1.2827   -1.4226   -2.1109 H   0  0  0  0  0  0  0  0  0  0  0  0
   -1.1184   -1.1603   -3.1811 H   0  0  0  0  0  0  0  0  0  0  0  0
   -0.6637   -2.6196   -2.2782 H   0  0  0  0  0  0  0  0  0  0  0  0
   -2.9491   -1.2615   -1.7678 H   0  0  0  0  0  0  0  0  0  0  0  0
   -4.0040   -2.2023   -0.0767 H   0  0  0  0  0  0  0  0  0  0  0  0
   -3.2430   -3.6866    0.5224 H   0  0  0  0  0  0  0  0  0  0  0  0
   -3.4326   -3.4694   -1.2878 H   0  0  0  0  0  0  0  0  0  0  0  0
   -1.4297    0.7726   -1.4650 H   0  0  0  0  0  0  0  0  0  0  0  0
   -1.0079   -0.4261    1.2990 H   0  0  0  0  0  0  0  0  0  0  0  0
   -0.1755    0.9977    0.5610 H   0  0  0  0  0  0  0  0  0  0  0  0
   -2.7668    2.0729   -1.5756 H   0  0  0  0  0  0  0  0  0  0  0  0
   -4.8585    1.8795   -2.3993 H   0  0  0  0  0  0  0  0  0  0  0  0
   -4.8669    0.2522   -1.5787 H   0  0  0  0  0  0  0  0  0  0  0  0
   -6.3610    2.6958   -0.9241 H   0  0  0  0  0  0  0  0  0  0  0  0
   -6.6045    1.0448   -0.2920 H   0  0  0  0  0  0  0  0  0  0  0  0
   -5.7244    3.1053    1.2067 H   0  0  0  0  0  0  0  0  0  0  0  0
   -5.0433    1.4043    1.4435 H   0  0  0  0  0  0  0  0  0  0  0  0
   -4.0177    3.6771   -0.3408 H   0  0  0  0  0  0  0  0  0  0  0  0
   -3.0631    2.9236    1.0016 H   0  0  0  0  0  0  0  0  0  0  0  0
    6.5187    1.8171    0.2440 H   0  0  0  0  0  0  0  0  0  0  0  0
    4.5152    1.0880    2.1809 H   0  0  0  0  0  0  0  0  0  0  0  0
    6.7200    0.4518    2.6740 H   0  0  0  0  0  0  0  0  0  0  0  0
    5.5057   -0.0580   -0.4929 H   0  0  0  0  0  0  0  0  0  0  0  0
    4.0001    2.0418   -0.3767 H   0  0  0  0  0  0  0  0  0  0  0  0
    3.6882    0.7811   -1.5867 H   0  0  0  0  0  0  0  0  0  0  0  0
    2.1426    1.6089    0.8582 H   0  0  0  0  0  0  0  0  0  0  0  0
    1.5894    1.2771   -0.8017 H   0  0  0  0  0  0  0  0  0  0  0  0
    4.8208   -2.0691    0.2590 H   0  0  0  0  0  0  0  0  0  0  0  0
    4.0258   -1.3958    1.6902 H   0  0  0  0  0  0  0  0  0  0  0  0
    3.0872   -1.1472   -1.2082 H   0  0  0  0  0  0  0  0  0  0  0  0
    2.5303   -2.5115   -0.1180 H   0  0  0  0  0  0  0  0  0  0  0  0
    0.8098    0.1227    2.1151 H   0  0  0  0  0  0  0  0  0  0  0  0
    2.5202   -0.2251    2.4113 H   0  0  0  0  0  0  0  0  0  0  0  0
    0.6129   -1.8944    3.0818 H   0  0  0  0  0  0  0  0  0  0  0  0
    1.9932   -2.5723    2.2740 H   0  0  0  0  0  0  0  0  0  0  0  0
    0.2617   -1.9030    0.0606 H   0  0  0  0  0  0  0  0  0  0  0  0
    0.4358    0.2216   -2.1393 H   0  0  0  0  0  0  0  0  0  0  0  0
    1.2827   -1.4226   -2.1109 H   0  0  0  0  0  0  0  0  0  0  0  0
   -1.1184   -1.1603   -3.1811 H   0  0  0  0  0  0  0  0  0  0  0  0
   -0.6637   -2.6196   -2.2782 H   0  0  0  0  0  0  0  0  0  0  0  0
   -2.9491   -1.2615   -1.7678 H   0  0  0  0  0  0  0  0  0  0  0  0
   -4.0040   -2.2023   -0.0767 H   0  0  0  0  0  0  0  0  0  0  0  0
   -3.2430   -3.6866    0.5224 H   0  0  0  0  0  0  0  0  0  0  0  0
   -3.4326   -3.4694   -1.2878 H   0  0  0  0  0  0  0  0  0  0  0  0
   -1.4297    0.7726   -1.4650 H   0  0  0  0  0  0  0  0  0  0  0  0
   -1.0079   -0.4261    1.2990 H   0  0  0  0  0  0  0  0  0  0  0  0
   -0.1755    0.9977    0.5610 H   0  0  0  0  0  0  0  0  0  0  0  0
   -2.7668    2.0729   -1.5756 H   0  0  0  0  0  0  0  0  0  0  0  0
   -4.8585    1.8795   -2.3993 H   0  0  0  0  0  0  0  0  0  0  0  0
   -4.8669    0.2522   -1.5787 H   0  0  0  0  0  0  0  0  0  0  0  0
   -6.3610    2.6958   -0.9241 H   0  0  0  0  0  0  0  0  0  0  0  0
   -6.6045    1.0448   -0.2920 H   0  0  0  0  0  0  0  0  0  0  0  0
   -5.7244    3.1053    1.2067 H   0  0  0  0  0  0  0  0  0  0  0  0
   -5.0433    1.4043    1.4435 H   0  0  0  0  0  0  0  0  0  0  0  0
   -4.0177    3.6771   -0.3408 H   0  0  0  0  0  0  0  0  0  0  0  0
   -3.0631    2.9236    1.0016 H   0  0  0  0  0  0  0  0  0  0  0  0
  1  2  1  0
  2  3  1  0
  2  4  1  0
  4  5  1  0
  5  6  1  0
  4  7  1  0
  7  8  1  0
  6  9  1  0
  8  9  1  0
  9 10  1  0
 10 11  1  0
  9 12  1  0
 12 13  1  0
 13 14  1  0
 14 15  1  0
 15 16  1  0
 16 17  1  0
 15 18  1  0
 12 19  1  0
 18 19  1  0
 18 20  1  0
 20 21  1  0
 21 22  1  0
 22 23  1  0
 23 24  1  0
 21 25  1  0
 24 25  1  0
 26 27  1  0
 27 28  1  0
 27 29  1  0
 29 30  1  0
 30 31  1  0
 29 32  1  0
 32 33  1  0
 31 34  1  0
 33 34  1  0
 34 35  1  0
 35 36  1  0
 34 37  1  0
 37 38  1  0
 38 39  1  0
 39 40  1  0
 40 41  1  0
 41 42  1  0
 40 43  1  0
 37 44  1  0
 43 44  1  0
 43 45  1  0
 45 46  1  0
 46 47  1  0
 47 48  1  0
 48 49  1  0
 46 50  1  0
 49 50  1  0
  1 51  1  0
  2 52  1  0
  3 53  1  0
  4 54  1  0
  5 55  1  0
  5 56  1  0
  6 57  1  0
  6 58  1  0
  7 59  1  0
  7 60  1  0
  8 61  1  0
  8 62  1  0
 10 63  1  0
 10 64  1  0
 11 65  1  0
 11 66  1  0
 12 67  1  0
 13 68  1  0
 13 69  1  0
 14 70  1  0
 14 71  1  0
 15 72  1  0
 17 73  1  0
 17 74  1  0
 17 75  1  0
 18 76  1  0
 19 77  1  0
 19 78  1  0
 21 79  1  0
 22 80  1  0
 22 81  1  0
 23 82  1  0
 23 83  1  0
 24 84  1  0
 24 85  1  0
 25 86  1  0
 25 87  1  0
 26 88  1  0
 27 89  1  0
 28 90  1  0
 29 91  1  0
 30 92  1  0
 30 93  1  0
 31 94  1  0
 31 95  1  0
 32 96  1  0
 32 97  1  0
 33 98  1  0
 33 99  1  0
 35100  1  0
 35101  1  0
 36102  1  0
 36103  1  0
 37104  1  0
 38105  1  0
 38106  1  0
 39107  1  0
 39108  1  0
 40109  1  0
 42110  1  0
 42111  1  0
 42112  1  0
 43113  1  0
 44114  1  0
 44115  1  0
 46116  1  0
 47117  1  0
 47118  1  0
 48119  1  0
 48120  1  0
 49121  1  0
 49122  1  0
 50123  1  0
 50124  1  0
M  END
>  <PDBID>  (1) 
1XLX

>  <PDB ID>  (1) 
1XLX

>  <Generic Name>  (1) 
Cilomilast

>  <Brand Name>  (1) 
nan

>  <DrugBank ID>  (1) 
DB03849

>  <ATC Codes>  (1) 
nan

>  <Ligand ID>  (1) 
CIO

>  <Target Name>  (1) 
cAMP-specific 3',5'-cyclic phosphodiesterase 4B

>  <UniProt ID>  (1) 
Q07343

>  <PDB ID.1>  (1) 
1XLX

>  <Seq. Identity>  (1) 
97%

$$$$
