PDB_DB08915_00
     RDKit          3D

 74 77  0  0  0  0  0  0  0  0999 V2000
   -3.5929    2.3514    1.3259 C   0  0  0  0  0  0  0  0  0  0  0  0
   -3.2847    1.7185    0.0014 C   0  0  0  0  0  0  0  0  0  0  0  0
   -4.4756    1.2296   -0.5341 O   0  0  0  0  0  0  0  0  0  0  0  0
   -4.4632   -0.1284   -0.3307 C   0  0  0  0  0  0  0  0  0  0  0  0
   -5.4394   -0.8115   -1.2327 C   0  0  0  0  0  0  0  0  0  0  0  0
   -6.8196   -0.2557   -0.9152 C   0  0  0  0  0  0  0  0  0  0  0  0
   -7.4148   -0.9837    0.2775 C   0  0  0  0  0  0  0  0  0  0  0  0
   -7.7191   -2.4000   -0.1091 C   0  0  0  0  0  0  0  0  0  0  0  0
   -6.8379   -2.8850   -1.2463 C   0  0  0  0  0  0  0  0  0  0  0  0
   -5.4445   -2.2982   -1.0883 C   0  0  0  0  0  0  0  0  0  0  0  0
   -3.0869   -0.4899   -0.5861 N   0  0  0  0  0  0  0  0  0  0  0  0
   -2.3892    0.5327    0.2096 C   0  0  0  0  0  0  0  0  0  0  0  0
   -0.9811    0.7551   -0.2928 C   0  0  0  0  0  0  0  0  0  0  0  0
   -0.4186    1.9222    0.4601 C   0  0  0  0  0  0  0  0  0  0  0  0
    0.8559    2.2423    0.1041 O   0  0  0  0  0  0  0  0  0  0  0  0
    1.8206    1.2809    0.3019 C   0  0  0  0  0  0  0  0  0  0  0  0
    2.3362    0.8577   -1.0538 C   0  0  0  0  0  0  0  0  0  0  0  0
    3.5246   -0.0854   -0.9184 C   0  0  0  0  0  0  0  0  0  0  0  0
    2.9058    1.8196    1.1899 C   0  0  0  0  0  0  0  0  0  0  0  0
    2.6528    3.2505    1.5522 C   0  0  0  0  0  0  0  0  0  0  0  0
    2.8735    4.1069    0.3505 C   0  0  0  0  0  0  0  0  0  0  0  0
    4.2696    1.7519    0.6193 C   0  0  0  0  0  0  0  0  0  0  0  0
    4.2783    3.2390   -0.4561 S   0  0  0  0  0  0  0  0  0  0  0  0
    4.6225    0.5149   -0.1246 C   0  0  0  0  0  0  0  0  0  0  0  0
    5.1782   -0.4755    0.8533 C   0  0  0  0  0  0  0  0  0  0  0  0
    5.7689   -1.6923    0.2513 C   0  0  2  0  0  0  0  0  0  0  0  0
    4.9152   -2.4516   -0.5100 O   0  0  0  0  0  0  0  0  0  0  0  0
    5.4346   -2.6867   -1.7880 C   0  0  0  0  0  0  0  0  0  0  0  0
    6.4153   -2.5520    1.3553 C   0  0  0  0  0  0  0  0  0  0  0  0
    7.1045   -3.5564    0.7030 O   0  0  0  0  0  0  0  0  0  0  0  0
    7.3624   -1.7259    1.9845 O   0  0  0  0  0  0  0  0  0  0  0  0
   -3.3864    3.4492    1.3201 H   0  0  0  0  0  0  0  0  0  0  0  0
   -3.0364    1.8677    2.1528 H   0  0  0  0  0  0  0  0  0  0  0  0
   -4.6798    2.2688    1.5937 H   0  0  0  0  0  0  0  0  0  0  0  0
   -2.8812    2.4374   -0.7394 H   0  0  0  0  0  0  0  0  0  0  0  0
   -4.6502   -0.3160    0.7447 H   0  0  0  0  0  0  0  0  0  0  0  0
   -5.2146   -0.4896   -2.2740 H   0  0  0  0  0  0  0  0  0  0  0  0
   -6.7630    0.8115   -0.6346 H   0  0  0  0  0  0  0  0  0  0  0  0
   -7.4771   -0.3988   -1.7730 H   0  0  0  0  0  0  0  0  0  0  0  0
   -6.7573   -0.9178    1.1687 H   0  0  0  0  0  0  0  0  0  0  0  0
   -8.3546   -0.4599    0.5400 H   0  0  0  0  0  0  0  0  0  0  0  0
   -7.4753   -3.0411    0.7689 H   0  0  0  0  0  0  0  0  0  0  0  0
   -8.7714   -2.5405   -0.4327 H   0  0  0  0  0  0  0  0  0  0  0  0
   -6.7486   -3.9744   -1.1507 H   0  0  0  0  0  0  0  0  0  0  0  0
   -7.2851   -2.6606   -2.2245 H   0  0  0  0  0  0  0  0  0  0  0  0
   -4.8091   -2.7218   -1.8916 H   0  0  0  0  0  0  0  0  0  0  0  0
   -5.0982   -2.5540   -0.0700 H   0  0  0  0  0  0  0  0  0  0  0  0
   -2.8458   -1.4523   -0.2654 H   0  0  0  0  0  0  0  0  0  0  0  0
   -2.3492    0.1677    1.2401 H   0  0  0  0  0  0  0  0  0  0  0  0
   -0.9314    0.8697   -1.3851 H   0  0  0  0  0  0  0  0  0  0  0  0
   -0.4146   -0.1561   -0.0279 H   0  0  0  0  0  0  0  0  0  0  0  0
   -1.0548    2.8194    0.2026 H   0  0  0  0  0  0  0  0  0  0  0  0
   -0.5568    1.7297    1.5442 H   0  0  0  0  0  0  0  0  0  0  0  0
    1.3447    0.3885    0.7491 H   0  0  0  0  0  0  0  0  0  0  0  0
    1.5379    0.2821   -1.5655 H   0  0  0  0  0  0  0  0  0  0  0  0
    2.6081    1.7278   -1.6500 H   0  0  0  0  0  0  0  0  0  0  0  0
    3.1155   -1.0429   -0.5345 H   0  0  0  0  0  0  0  0  0  0  0  0
    3.8592   -0.2686   -1.9589 H   0  0  0  0  0  0  0  0  0  0  0  0
    2.8953    1.2392    2.1392 H   0  0  0  0  0  0  0  0  0  0  0  0
    3.3964    3.5578    2.3387 H   0  0  0  0  0  0  0  0  0  0  0  0
    1.6583    3.3400    2.0105 H   0  0  0  0  0  0  0  0  0  0  0  0
    3.1963    5.1244    0.6991 H   0  0  0  0  0  0  0  0  0  0  0  0
    2.0246    4.2209   -0.3164 H   0  0  0  0  0  0  0  0  0  0  0  0
    5.0095    1.9235    1.4176 H   0  0  0  0  0  0  0  0  0  0  0  0
    5.4942    0.7920   -0.7958 H   0  0  0  0  0  0  0  0  0  0  0  0
    5.9989    0.0300    1.4501 H   0  0  0  0  0  0  0  0  0  0  0  0
    4.3668   -0.7883    1.5802 H   0  0  0  0  0  0  0  0  0  0  0  0
    6.6530   -1.4242   -0.3982 H   0  0  0  0  0  0  0  0  0  0  0  0
    6.4035   -3.2452   -1.6174 H   0  0  0  0  0  0  0  0  0  0  0  0
    4.7606   -3.3613   -2.3503 H   0  0  0  0  0  0  0  0  0  0  0  0
    5.6407   -1.7716   -2.3413 H   0  0  0  0  0  0  0  0  0  0  0  0
    5.6703   -2.9319    2.0573 H   0  0  0  0  0  0  0  0  0  0  0  0
    8.0670   -3.3581    0.6450 H   0  0  0  0  0  0  0  0  0  0  0  0
    7.8888   -1.2670    1.2768 H   0  0  0  0  0  0  0  0  0  0  0  0
  1  2  1  0
  2  3  1  0
  3  4  1  0
  4  5  1  0
  5  6  1  0
  6  7  1  0
  7  8  1  0
  8  9  1  0
  5 10  1  0
  9 10  1  0
  4 11  1  0
  2 12  1  0
 11 12  1  0
 12 13  1  0
 13 14  1  0
 14 15  1  0
 15 16  1  0
 16 17  1  0
 17 18  1  0
 16 19  1  0
 19 20  1  0
 20 21  1  0
 19 22  1  0
 21 23  1  0
 22 23  1  0
 18 24  1  0
 22 24  1  0
 24 25  1  0
 25 26  1  0
 26 27  1  0
 27 28  1  0
 26 29  1  0
 29 30  1  0
 29 31  1  0
  1 32  1  0
  1 33  1  0
  1 34  1  0
  2 35  1  0
  4 36  1  0
  5 37  1  0
  6 38  1  0
  6 39  1  0
  7 40  1  0
  7 41  1  0
  8 42  1  0
  8 43  1  0
  9 44  1  0
  9 45  1  0
 10 46  1  0
 10 47  1  0
 11 48  1  0
 12 49  1  0
 13 50  1  0
 13 51  1  0
 14 52  1  0
 14 53  1  0
 16 54  1  0
 17 55  1  0
 17 56  1  0
 18 57  1  0
 18 58  1  0
 19 59  1  0
 20 60  1  0
 20 61  1  0
 21 62  1  0
 21 63  1  0
 22 64  1  0
 24 65  1  0
 25 66  1  0
 25 67  1  0
 26 68  1  6
 28 69  1  0
 28 70  1  0
 28 71  1  0
 29 72  1  0
 30 73  1  0
 31 74  1  0
M  END
>  <PDBID>  (1) 
3G8I

>  <PDB ID>  (1) 
3G8I

>  <Generic Name>  (1) 
Aleglitazar

>  <Brand Name>  (1) 
nan

>  <DrugBank ID>  (1) 
DB08915

>  <ATC Codes>  (1) 
nan

>  <Ligand ID>  (1) 
RO7

>  <Target Name>  (1) 
Peroxisome proliferator-activated receptor alpha

>  <UniProt ID>  (1) 
Q07869

>  <PDB ID.1>  (1) 
3G8I

>  <Seq. Identity>  (1) 
100%

$$$$
