PDB_DB01030_05
     RDKit          3D

 72 76  0  0  0  0  0  0  0  0999 V2000
   -5.4468   -0.0876    1.5366 C   0  0  0  0  0  0  0  0  0  0  0  0
   -6.6475   -0.9693    1.8084 C   0  0  0  0  0  0  0  0  0  0  0  0
   -4.5750   -0.6164    0.4233 C   0  0  2  0  0  0  0  0  0  0  0  0
   -4.0931   -1.8952    0.7239 O   0  0  0  0  0  0  0  0  0  0  0  0
   -3.3319    0.2781    0.3856 C   0  0  0  0  0  0  0  0  0  0  0  0
   -5.3292   -0.5477   -0.8602 C   0  0  0  0  0  0  0  0  0  0  0  0
   -3.7201    1.5848   -0.2209 C   0  0  0  0  0  0  0  0  0  0  0  0
   -2.2304   -0.3768   -0.4136 C   0  0  0  0  0  0  0  0  0  0  0  0
   -6.5394    0.1405   -0.7738 O   0  0  0  0  0  0  0  0  0  0  0  0
   -4.6098    0.0767   -1.8804 O   0  0  0  0  0  0  0  0  0  0  0  0
   -2.5201    2.5066   -0.2740 C   0  0  0  0  0  0  0  0  0  0  0  0
   -4.3551    1.4136   -1.5784 C   0  0  0  0  0  0  0  0  0  0  0  0
   -1.3221    0.5833   -1.1008 C   0  0  0  0  0  0  0  0  0  0  0  0
   -2.4661    3.3420    0.8411 O   0  0  0  0  0  0  0  0  0  0  0  0
   -1.2787    1.8875   -0.4974 N   0  0  0  0  0  0  0  0  0  0  0  0
    0.1374    0.2017   -0.9686 C   0  0  0  0  0  0  0  0  0  0  0  0
   -0.3478    1.8698    0.5813 C   0  0  0  0  0  0  0  0  0  0  0  0
    0.3620    0.5599    0.5108 C   0  0  0  0  0  0  0  0  0  0  0  0
    0.3815   -1.1961   -1.0765 N   0  0  0  0  0  0  0  0  0  0  0  0
    1.8344    0.5904    0.7118 C   0  0  0  0  0  0  0  0  0  0  0  0
    1.7729   -1.4272   -0.7842 C   0  0  0  0  0  0  0  0  0  0  0  0
    2.5185   -0.1930   -0.3846 C   0  0  0  0  0  0  0  0  0  0  0  0
    2.4105   -1.8714   -2.1110 C   0  0  0  0  0  0  0  0  0  0  0  0
    3.9248   -0.6601    0.0529 C   0  0  0  0  0  0  0  0  0  0  0  0
    3.8656   -2.1603   -1.9391 C   0  0  0  0  0  0  0  0  0  0  0  0
    4.6096   -1.0310   -1.2386 C   0  0  0  0  0  0  0  0  0  0  0  0
    4.6058    0.4261    0.7994 C   0  0  0  0  0  0  0  0  0  0  0  0
    5.8911    0.2311    1.3041 N   0  0  0  0  0  0  0  0  0  0  0  0
    7.0036    0.1317    0.4456 C   0  0  0  0  0  0  0  0  0  0  0  0
    5.9936   -0.4998    2.5312 C   0  0  0  0  0  0  0  0  0  0  0  0
    4.5614    0.0804   -2.0788 O   0  0  0  0  0  0  0  0  0  0  0  0
   -4.8648    0.0797    2.4615 H   0  0  0  0  0  0  0  0  0  0  0  0
   -5.8863    0.8935    1.1986 H   0  0  0  0  0  0  0  0  0  0  0  0
   -6.9911   -0.6804    2.8462 H   0  0  0  0  0  0  0  0  0  0  0  0
   -7.5025   -0.7265    1.1550 H   0  0  0  0  0  0  0  0  0  0  0  0
   -6.3927   -2.0373    1.8622 H   0  0  0  0  0  0  0  0  0  0  0  0
   -4.8165   -2.5698    0.6581 H   0  0  0  0  0  0  0  0  0  0  0  0
   -3.0292    0.4482    1.4236 H   0  0  0  0  0  0  0  0  0  0  0  0
   -5.5721   -1.5674   -1.2495 H   0  0  0  0  0  0  0  0  0  0  0  0
   -4.4387    2.0865    0.4718 H   0  0  0  0  0  0  0  0  0  0  0  0
   -2.6680   -1.0435   -1.2120 H   0  0  0  0  0  0  0  0  0  0  0  0
   -1.7114   -1.0718    0.2786 H   0  0  0  0  0  0  0  0  0  0  0  0
   -7.0616   -0.1305   -1.5927 H   0  0  0  0  0  0  0  0  0  0  0  0
   -2.7250    3.1976   -1.1451 H   0  0  0  0  0  0  0  0  0  0  0  0
   -5.3159    1.9916   -1.6074 H   0  0  0  0  0  0  0  0  0  0  0  0
   -3.7328    1.8173   -2.4034 H   0  0  0  0  0  0  0  0  0  0  0  0
   -1.5161    0.6650   -2.2080 H   0  0  0  0  0  0  0  0  0  0  0  0
   -1.8540    4.0844    0.6357 H   0  0  0  0  0  0  0  0  0  0  0  0
    0.7189    0.8524   -1.6149 H   0  0  0  0  0  0  0  0  0  0  0  0
    0.3929    2.6943    0.5511 H   0  0  0  0  0  0  0  0  0  0  0  0
   -0.8788    1.9231    1.5489 H   0  0  0  0  0  0  0  0  0  0  0  0
   -0.0765   -0.2224    1.1526 H   0  0  0  0  0  0  0  0  0  0  0  0
    0.0299   -1.6291   -1.9329 H   0  0  0  0  0  0  0  0  0  0  0  0
    2.0612    0.1417    1.7195 H   0  0  0  0  0  0  0  0  0  0  0  0
    2.1636    1.6496    0.6991 H   0  0  0  0  0  0  0  0  0  0  0  0
    1.9417   -2.2176   -0.0352 H   0  0  0  0  0  0  0  0  0  0  0  0
    2.7126    0.5102   -1.2216 H   0  0  0  0  0  0  0  0  0  0  0  0
    2.3089   -0.9815   -2.7839 H   0  0  0  0  0  0  0  0  0  0  0  0
    1.9074   -2.7314   -2.5477 H   0  0  0  0  0  0  0  0  0  0  0  0
    3.7892   -1.5948    0.6292 H   0  0  0  0  0  0  0  0  0  0  0  0
    4.3215   -2.2597   -2.9433 H   0  0  0  0  0  0  0  0  0  0  0  0
    4.0264   -3.1286   -1.4192 H   0  0  0  0  0  0  0  0  0  0  0  0
    5.6264   -1.4223   -1.0800 H   0  0  0  0  0  0  0  0  0  0  0  0
    4.6530    1.3106    0.0902 H   0  0  0  0  0  0  0  0  0  0  0  0
    3.9657    0.8321    1.6351 H   0  0  0  0  0  0  0  0  0  0  0  0
    6.7697    0.5648   -0.5417 H   0  0  0  0  0  0  0  0  0  0  0  0
    7.4213   -0.8927    0.3273 H   0  0  0  0  0  0  0  0  0  0  0  0
    7.8163    0.8158    0.8582 H   0  0  0  0  0  0  0  0  0  0  0  0
    5.8795    0.2092    3.3781 H   0  0  0  0  0  0  0  0  0  0  0  0
    6.9676   -1.0159    2.5919 H   0  0  0  0  0  0  0  0  0  0  0  0
    5.2159   -1.2772    2.6541 H   0  0  0  0  0  0  0  0  0  0  0  0
    5.2848    0.0605   -2.7537 H   0  0  0  0  0  0  0  0  0  0  0  0
  1  2  1  0
  1  3  1  0
  3  4  1  1
  3  5  1  0
  3  6  1  0
  5  7  1  0
  5  8  1  0
  6  9  1  0
  6 10  1  0
  7 11  1  0
  7 12  1  0
 10 12  1  0
  8 13  1  0
 11 14  1  0
 11 15  1  0
 13 15  1  0
 13 16  1  0
 15 17  1  0
 16 18  1  0
 17 18  1  0
 16 19  1  0
 18 20  1  0
 19 21  1  0
 20 22  1  0
 21 22  1  0
 21 23  1  0
 22 24  1  0
 23 25  1  0
 24 26  1  0
 25 26  1  0
 24 27  1  0
 27 28  1  0
 28 29  1  0
 28 30  1  0
 26 31  1  0
  1 32  1  0
  1 33  1  0
  2 34  1  0
  2 35  1  0
  2 36  1  0
  4 37  1  0
  5 38  1  0
  6 39  1  0
  7 40  1  0
  8 41  1  0
  8 42  1  0
  9 43  1  0
 11 44  1  0
 12 45  1  0
 12 46  1  0
 13 47  1  0
 14 48  1  0
 16 49  1  0
 17 50  1  0
 17 51  1  0
 18 52  1  0
 19 53  1  0
 20 54  1  0
 20 55  1  0
 21 56  1  0
 22 57  1  0
 23 58  1  0
 23 59  1  0
 24 60  1  0
 25 61  1  0
 25 62  1  0
 26 63  1  0
 27 64  1  0
 27 65  1  0
 29 66  1  0
 29 67  1  0
 29 68  1  0
 30 69  1  0
 30 70  1  0
 30 71  1  0
 31 72  1  0
M  END
>  <PDBID>  (1) 
1K4T

>  <PDB ID>  (1) 
1K4T

>  <Generic Name>  (1) 
Topotecan

>  <Brand Name>  (1) 
Act Topotecan#Hycamtin#Mylan-topotecan Hydrochloride for Injection#PMS-topotecan#Topotecan#Topotecan Hydrochloride#Topotecan Hydrochloride for Injection#Topotecan Injection#Topotecan for Injection

>  <DrugBank ID>  (1) 
DB01030

>  <ATC Codes>  (1) 
L01XX17

>  <Ligand ID>  (1) 
TTC

>  <Target Name>  (1) 
DNA topoisomerase 1

>  <UniProt ID>  (1) 
P11387

>  <PDB ID.1>  (1) 
1K4T

>  <Seq. Identity>  (1) 
92%

$$$$
