PDB_DB00456_07
     RDKit          3D

 56 58  0  0  0  0  0  0  0  0999 V2000
   -0.4082   -2.2817    0.6557 S   0  0  0  0  0  0  0  0  0  0  0  0
   -1.9981   -1.9811    1.3949 C   0  0  0  0  0  0  0  0  0  0  0  0
   -2.5390   -0.6002    1.0453 C   0  0  0  0  0  0  0  0  0  0  0  0
   -3.9867   -0.6314    1.4724 C   0  0  0  0  0  0  0  0  0  0  0  0
   -4.7861    0.4049    1.3484 O   0  0  0  0  0  0  0  0  0  0  0  0
   -5.2876    1.0060    0.2986 C   0  0  0  0  0  0  0  0  0  0  0  0
   -6.7361    0.9309    0.3311 O   0  0  0  0  0  0  0  0  0  0  0  0
   -4.9843    2.5225    0.2662 C   0  0  0  0  0  0  0  0  0  0  0  0
   -2.3572   -0.2395   -0.3597 C   0  0  0  0  0  0  0  0  0  0  0  0
   -3.0243   -1.2552   -1.3058 C   0  0  0  0  0  0  0  0  0  0  0  0
   -2.9692   -0.8143   -2.6196 O   0  0  0  0  0  0  0  0  0  0  0  0
   -2.4377   -2.5046   -1.2296 O   0  0  0  0  0  0  0  0  0  0  0  0
   -1.0152   -0.1314   -0.8238 N   0  0  0  0  0  0  0  0  0  0  0  0
   -0.3044   -1.3837   -0.8927 C   0  0  1  0  0  0  0  0  0  0  0  0
    0.9590   -0.4587   -0.8615 C   0  0  1  0  0  0  0  0  0  0  0  0
    0.0450    0.3332    0.0329 C   0  0  0  0  0  0  0  0  0  0  0  0
    0.1381   -0.1332    1.3145 O   0  0  0  0  0  0  0  0  0  0  0  0
    2.0985   -1.1356   -0.3535 N   0  0  0  0  0  0  0  0  0  0  0  0
    3.2215   -0.7734   -1.2465 C   0  0  2  0  0  0  0  0  0  0  0  0
    4.2973   -1.5941   -1.0853 O   0  0  0  0  0  0  0  0  0  0  0  0
    3.4861    0.7008   -1.0195 C   0  0  0  0  0  0  0  0  0  0  0  0
    3.8935    0.9374    0.4404 C   0  0  0  0  0  0  0  0  0  0  0  0
    5.1697    0.1682    0.7412 C   0  0  0  0  0  0  0  0  0  0  0  0
    6.0295    0.9561    1.6619 C   0  0  0  0  0  0  0  0  0  0  0  0
    6.1628    2.3700    1.0898 C   0  0  0  0  0  0  0  0  0  0  0  0
    4.4527    2.6555    0.5547 S   0  0  0  0  0  0  0  0  0  0  0  0
   -1.8511   -1.9458    2.5119 H   0  0  0  0  0  0  0  0  0  0  0  0
   -2.7463   -2.7919    1.2281 H   0  0  0  0  0  0  0  0  0  0  0  0
   -2.0552    0.1337    1.6950 H   0  0  0  0  0  0  0  0  0  0  0  0
   -4.0176   -0.9351    2.5956 H   0  0  0  0  0  0  0  0  0  0  0  0
   -4.4939   -1.5442    1.0129 H   0  0  0  0  0  0  0  0  0  0  0  0
   -5.0603    0.6231   -0.7095 H   0  0  0  0  0  0  0  0  0  0  0  0
   -7.0844    1.7757    0.6590 H   0  0  0  0  0  0  0  0  0  0  0  0
   -5.9219    3.1098    0.2936 H   0  0  0  0  0  0  0  0  0  0  0  0
   -4.4895    2.7861   -0.6872 H   0  0  0  0  0  0  0  0  0  0  0  0
   -4.3736    2.8218    1.1130 H   0  0  0  0  0  0  0  0  0  0  0  0
   -2.8227    0.7253   -0.5692 H   0  0  0  0  0  0  0  0  0  0  0  0
   -4.0862   -1.4081   -1.0693 H   0  0  0  0  0  0  0  0  0  0  0  0
   -2.7816   -1.5435   -3.2755 H   0  0  0  0  0  0  0  0  0  0  0  0
   -2.4509   -3.0032   -2.0620 H   0  0  0  0  0  0  0  0  0  0  0  0
   -0.3038   -1.9734   -1.7784 H   0  0  0  0  0  0  0  0  0  0  0  0
    1.0426   -0.0720   -1.9000 H   0  0  0  0  0  0  0  0  0  0  0  0
    0.1337    1.4373   -0.0645 H   0  0  0  0  0  0  0  0  0  0  0  0
    0.2727    0.5762    1.9776 H   0  0  0  0  0  0  0  0  0  0  0  0
    1.9598   -2.1779   -0.4987 H   0  0  0  0  0  0  0  0  0  0  0  0
    2.8791   -0.8417   -2.3117 H   0  0  0  0  0  0  0  0  0  0  0  0
    4.6164   -2.0238   -1.9460 H   0  0  0  0  0  0  0  0  0  0  0  0
    4.2856    1.1121   -1.6416 H   0  0  0  0  0  0  0  0  0  0  0  0
    2.5675    1.2859   -1.1775 H   0  0  0  0  0  0  0  0  0  0  0  0
    3.1096    0.6717    1.1497 H   0  0  0  0  0  0  0  0  0  0  0  0
    5.7310   -0.0532   -0.1976 H   0  0  0  0  0  0  0  0  0  0  0  0
    4.8991   -0.7696    1.2149 H   0  0  0  0  0  0  0  0  0  0  0  0
    7.0294    0.4599    1.6692 H   0  0  0  0  0  0  0  0  0  0  0  0
    5.6044    1.0545    2.6781 H   0  0  0  0  0  0  0  0  0  0  0  0
    6.8112    2.3739    0.1851 H   0  0  0  0  0  0  0  0  0  0  0  0
    6.4775    3.0689    1.8663 H   0  0  0  0  0  0  0  0  0  0  0  0
  1  2  1  0
  2  3  1  0
  3  4  1  0
  4  5  1  0
  5  6  1  0
  6  7  1  0
  6  8  1  0
  3  9  1  0
  9 10  1  0
 10 11  1  0
 10 12  1  0
  9 13  1  0
  1 14  1  0
 13 14  1  0
 14 15  1  0
 13 16  1  0
 15 16  1  0
 16 17  1  0
 15 18  1  0
 18 19  1  0
 19 20  1  0
 19 21  1  0
 21 22  1  0
 22 23  1  0
 23 24  1  0
 24 25  1  0
 22 26  1  0
 25 26  1  0
  2 27  1  0
  2 28  1  0
  3 29  1  0
  4 30  1  0
  4 31  1  0
  6 32  1  0
  7 33  1  0
  8 34  1  0
  8 35  1  0
  8 36  1  0
  9 37  1  0
 10 38  1  0
 11 39  1  0
 12 40  1  0
 14 41  1  6
 15 42  1  6
 16 43  1  0
 17 44  1  0
 18 45  1  0
 19 46  1  6
 20 47  1  0
 21 48  1  0
 21 49  1  0
 22 50  1  0
 23 51  1  0
 23 52  1  0
 24 53  1  0
 24 54  1  0
 25 55  1  0
 25 56  1  0
M  END
>  <PDBID>  (1) 
1KVL

>  <PDB ID>  (1) 
1KVL

>  <Generic Name>  (1) 
Cefalotin

>  <Brand Name>  (1) 
Ceporacin#Keflin Add-vantage Inj 1gm/vial#Keflin Neutral Inj 1gm#Keflin Neutral Inj 2gm/vial#Coaxin#Keflin

>  <DrugBank ID>  (1) 
DB00456

>  <ATC Codes>  (1) 
J01DB03

>  <Ligand ID>  (1) 
CLS

>  <Target Name>  (1) 
Beta-lactamase

>  <UniProt ID>  (1) 
P00811

>  <PDB ID.1>  (1) 
1KVL

>  <Seq. Identity>  (1) 
100%

$$$$
