PDB_DB09034_00
     RDKit          3D

 75 79  0  0  0  0  0  0  0  0999 V2000
    3.7232    0.7934    0.6569 C   0  0  0  0  0  0  0  0  0  0  0  0
    2.3718    0.3508    0.8308 N   0  0  0  0  0  0  0  0  0  0  0  0
    4.0998    0.9263   -0.6706 O   0  0  0  0  0  0  0  0  0  0  0  0
    8.2960    0.0802   -1.4185 Cl  0  0  0  0  0  0  0  0  0  0  0  0
    4.6878   -0.0615    1.3093 N   0  0  0  0  0  0  0  0  0  0  0  0
   -1.6037   -1.6966    1.3167 O   0  0  0  0  0  0  0  0  0  0  0  0
    5.4552   -0.6039    0.2117 C   0  0  0  0  0  0  0  0  0  0  0  0
   -0.3454   -0.3633   -0.2053 N   0  0  0  0  0  0  0  0  0  0  0  0
    6.8317   -1.0437    0.5816 C   0  0  0  0  0  0  0  0  0  0  0  0
   -3.7310    1.8390    0.0728 N   0  0  0  0  0  0  0  0  0  0  0  0
    7.8925   -0.0234    0.2955 C   0  0  0  0  0  0  0  0  0  0  0  0
   -4.1254    2.8601    0.8796 N   0  0  0  0  0  0  0  0  0  0  0  0
    7.3867    1.3227    0.7596 C   0  0  0  0  0  0  0  0  0  0  0  0
   -4.7317    1.5984   -0.8646 N   0  0  0  0  0  0  0  0  0  0  0  0
    6.2614    1.7424   -0.1289 C   0  0  0  0  0  0  0  0  0  0  0  0
    5.4789    0.6126   -0.7251 C   0  0  0  0  0  0  0  0  0  0  0  0
    1.4558    1.2522    0.2154 C   0  0  0  0  0  0  0  0  0  0  0  0
    0.0142    0.8142    0.4302 C   0  0  0  0  0  0  0  0  0  0  0  0
    0.4248   -0.7349   -1.3540 C   0  0  1  0  0  0  0  0  0  0  0  0
    1.8119   -1.2252   -0.9835 C   0  0  0  0  0  0  0  0  0  0  0  0
    2.1103   -0.9962    0.4781 C   0  0  0  0  0  0  0  0  0  0  0  0
   -1.5099   -1.0607    0.0599 C   0  0  0  0  0  0  0  0  0  0  0  0
   -2.8311   -0.3922   -0.2384 C   0  0  0  0  0  0  0  0  0  0  0  0
   -3.2908    0.6257    0.7344 C   0  0  0  0  0  0  0  0  0  0  0  0
   -4.3211    0.1278    1.7131 C   0  0  0  0  0  0  0  0  0  0  0  0
   -5.3310   -0.8138    1.1667 C   0  0  0  0  0  0  0  0  0  0  0  0
   -4.5854   -1.9944    0.5538 C   0  0  0  0  0  0  0  0  0  0  0  0
   -3.8611   -1.4212   -0.6438 C   0  0  0  0  0  0  0  0  0  0  0  0
   -5.5126    3.1351    0.7106 C   0  0  0  0  0  0  0  0  0  0  0  0
   -5.8799    2.3714   -0.5225 C   0  0  0  0  0  0  0  0  0  0  0  0
   -5.5529   -3.0390    0.0469 C   0  0  0  0  0  0  0  0  0  0  0  0
   -0.1982   -1.7229   -2.2670 C   0  0  0  0  0  0  0  0  0  0  0  0
    3.8156    1.7983    1.1231 H   0  0  0  0  0  0  0  0  0  0  0  0
    4.2627   -0.7791    1.9232 H   0  0  0  0  0  0  0  0  0  0  0  0
   -1.5552   -1.0811    2.0583 H   0  0  0  0  0  0  0  0  0  0  0  0
    4.9519   -1.3949   -0.3503 H   0  0  0  0  0  0  0  0  0  0  0  0
    6.8671   -1.3774    1.6421 H   0  0  0  0  0  0  0  0  0  0  0  0
    7.1029   -1.9677   -0.0091 H   0  0  0  0  0  0  0  0  0  0  0  0
    8.8082   -0.3333    0.8444 H   0  0  0  0  0  0  0  0  0  0  0  0
   -3.9060    2.7555    1.8835 H   0  0  0  0  0  0  0  0  0  0  0  0
    8.2468    2.0280    0.6612 H   0  0  0  0  0  0  0  0  0  0  0  0
    7.0897    1.2142    1.8238 H   0  0  0  0  0  0  0  0  0  0  0  0
   -4.3521    1.8215   -1.8067 H   0  0  0  0  0  0  0  0  0  0  0  0
    5.6311    2.4560    0.4408 H   0  0  0  0  0  0  0  0  0  0  0  0
    6.7137    2.3414   -0.9656 H   0  0  0  0  0  0  0  0  0  0  0  0
    5.7810    0.3398   -1.7338 H   0  0  0  0  0  0  0  0  0  0  0  0
    1.6746    1.4979   -0.8340 H   0  0  0  0  0  0  0  0  0  0  0  0
    1.5405    2.2319    0.7733 H   0  0  0  0  0  0  0  0  0  0  0  0
   -0.5945    1.6678    0.0666 H   0  0  0  0  0  0  0  0  0  0  0  0
   -0.0806    0.8298    1.5562 H   0  0  0  0  0  0  0  0  0  0  0  0
    0.5806    0.1931   -1.9535 H   0  0  0  0  0  0  0  0  0  0  0  0
    2.6044   -0.7568   -1.6001 H   0  0  0  0  0  0  0  0  0  0  0  0
    1.8806   -2.3164   -1.1655 H   0  0  0  0  0  0  0  0  0  0  0  0
    2.8661   -1.7242    0.7795 H   0  0  0  0  0  0  0  0  0  0  0  0
    1.1691   -1.3023    1.0253 H   0  0  0  0  0  0  0  0  0  0  0  0
   -1.4956   -1.9904   -0.6270 H   0  0  0  0  0  0  0  0  0  0  0  0
   -2.6387    0.1783   -1.2062 H   0  0  0  0  0  0  0  0  0  0  0  0
   -2.4254    0.9595    1.3768 H   0  0  0  0  0  0  0  0  0  0  0  0
   -3.8361   -0.3726    2.5861 H   0  0  0  0  0  0  0  0  0  0  0  0
   -4.8387    1.0068    2.1430 H   0  0  0  0  0  0  0  0  0  0  0  0
   -6.0124   -0.4250    0.4158 H   0  0  0  0  0  0  0  0  0  0  0  0
   -5.9443   -1.1710    2.0277 H   0  0  0  0  0  0  0  0  0  0  0  0
   -3.8939   -2.3806    1.3170 H   0  0  0  0  0  0  0  0  0  0  0  0
   -3.3207   -2.2603   -1.1286 H   0  0  0  0  0  0  0  0  0  0  0  0
   -4.5945   -1.0129   -1.3407 H   0  0  0  0  0  0  0  0  0  0  0  0
   -5.6727    4.2270    0.4599 H   0  0  0  0  0  0  0  0  0  0  0  0
   -6.1566    2.9164    1.5814 H   0  0  0  0  0  0  0  0  0  0  0  0
   -6.7755    1.7167   -0.3486 H   0  0  0  0  0  0  0  0  0  0  0  0
   -6.1176    3.0345   -1.3979 H   0  0  0  0  0  0  0  0  0  0  0  0
   -4.9664   -3.9963   -0.0474 H   0  0  0  0  0  0  0  0  0  0  0  0
   -5.8739   -2.7726   -0.9840 H   0  0  0  0  0  0  0  0  0  0  0  0
   -6.3976   -3.2222    0.7226 H   0  0  0  0  0  0  0  0  0  0  0  0
   -1.2410   -1.4013   -2.5555 H   0  0  0  0  0  0  0  0  0  0  0  0
    0.3607   -1.6689   -3.2474 H   0  0  0  0  0  0  0  0  0  0  0  0
   -0.1479   -2.7666   -1.9557 H   0  0  0  0  0  0  0  0  0  0  0  0
  1  2  1  0
  1  3  1  0
  1  5  1  0
  5  7  1  0
  7  9  1  0
  4 11  1  0
  9 11  1  0
 10 12  1  0
 11 13  1  0
 10 14  1  0
 13 15  1  0
  3 16  1  0
  7 16  1  0
 15 16  1  0
  2 17  1  0
  8 18  1  0
 17 18  1  0
  8 19  1  0
 19 20  1  0
  2 21  1  0
 20 21  1  0
  6 22  1  0
  8 22  1  0
 22 23  1  0
 10 24  1  0
 23 24  1  0
 24 25  1  0
 25 26  1  0
 26 27  1  0
 23 28  1  0
 27 28  1  0
 12 29  1  0
 14 30  1  0
 29 30  1  0
 27 31  1  0
 19 32  1  0
  1 33  1  0
  5 34  1  0
  6 35  1  0
  7 36  1  0
  9 37  1  0
  9 38  1  0
 11 39  1  0
 12 40  1  0
 13 41  1  0
 13 42  1  0
 14 43  1  0
 15 44  1  0
 15 45  1  0
 16 46  1  0
 17 47  1  0
 17 48  1  0
 18 49  1  0
 18 50  1  0
 19 51  1  6
 20 52  1  0
 20 53  1  0
 21 54  1  0
 21 55  1  0
 22 56  1  0
 23 57  1  0
 24 58  1  0
 25 59  1  0
 25 60  1  0
 26 61  1  0
 26 62  1  0
 27 63  1  0
 28 64  1  0
 28 65  1  0
 29 66  1  0
 29 67  1  0
 30 68  1  0
 30 69  1  0
 31 70  1  0
 31 71  1  0
 31 72  1  0
 32 73  1  0
 32 74  1  0
 32 75  1  0
M  END
>  <PDBID>  (1) 
4ZJ8

>  <PDB ID>  (1) 
4ZJ8

>  <Generic Name>  (1) 
Suvorexant

>  <Brand Name>  (1) 
Belsomra

>  <DrugBank ID>  (1) 
DB09034

>  <ATC Codes>  (1) 
nan

>  <Ligand ID>  (1) 
SUV

>  <Target Name>  (1) 
Orexin receptor type 1

>  <UniProt ID>  (1) 
O43613

>  <PDB ID.1>  (1) 
4ZJ8

>  <Seq. Identity>  (1) 
85%

$$$$
