PDB_DB00184_01
     RDKit          3D

 64 66  0  0  0  0  0  0  0  0999 V2000
    2.8942   -0.9213   -0.6910 N   0  0  0  0  0  0  0  0  0  0  0  0
    1.4982   -1.2225   -0.5346 C   0  0  0  0  0  0  0  0  0  0  0  0
    0.6922    0.0188   -0.2146 C   0  0  0  0  0  0  0  0  0  0  0  0
    1.1089    0.6008    1.0973 C   0  0  0  0  0  0  0  0  0  0  0  0
    2.6049    0.4524    1.2876 C   0  0  0  0  0  0  0  0  0  0  0  0
    3.2851    0.3037   -0.0320 C   0  0  0  0  0  0  0  0  0  0  0  0
   -1.5745    0.7996    0.1654 N   0  0  0  0  0  0  0  0  0  0  0  0
   -0.7712   -0.3432   -0.1330 C   0  0  1  0  0  0  0  0  0  0  0  0
   -1.3198   -0.8613   -1.4183 C   0  0  0  0  0  0  0  0  0  0  0  0
   -2.8076   -0.5424   -1.3503 C   0  0  0  0  0  0  0  0  0  0  0  0
   -2.8096    0.7326   -0.5449 C   0  0  0  0  0  0  0  0  0  0  0  0
   -1.8987    0.8340    1.5949 C   0  0  0  0  0  0  0  0  0  0  0  0
    2.8942   -0.9213   -0.6910 N   0  0  0  0  0  0  0  0  0  0  0  0
    1.4982   -1.2225   -0.5346 C   0  0  0  0  0  0  0  0  0  0  0  0
    0.6922    0.0188   -0.2146 C   0  0  0  0  0  0  0  0  0  0  0  0
    1.1089    0.6008    1.0973 C   0  0  0  0  0  0  0  0  0  0  0  0
    2.6049    0.4524    1.2876 C   0  0  0  0  0  0  0  0  0  0  0  0
    3.2851    0.3037   -0.0320 C   0  0  0  0  0  0  0  0  0  0  0  0
   -1.5745    0.7996    0.1654 N   0  0  0  0  0  0  0  0  0  0  0  0
   -0.7712   -0.3432   -0.1330 C   0  0  1  0  0  0  0  0  0  0  0  0
   -1.3198   -0.8613   -1.4183 C   0  0  0  0  0  0  0  0  0  0  0  0
   -2.8076   -0.5424   -1.3503 C   0  0  0  0  0  0  0  0  0  0  0  0
   -2.8096    0.7326   -0.5449 C   0  0  0  0  0  0  0  0  0  0  0  0
   -1.8987    0.8340    1.5949 C   0  0  0  0  0  0  0  0  0  0  0  0
    3.2003   -0.9611   -1.6815 H   0  0  0  0  0  0  0  0  0  0  0  0
    1.3063   -1.9488    0.2849 H   0  0  0  0  0  0  0  0  0  0  0  0
    1.1480   -1.6401   -1.5013 H   0  0  0  0  0  0  0  0  0  0  0  0
    0.8329    0.7756   -1.0034 H   0  0  0  0  0  0  0  0  0  0  0  0
    0.6245    0.1333    1.9782 H   0  0  0  0  0  0  0  0  0  0  0  0
    0.8966    1.6878    1.1459 H   0  0  0  0  0  0  0  0  0  0  0  0
    2.7910   -0.4698    1.8719 H   0  0  0  0  0  0  0  0  0  0  0  0
    3.0220    1.3348    1.8114 H   0  0  0  0  0  0  0  0  0  0  0  0
    4.3886    0.2572    0.1416 H   0  0  0  0  0  0  0  0  0  0  0  0
    3.0578    1.1561   -0.7158 H   0  0  0  0  0  0  0  0  0  0  0  0
   -0.9302   -1.0897    0.6837 H   0  0  0  0  0  0  0  0  0  0  0  0
   -1.1473   -1.9556   -1.4608 H   0  0  0  0  0  0  0  0  0  0  0  0
   -0.9260   -0.3274   -2.2944 H   0  0  0  0  0  0  0  0  0  0  0  0
   -3.1925   -0.3224   -2.3726 H   0  0  0  0  0  0  0  0  0  0  0  0
   -3.3645   -1.3592   -0.8643 H   0  0  0  0  0  0  0  0  0  0  0  0
   -3.7124    0.7325    0.0932 H   0  0  0  0  0  0  0  0  0  0  0  0
   -2.8932    1.6125   -1.2426 H   0  0  0  0  0  0  0  0  0  0  0  0
   -2.9671    1.1333    1.7410 H   0  0  0  0  0  0  0  0  0  0  0  0
   -1.2845    1.5759    2.1358 H   0  0  0  0  0  0  0  0  0  0  0  0
   -1.7524   -0.1762    2.0228 H   0  0  0  0  0  0  0  0  0  0  0  0
    3.2003   -0.9611   -1.6815 H   0  0  0  0  0  0  0  0  0  0  0  0
    1.3063   -1.9488    0.2849 H   0  0  0  0  0  0  0  0  0  0  0  0
    1.1480   -1.6401   -1.5013 H   0  0  0  0  0  0  0  0  0  0  0  0
    0.8329    0.7756   -1.0034 H   0  0  0  0  0  0  0  0  0  0  0  0
    0.6245    0.1333    1.9782 H   0  0  0  0  0  0  0  0  0  0  0  0
    0.8966    1.6878    1.1459 H   0  0  0  0  0  0  0  0  0  0  0  0
    2.7910   -0.4698    1.8719 H   0  0  0  0  0  0  0  0  0  0  0  0
    3.0220    1.3348    1.8114 H   0  0  0  0  0  0  0  0  0  0  0  0
    4.3886    0.2572    0.1416 H   0  0  0  0  0  0  0  0  0  0  0  0
    3.0578    1.1561   -0.7158 H   0  0  0  0  0  0  0  0  0  0  0  0
   -0.9302   -1.0897    0.6837 H   0  0  0  0  0  0  0  0  0  0  0  0
   -1.1473   -1.9556   -1.4608 H   0  0  0  0  0  0  0  0  0  0  0  0
   -0.9260   -0.3274   -2.2944 H   0  0  0  0  0  0  0  0  0  0  0  0
   -3.1925   -0.3224   -2.3726 H   0  0  0  0  0  0  0  0  0  0  0  0
   -3.3645   -1.3592   -0.8643 H   0  0  0  0  0  0  0  0  0  0  0  0
   -3.7124    0.7325    0.0932 H   0  0  0  0  0  0  0  0  0  0  0  0
   -2.8932    1.6125   -1.2426 H   0  0  0  0  0  0  0  0  0  0  0  0
   -2.9671    1.1333    1.7410 H   0  0  0  0  0  0  0  0  0  0  0  0
   -1.2845    1.5759    2.1358 H   0  0  0  0  0  0  0  0  0  0  0  0
   -1.7524   -0.1762    2.0228 H   0  0  0  0  0  0  0  0  0  0  0  0
  1  2  1  0
  2  3  1  0
  3  4  1  0
  4  5  1  0
  1  6  1  0
  5  6  1  0
  3  8  1  0
  7  8  1  0
  8  9  1  0
  9 10  1  0
  7 11  1  0
 10 11  1  0
  7 12  1  0
 13 14  1  0
 14 15  1  0
 15 16  1  0
 16 17  1  0
 13 18  1  0
 17 18  1  0
 15 20  1  0
 19 20  1  0
 20 21  1  0
 21 22  1  0
 19 23  1  0
 22 23  1  0
 19 24  1  0
  1 25  1  0
  2 26  1  0
  2 27  1  0
  3 28  1  0
  4 29  1  0
  4 30  1  0
  5 31  1  0
  5 32  1  0
  6 33  1  0
  6 34  1  0
  8 35  1  1
  9 36  1  0
  9 37  1  0
 10 38  1  0
 10 39  1  0
 11 40  1  0
 11 41  1  0
 12 42  1  0
 12 43  1  0
 12 44  1  0
 13 45  1  0
 14 46  1  0
 14 47  1  0
 15 48  1  0
 16 49  1  0
 16 50  1  0
 17 51  1  0
 17 52  1  0
 18 53  1  0
 18 54  1  0
 20 55  1  1
 21 56  1  0
 21 57  1  0
 22 58  1  0
 22 59  1  0
 23 60  1  0
 23 61  1  0
 24 62  1  0
 24 63  1  0
 24 64  1  0
M  END
>  <PDBID>  (1) 
5KXI

>  <PDB ID>  (1) 
5KXI

>  <Generic Name>  (1) 
Nicotine

>  <Brand Name>  (1) 
American Fare Nicotine Transdermal System#Berkley and Jensen Nicotine#Berkley and Jensen Nicotine Polacrilex#Care One Nicotine#Careone Mini Nicotine Polacrilex#Careone Nicotine#Careone Nicotine Polacrilex#Careone Nicotine Transdermal System Step 1#Careone Nicotine Transdermal System Step 2#Careone Nicotine Transdermal System Step 3#Equaline Nicotine#Equate Nicotine#Exchange Select Nicotine Transdermal System Step 3#Good Neighbor Pharmacy Nicotine#Good Neighbor Pharmacy Nicotine Mini#Good Sense Nicotine#Good Sense Nicotine Mint#Good Sense Nicotine Stop Smoking Aid#Habitrol Patch Nicotine Transdermal System, Step 1#Habitrol Patch Nicotine Transdermal System, Step 2#Habitrol Patch Nicotine Transdermal System, Step 3#Harris Teeter Nicotine#Health Mart Nicotine#Health Mart Nicotine Polacrilex#Healthmart Nicotine Transdermal System Step 1#Healthmart Nicotine Transdermal System Step 2#Healthmart Nicotine Transdermal System Step 3#Healthy Accents Nicotine#Humana Pharmacy Nicotine#In Control Nicotine#Kirkland Signature Quit 2#Kirkland Signature Quit 4#Kroger Nicotine Transdermal System Step 1#Kroger Nicotine Transdermal System Step 2#Kroger Nicotine Transdermal System Step 3#Leader Nicotine#Leader Nicotine Transdermal System Step 1#Leader Nicotine Transdermal System Step 2#Leader Nicotine Transdermal System Step 3#Meijer Nicotine Transdermal System Step 1#Meijer Nicotine Transdermal System Step 2#Meijer Nicotine Transdermal System Step 3#Members Mark Mini Nicotine#Members Mark Nicotine#Mini Nicotine#Nicoderm Cq#Nicoderm Trd 114mg Nicotine/21#Nicoderm Trd 36mg Nicotine/7 Sqcm Patch#Nicoderm Trd 78mg Nicotine/14#Nicorelief#Nicorette#Nicorette Cinnamon Surge#Nicorette Fresh Mint#Nicorette Fruit Chill#Nicorette Gum 2mg#Nicorette Invisipatch#Nicorette Mint#Nicorette Original#Nicorette Plus 4mg#Nicorette Spearmint Burst#Nicorette White Ice Mint#Nicotine#Nicotine Coated Mint#Nicotine Gum#Nicotine Mini#Nicotine Mint Flavor#Nicotine Original#Nicotine Polacrilex#Nicotine Polacrilex Stop Smoking Aid#Nicotine Polacrilex, Coated Fruit Flavor#Nicotine Polacrilex, Coated Mint Flavor#Nicotine Polacrilex, Original#Nicotine Stop Smoking Aid#Nicotine Transdermal System#Nicotine Transdermal System Patch Kit#Nicotine Transdermal System Step 1#Nicotine Transdermal System Step 2#Nicotine Transdermal System Step 3#Nicotine Un1654#Nicotrol#Nicotrol (professional Sample)#Nictoine Gum#Preferred Plus Nicotine#Preferred Plus Nicotine Polacrilex Gum, Original Flavor#Rexall Nicotine#Rite Aid Nicotine Transdermal System Step 1#Rite Aid Nicotine Transdermal System Step 2#Rite Aid Nicotine Transdermal System Step 3#Rugby Nicotine#Rugby Nicotine Polacrilex Gum, Coated Cinnamon Flavor#Rugby Nicotine Polacrilex Gum, Coated Fruit Flavor#Rugby Nicotine Polacrilex Gum, Coated Mint Flavor#Rugby Nicotine Polacrilex Gum, Mint Flavor#Rugby Nicotine Polacrilex Gum, Original Flavor#Safeway Nicotine Transdermal System Step 1#Safeway Nicotine Transdermal System Step 2#Safeway Nicotine Transdermal System Step 3#Signature Care Nicotine#Simply Right Nicotine#Smart Sense Nicotine#Smart Sense Nicotine Mint#Smart Sense Nicotine Polacrilex#Stop Smoking Aid#Stop Smoking Aid Nicotine#Sunmark Nicotine#Sunmark Nicotine Transdermal System Step 1#Sunmark Nicotine Transdermal System Step 2#Sunmark Nicotine Transdermal System Step 3#Topcare Nicotine#Topcare Nicotine Gum#Topcare Nicotine Polacrilex#Topcare Nicotine Stop Smoking Aid#Tru Relief Nicotine#Up and Up Nicotine#Up and Up Nicotine Polacrilex#Zonnic#Zonnic Nicotine#Zonnic Nicotine Mini#Zonnic Nicotine Polacrilex#Habitrol#Nicoderm

>  <DrugBank ID>  (1) 
DB00184

>  <ATC Codes>  (1) 
N07BA01

>  <Ligand ID>  (1) 
NCT

>  <Target Name>  (1) 
Neuronal acetylcholine receptor subunit alpha-4

>  <UniProt ID>  (1) 
P43681

>  <PDB ID.1>  (1) 
5KXI

>  <Seq. Identity>  (1) 
54%

$$$$
