PDB_DB08910_01
     RDKit          3D

180188  0  0  0  0  0  0  0  0999 V2000
   -3.8470    0.4918    0.3467 C   0  0  0  0  0  0  0  0  0  0  0  0
   -3.9222   -0.9289   -0.1343 C   0  0  0  0  0  0  0  0  0  0  0  0
   -2.6492   -1.6665    0.1369 C   0  0  0  0  0  0  0  0  0  0  0  0
   -1.4196   -0.9996   -0.3941 C   0  0  0  0  0  0  0  0  0  0  0  0
   -1.3943    0.4875   -0.2099 C   0  0  0  0  0  0  0  0  0  0  0  0
   -2.7108    1.1651   -0.3630 C   0  0  0  0  0  0  0  0  0  0  0  0
   -0.2524   -1.4629    0.4736 C   0  0  0  0  0  0  0  0  0  0  0  0
    0.3364   -0.2993    1.0416 N   0  0  0  0  0  0  0  0  0  0  0  0
   -0.7794    0.6187    1.1547 C   0  0  0  0  0  0  0  0  0  0  0  0
   -2.6116    2.5163    0.1625 N   0  0  0  0  0  0  0  0  0  0  0  0
   -0.4006    1.9041    1.4796 O   0  0  0  0  0  0  0  0  0  0  0  0
    1.4797    0.2405    0.4000 C   0  0  1  0  0  0  0  0  0  0  0  0
   -0.7116   -2.2294    1.5621 O   0  0  0  0  0  0  0  0  0  0  0  0
    2.5740    0.2971    1.4315 C   0  0  0  0  0  0  0  0  0  0  0  0
    1.9136   -0.4212   -0.8643 C   0  0  0  0  0  0  0  0  0  0  0  0
    2.9763   -1.3788   -0.5681 N   0  0  0  0  0  0  0  0  0  0  0  0
    4.1798   -0.6015   -0.2810 C   0  0  0  0  0  0  0  0  0  0  0  0
    3.9549    0.3453    0.8609 C   0  0  0  0  0  0  0  0  0  0  0  0
    2.5139    0.5379   -1.6997 O   0  0  0  0  0  0  0  0  0  0  0  0
    4.6121    0.1281   -1.3729 O   0  0  0  0  0  0  0  0  0  0  0  0
   -3.8470    0.4918    0.3467 C   0  0  0  0  0  0  0  0  0  0  0  0
   -3.9222   -0.9289   -0.1343 C   0  0  0  0  0  0  0  0  0  0  0  0
   -2.6492   -1.6665    0.1369 C   0  0  0  0  0  0  0  0  0  0  0  0
   -1.4196   -0.9996   -0.3941 C   0  0  0  0  0  0  0  0  0  0  0  0
   -1.3943    0.4875   -0.2099 C   0  0  0  0  0  0  0  0  0  0  0  0
   -2.7108    1.1651   -0.3630 C   0  0  0  0  0  0  0  0  0  0  0  0
   -0.2524   -1.4629    0.4736 C   0  0  0  0  0  0  0  0  0  0  0  0
    0.3364   -0.2993    1.0416 N   0  0  0  0  0  0  0  0  0  0  0  0
   -0.7794    0.6187    1.1547 C   0  0  0  0  0  0  0  0  0  0  0  0
   -2.6116    2.5163    0.1625 N   0  0  0  0  0  0  0  0  0  0  0  0
   -0.4006    1.9041    1.4796 O   0  0  0  0  0  0  0  0  0  0  0  0
    1.4797    0.2405    0.4000 C   0  0  1  0  0  0  0  0  0  0  0  0
   -0.7116   -2.2294    1.5621 O   0  0  0  0  0  0  0  0  0  0  0  0
    2.5740    0.2971    1.4315 C   0  0  0  0  0  0  0  0  0  0  0  0
    1.9136   -0.4212   -0.8643 C   0  0  0  0  0  0  0  0  0  0  0  0
    2.9763   -1.3788   -0.5681 N   0  0  0  0  0  0  0  0  0  0  0  0
    4.1798   -0.6015   -0.2810 C   0  0  0  0  0  0  0  0  0  0  0  0
    3.9549    0.3453    0.8609 C   0  0  0  0  0  0  0  0  0  0  0  0
    2.5139    0.5379   -1.6997 O   0  0  0  0  0  0  0  0  0  0  0  0
    4.6121    0.1281   -1.3729 O   0  0  0  0  0  0  0  0  0  0  0  0
   -3.8470    0.4918    0.3467 C   0  0  0  0  0  0  0  0  0  0  0  0
   -3.9222   -0.9289   -0.1343 C   0  0  0  0  0  0  0  0  0  0  0  0
   -2.6492   -1.6665    0.1369 C   0  0  0  0  0  0  0  0  0  0  0  0
   -1.4196   -0.9996   -0.3941 C   0  0  0  0  0  0  0  0  0  0  0  0
   -1.3943    0.4875   -0.2099 C   0  0  0  0  0  0  0  0  0  0  0  0
   -2.7108    1.1651   -0.3630 C   0  0  0  0  0  0  0  0  0  0  0  0
   -0.2524   -1.4629    0.4736 C   0  0  0  0  0  0  0  0  0  0  0  0
    0.3364   -0.2993    1.0416 N   0  0  0  0  0  0  0  0  0  0  0  0
   -0.7794    0.6187    1.1547 C   0  0  0  0  0  0  0  0  0  0  0  0
   -2.6116    2.5163    0.1625 N   0  0  0  0  0  0  0  0  0  0  0  0
   -0.4006    1.9041    1.4796 O   0  0  0  0  0  0  0  0  0  0  0  0
    1.4797    0.2405    0.4000 C   0  0  1  0  0  0  0  0  0  0  0  0
   -0.7116   -2.2294    1.5621 O   0  0  0  0  0  0  0  0  0  0  0  0
    2.5740    0.2971    1.4315 C   0  0  0  0  0  0  0  0  0  0  0  0
    1.9136   -0.4212   -0.8643 C   0  0  0  0  0  0  0  0  0  0  0  0
    2.9763   -1.3788   -0.5681 N   0  0  0  0  0  0  0  0  0  0  0  0
    4.1798   -0.6015   -0.2810 C   0  0  0  0  0  0  0  0  0  0  0  0
    3.9549    0.3453    0.8609 C   0  0  0  0  0  0  0  0  0  0  0  0
    2.5139    0.5379   -1.6997 O   0  0  0  0  0  0  0  0  0  0  0  0
    4.6121    0.1281   -1.3729 O   0  0  0  0  0  0  0  0  0  0  0  0
   -3.8470    0.4918    0.3467 C   0  0  0  0  0  0  0  0  0  0  0  0
   -3.9222   -0.9289   -0.1343 C   0  0  0  0  0  0  0  0  0  0  0  0
   -2.6492   -1.6665    0.1369 C   0  0  0  0  0  0  0  0  0  0  0  0
   -1.4196   -0.9996   -0.3941 C   0  0  0  0  0  0  0  0  0  0  0  0
   -1.3943    0.4875   -0.2099 C   0  0  0  0  0  0  0  0  0  0  0  0
   -2.7108    1.1651   -0.3630 C   0  0  0  0  0  0  0  0  0  0  0  0
   -0.2524   -1.4629    0.4736 C   0  0  0  0  0  0  0  0  0  0  0  0
    0.3364   -0.2993    1.0416 N   0  0  0  0  0  0  0  0  0  0  0  0
   -0.7794    0.6187    1.1547 C   0  0  0  0  0  0  0  0  0  0  0  0
   -2.6116    2.5163    0.1625 N   0  0  0  0  0  0  0  0  0  0  0  0
   -0.4006    1.9041    1.4796 O   0  0  0  0  0  0  0  0  0  0  0  0
    1.4797    0.2405    0.4000 C   0  0  1  0  0  0  0  0  0  0  0  0
   -0.7116   -2.2294    1.5621 O   0  0  0  0  0  0  0  0  0  0  0  0
    2.5740    0.2971    1.4315 C   0  0  0  0  0  0  0  0  0  0  0  0
    1.9136   -0.4212   -0.8643 C   0  0  0  0  0  0  0  0  0  0  0  0
    2.9763   -1.3788   -0.5681 N   0  0  0  0  0  0  0  0  0  0  0  0
    4.1798   -0.6015   -0.2810 C   0  0  0  0  0  0  0  0  0  0  0  0
    3.9549    0.3453    0.8609 C   0  0  0  0  0  0  0  0  0  0  0  0
    2.5139    0.5379   -1.6997 O   0  0  0  0  0  0  0  0  0  0  0  0
    4.6121    0.1281   -1.3729 O   0  0  0  0  0  0  0  0  0  0  0  0
   -4.7891    1.0005    0.0323 H   0  0  0  0  0  0  0  0  0  0  0  0
   -3.7880    0.5424    1.4468 H   0  0  0  0  0  0  0  0  0  0  0  0
   -4.7245   -1.4373    0.4558 H   0  0  0  0  0  0  0  0  0  0  0  0
   -4.2046   -0.9757   -1.1947 H   0  0  0  0  0  0  0  0  0  0  0  0
   -2.7075   -2.6874   -0.2949 H   0  0  0  0  0  0  0  0  0  0  0  0
   -2.5809   -1.8147    1.2441 H   0  0  0  0  0  0  0  0  0  0  0  0
   -1.2783   -1.2626   -1.4549 H   0  0  0  0  0  0  0  0  0  0  0  0
   -0.6893    0.9299   -0.9389 H   0  0  0  0  0  0  0  0  0  0  0  0
   -2.9589    1.2341   -1.4312 H   0  0  0  0  0  0  0  0  0  0  0  0
    0.4307   -2.1346   -0.0636 H   0  0  0  0  0  0  0  0  0  0  0  0
   -1.4959    0.1704    1.8771 H   0  0  0  0  0  0  0  0  0  0  0  0
   -3.2943    2.7064    0.9207 H   0  0  0  0  0  0  0  0  0  0  0  0
   -2.6323    3.2420   -0.5738 H   0  0  0  0  0  0  0  0  0  0  0  0
   -0.2965    2.5104    0.7167 H   0  0  0  0  0  0  0  0  0  0  0  0
    1.2462    1.3047    0.1387 H   0  0  0  0  0  0  0  0  0  0  0  0
    0.1129   -2.5485    2.0109 H   0  0  0  0  0  0  0  0  0  0  0  0
    2.4759   -0.5686    2.1337 H   0  0  0  0  0  0  0  0  0  0  0  0
    2.4206    1.2072    2.0581 H   0  0  0  0  0  0  0  0  0  0  0  0
    1.1052   -0.8498   -1.4691 H   0  0  0  0  0  0  0  0  0  0  0  0
    2.7818   -1.9116    0.3198 H   0  0  0  0  0  0  0  0  0  0  0  0
    4.9754   -1.3600   -0.0706 H   0  0  0  0  0  0  0  0  0  0  0  0
    4.6502    0.0322    1.6808 H   0  0  0  0  0  0  0  0  0  0  0  0
    4.2177    1.3991    0.6220 H   0  0  0  0  0  0  0  0  0  0  0  0
    2.3666    1.4554   -1.3907 H   0  0  0  0  0  0  0  0  0  0  0  0
    4.8149    1.0723   -1.1193 H   0  0  0  0  0  0  0  0  0  0  0  0
   -4.7891    1.0005    0.0323 H   0  0  0  0  0  0  0  0  0  0  0  0
   -3.7880    0.5424    1.4468 H   0  0  0  0  0  0  0  0  0  0  0  0
   -4.7245   -1.4373    0.4558 H   0  0  0  0  0  0  0  0  0  0  0  0
   -4.2046   -0.9757   -1.1947 H   0  0  0  0  0  0  0  0  0  0  0  0
   -2.7075   -2.6874   -0.2949 H   0  0  0  0  0  0  0  0  0  0  0  0
   -2.5809   -1.8147    1.2441 H   0  0  0  0  0  0  0  0  0  0  0  0
   -1.2783   -1.2626   -1.4549 H   0  0  0  0  0  0  0  0  0  0  0  0
   -0.6893    0.9299   -0.9389 H   0  0  0  0  0  0  0  0  0  0  0  0
   -2.9589    1.2341   -1.4312 H   0  0  0  0  0  0  0  0  0  0  0  0
    0.4307   -2.1346   -0.0636 H   0  0  0  0  0  0  0  0  0  0  0  0
   -1.4959    0.1704    1.8771 H   0  0  0  0  0  0  0  0  0  0  0  0
   -3.2943    2.7064    0.9207 H   0  0  0  0  0  0  0  0  0  0  0  0
   -2.6323    3.2420   -0.5738 H   0  0  0  0  0  0  0  0  0  0  0  0
   -0.2965    2.5104    0.7167 H   0  0  0  0  0  0  0  0  0  0  0  0
    1.2462    1.3047    0.1387 H   0  0  0  0  0  0  0  0  0  0  0  0
    0.1129   -2.5485    2.0109 H   0  0  0  0  0  0  0  0  0  0  0  0
    2.4759   -0.5686    2.1337 H   0  0  0  0  0  0  0  0  0  0  0  0
    2.4206    1.2072    2.0581 H   0  0  0  0  0  0  0  0  0  0  0  0
    1.1052   -0.8498   -1.4691 H   0  0  0  0  0  0  0  0  0  0  0  0
    2.7818   -1.9116    0.3198 H   0  0  0  0  0  0  0  0  0  0  0  0
    4.9754   -1.3600   -0.0706 H   0  0  0  0  0  0  0  0  0  0  0  0
    4.6502    0.0322    1.6808 H   0  0  0  0  0  0  0  0  0  0  0  0
    4.2177    1.3991    0.6220 H   0  0  0  0  0  0  0  0  0  0  0  0
    2.3666    1.4554   -1.3907 H   0  0  0  0  0  0  0  0  0  0  0  0
    4.8149    1.0723   -1.1193 H   0  0  0  0  0  0  0  0  0  0  0  0
   -4.7891    1.0005    0.0323 H   0  0  0  0  0  0  0  0  0  0  0  0
   -3.7880    0.5424    1.4468 H   0  0  0  0  0  0  0  0  0  0  0  0
   -4.7245   -1.4373    0.4558 H   0  0  0  0  0  0  0  0  0  0  0  0
   -4.2046   -0.9757   -1.1947 H   0  0  0  0  0  0  0  0  0  0  0  0
   -2.7075   -2.6874   -0.2949 H   0  0  0  0  0  0  0  0  0  0  0  0
   -2.5809   -1.8147    1.2441 H   0  0  0  0  0  0  0  0  0  0  0  0
   -1.2783   -1.2626   -1.4549 H   0  0  0  0  0  0  0  0  0  0  0  0
   -0.6893    0.9299   -0.9389 H   0  0  0  0  0  0  0  0  0  0  0  0
   -2.9589    1.2341   -1.4312 H   0  0  0  0  0  0  0  0  0  0  0  0
    0.4307   -2.1346   -0.0636 H   0  0  0  0  0  0  0  0  0  0  0  0
   -1.4959    0.1704    1.8771 H   0  0  0  0  0  0  0  0  0  0  0  0
   -3.2943    2.7064    0.9207 H   0  0  0  0  0  0  0  0  0  0  0  0
   -2.6323    3.2420   -0.5738 H   0  0  0  0  0  0  0  0  0  0  0  0
   -0.2965    2.5104    0.7167 H   0  0  0  0  0  0  0  0  0  0  0  0
    1.2462    1.3047    0.1387 H   0  0  0  0  0  0  0  0  0  0  0  0
    0.1129   -2.5485    2.0109 H   0  0  0  0  0  0  0  0  0  0  0  0
    2.4759   -0.5686    2.1337 H   0  0  0  0  0  0  0  0  0  0  0  0
    2.4206    1.2072    2.0581 H   0  0  0  0  0  0  0  0  0  0  0  0
    1.1052   -0.8498   -1.4691 H   0  0  0  0  0  0  0  0  0  0  0  0
    2.7818   -1.9116    0.3198 H   0  0  0  0  0  0  0  0  0  0  0  0
    4.9754   -1.3600   -0.0706 H   0  0  0  0  0  0  0  0  0  0  0  0
    4.6502    0.0322    1.6808 H   0  0  0  0  0  0  0  0  0  0  0  0
    4.2177    1.3991    0.6220 H   0  0  0  0  0  0  0  0  0  0  0  0
    2.3666    1.4554   -1.3907 H   0  0  0  0  0  0  0  0  0  0  0  0
    4.8149    1.0723   -1.1193 H   0  0  0  0  0  0  0  0  0  0  0  0
   -4.7891    1.0005    0.0323 H   0  0  0  0  0  0  0  0  0  0  0  0
   -3.7880    0.5424    1.4468 H   0  0  0  0  0  0  0  0  0  0  0  0
   -4.7245   -1.4373    0.4558 H   0  0  0  0  0  0  0  0  0  0  0  0
   -4.2046   -0.9757   -1.1947 H   0  0  0  0  0  0  0  0  0  0  0  0
   -2.7075   -2.6874   -0.2949 H   0  0  0  0  0  0  0  0  0  0  0  0
   -2.5809   -1.8147    1.2441 H   0  0  0  0  0  0  0  0  0  0  0  0
   -1.2783   -1.2626   -1.4549 H   0  0  0  0  0  0  0  0  0  0  0  0
   -0.6893    0.9299   -0.9389 H   0  0  0  0  0  0  0  0  0  0  0  0
   -2.9589    1.2341   -1.4312 H   0  0  0  0  0  0  0  0  0  0  0  0
    0.4307   -2.1346   -0.0636 H   0  0  0  0  0  0  0  0  0  0  0  0
   -1.4959    0.1704    1.8771 H   0  0  0  0  0  0  0  0  0  0  0  0
   -3.2943    2.7064    0.9207 H   0  0  0  0  0  0  0  0  0  0  0  0
   -2.6323    3.2420   -0.5738 H   0  0  0  0  0  0  0  0  0  0  0  0
   -0.2965    2.5104    0.7167 H   0  0  0  0  0  0  0  0  0  0  0  0
    1.2462    1.3047    0.1387 H   0  0  0  0  0  0  0  0  0  0  0  0
    0.1129   -2.5485    2.0109 H   0  0  0  0  0  0  0  0  0  0  0  0
    2.4759   -0.5686    2.1337 H   0  0  0  0  0  0  0  0  0  0  0  0
    2.4206    1.2072    2.0581 H   0  0  0  0  0  0  0  0  0  0  0  0
    1.1052   -0.8498   -1.4691 H   0  0  0  0  0  0  0  0  0  0  0  0
    2.7818   -1.9116    0.3198 H   0  0  0  0  0  0  0  0  0  0  0  0
    4.9754   -1.3600   -0.0706 H   0  0  0  0  0  0  0  0  0  0  0  0
    4.6502    0.0322    1.6808 H   0  0  0  0  0  0  0  0  0  0  0  0
    4.2177    1.3991    0.6220 H   0  0  0  0  0  0  0  0  0  0  0  0
    2.3666    1.4554   -1.3907 H   0  0  0  0  0  0  0  0  0  0  0  0
    4.8149    1.0723   -1.1193 H   0  0  0  0  0  0  0  0  0  0  0  0
  1  2  1  0
  2  3  1  0
  3  4  1  0
  4  5  1  0
  1  6  1  0
  5  6  1  0
  4  7  1  0
  7  8  1  0
  5  9  1  0
  8  9  1  0
  6 10  1  0
  9 11  1  0
  8 12  1  0
  7 13  1  0
 12 14  1  0
 12 15  1  0
 15 16  1  0
 16 17  1  0
 14 18  1  0
 17 18  1  0
 15 19  1  0
 17 20  1  0
 21 22  1  0
 22 23  1  0
 23 24  1  0
 24 25  1  0
 21 26  1  0
 25 26  1  0
 24 27  1  0
 27 28  1  0
 25 29  1  0
 28 29  1  0
 26 30  1  0
 29 31  1  0
 28 32  1  0
 27 33  1  0
 32 34  1  0
 32 35  1  0
 35 36  1  0
 36 37  1  0
 34 38  1  0
 37 38  1  0
 35 39  1  0
 37 40  1  0
 41 42  1  0
 42 43  1  0
 43 44  1  0
 44 45  1  0
 41 46  1  0
 45 46  1  0
 44 47  1  0
 47 48  1  0
 45 49  1  0
 48 49  1  0
 46 50  1  0
 49 51  1  0
 48 52  1  0
 47 53  1  0
 52 54  1  0
 52 55  1  0
 55 56  1  0
 56 57  1  0
 54 58  1  0
 57 58  1  0
 55 59  1  0
 57 60  1  0
 61 62  1  0
 62 63  1  0
 63 64  1  0
 64 65  1  0
 61 66  1  0
 65 66  1  0
 64 67  1  0
 67 68  1  0
 65 69  1  0
 68 69  1  0
 66 70  1  0
 69 71  1  0
 68 72  1  0
 67 73  1  0
 72 74  1  0
 72 75  1  0
 75 76  1  0
 76 77  1  0
 74 78  1  0
 77 78  1  0
 75 79  1  0
 77 80  1  0
  1 81  1  0
  1 82  1  0
  2 83  1  0
  2 84  1  0
  3 85  1  0
  3 86  1  0
  4 87  1  0
  5 88  1  0
  6 89  1  0
  7 90  1  0
  9 91  1  0
 10 92  1  0
 10 93  1  0
 11 94  1  0
 12 95  1  6
 13 96  1  0
 14 97  1  0
 14 98  1  0
 15 99  1  0
 16100  1  0
 17101  1  0
 18102  1  0
 18103  1  0
 19104  1  0
 20105  1  0
 21106  1  0
 21107  1  0
 22108  1  0
 22109  1  0
 23110  1  0
 23111  1  0
 24112  1  0
 25113  1  0
 26114  1  0
 27115  1  0
 29116  1  0
 30117  1  0
 30118  1  0
 31119  1  0
 32120  1  6
 33121  1  0
 34122  1  0
 34123  1  0
 35124  1  0
 36125  1  0
 37126  1  0
 38127  1  0
 38128  1  0
 39129  1  0
 40130  1  0
 41131  1  0
 41132  1  0
 42133  1  0
 42134  1  0
 43135  1  0
 43136  1  0
 44137  1  0
 45138  1  0
 46139  1  0
 47140  1  0
 49141  1  0
 50142  1  0
 50143  1  0
 51144  1  0
 52145  1  6
 53146  1  0
 54147  1  0
 54148  1  0
 55149  1  0
 56150  1  0
 57151  1  0
 58152  1  0
 58153  1  0
 59154  1  0
 60155  1  0
 61156  1  0
 61157  1  0
 62158  1  0
 62159  1  0
 63160  1  0
 63161  1  0
 64162  1  0
 65163  1  0
 66164  1  0
 67165  1  0
 69166  1  0
 70167  1  0
 70168  1  0
 71169  1  0
 72170  1  6
 73171  1  0
 74172  1  0
 74173  1  0
 75174  1  0
 76175  1  0
 77176  1  0
 78177  1  0
 78178  1  0
 79179  1  0
 80180  1  0
M  END
>  <PDBID>  (1) 
4TZU

>  <PDB ID>  (1) 
4TZU

>  <Generic Name>  (1) 
Pomalidomide

>  <Brand Name>  (1) 
Pomalyst#Imnovid

>  <DrugBank ID>  (1) 
DB08910

>  <ATC Codes>  (1) 
L04AX06

>  <Ligand ID>  (1) 
Y70

>  <Target Name>  (1) 
Protein cereblon

>  <UniProt ID>  (1) 
Q96SW2

>  <PDB ID.1>  (1) 
4TZU

>  <Seq. Identity>  (1) 
97%

$$$$
