PDB_DB08877_09
     RDKit          3D

114120  0  0  0  0  0  0  0  0999 V2000
    2.0639    1.1758   -1.3998 C   0  0  0  0  0  0  0  0  0  0  0  0
    3.1755    2.2212   -1.7464 C   0  0  0  0  0  0  0  0  0  0  0  0
    4.1737    2.0850   -0.6045 C   0  0  0  0  0  0  0  0  0  0  0  0
    3.5308    1.1131    0.3929 C   0  0  0  0  0  0  0  0  0  0  0  0
    2.8169    0.1821   -0.5808 C   0  0  0  0  0  0  0  0  0  0  0  0
    2.0655   -0.9007    0.0940 C   0  0  1  0  0  0  0  0  0  0  0  0
    3.0451   -1.7600    0.8915 C   0  0  0  0  0  0  0  0  0  0  0  0
    4.0917   -2.3746   -0.0122 C   0  0  0  0  0  0  0  0  0  0  0  0
    4.9773   -3.2338    0.8042 N   0  0  0  0  0  0  0  0  0  0  0  0
    0.9614   -0.4827    0.8215 N   0  0  0  0  0  0  0  0  0  0  0  0
   -0.1902    0.0440    0.1628 C   0  0  0  0  0  0  0  0  0  0  0  0
    0.6391   -0.9720    2.0343 N   0  0  0  0  0  0  0  0  0  0  0  0
   -0.8089   -1.0568    2.1193 C   0  0  0  0  0  0  0  0  0  0  0  0
   -1.2528   -0.9332    0.6745 C   0  0  0  0  0  0  0  0  0  0  0  0
   -2.6351   -0.4251    0.6549 C   0  0  0  0  0  0  0  0  0  0  0  0
   -2.8719    0.7611    1.4561 N   0  0  0  0  0  0  0  0  0  0  0  0
   -4.3123    0.9185    1.5157 C   0  0  0  0  0  0  0  0  0  0  0  0
   -5.0277   -0.1616    0.8657 N   0  0  0  0  0  0  0  0  0  0  0  0
   -4.7301   -0.2588   -0.5486 C   0  0  0  0  0  0  0  0  0  0  0  0
   -3.2372   -0.2862   -0.7236 C   0  0  0  0  0  0  0  0  0  0  0  0
   -2.9287    0.9741   -1.4266 C   0  0  0  0  0  0  0  0  0  0  0  0
   -4.1899    1.7409   -1.6138 C   0  0  0  0  0  0  0  0  0  0  0  0
   -5.2459    0.8407   -1.2968 N   0  0  0  0  0  0  0  0  0  0  0  0
    2.0736    1.2408   -1.4346 C   0  0  0  0  0  0  0  0  0  0  0  0
    3.1899    2.2670   -1.7586 C   0  0  0  0  0  0  0  0  0  0  0  0
    4.2091    2.1248   -0.6653 C   0  0  0  0  0  0  0  0  0  0  0  0
    3.5967    1.1284    0.3305 C   0  0  0  0  0  0  0  0  0  0  0  0
    2.8387    0.2342   -0.6436 C   0  0  0  0  0  0  0  0  0  0  0  0
    2.1032   -0.8411    0.0509 C   0  0  1  0  0  0  0  0  0  0  0  0
    3.0882   -1.7186    0.8109 C   0  0  0  0  0  0  0  0  0  0  0  0
    4.0993   -2.3541   -0.1022 C   0  0  0  0  0  0  0  0  0  0  0  0
    4.9982   -3.2093    0.7069 N   0  0  0  0  0  0  0  0  0  0  0  0
    0.9852   -0.4613    0.7704 N   0  0  0  0  0  0  0  0  0  0  0  0
   -0.1839    0.0280    0.1101 C   0  0  0  0  0  0  0  0  0  0  0  0
    0.6735   -0.9322    1.9866 N   0  0  0  0  0  0  0  0  0  0  0  0
   -0.7693   -1.0674    2.0771 C   0  0  0  0  0  0  0  0  0  0  0  0
   -1.2145   -0.9882    0.6065 C   0  0  0  0  0  0  0  0  0  0  0  0
   -2.6112   -0.5126    0.6106 C   0  0  1  0  0  0  0  0  0  0  0  0
   -2.8080    0.6446    1.4455 N   0  0  0  0  0  0  0  0  0  0  0  0
   -4.2387    0.8396    1.5609 C   0  0  0  0  0  0  0  0  0  0  0  0
   -4.9917   -0.2443    0.9532 N   0  0  0  0  0  0  0  0  0  0  0  0
   -4.7466   -0.2996   -0.4823 C   0  0  0  0  0  0  0  0  0  0  0  0
   -3.2547   -0.3758   -0.7395 C   0  0  0  0  0  0  0  0  0  0  0  0
   -2.9555    0.8519   -1.4808 C   0  0  0  0  0  0  0  0  0  0  0  0
   -4.1794    1.6948   -1.5374 C   0  0  0  0  0  0  0  0  0  0  0  0
   -5.2436    0.8824   -1.0794 N   0  0  0  0  0  0  0  0  0  0  0  0
    1.6526    0.7924   -2.3345 H   0  0  0  0  0  0  0  0  0  0  0  0
    1.3576    1.7236   -0.7580 H   0  0  0  0  0  0  0  0  0  0  0  0
    3.6194    1.9193   -2.7005 H   0  0  0  0  0  0  0  0  0  0  0  0
    2.7529    3.2293   -1.7147 H   0  0  0  0  0  0  0  0  0  0  0  0
    5.1053    1.6450   -1.0243 H   0  0  0  0  0  0  0  0  0  0  0  0
    4.3761    3.0721   -0.1506 H   0  0  0  0  0  0  0  0  0  0  0  0
    2.8284    1.7150    0.9876 H   0  0  0  0  0  0  0  0  0  0  0  0
    4.3248    0.6209    0.9571 H   0  0  0  0  0  0  0  0  0  0  0  0
    3.6578   -0.2691   -1.2067 H   0  0  0  0  0  0  0  0  0  0  0  0
    1.7054   -1.6242   -0.7657 H   0  0  0  0  0  0  0  0  0  0  0  0
    3.5748   -1.1464    1.6448 H   0  0  0  0  0  0  0  0  0  0  0  0
    2.5128   -2.6330    1.3367 H   0  0  0  0  0  0  0  0  0  0  0  0
    3.6133   -2.9411   -0.8185 H   0  0  0  0  0  0  0  0  0  0  0  0
    4.7982   -1.6243   -0.4394 H   0  0  0  0  0  0  0  0  0  0  0  0
    5.9519   -2.9236    0.7971 H   0  0  0  0  0  0  0  0  0  0  0  0
    4.8780   -4.2282    0.4850 H   0  0  0  0  0  0  0  0  0  0  0  0
   -0.0670   -0.0630   -0.9231 H   0  0  0  0  0  0  0  0  0  0  0  0
   -0.4126    1.0379    0.5457 H   0  0  0  0  0  0  0  0  0  0  0  0
    1.1516   -1.7321    2.4523 H   0  0  0  0  0  0  0  0  0  0  0  0
   -1.1612   -1.9566    2.6211 H   0  0  0  0  0  0  0  0  0  0  0  0
   -1.1520   -0.1771    2.6993 H   0  0  0  0  0  0  0  0  0  0  0  0
   -1.1853   -1.8622    0.1238 H   0  0  0  0  0  0  0  0  0  0  0  0
   -3.2609   -1.2274    1.1546 H   0  0  0  0  0  0  0  0  0  0  0  0
   -2.3941    1.6096    1.0866 H   0  0  0  0  0  0  0  0  0  0  0  0
   -4.6682    1.9137    1.1855 H   0  0  0  0  0  0  0  0  0  0  0  0
   -4.5858    0.8397    2.6087 H   0  0  0  0  0  0  0  0  0  0  0  0
   -6.0226   -0.1062    1.0937 H   0  0  0  0  0  0  0  0  0  0  0  0
   -5.2167   -1.1910   -0.9070 H   0  0  0  0  0  0  0  0  0  0  0  0
   -2.9751   -1.2045   -1.2777 H   0  0  0  0  0  0  0  0  0  0  0  0
   -2.1864    1.6296   -0.9392 H   0  0  0  0  0  0  0  0  0  0  0  0
   -2.4871    0.6976   -2.4288 H   0  0  0  0  0  0  0  0  0  0  0  0
   -4.2637    2.0514   -2.6902 H   0  0  0  0  0  0  0  0  0  0  0  0
   -4.2233    2.6938   -1.0503 H   0  0  0  0  0  0  0  0  0  0  0  0
   -5.7090    0.5084   -2.1845 H   0  0  0  0  0  0  0  0  0  0  0  0
    1.6896    0.7981   -2.3578 H   0  0  0  0  0  0  0  0  0  0  0  0
    1.3405    1.7724   -0.8083 H   0  0  0  0  0  0  0  0  0  0  0  0
    3.6078    2.0178   -2.7421 H   0  0  0  0  0  0  0  0  0  0  0  0
    2.7584    3.2920   -1.7299 H   0  0  0  0  0  0  0  0  0  0  0  0
    5.1243    1.6617   -1.0929 H   0  0  0  0  0  0  0  0  0  0  0  0
    4.4721    3.0707   -0.1755 H   0  0  0  0  0  0  0  0  0  0  0  0
    2.8987    1.6754    0.9760 H   0  0  0  0  0  0  0  0  0  0  0  0
    4.4098    0.6103    0.8381 H   0  0  0  0  0  0  0  0  0  0  0  0
    3.6454   -0.2263   -1.2943 H   0  0  0  0  0  0  0  0  0  0  0  0
    1.7410   -1.5506   -0.8138 H   0  0  0  0  0  0  0  0  0  0  0  0
    3.5964   -1.1035    1.5712 H   0  0  0  0  0  0  0  0  0  0  0  0
    2.5165   -2.5627    1.2595 H   0  0  0  0  0  0  0  0  0  0  0  0
    3.6633   -2.9438   -0.9099 H   0  0  0  0  0  0  0  0  0  0  0  0
    4.7920   -1.5877   -0.5175 H   0  0  0  0  0  0  0  0  0  0  0  0
    5.2886   -2.7389    1.5737 H   0  0  0  0  0  0  0  0  0  0  0  0
    4.4895   -4.0964    0.9399 H   0  0  0  0  0  0  0  0  0  0  0  0
   -0.0406   -0.0662   -0.9751 H   0  0  0  0  0  0  0  0  0  0  0  0
   -0.4171    1.0238    0.4963 H   0  0  0  0  0  0  0  0  0  0  0  0
    1.2214   -1.6441    2.4393 H   0  0  0  0  0  0  0  0  0  0  0  0
   -1.1607   -0.1834    2.6196 H   0  0  0  0  0  0  0  0  0  0  0  0
   -1.1173   -1.9584    2.5825 H   0  0  0  0  0  0  0  0  0  0  0  0
   -1.0599   -1.9286    0.0861 H   0  0  0  0  0  0  0  0  0  0  0  0
   -3.2030   -1.3363    1.1204 H   0  0  0  0  0  0  0  0  0  0  0  0
   -2.3079    1.4965    1.1195 H   0  0  0  0  0  0  0  0  0  0  0  0
   -4.5797    1.8325    1.2063 H   0  0  0  0  0  0  0  0  0  0  0  0
   -4.5311    0.8172    2.6532 H   0  0  0  0  0  0  0  0  0  0  0  0
   -5.9996   -0.0012    1.0656 H   0  0  0  0  0  0  0  0  0  0  0  0
   -5.2822   -1.1783   -0.8902 H   0  0  0  0  0  0  0  0  0  0  0  0
   -3.0555   -1.3345   -1.2860 H   0  0  0  0  0  0  0  0  0  0  0  0
   -2.1326    1.4764   -1.0997 H   0  0  0  0  0  0  0  0  0  0  0  0
   -2.6450    0.5680   -2.5231 H   0  0  0  0  0  0  0  0  0  0  0  0
   -4.3712    2.0078   -2.6044 H   0  0  0  0  0  0  0  0  0  0  0  0
   -4.0568    2.6531   -0.9932 H   0  0  0  0  0  0  0  0  0  0  0  0
   -5.9536    0.7351   -1.8297 H   0  0  0  0  0  0  0  0  0  0  0  0
  1  2  1  0
  2  3  1  0
  3  4  1  0
  1  5  1  0
  4  5  1  0
  5  6  1  0
  6  7  1  0
  7  8  1  0
  8  9  1  0
  6 10  1  0
 10 11  1  0
 10 12  1  0
 12 13  1  0
 11 14  1  0
 13 14  1  0
 14 15  1  0
 15 16  1  0
 16 17  1  0
 17 18  1  0
 18 19  1  0
 15 20  1  0
 19 20  1  0
 20 21  1  0
 21 22  1  0
 19 23  1  0
 22 23  1  0
 24 25  1  0
 25 26  1  0
 26 27  1  0
 24 28  1  0
 27 28  1  0
 28 29  1  0
 29 30  1  0
 30 31  1  0
 31 32  1  0
 29 33  1  0
 33 34  1  0
 33 35  1  0
 35 36  1  0
 34 37  1  0
 36 37  1  0
 37 38  1  0
 38 39  1  0
 39 40  1  0
 40 41  1  0
 41 42  1  0
 38 43  1  0
 42 43  1  0
 43 44  1  0
 44 45  1  0
 42 46  1  0
 45 46  1  0
  1 47  1  0
  1 48  1  0
  2 49  1  0
  2 50  1  0
  3 51  1  0
  3 52  1  0
  4 53  1  0
  4 54  1  0
  5 55  1  0
  6 56  1  6
  7 57  1  0
  7 58  1  0
  8 59  1  0
  8 60  1  0
  9 61  1  0
  9 62  1  0
 11 63  1  0
 11 64  1  0
 12 65  1  0
 13 66  1  0
 13 67  1  0
 14 68  1  0
 15 69  1  0
 16 70  1  0
 17 71  1  0
 17 72  1  0
 18 73  1  0
 19 74  1  0
 20 75  1  0
 21 76  1  0
 21 77  1  0
 22 78  1  0
 22 79  1  0
 23 80  1  0
 24 81  1  0
 24 82  1  0
 25 83  1  0
 25 84  1  0
 26 85  1  0
 26 86  1  0
 27 87  1  0
 27 88  1  0
 28 89  1  0
 29 90  1  6
 30 91  1  0
 30 92  1  0
 31 93  1  0
 31 94  1  0
 32 95  1  0
 32 96  1  0
 34 97  1  0
 34 98  1  0
 35 99  1  0
 36100  1  0
 36101  1  0
 37102  1  0
 38103  1  1
 39104  1  0
 40105  1  0
 40106  1  0
 41107  1  0
 42108  1  0
 43109  1  0
 44110  1  0
 44111  1  0
 45112  1  0
 45113  1  0
 46114  1  0
M  END
>  <PDBID>  (1) 
4U5J

>  <PDB ID>  (1) 
4U5J

>  <Generic Name>  (1) 
Ruxolitinib

>  <Brand Name>  (1) 
Jakafi#Jakavi

>  <DrugBank ID>  (1) 
DB08877

>  <ATC Codes>  (1) 
L01XE18

>  <Ligand ID>  (1) 
RXT

>  <Target Name>  (1) 
Tyrosine-protein kinase JAK2

>  <UniProt ID>  (1) 
O60674

>  <PDB ID.1>  (1) 
4U5J

>  <Seq. Identity>  (1) 
30%

$$$$
