PDB_DB00147_06
     RDKit          3D

 58 58  0  0  0  0  0  0  0  0999 V2000
   -3.0153   -1.0320    1.0587 O   0  0  0  0  0  0  0  0  0  0  0  0
   -1.9636   -0.1056    1.2523 C   0  0  0  0  0  0  0  0  0  0  0  0
   -1.1136   -0.2152   -0.0224 C   0  0  0  0  0  0  0  0  0  0  0  0
   -0.6359   -1.6099   -0.1172 C   0  0  0  0  0  0  0  0  0  0  0  0
    0.7332   -1.8409    0.2058 N   0  0  0  0  0  0  0  0  0  0  0  0
    1.6785   -0.9545   -0.3884 C   0  0  0  0  0  0  0  0  0  0  0  0
    1.0742    0.3157   -0.9292 C   0  0  0  0  0  0  0  0  0  0  0  0
   -0.0434    0.8168   -0.0638 C   0  0  0  0  0  0  0  0  0  0  0  0
   -0.5276    2.1192   -0.6536 C   0  0  0  0  0  0  0  0  0  0  0  0
   -1.5656    2.6313    0.0895 O   0  0  0  0  0  0  0  0  0  0  0  0
    0.6832    0.0860   -2.2396 O   0  0  0  0  0  0  0  0  0  0  0  0
    2.6676   -0.5597    0.6928 C   0  0  0  0  0  0  0  0  0  0  0  0
   -3.0153   -1.0320    1.0587 O   0  0  0  0  0  0  0  0  0  0  0  0
   -1.9636   -0.1056    1.2523 C   0  0  0  0  0  0  0  0  0  0  0  0
   -1.1136   -0.2152   -0.0224 C   0  0  0  0  0  0  0  0  0  0  0  0
   -0.6359   -1.6099   -0.1172 C   0  0  0  0  0  0  0  0  0  0  0  0
    0.7332   -1.8409    0.2058 N   0  0  0  0  0  0  0  0  0  0  0  0
    1.6785   -0.9545   -0.3884 C   0  0  0  0  0  0  0  0  0  0  0  0
    1.0742    0.3157   -0.9292 C   0  0  0  0  0  0  0  0  0  0  0  0
   -0.0434    0.8168   -0.0638 C   0  0  0  0  0  0  0  0  0  0  0  0
   -0.5276    2.1192   -0.6536 C   0  0  0  0  0  0  0  0  0  0  0  0
   -1.5656    2.6313    0.0895 O   0  0  0  0  0  0  0  0  0  0  0  0
    0.6832    0.0860   -2.2396 O   0  0  0  0  0  0  0  0  0  0  0  0
    2.6676   -0.5597    0.6928 C   0  0  0  0  0  0  0  0  0  0  0  0
   -3.6352   -1.0298    1.8280 H   0  0  0  0  0  0  0  0  0  0  0  0
   -2.4249    0.8741    1.3648 H   0  0  0  0  0  0  0  0  0  0  0  0
   -1.4132   -0.4388    2.1347 H   0  0  0  0  0  0  0  0  0  0  0  0
   -1.8392    0.0311   -0.8533 H   0  0  0  0  0  0  0  0  0  0  0  0
   -1.2387   -2.2953    0.5301 H   0  0  0  0  0  0  0  0  0  0  0  0
   -0.8500   -1.9722   -1.1666 H   0  0  0  0  0  0  0  0  0  0  0  0
    0.9685   -2.8219   -0.0745 H   0  0  0  0  0  0  0  0  0  0  0  0
    2.2552   -1.4680   -1.1856 H   0  0  0  0  0  0  0  0  0  0  0  0
    1.8429    1.1348   -0.9649 H   0  0  0  0  0  0  0  0  0  0  0  0
    0.3492    0.9620    0.9507 H   0  0  0  0  0  0  0  0  0  0  0  0
    0.2769    2.8819   -0.6739 H   0  0  0  0  0  0  0  0  0  0  0  0
   -0.8442    1.9671   -1.7019 H   0  0  0  0  0  0  0  0  0  0  0  0
   -1.2628    3.1134    0.8923 H   0  0  0  0  0  0  0  0  0  0  0  0
    1.0068    0.7682   -2.8655 H   0  0  0  0  0  0  0  0  0  0  0  0
    3.6731   -0.3323    0.2485 H   0  0  0  0  0  0  0  0  0  0  0  0
    2.3510    0.3571    1.2216 H   0  0  0  0  0  0  0  0  0  0  0  0
    2.8125   -1.3824    1.4308 H   0  0  0  0  0  0  0  0  0  0  0  0
   -3.6352   -1.0298    1.8280 H   0  0  0  0  0  0  0  0  0  0  0  0
   -2.4249    0.8741    1.3648 H   0  0  0  0  0  0  0  0  0  0  0  0
   -1.4132   -0.4388    2.1347 H   0  0  0  0  0  0  0  0  0  0  0  0
   -1.8392    0.0311   -0.8533 H   0  0  0  0  0  0  0  0  0  0  0  0
   -1.2387   -2.2953    0.5301 H   0  0  0  0  0  0  0  0  0  0  0  0
   -0.8500   -1.9722   -1.1666 H   0  0  0  0  0  0  0  0  0  0  0  0
    0.9685   -2.8219   -0.0745 H   0  0  0  0  0  0  0  0  0  0  0  0
    2.2552   -1.4680   -1.1856 H   0  0  0  0  0  0  0  0  0  0  0  0
    1.8429    1.1348   -0.9649 H   0  0  0  0  0  0  0  0  0  0  0  0
    0.3492    0.9620    0.9507 H   0  0  0  0  0  0  0  0  0  0  0  0
    0.2769    2.8819   -0.6739 H   0  0  0  0  0  0  0  0  0  0  0  0
   -0.8442    1.9671   -1.7019 H   0  0  0  0  0  0  0  0  0  0  0  0
   -1.2628    3.1134    0.8923 H   0  0  0  0  0  0  0  0  0  0  0  0
    1.0068    0.7682   -2.8655 H   0  0  0  0  0  0  0  0  0  0  0  0
    3.6731   -0.3323    0.2485 H   0  0  0  0  0  0  0  0  0  0  0  0
    2.3510    0.3571    1.2216 H   0  0  0  0  0  0  0  0  0  0  0  0
    2.8125   -1.3824    1.4308 H   0  0  0  0  0  0  0  0  0  0  0  0
  1  2  1  0
  2  3  1  0
  3  4  1  0
  4  5  1  0
  5  6  1  0
  6  7  1  0
  3  8  1  0
  7  8  1  0
  8  9  1  0
  9 10  1  0
  7 11  1  0
  6 12  1  0
 13 14  1  0
 14 15  1  0
 15 16  1  0
 16 17  1  0
 17 18  1  0
 18 19  1  0
 15 20  1  0
 19 20  1  0
 20 21  1  0
 21 22  1  0
 19 23  1  0
 18 24  1  0
  1 25  1  0
  2 26  1  0
  2 27  1  0
  3 28  1  0
  4 29  1  0
  4 30  1  0
  5 31  1  0
  6 32  1  0
  7 33  1  0
  8 34  1  0
  9 35  1  0
  9 36  1  0
 10 37  1  0
 11 38  1  0
 12 39  1  0
 12 40  1  0
 12 41  1  0
 13 42  1  0
 14 43  1  0
 14 44  1  0
 15 45  1  0
 16 46  1  0
 16 47  1  0
 17 48  1  0
 18 49  1  0
 19 50  1  0
 20 51  1  0
 21 52  1  0
 21 53  1  0
 22 54  1  0
 23 55  1  0
 24 56  1  0
 24 57  1  0
 24 58  1  0
M  END
>  <PDBID>  (1) 
3FHX

>  <PDB ID>  (1) 
3FHX

>  <Generic Name>  (1) 
Pyridoxal

>  <Brand Name>  (1) 
nan

>  <DrugBank ID>  (1) 
DB00147

>  <ATC Codes>  (1) 
nan

>  <Ligand ID>  (1) 
PXL

>  <Target Name>  (1) 
Pyridoxal kinase

>  <UniProt ID>  (1) 
O00764

>  <PDB ID.1>  (1) 
3FHX

>  <Seq. Identity>  (1) 
100%

$$$$
