PDB_DB00277_01
     RDKit          3D

 29 30  0  0  0  0  0  0  0  0999 V2000
   -1.2078    2.7605   -0.2080 C   0  0  0  0  0  0  0  0  0  0  0  0
   -0.6000    1.5211    0.2899 N   0  0  0  0  0  0  0  0  0  0  0  0
    0.7164    1.3792   -0.2026 C   0  0  0  0  0  0  0  0  0  0  0  0
    1.5200    2.3642    0.3736 O   0  0  0  0  0  0  0  0  0  0  0  0
    1.3027    0.1204   -0.0330 N   0  0  0  0  0  0  0  0  0  0  0  0
    2.5752   -0.0956   -0.5647 C   0  0  0  0  0  0  0  0  0  0  0  0
    0.5357   -0.9900    0.3032 C   0  0  0  0  0  0  0  0  0  0  0  0
   -0.9191   -0.8180    0.4776 C   0  0  0  0  0  0  0  0  0  0  0  0
   -1.4754    0.4347   -0.1390 C   0  0  0  0  0  0  0  0  0  0  0  0
   -2.7447    0.6699    0.3572 O   0  0  0  0  0  0  0  0  0  0  0  0
   -1.5853   -1.9611   -0.1571 N   0  0  0  0  0  0  0  0  0  0  0  0
   -0.4856   -2.9182   -0.1858 C   0  0  0  0  0  0  0  0  0  0  0  0
    0.5937   -2.0829   -0.6838 N   0  0  0  0  0  0  0  0  0  0  0  0
   -2.2998    2.6064   -0.3559 H   0  0  0  0  0  0  0  0  0  0  0  0
   -1.0778    3.5962    0.4912 H   0  0  0  0  0  0  0  0  0  0  0  0
   -0.7931    3.0078   -1.2180 H   0  0  0  0  0  0  0  0  0  0  0  0
    0.6989    1.6237   -1.3055 H   0  0  0  0  0  0  0  0  0  0  0  0
    2.4006    2.0220    0.6478 H   0  0  0  0  0  0  0  0  0  0  0  0
    2.9681    0.7442   -1.1767 H   0  0  0  0  0  0  0  0  0  0  0  0
    2.7014   -1.0106   -1.1777 H   0  0  0  0  0  0  0  0  0  0  0  0
    3.3155   -0.2027    0.2820 H   0  0  0  0  0  0  0  0  0  0  0  0
    0.9543   -1.4563    1.2438 H   0  0  0  0  0  0  0  0  0  0  0  0
   -1.2019   -0.8802    1.5554 H   0  0  0  0  0  0  0  0  0  0  0  0
   -1.4357    0.3160   -1.2346 H   0  0  0  0  0  0  0  0  0  0  0  0
   -2.6579    1.1007    1.2275 H   0  0  0  0  0  0  0  0  0  0  0  0
   -2.3678   -2.3157    0.4195 H   0  0  0  0  0  0  0  0  0  0  0  0
   -0.6937   -3.7798   -0.8423 H   0  0  0  0  0  0  0  0  0  0  0  0
   -0.2489   -3.1777    0.8503 H   0  0  0  0  0  0  0  0  0  0  0  0
    1.5120   -2.5783   -0.6408 H   0  0  0  0  0  0  0  0  0  0  0  0
  1  2  1  0
  2  3  1  0
  3  4  1  0
  3  5  1  0
  5  6  1  0
  5  7  1  0
  7  8  1  0
  2  9  1  0
  8  9  1  0
  9 10  1  0
  8 11  1  0
 11 12  1  0
  7 13  1  0
 12 13  1  0
  1 14  1  0
  1 15  1  0
  1 16  1  0
  3 17  1  0
  4 18  1  0
  6 19  1  0
  6 20  1  0
  6 21  1  0
  7 22  1  0
  8 23  1  0
  9 24  1  0
 10 25  1  0
 11 26  1  0
 12 27  1  0
 12 28  1  0
 13 29  1  0
M  END
>  <PDBID>  (1) 
5MZJ

>  <PDB ID>  (1) 
5MZJ

>  <Generic Name>  (1) 
Theophylline

>  <Brand Name>  (1) 
Apo-theo ER#Apo-theo-LA Srt 100mg#Apo-theo-LA Srt 200mg#Apo-theo-LA Srt 300mg#Elixir De Theophylline#Elixophyllin#I D M Expectorant Tab#Idm Tab#PMS-theophylline Elixir#Pulmophylline Elx#Quibron T SR Tab 300mg#Ratio-theo-bronc#Senophylline#Slo-bid 100#Slo-bid 200#Slo-bid 300#Slo-bid 50#Tedral Tab#Teva-theophylline SR#Theo ER#Theo-24#Theo-SR 300 Srt 300mg#Theo-dur 100 mg#Theo-dur 200 mg#Theo-dur 300 mg#Theo-dur 450 mg#Theolair#Theolair SR Tab 200mg#Theolair SR Tab 250mg#Theolair SR Tab 300mg#Theolair SR Tab 500mg#Theolair Tab 125mg#Theolair Tab 250mg#Theophylline#Theophylline (anhydrous)#Theophylline 80mg/15ml#Theophylline Anhydrous#Theophylline Elixir#Theophylline Elx#Theophylline Extended Release#Theophylline In Dextrose#Theophylline Rougier Elixir#Theophylline Srt 300mg#Theophylline Sustained Release Tab 100mg#Theophylline Sustained Release Tab 200mg#Theophylline(anhydrous)#Uniphyl#Quibron-T#Respbid#Slo-Bid#Theo 24#Theo-Dur#Theodur G

>  <DrugBank ID>  (1) 
DB00277

>  <ATC Codes>  (1) 
R03DA54#R03DA74#R03DB04#R03DA04

>  <Ligand ID>  (1) 
TEP

>  <Target Name>  (1) 
Adenosine receptor A1

>  <UniProt ID>  (1) 
P30542

>  <PDB ID.1>  (1) 
5MZJ

>  <Seq. Identity>  (1) 
46%

$$$$
