PDB_DB00834_00
     RDKit          3D

 83 87  0  0  0  0  0  0  0  0999 V2000
    1.9383    4.9199    0.2390 O   0  0  0  0  0  0  0  0  0  0  0  0
    1.6740    4.5487   -1.0923 C   0  0  0  0  0  0  0  0  0  0  0  0
    2.3577    3.2763   -1.4738 C   0  0  0  0  0  0  0  0  0  0  0  0
    0.2132    4.5905   -1.3831 C   0  0  0  0  0  0  0  0  0  0  0  0
   -0.5614    3.3974   -0.9352 C   0  0  0  0  0  0  0  0  0  0  0  0
   -1.4360    3.7093    0.2763 C   0  0  0  0  0  0  0  0  0  0  0  0
    0.3979    2.2910   -0.4266 C   0  0  2  0  0  0  0  0  0  0  0  0
    1.3516    2.1733   -1.6021 C   0  0  0  0  0  0  0  0  0  0  0  0
   -0.3943    1.0695   -0.2755 C   0  0  0  0  0  0  0  0  0  0  0  0
    0.2751   -0.2160    0.0867 C   0  0  1  0  0  0  0  0  0  0  0  0
    0.8398   -0.3855    1.4307 C   0  0  0  0  0  0  0  0  0  0  0  0
    1.4497   -1.7951    1.5621 C   0  0  0  0  0  0  0  0  0  0  0  0
    2.7243   -1.9385    0.7781 C   0  0  0  0  0  0  0  0  0  0  0  0
    3.7829   -1.0207    1.3959 C   0  0  0  0  0  0  0  0  0  0  0  0
    5.0121   -1.2685    0.7204 N   0  0  0  0  0  0  0  0  0  0  0  0
    5.0448   -0.9806   -0.6684 C   0  0  0  0  0  0  0  0  0  0  0  0
    5.7368   -2.4098    1.1566 C   0  0  0  0  0  0  0  0  0  0  0  0
    3.2460    0.3806    1.1577 C   0  0  0  0  0  0  0  0  0  0  0  0
    1.9475    0.4715    1.9065 C   0  0  0  0  0  0  0  0  0  0  0  0
   -0.7250   -1.3042   -0.2909 C   0  0  0  0  0  0  0  0  0  0  0  0
   -2.0673   -1.1540    0.2934 C   0  0  2  0  0  0  0  0  0  0  0  0
   -2.2279   -1.4776    1.7361 C   0  0  0  0  0  0  0  0  0  0  0  0
   -3.0882   -2.0208   -0.4426 C   0  0  1  0  0  0  0  0  0  0  0  0
   -2.7330   -2.3067   -1.8540 C   0  0  0  0  0  0  0  0  0  0  0  0
   -3.7923   -3.1729   -2.4940 C   0  0  0  0  0  0  0  0  0  0  0  0
   -3.9766   -4.5084   -1.8251 C   0  0  0  0  0  0  0  0  0  0  0  0
   -3.2726   -3.2337    0.2170 O   0  0  0  0  0  0  0  0  0  0  0  0
   -4.4025   -1.2470   -0.3146 C   0  0  0  0  0  0  0  0  0  0  0  0
   -4.0247    0.1233    0.2744 C   0  0  0  0  0  0  0  0  0  0  0  0
   -2.6064    0.1985   -0.1059 C   0  0  1  0  0  0  0  0  0  0  0  0
   -1.7177    1.2113    0.4782 C   0  0  2  0  0  0  0  0  0  0  0  0
   -2.3578    2.5393    0.3868 C   0  0  0  0  0  0  0  0  0  0  0  0
    1.3162    5.6699    0.4323 H   0  0  0  0  0  0  0  0  0  0  0  0
    2.1506    5.3666   -1.7101 H   0  0  0  0  0  0  0  0  0  0  0  0
    3.0260    3.3745   -2.3594 H   0  0  0  0  0  0  0  0  0  0  0  0
    3.0408    2.9991   -0.6209 H   0  0  0  0  0  0  0  0  0  0  0  0
   -0.0068    4.8094   -2.4525 H   0  0  0  0  0  0  0  0  0  0  0  0
   -0.2045    5.4800   -0.8252 H   0  0  0  0  0  0  0  0  0  0  0  0
   -1.2310    3.0090   -1.7135 H   0  0  0  0  0  0  0  0  0  0  0  0
   -2.0320    4.6192    0.1218 H   0  0  0  0  0  0  0  0  0  0  0  0
   -0.8042    3.7425    1.1837 H   0  0  0  0  0  0  0  0  0  0  0  0
    0.8303    2.7637    0.4454 H   0  0  0  0  0  0  0  0  0  0  0  0
    0.8195    2.3532   -2.5844 H   0  0  0  0  0  0  0  0  0  0  0  0
    1.8311    1.2105   -1.7212 H   0  0  0  0  0  0  0  0  0  0  0  0
   -0.7324    0.8708   -1.3557 H   0  0  0  0  0  0  0  0  0  0  0  0
    1.1147   -0.3446   -0.6276 H   0  0  0  0  0  0  0  0  0  0  0  0
    0.0646   -0.3188    2.2572 H   0  0  0  0  0  0  0  0  0  0  0  0
    1.7770   -1.8224    2.6511 H   0  0  0  0  0  0  0  0  0  0  0  0
    0.7456   -2.6007    1.4662 H   0  0  0  0  0  0  0  0  0  0  0  0
    2.6593   -1.6055   -0.2633 H   0  0  0  0  0  0  0  0  0  0  0  0
    3.0500   -2.9764    0.8719 H   0  0  0  0  0  0  0  0  0  0  0  0
    3.8399   -1.1703    2.4919 H   0  0  0  0  0  0  0  0  0  0  0  0
    4.8737    0.0755   -0.9257 H   0  0  0  0  0  0  0  0  0  0  0  0
    4.4326   -1.6985   -1.2431 H   0  0  0  0  0  0  0  0  0  0  0  0
    6.1038   -1.1866   -1.0096 H   0  0  0  0  0  0  0  0  0  0  0  0
    6.4640   -2.6993    0.3788 H   0  0  0  0  0  0  0  0  0  0  0  0
    6.2124   -2.2882    2.1526 H   0  0  0  0  0  0  0  0  0  0  0  0
    5.0299   -3.2690    1.2507 H   0  0  0  0  0  0  0  0  0  0  0  0
    3.9569    1.0648    1.6926 H   0  0  0  0  0  0  0  0  0  0  0  0
    3.2347    0.6834    0.1224 H   0  0  0  0  0  0  0  0  0  0  0  0
    2.2237    0.0202    2.9249 H   0  0  0  0  0  0  0  0  0  0  0  0
    1.7437    1.5005    2.1798 H   0  0  0  0  0  0  0  0  0  0  0  0
   -0.8534   -1.1512   -1.4053 H   0  0  0  0  0  0  0  0  0  0  0  0
   -0.3868   -2.3193   -0.1755 H   0  0  0  0  0  0  0  0  0  0  0  0
   -2.3113   -0.5770    2.3821 H   0  0  0  0  0  0  0  0  0  0  0  0
   -3.2095   -2.0129    1.9177 H   0  0  0  0  0  0  0  0  0  0  0  0
   -1.4837   -2.1357    2.1707 H   0  0  0  0  0  0  0  0  0  0  0  0
   -1.8025   -2.9336   -1.8347 H   0  0  0  0  0  0  0  0  0  0  0  0
   -2.5686   -1.3731   -2.4347 H   0  0  0  0  0  0  0  0  0  0  0  0
   -3.4114   -3.4120   -3.5299 H   0  0  0  0  0  0  0  0  0  0  0  0
   -4.7887   -2.6998   -2.5415 H   0  0  0  0  0  0  0  0  0  0  0  0
   -3.0309   -4.8949   -1.3786 H   0  0  0  0  0  0  0  0  0  0  0  0
   -4.7386   -4.5208   -1.0306 H   0  0  0  0  0  0  0  0  0  0  0  0
   -4.2755   -5.3004   -2.5555 H   0  0  0  0  0  0  0  0  0  0  0  0
   -2.4513   -3.5720    0.6479 H   0  0  0  0  0  0  0  0  0  0  0  0
   -4.7549   -1.0722   -1.3568 H   0  0  0  0  0  0  0  0  0  0  0  0
   -5.1281   -1.7636    0.3184 H   0  0  0  0  0  0  0  0  0  0  0  0
   -4.6076    0.8906   -0.2746 H   0  0  0  0  0  0  0  0  0  0  0  0
   -4.2622    0.1934    1.3291 H   0  0  0  0  0  0  0  0  0  0  0  0
   -2.5491    0.2530   -1.2137 H   0  0  0  0  0  0  0  0  0  0  0  0
   -1.4587    1.0479    1.5639 H   0  0  0  0  0  0  0  0  0  0  0  0
   -2.9764    2.6947    1.3136 H   0  0  0  0  0  0  0  0  0  0  0  0
   -3.0889    2.5657   -0.4698 H   0  0  0  0  0  0  0  0  0  0  0  0
  1  2  1  0
  2  3  1  0
  2  4  1  0
  4  5  1  0
  5  6  1  0
  5  7  1  0
  3  8  1  0
  7  8  1  0
  7  9  1  0
  9 10  1  0
 10 11  1  0
 11 12  1  0
 12 13  1  0
 13 14  1  0
 14 15  1  0
 15 16  1  0
 15 17  1  0
 14 18  1  0
 11 19  1  0
 18 19  1  0
 10 20  1  0
 20 21  1  0
 21 22  1  1
 21 23  1  0
 23 24  1  0
 24 25  1  0
 25 26  1  0
 23 27  1  1
 23 28  1  0
 28 29  1  0
 21 30  1  0
 29 30  1  0
  9 31  1  0
 30 31  1  0
  6 32  1  0
 31 32  1  0
  1 33  1  0
  2 34  1  0
  3 35  1  0
  3 36  1  0
  4 37  1  0
  4 38  1  0
  5 39  1  0
  6 40  1  0
  6 41  1  0
  7 42  1  1
  8 43  1  0
  8 44  1  0
  9 45  1  0
 10 46  1  6
 11 47  1  0
 12 48  1  0
 12 49  1  0
 13 50  1  0
 13 51  1  0
 14 52  1  0
 16 53  1  0
 16 54  1  0
 16 55  1  0
 17 56  1  0
 17 57  1  0
 17 58  1  0
 18 59  1  0
 18 60  1  0
 19 61  1  0
 19 62  1  0
 20 63  1  0
 20 64  1  0
 22 65  1  0
 22 66  1  0
 22 67  1  0
 24 68  1  0
 24 69  1  0
 25 70  1  0
 25 71  1  0
 26 72  1  0
 26 73  1  0
 26 74  1  0
 27 75  1  0
 28 76  1  0
 28 77  1  0
 29 78  1  0
 29 79  1  0
 30 80  1  6
 31 81  1  1
 32 82  1  0
 32 83  1  0
M  END
>  <PDBID>  (1) 
2W8Y

>  <PDB ID>  (1) 
2W8Y

>  <Generic Name>  (1) 
Mifepristone

>  <Brand Name>  (1) 
Korlym#Mifegymiso#Corlux#Mefipil#Mifegyne#Mifeprex

>  <DrugBank ID>  (1) 
DB00834

>  <ATC Codes>  (1) 
G03XB01#G03XB51

>  <Ligand ID>  (1) 
486

>  <Target Name>  (1) 
Progesterone receptor

>  <UniProt ID>  (1) 
P06401

>  <PDB ID.1>  (1) 
2W8Y

>  <Seq. Identity>  (1) 
96%

$$$$
