PDB_DB01136_08
     RDKit          3D

148154  0  0  0  0  0  0  0  0999 V2000
    0.9272   -0.5122    1.9209 O   0  0  0  0  0  0  0  0  0  0  0  0
   -0.2424   -0.4571    1.1376 C   0  0  2  0  0  0  0  0  0  0  0  0
   -0.6909   -1.8740    0.8906 C   0  0  0  0  0  0  0  0  0  0  0  0
   -1.8266   -1.9783    0.1706 O   0  0  0  0  0  0  0  0  0  0  0  0
   -2.9936   -1.4538    0.7202 C   0  0  2  0  0  0  0  0  0  0  0  0
   -3.9593   -2.5728    1.0823 C   0  0  0  0  0  0  0  0  0  0  0  0
   -4.8190   -3.0521   -0.0077 C   0  0  0  0  0  0  0  0  0  0  0  0
   -5.0558   -2.0500   -1.1262 C   0  0  0  0  0  0  0  0  0  0  0  0
   -5.0455   -0.7081   -0.4931 C   0  0  0  0  0  0  0  0  0  0  0  0
   -3.5604   -0.4435   -0.1603 C   0  0  0  0  0  0  0  0  0  0  0  0
   -3.7623    0.9594    0.3636 C   0  0  0  0  0  0  0  0  0  0  0  0
   -4.5680    1.0862    1.5809 C   0  0  0  0  0  0  0  0  0  0  0  0
   -5.9323    1.6312    1.5289 C   0  0  0  0  0  0  0  0  0  0  0  0
   -6.4127    2.2222    0.2594 C   0  0  0  0  0  0  0  0  0  0  0  0
   -5.2453    2.7269   -0.5591 C   0  0  0  0  0  0  0  0  0  0  0  0
   -4.4547    1.5032   -0.9011 C   0  0  0  0  0  0  0  0  0  0  0  0
   -5.2939    0.4007   -1.3693 N   0  0  0  0  0  0  0  0  0  0  0  0
    0.0550    0.3134   -0.1045 C   0  0  0  0  0  0  0  0  0  0  0  0
    1.0583   -0.1855   -0.9579 N   0  0  0  0  0  0  0  0  0  0  0  0
    2.4178   -0.1541   -0.5104 C   0  0  0  0  0  0  0  0  0  0  0  0
    2.9543    1.2306   -0.3770 C   0  0  0  0  0  0  0  0  0  0  0  0
    4.2561    1.3453    0.0302 O   0  0  0  0  0  0  0  0  0  0  0  0
    5.2096    0.8111   -0.7861 C   0  0  0  0  0  0  0  0  0  0  0  0
    6.2049    1.8543   -1.2761 C   0  0  0  0  0  0  0  0  0  0  0  0
    7.6135    1.3154   -1.3546 C   0  0  0  0  0  0  0  0  0  0  0  0
    8.1531    0.9545    0.0126 C   0  0  0  0  0  0  0  0  0  0  0  0
    6.9859    0.5175    0.8743 C   0  0  0  0  0  0  0  0  0  0  0  0
    6.0189   -0.2189   -0.0451 C   0  0  0  0  0  0  0  0  0  0  0  0
    5.2637   -1.0802    0.7288 O   0  0  0  0  0  0  0  0  0  0  0  0
    5.5350   -2.4063    0.3668 C   0  0  0  0  0  0  0  0  0  0  0  0
    0.2666   -3.2906    0.5221 O   0  0  0  0  0  0  0  0  0  0  0  0
    0.1876   -1.9010    0.6237 C   0  0  2  0  0  0  0  0  0  0  0  0
   -0.9856   -1.3796    1.3516 C   0  0  0  0  0  0  0  0  0  0  0  0
   -2.2311   -1.6354    0.9427 O   0  0  0  0  0  0  0  0  0  0  0  0
   -2.7433   -1.1725   -0.2088 C   0  0  1  0  0  0  0  0  0  0  0  0
   -3.1228   -2.3887   -1.0727 C   0  0  0  0  0  0  0  0  0  0  0  0
   -4.6124   -2.4825   -1.2990 C   0  0  0  0  0  0  0  0  0  0  0  0
   -5.1598   -1.2865   -2.0289 C   0  0  0  0  0  0  0  0  0  0  0  0
   -4.5039   -0.0596   -1.4473 C   0  0  0  0  0  0  0  0  0  0  0  0
   -4.0374   -0.3935   -0.0442 C   0  0  2  0  0  0  0  0  0  0  0  0
   -3.8714    0.9605    0.5556 C   0  0  2  0  0  0  0  0  0  0  0  0
   -4.4051    1.0506    1.9674 C   0  0  0  0  0  0  0  0  0  0  0  0
   -5.9132    0.9505    2.0072 C   0  0  0  0  0  0  0  0  0  0  0  0
   -6.5706    2.0668    1.2279 C   0  0  0  0  0  0  0  0  0  0  0  0
   -5.5608    2.8166    0.4160 C   0  0  0  0  0  0  0  0  0  0  0  0
   -4.6472    1.8920   -0.3533 C   0  0  0  0  0  0  0  0  0  0  0  0
   -5.4256    1.0096   -1.2011 N   0  0  0  0  0  0  0  0  0  0  0  0
    0.4357   -1.3393   -0.7418 C   0  0  0  0  0  0  0  0  0  0  0  0
    1.7566   -1.6715   -1.2523 N   0  0  0  0  0  0  0  0  0  0  0  0
    2.8463   -1.0450   -0.5764 C   0  0  0  0  0  0  0  0  0  0  0  0
    2.8818    0.4315   -0.8071 C   0  0  0  0  0  0  0  0  0  0  0  0
    3.8914    1.1210   -0.2014 O   0  0  0  0  0  0  0  0  0  0  0  0
    5.1743    0.7789   -0.5278 C   0  0  0  0  0  0  0  0  0  0  0  0
    5.9460    1.9426   -1.1340 C   0  0  0  0  0  0  0  0  0  0  0  0
    7.4399    1.7318   -1.0751 C   0  0  0  0  0  0  0  0  0  0  0  0
    7.9141    1.7267    0.3631 C   0  0  0  0  0  0  0  0  0  0  0  0
    6.7221    1.5295    1.2661 C   0  0  0  0  0  0  0  0  0  0  0  0
    5.9104    0.3508    0.7165 C   0  0  0  0  0  0  0  0  0  0  0  0
    5.0125   -0.0667    1.7057 O   0  0  0  0  0  0  0  0  0  0  0  0
    5.3717   -1.3785    2.0791 C   0  0  0  0  0  0  0  0  0  0  0  0
    1.1298   -1.4433    2.1754 H   0  0  0  0  0  0  0  0  0  0  0  0
   -0.9965    0.0793    1.7564 H   0  0  0  0  0  0  0  0  0  0  0  0
    0.1530   -2.4457    0.4453 H   0  0  0  0  0  0  0  0  0  0  0  0
   -0.8715   -2.2977    1.9067 H   0  0  0  0  0  0  0  0  0  0  0  0
   -2.6783   -1.0179    1.6884 H   0  0  0  0  0  0  0  0  0  0  0  0
   -4.5500   -2.2885    1.9740 H   0  0  0  0  0  0  0  0  0  0  0  0
   -3.3089   -3.4259    1.4241 H   0  0  0  0  0  0  0  0  0  0  0  0
   -5.8363   -3.3307    0.3587 H   0  0  0  0  0  0  0  0  0  0  0  0
   -4.4475   -3.9763   -0.5201 H   0  0  0  0  0  0  0  0  0  0  0  0
   -6.0364   -2.2310   -1.5891 H   0  0  0  0  0  0  0  0  0  0  0  0
   -4.2981   -2.1535   -1.9388 H   0  0  0  0  0  0  0  0  0  0  0  0
   -5.6604   -0.7288    0.4084 H   0  0  0  0  0  0  0  0  0  0  0  0
   -3.0663   -0.3401   -1.1549 H   0  0  0  0  0  0  0  0  0  0  0  0
   -2.7852    1.4682    0.3838 H   0  0  0  0  0  0  0  0  0  0  0  0
   -4.6134    0.0915    2.0932 H   0  0  0  0  0  0  0  0  0  0  0  0
   -3.9450    1.6996    2.3056 H   0  0  0  0  0  0  0  0  0  0  0  0
   -6.7106    0.8676    1.8425 H   0  0  0  0  0  0  0  0  0  0  0  0
   -6.0647    2.4297    2.3242 H   0  0  0  0  0  0  0  0  0  0  0  0
   -6.9304    1.4532   -0.3749 H   0  0  0  0  0  0  0  0  0  0  0  0
   -7.1395    3.0309    0.4207 H   0  0  0  0  0  0  0  0  0  0  0  0
   -4.5926    3.4068    0.0166 H   0  0  0  0  0  0  0  0  0  0  0  0
   -5.5837    3.2246   -1.4830 H   0  0  0  0  0  0  0  0  0  0  0  0
   -3.7195    1.7713   -1.6721 H   0  0  0  0  0  0  0  0  0  0  0  0
   -5.1090    0.1760   -2.3693 H   0  0  0  0  0  0  0  0  0  0  0  0
   -0.8971    0.5169   -0.6755 H   0  0  0  0  0  0  0  0  0  0  0  0
    0.3751    1.3447    0.2338 H   0  0  0  0  0  0  0  0  0  0  0  0
    0.9731    0.1820   -1.9101 H   0  0  0  0  0  0  0  0  0  0  0  0
    3.0144   -0.6600   -1.3344 H   0  0  0  0  0  0  0  0  0  0  0  0
    2.5983   -0.7718    0.3778 H   0  0  0  0  0  0  0  0  0  0  0  0
    2.3406    1.7280    0.4356 H   0  0  0  0  0  0  0  0  0  0  0  0
    2.6987    1.8418   -1.2861 H   0  0  0  0  0  0  0  0  0  0  0  0
    4.7672    0.3136   -1.6843 H   0  0  0  0  0  0  0  0  0  0  0  0
    6.2272    2.7558   -0.6409 H   0  0  0  0  0  0  0  0  0  0  0  0
    5.9059    2.1599   -2.2885 H   0  0  0  0  0  0  0  0  0  0  0  0
    8.2485    2.1521   -1.7220 H   0  0  0  0  0  0  0  0  0  0  0  0
    7.7170    0.4927   -2.0855 H   0  0  0  0  0  0  0  0  0  0  0  0
    8.7300    1.7858    0.4499 H   0  0  0  0  0  0  0  0  0  0  0  0
    8.8446    0.1065   -0.1134 H   0  0  0  0  0  0  0  0  0  0  0  0
    6.4758    1.3966    1.2982 H   0  0  0  0  0  0  0  0  0  0  0  0
    7.3576   -0.1083    1.6979 H   0  0  0  0  0  0  0  0  0  0  0  0
    6.6559   -0.8193   -0.7486 H   0  0  0  0  0  0  0  0  0  0  0  0
    4.9395   -3.0978    0.9730 H   0  0  0  0  0  0  0  0  0  0  0  0
    6.6368   -2.5578    0.5291 H   0  0  0  0  0  0  0  0  0  0  0  0
    5.2608   -2.5059   -0.7031 H   0  0  0  0  0  0  0  0  0  0  0  0
    0.0964   -3.6159   -0.3921 H   0  0  0  0  0  0  0  0  0  0  0  0
    1.1457   -1.6441    1.2080 H   0  0  0  0  0  0  0  0  0  0  0  0
   -0.9025   -1.8020    2.4132 H   0  0  0  0  0  0  0  0  0  0  0  0
   -0.7785   -0.2853    1.5420 H   0  0  0  0  0  0  0  0  0  0  0  0
   -2.0694   -0.5175   -0.7705 H   0  0  0  0  0  0  0  0  0  0  0  0
   -2.6186   -2.2827   -2.0588 H   0  0  0  0  0  0  0  0  0  0  0  0
   -2.8267   -3.3443   -0.5699 H   0  0  0  0  0  0  0  0  0  0  0  0
   -5.1337   -2.7284   -0.3695 H   0  0  0  0  0  0  0  0  0  0  0  0
   -4.7485   -3.3621   -1.9799 H   0  0  0  0  0  0  0  0  0  0  0  0
   -4.8973   -1.3489   -3.0957 H   0  0  0  0  0  0  0  0  0  0  0  0
   -6.2569   -1.2564   -1.8404 H   0  0  0  0  0  0  0  0  0  0  0  0
   -3.6274    0.2781   -2.0158 H   0  0  0  0  0  0  0  0  0  0  0  0
   -4.7879   -0.9423    0.5440 H   0  0  0  0  0  0  0  0  0  0  0  0
   -2.8329    1.3190    0.5670 H   0  0  0  0  0  0  0  0  0  0  0  0
   -4.0023    0.2076    2.5560 H   0  0  0  0  0  0  0  0  0  0  0  0
   -4.1041    1.9892    2.4293 H   0  0  0  0  0  0  0  0  0  0  0  0
   -6.2893   -0.0157    1.6540 H   0  0  0  0  0  0  0  0  0  0  0  0
   -6.2219    1.0678    3.0658 H   0  0  0  0  0  0  0  0  0  0  0  0
   -7.0578    2.8162    1.9146 H   0  0  0  0  0  0  0  0  0  0  0  0
   -7.3978    1.6925    0.5903 H   0  0  0  0  0  0  0  0  0  0  0  0
   -4.9527    3.5108    1.0115 H   0  0  0  0  0  0  0  0  0  0  0  0
   -6.1210    3.4055   -0.3420 H   0  0  0  0  0  0  0  0  0  0  0  0
   -3.9938    2.4974   -0.9971 H   0  0  0  0  0  0  0  0  0  0  0  0
   -6.2579    0.5963   -0.6953 H   0  0  0  0  0  0  0  0  0  0  0  0
   -0.3288   -1.8128   -1.4457 H   0  0  0  0  0  0  0  0  0  0  0  0
    0.3018   -0.2496   -0.8354 H   0  0  0  0  0  0  0  0  0  0  0  0
    1.7774   -1.4092   -2.2584 H   0  0  0  0  0  0  0  0  0  0  0  0
    3.7838   -1.4572   -1.0681 H   0  0  0  0  0  0  0  0  0  0  0  0
    2.9526   -1.3398    0.4826 H   0  0  0  0  0  0  0  0  0  0  0  0
    1.9208    0.8533   -0.3831 H   0  0  0  0  0  0  0  0  0  0  0  0
    2.8077    0.6098   -1.9016 H   0  0  0  0  0  0  0  0  0  0  0  0
    5.2366   -0.0808   -1.2594 H   0  0  0  0  0  0  0  0  0  0  0  0
    5.7092    2.9122   -0.7079 H   0  0  0  0  0  0  0  0  0  0  0  0
    5.6808    1.9304   -2.2247 H   0  0  0  0  0  0  0  0  0  0  0  0
    7.9079    2.5390   -1.6621 H   0  0  0  0  0  0  0  0  0  0  0  0
    7.6406    0.7483   -1.5697 H   0  0  0  0  0  0  0  0  0  0  0  0
    8.4434    2.6748    0.5655 H   0  0  0  0  0  0  0  0  0  0  0  0
    8.6273    0.9030    0.5577 H   0  0  0  0  0  0  0  0  0  0  0  0
    6.0908    2.4307    1.2236 H   0  0  0  0  0  0  0  0  0  0  0  0
    7.0593    1.3017    2.3023 H   0  0  0  0  0  0  0  0  0  0  0  0
    6.6589   -0.4534    0.4904 H   0  0  0  0  0  0  0  0  0  0  0  0
    4.7091   -1.7767    2.8566 H   0  0  0  0  0  0  0  0  0  0  0  0
    6.4212   -1.3968    2.3874 H   0  0  0  0  0  0  0  0  0  0  0  0
    5.2700   -2.0300    1.1713 H   0  0  0  0  0  0  0  0  0  0  0  0
  1  2  1  0
  2  3  1  0
  3  4  1  0
  4  5  1  0
  5  6  1  0
  6  7  1  0
  7  8  1  0
  8  9  1  0
  5 10  1  0
  9 10  1  0
 10 11  1  0
 11 12  1  0
 12 13  1  0
 13 14  1  0
 14 15  1  0
 11 16  1  0
 15 16  1  0
  9 17  1  0
 16 17  1  0
  2 18  1  0
 18 19  1  0
 19 20  1  0
 20 21  1  0
 21 22  1  0
 22 23  1  0
 23 24  1  0
 24 25  1  0
 25 26  1  0
 26 27  1  0
 23 28  1  0
 27 28  1  0
 28 29  1  0
 29 30  1  0
 31 32  1  0
 32 33  1  0
 33 34  1  0
 34 35  1  0
 35 36  1  0
 36 37  1  0
 37 38  1  0
 38 39  1  0
 35 40  1  0
 39 40  1  0
 40 41  1  0
 41 42  1  0
 42 43  1  0
 43 44  1  0
 44 45  1  0
 41 46  1  0
 45 46  1  0
 39 47  1  0
 46 47  1  0
 32 48  1  0
 48 49  1  0
 49 50  1  0
 50 51  1  0
 51 52  1  0
 52 53  1  0
 53 54  1  0
 54 55  1  0
 55 56  1  0
 56 57  1  0
 53 58  1  0
 57 58  1  0
 58 59  1  0
 59 60  1  0
  1 61  1  0
  2 62  1  1
  3 63  1  0
  3 64  1  0
  5 65  1  1
  6 66  1  0
  6 67  1  0
  7 68  1  0
  7 69  1  0
  8 70  1  0
  8 71  1  0
  9 72  1  0
 10 73  1  0
 11 74  1  0
 12 75  1  0
 12 76  1  0
 13 77  1  0
 13 78  1  0
 14 79  1  0
 14 80  1  0
 15 81  1  0
 15 82  1  0
 16 83  1  0
 17 84  1  0
 18 85  1  0
 18 86  1  0
 19 87  1  0
 20 88  1  0
 20 89  1  0
 21 90  1  0
 21 91  1  0
 23 92  1  0
 24 93  1  0
 24 94  1  0
 25 95  1  0
 25 96  1  0
 26 97  1  0
 26 98  1  0
 27 99  1  0
 27100  1  0
 28101  1  0
 30102  1  0
 30103  1  0
 30104  1  0
 31105  1  0
 32106  1  1
 33107  1  0
 33108  1  0
 35109  1  6
 36110  1  0
 36111  1  0
 37112  1  0
 37113  1  0
 38114  1  0
 38115  1  0
 39116  1  0
 40117  1  1
 41118  1  1
 42119  1  0
 42120  1  0
 43121  1  0
 43122  1  0
 44123  1  0
 44124  1  0
 45125  1  0
 45126  1  0
 46127  1  0
 47128  1  0
 48129  1  0
 48130  1  0
 49131  1  0
 50132  1  0
 50133  1  0
 51134  1  0
 51135  1  0
 53136  1  0
 54137  1  0
 54138  1  0
 55139  1  0
 55140  1  0
 56141  1  0
 56142  1  0
 57143  1  0
 57144  1  0
 58145  1  0
 60146  1  0
 60147  1  0
 60148  1  0
M  END
>  <PDBID>  (1) 
4AMJ

>  <PDB ID>  (1) 
4AMJ

>  <Generic Name>  (1) 
Carvedilol

>  <Brand Name>  (1) 
Apo-carvedilol#Auro-carvedilol#Ava-carvedilol#Carvedilol#Coreg#Coreg (carvedilol) Tablets, 12.5mg#Coreg (carvedilol) Tablets, 25mg#Coreg (carvedilol) Tablets, 3.125 mg#Coreg (carvedilol) Tablets, 6.25mg#Coreg 12.5mg#Coreg 25mg#Coreg 3.125mg#Coreg 6.25mg#Coreg CR#Coregcr CR#Dilatrend - Tab 25mg#Dilatrend - Tab 50mg#Dom-carvedilol#Hypertenevide-12.5#Jamp-carvedilol#Mylan-carvedilol#Novo-carvedilol Tablets#Ntp-carvedilol#Nu-carvedilol#PMS-carvedilol#Ran-carvedilol#Ratio-carvedilol#Zym-carvedilol#COREGCR

>  <DrugBank ID>  (1) 
DB01136

>  <ATC Codes>  (1) 
C07AG02

>  <Ligand ID>  (1) 
CVD

>  <Target Name>  (1) 
Beta-1 adrenergic receptor

>  <UniProt ID>  (1) 
P08588

>  <PDB ID.1>  (1) 
4AMJ

>  <Seq. Identity>  (1) 
63%

$$$$
