PDB_DB01232_02
     RDKit          3D

123127  0  0  0  0  0  0  0  0999 V2000
    4.6257   -0.9885   -0.9865 C   0  0  0  0  0  0  0  0  0  0  0  0
    4.9074   -2.2850   -0.5180 O   0  0  0  0  0  0  0  0  0  0  0  0
    6.7076   -0.3164   -0.0111 N   0  0  0  0  0  0  0  0  0  0  0  0
    6.0091   -0.3788   -1.2644 C   0  0  2  0  0  0  0  0  0  0  0  0
    5.8018    0.9432   -1.9383 C   0  0  0  0  0  0  0  0  0  0  0  0
    7.0897    1.6804   -2.1844 C   0  0  0  0  0  0  0  0  0  0  0  0
    9.1501    2.3321   -1.0711 C   0  0  0  0  0  0  0  0  0  0  0  0
    8.6381    3.4150   -0.1651 C   0  0  0  0  0  0  0  0  0  0  0  0
    8.3159    2.8221    1.1965 C   0  0  0  0  0  0  0  0  0  0  0  0
    7.1647    1.8370    0.9715 C   0  0  0  0  0  0  0  0  0  0  0  0
    8.1482    1.2047   -1.2507 C   0  0  0  0  0  0  0  0  0  0  0  0
    7.6784    0.7371    0.0866 C   0  0  0  0  0  0  0  0  0  0  0  0
    3.9801   -0.2176    0.0456 N   0  0  0  0  0  0  0  0  0  0  0  0
    2.8670   -0.8241    0.6775 C   0  0  2  0  0  0  0  0  0  0  0  0
    1.6785   -1.0469   -0.1641 C   0  0  0  0  0  0  0  0  0  0  0  0
    2.1184   -1.8720   -1.2449 O   0  0  0  0  0  0  0  0  0  0  0  0
    2.6816   -0.1920    2.0180 C   0  0  0  0  0  0  0  0  0  0  0  0
    2.4777    1.2872    2.0202 C   0  0  1  0  0  0  0  0  0  0  0  0
    3.5804    1.9636    1.4631 O   0  0  0  0  0  0  0  0  0  0  0  0
    1.3072    1.7764    1.3799 N   0  0  0  0  0  0  0  0  0  0  0  0
   -1.1845   -0.3087    0.2695 C   0  0  1  0  0  0  0  0  0  0  0  0
   -1.1378   -0.0902    1.6739 O   0  0  0  0  0  0  0  0  0  0  0  0
   -0.6502   -1.6756    0.0001 C   0  0  1  0  0  0  0  0  0  0  0  0
    0.6809   -1.8589    0.4881 N   0  0  0  0  0  0  0  0  0  0  0  0
   -1.5960   -2.7741    0.3809 C   0  0  0  0  0  0  0  0  0  0  0  0
   -1.1389   -4.1621    0.1410 C   0  0  0  0  0  0  0  0  0  0  0  0
    0.0936   -4.5996    0.8540 C   0  0  0  0  0  0  0  0  0  0  0  0
   -0.9440   -4.4972   -1.3246 C   0  0  0  0  0  0  0  0  0  0  0  0
   -0.0651   -6.1072    1.1268 C   0  0  0  0  0  0  0  0  0  0  0  0
   -0.2626   -5.8478   -1.3648 C   0  0  0  0  0  0  0  0  0  0  0  0
   -0.6149   -6.6957   -0.1596 C   0  0  0  0  0  0  0  0  0  0  0  0
   -3.1958    1.0785    0.2934 N   0  0  0  0  0  0  0  0  0  0  0  0
   -2.6695   -0.2201   -0.0412 C   0  0  0  0  0  0  0  0  0  0  0  0
   -4.6126    1.1509    0.2089 C   0  0  2  0  0  0  0  0  0  0  0  0
   -5.3710   -0.1221    0.0962 C   0  0  0  0  0  0  0  0  0  0  0  0
   -5.0302   -0.8183   -1.0583 O   0  0  0  0  0  0  0  0  0  0  0  0
   -5.0866    2.1121   -0.8637 C   0  0  0  0  0  0  0  0  0  0  0  0
   -4.7188    3.4968   -0.3054 C   0  0  2  0  0  0  0  0  0  0  0  0
   -5.1928    4.6197   -1.1573 C   0  0  0  0  0  0  0  0  0  0  0  0
   -4.3456    4.8280   -2.3913 C   0  0  0  0  0  0  0  0  0  0  0  0
   -2.8810    4.7965   -2.1027 C   0  0  0  0  0  0  0  0  0  0  0  0
   -2.5285    4.6309   -0.6656 C   0  0  0  0  0  0  0  0  0  0  0  0
   -3.2362    3.4440   -0.0793 C   0  0  2  0  0  0  0  0  0  0  0  0
   -2.5950    2.1408   -0.4855 C   0  0  0  0  0  0  0  0  0  0  0  0
   -6.7750    0.1546    0.0731 N   0  0  0  0  0  0  0  0  0  0  0  0
   -7.5881   -0.9316    0.5727 C   0  0  0  0  0  0  0  0  0  0  0  0
   -7.2139   -1.1548    2.0231 C   0  0  0  0  0  0  0  0  0  0  0  0
   -7.4241   -2.2043   -0.1700 C   0  0  0  0  0  0  0  0  0  0  0  0
   -9.0674   -0.5299    0.5986 C   0  0  0  0  0  0  0  0  0  0  0  0
    4.1095   -1.0391   -1.9302 H   0  0  0  0  0  0  0  0  0  0  0  0
    5.7057   -2.2412    0.0934 H   0  0  0  0  0  0  0  0  0  0  0  0
    6.0054   -0.2693    0.7553 H   0  0  0  0  0  0  0  0  0  0  0  0
    6.5802   -1.0865   -1.9474 H   0  0  0  0  0  0  0  0  0  0  0  0
    5.1546    1.5735   -1.3079 H   0  0  0  0  0  0  0  0  0  0  0  0
    5.2590    0.7489   -2.8914 H   0  0  0  0  0  0  0  0  0  0  0  0
    7.4122    1.3905   -3.2164 H   0  0  0  0  0  0  0  0  0  0  0  0
    6.9928    2.7677   -2.1889 H   0  0  0  0  0  0  0  0  0  0  0  0
   10.1302    1.9741   -0.7157 H   0  0  0  0  0  0  0  0  0  0  0  0
    9.2920    2.7938   -2.0781 H   0  0  0  0  0  0  0  0  0  0  0  0
    9.4602    4.1487   -0.0496 H   0  0  0  0  0  0  0  0  0  0  0  0
    7.7256    3.8714   -0.5939 H   0  0  0  0  0  0  0  0  0  0  0  0
    9.2102    2.3046    1.5857 H   0  0  0  0  0  0  0  0  0  0  0  0
    7.9827    3.6200    1.8847 H   0  0  0  0  0  0  0  0  0  0  0  0
    6.9105    1.3648    1.9599 H   0  0  0  0  0  0  0  0  0  0  0  0
    6.3281    2.3908    0.5559 H   0  0  0  0  0  0  0  0  0  0  0  0
    8.7204    0.3606   -1.7108 H   0  0  0  0  0  0  0  0  0  0  0  0
    8.5976    0.3366    0.6108 H   0  0  0  0  0  0  0  0  0  0  0  0
    3.6158    0.6556   -0.4414 H   0  0  0  0  0  0  0  0  0  0  0  0
    3.2389   -1.8936    0.9395 H   0  0  0  0  0  0  0  0  0  0  0  0
    1.2425   -0.1821   -0.6709 H   0  0  0  0  0  0  0  0  0  0  0  0
    2.1686   -2.7929   -0.8946 H   0  0  0  0  0  0  0  0  0  0  0  0
    3.6712   -0.3514    2.5521 H   0  0  0  0  0  0  0  0  0  0  0  0
    1.9534   -0.7211    2.6780 H   0  0  0  0  0  0  0  0  0  0  0  0
    2.4459    1.6086    3.0961 H   0  0  0  0  0  0  0  0  0  0  0  0
    3.3000    2.6758    0.8362 H   0  0  0  0  0  0  0  0  0  0  0  0
    1.4958    2.4025    0.5609 H   0  0  0  0  0  0  0  0  0  0  0  0
    0.6146    2.1982    2.0400 H   0  0  0  0  0  0  0  0  0  0  0  0
   -0.5735    0.4491   -0.1927 H   0  0  0  0  0  0  0  0  0  0  0  0
   -1.6803    0.6740    1.9330 H   0  0  0  0  0  0  0  0  0  0  0  0
   -0.5341   -1.8062   -1.1395 H   0  0  0  0  0  0  0  0  0  0  0  0
    0.6712   -1.8227    1.5109 H   0  0  0  0  0  0  0  0  0  0  0  0
   -1.9483   -2.7121    1.4340 H   0  0  0  0  0  0  0  0  0  0  0  0
   -2.5296   -2.6483   -0.2438 H   0  0  0  0  0  0  0  0  0  0  0  0
   -1.9876   -4.8265    0.4656 H   0  0  0  0  0  0  0  0  0  0  0  0
    1.0290   -4.5342    0.2582 H   0  0  0  0  0  0  0  0  0  0  0  0
    0.1858   -4.1520    1.8738 H   0  0  0  0  0  0  0  0  0  0  0  0
   -0.3724   -3.7609   -1.8832 H   0  0  0  0  0  0  0  0  0  0  0  0
   -1.9487   -4.6555   -1.8177 H   0  0  0  0  0  0  0  0  0  0  0  0
    0.9106   -6.5091    1.4132 H   0  0  0  0  0  0  0  0  0  0  0  0
   -0.8444   -6.2027    1.9000 H   0  0  0  0  0  0  0  0  0  0  0  0
    0.8413   -5.7237   -1.3742 H   0  0  0  0  0  0  0  0  0  0  0  0
   -0.5275   -6.4354   -2.2639 H   0  0  0  0  0  0  0  0  0  0  0  0
   -1.7035   -6.9009   -0.1061 H   0  0  0  0  0  0  0  0  0  0  0  0
   -0.0780   -7.6665   -0.3129 H   0  0  0  0  0  0  0  0  0  0  0  0
   -2.7645   -0.3789   -1.1051 H   0  0  0  0  0  0  0  0  0  0  0  0
   -3.1688   -0.9381    0.6317 H   0  0  0  0  0  0  0  0  0  0  0  0
   -4.9377    1.6509    1.1784 H   0  0  0  0  0  0  0  0  0  0  0  0
   -5.2257   -0.7918    0.9842 H   0  0  0  0  0  0  0  0  0  0  0  0
   -4.8527   -1.7747   -0.8868 H   0  0  0  0  0  0  0  0  0  0  0  0
   -6.1642    1.9888   -0.9972 H   0  0  0  0  0  0  0  0  0  0  0  0
   -4.6029    1.9408   -1.8428 H   0  0  0  0  0  0  0  0  0  0  0  0
   -5.2841    3.5461    0.6609 H   0  0  0  0  0  0  0  0  0  0  0  0
   -6.2302    4.4242   -1.4852 H   0  0  0  0  0  0  0  0  0  0  0  0
   -5.2436    5.5524   -0.5330 H   0  0  0  0  0  0  0  0  0  0  0  0
   -4.6700    4.0601   -3.1466 H   0  0  0  0  0  0  0  0  0  0  0  0
   -4.6177    5.8183   -2.8087 H   0  0  0  0  0  0  0  0  0  0  0  0
   -2.4347    3.9675   -2.6780 H   0  0  0  0  0  0  0  0  0  0  0  0
   -2.3628    5.7273   -2.4653 H   0  0  0  0  0  0  0  0  0  0  0  0
   -2.7920    5.5118   -0.0415 H   0  0  0  0  0  0  0  0  0  0  0  0
   -1.4367    4.4572   -0.5830 H   0  0  0  0  0  0  0  0  0  0  0  0
   -3.0645    3.5206    1.0376 H   0  0  0  0  0  0  0  0  0  0  0  0
   -2.5903    1.9542   -1.5683 H   0  0  0  0  0  0  0  0  0  0  0  0
   -1.5074    2.2831   -0.2238 H   0  0  0  0  0  0  0  0  0  0  0  0
   -7.0153    1.0606    0.5588 H   0  0  0  0  0  0  0  0  0  0  0  0
   -6.7243   -0.2619    2.4046 H   0  0  0  0  0  0  0  0  0  0  0  0
   -8.1142   -1.4057    2.6336 H   0  0  0  0  0  0  0  0  0  0  0  0
   -6.4741   -2.0021    2.0526 H   0  0  0  0  0  0  0  0  0  0  0  0
   -7.2167   -1.9894   -1.2382 H   0  0  0  0  0  0  0  0  0  0  0  0
   -6.6748   -2.8981    0.2572 H   0  0  0  0  0  0  0  0  0  0  0  0
   -8.3866   -2.7959   -0.1731 H   0  0  0  0  0  0  0  0  0  0  0  0
   -9.6089   -1.3435    1.1271 H   0  0  0  0  0  0  0  0  0  0  0  0
   -9.1549    0.3686    1.2354 H   0  0  0  0  0  0  0  0  0  0  0  0
   -9.4899   -0.3606   -0.3890 H   0  0  0  0  0  0  0  0  0  0  0  0
  1  2  1  0
  1  4  1  0
  3  4  1  0
  4  5  1  0
  5  6  1  0
  7  8  1  0
  8  9  1  0
  9 10  1  0
  6 11  1  0
  7 11  1  0
  3 12  1  0
 10 12  1  0
 11 12  1  0
  1 13  1  0
 13 14  1  0
 14 15  1  0
 15 16  1  0
 14 17  1  0
 17 18  1  0
 18 19  1  0
 18 20  1  0
 21 22  1  0
 21 23  1  0
 15 24  1  0
 23 24  1  0
 23 25  1  0
 25 26  1  0
 26 27  1  0
 26 28  1  0
 27 29  1  0
 28 30  1  0
 29 31  1  0
 30 31  1  0
 21 33  1  0
 32 33  1  0
 32 34  1  0
 34 35  1  0
 35 36  1  0
 34 37  1  0
 37 38  1  0
 38 39  1  0
 39 40  1  0
 40 41  1  0
 41 42  1  0
 38 43  1  0
 42 43  1  0
 32 44  1  0
 43 44  1  0
 35 45  1  0
 46 45  1  0
 46 47  1  0
 46 48  1  0
 46 49  1  0
  1 50  1  0
  2 51  1  0
  3 52  1  0
  4 53  1  6
  5 54  1  0
  5 55  1  0
  6 56  1  0
  6 57  1  0
  7 58  1  0
  7 59  1  0
  8 60  1  0
  8 61  1  0
  9 62  1  0
  9 63  1  0
 10 64  1  0
 10 65  1  0
 11 66  1  0
 12 67  1  0
 13 68  1  0
 14 69  1  1
 15 70  1  0
 16 71  1  0
 17 72  1  0
 17 73  1  0
 18 74  1  1
 19 75  1  0
 20 76  1  0
 20 77  1  0
 21 78  1  6
 22 79  1  0
 23 80  1  6
 24 81  1  0
 25 82  1  0
 25 83  1  0
 26 84  1  0
 27 85  1  0
 27 86  1  0
 28 87  1  0
 28 88  1  0
 29 89  1  0
 29 90  1  0
 30 91  1  0
 30 92  1  0
 31 93  1  0
 31 94  1  0
 33 95  1  0
 33 96  1  0
 34 97  1  1
 35 98  1  0
 36 99  1  0
 37100  1  0
 37101  1  0
 38102  1  1
 39103  1  0
 39104  1  0
 40105  1  0
 40106  1  0
 41107  1  0
 41108  1  0
 42109  1  0
 42110  1  0
 43111  1  1
 44112  1  0
 44113  1  0
 45114  1  0
 47115  1  0
 47116  1  0
 47117  1  0
 48118  1  0
 48119  1  0
 48120  1  0
 49121  1  0
 49122  1  0
 49123  1  0
M  END
>  <PDBID>  (1) 
1HXB

>  <PDB ID>  (1) 
1HXB

>  <Generic Name>  (1) 
Saquinavir

>  <Brand Name>  (1) 
Fortovase Roche#Invirase#Invirase - Cap 200mg#Fortovase#ROC

>  <DrugBank ID>  (1) 
DB01232

>  <ATC Codes>  (1) 
J05AE01

>  <Ligand ID>  (1) 
ROC

>  <Target Name>  (1) 
Pol polyprotein

>  <UniProt ID>  (1) 
Q72874

>  <PDB ID.1>  (1) 
1HXB

>  <Seq. Identity>  (1) 
100%

$$$$
