PDB_DB00147_01
     RDKit          3D

 58 58  0  0  0  0  0  0  0  0999 V2000
    3.2470   -0.1968   -0.4335 O   0  0  0  0  0  0  0  0  0  0  0  0
    2.1909   -1.0896   -0.4030 C   0  0  0  0  0  0  0  0  0  0  0  0
    0.9676   -0.5311    0.2944 C   0  0  0  0  0  0  0  0  0  0  0  0
   -0.0908   -1.6399    0.2361 C   0  0  0  0  0  0  0  0  0  0  0  0
   -0.8535   -1.4637   -0.9818 N   0  0  0  0  0  0  0  0  0  0  0  0
   -1.7382   -0.3658   -0.8093 C   0  0  0  0  0  0  0  0  0  0  0  0
   -1.0408    0.8463   -0.3269 C   0  0  0  0  0  0  0  0  0  0  0  0
    0.4699    0.7349   -0.3293 C   0  0  0  0  0  0  0  0  0  0  0  0
    0.9395    1.9711    0.4482 C   0  0  0  0  0  0  0  0  0  0  0  0
    2.2981    2.0742    0.5072 O   0  0  0  0  0  0  0  0  0  0  0  0
   -1.4519    1.1850    0.9759 O   0  0  0  0  0  0  0  0  0  0  0  0
   -2.8990   -0.6621    0.1103 C   0  0  0  0  0  0  0  0  0  0  0  0
    3.2470   -0.1968   -0.4335 O   0  0  0  0  0  0  0  0  0  0  0  0
    2.1909   -1.0896   -0.4030 C   0  0  0  0  0  0  0  0  0  0  0  0
    0.9676   -0.5311    0.2944 C   0  0  0  0  0  0  0  0  0  0  0  0
   -0.0908   -1.6399    0.2361 C   0  0  0  0  0  0  0  0  0  0  0  0
   -0.8535   -1.4637   -0.9818 N   0  0  0  0  0  0  0  0  0  0  0  0
   -1.7382   -0.3658   -0.8093 C   0  0  0  0  0  0  0  0  0  0  0  0
   -1.0408    0.8463   -0.3269 C   0  0  0  0  0  0  0  0  0  0  0  0
    0.4699    0.7349   -0.3293 C   0  0  0  0  0  0  0  0  0  0  0  0
    0.9395    1.9711    0.4482 C   0  0  0  0  0  0  0  0  0  0  0  0
    2.2981    2.0742    0.5072 O   0  0  0  0  0  0  0  0  0  0  0  0
   -1.4519    1.1850    0.9759 O   0  0  0  0  0  0  0  0  0  0  0  0
   -2.8990   -0.6621    0.1103 C   0  0  0  0  0  0  0  0  0  0  0  0
    4.0826   -0.7028   -0.4882 H   0  0  0  0  0  0  0  0  0  0  0  0
    1.9307   -1.4759   -1.4085 H   0  0  0  0  0  0  0  0  0  0  0  0
    2.5252   -1.9663    0.1961 H   0  0  0  0  0  0  0  0  0  0  0  0
    1.2190   -0.3851    1.3527 H   0  0  0  0  0  0  0  0  0  0  0  0
    0.3808   -2.6426    0.1701 H   0  0  0  0  0  0  0  0  0  0  0  0
   -0.7166   -1.6487    1.1442 H   0  0  0  0  0  0  0  0  0  0  0  0
   -1.2670   -2.3213   -1.3502 H   0  0  0  0  0  0  0  0  0  0  0  0
   -2.1972   -0.1234   -1.8110 H   0  0  0  0  0  0  0  0  0  0  0  0
   -1.2737    1.7583   -0.9513 H   0  0  0  0  0  0  0  0  0  0  0  0
    0.8009    0.8673   -1.3814 H   0  0  0  0  0  0  0  0  0  0  0  0
    0.4285    1.9572    1.4332 H   0  0  0  0  0  0  0  0  0  0  0  0
    0.5384    2.8428   -0.1081 H   0  0  0  0  0  0  0  0  0  0  0  0
    2.6772    2.9363    0.2192 H   0  0  0  0  0  0  0  0  0  0  0  0
   -1.6257    2.1422    1.0807 H   0  0  0  0  0  0  0  0  0  0  0  0
   -2.5778   -0.7623    1.1689 H   0  0  0  0  0  0  0  0  0  0  0  0
   -3.5726    0.2284    0.0874 H   0  0  0  0  0  0  0  0  0  0  0  0
   -3.3915   -1.5667   -0.2486 H   0  0  0  0  0  0  0  0  0  0  0  0
    4.0826   -0.7028   -0.4882 H   0  0  0  0  0  0  0  0  0  0  0  0
    1.9307   -1.4759   -1.4085 H   0  0  0  0  0  0  0  0  0  0  0  0
    2.5252   -1.9663    0.1961 H   0  0  0  0  0  0  0  0  0  0  0  0
    1.2190   -0.3851    1.3527 H   0  0  0  0  0  0  0  0  0  0  0  0
    0.3808   -2.6426    0.1701 H   0  0  0  0  0  0  0  0  0  0  0  0
   -0.7166   -1.6487    1.1442 H   0  0  0  0  0  0  0  0  0  0  0  0
   -1.2670   -2.3213   -1.3502 H   0  0  0  0  0  0  0  0  0  0  0  0
   -2.1972   -0.1234   -1.8110 H   0  0  0  0  0  0  0  0  0  0  0  0
   -1.2737    1.7583   -0.9513 H   0  0  0  0  0  0  0  0  0  0  0  0
    0.8009    0.8673   -1.3814 H   0  0  0  0  0  0  0  0  0  0  0  0
    0.4285    1.9572    1.4332 H   0  0  0  0  0  0  0  0  0  0  0  0
    0.5384    2.8428   -0.1081 H   0  0  0  0  0  0  0  0  0  0  0  0
    2.6772    2.9363    0.2192 H   0  0  0  0  0  0  0  0  0  0  0  0
   -1.6257    2.1422    1.0807 H   0  0  0  0  0  0  0  0  0  0  0  0
   -2.5778   -0.7623    1.1689 H   0  0  0  0  0  0  0  0  0  0  0  0
   -3.5726    0.2284    0.0874 H   0  0  0  0  0  0  0  0  0  0  0  0
   -3.3915   -1.5667   -0.2486 H   0  0  0  0  0  0  0  0  0  0  0  0
  1  2  1  0
  2  3  1  0
  3  4  1  0
  4  5  1  0
  5  6  1  0
  6  7  1  0
  3  8  1  0
  7  8  1  0
  8  9  1  0
  9 10  1  0
  7 11  1  0
  6 12  1  0
 13 14  1  0
 14 15  1  0
 15 16  1  0
 16 17  1  0
 17 18  1  0
 18 19  1  0
 15 20  1  0
 19 20  1  0
 20 21  1  0
 21 22  1  0
 19 23  1  0
 18 24  1  0
  1 25  1  0
  2 26  1  0
  2 27  1  0
  3 28  1  0
  4 29  1  0
  4 30  1  0
  5 31  1  0
  6 32  1  0
  7 33  1  0
  8 34  1  0
  9 35  1  0
  9 36  1  0
 10 37  1  0
 11 38  1  0
 12 39  1  0
 12 40  1  0
 12 41  1  0
 13 42  1  0
 14 43  1  0
 14 44  1  0
 15 45  1  0
 16 46  1  0
 16 47  1  0
 17 48  1  0
 18 49  1  0
 19 50  1  0
 20 51  1  0
 21 52  1  0
 21 53  1  0
 22 54  1  0
 23 55  1  0
 24 56  1  0
 24 57  1  0
 24 58  1  0
M  END
>  <PDBID>  (1) 
3FHX

>  <PDB ID>  (1) 
3FHX

>  <Generic Name>  (1) 
Pyridoxal

>  <Brand Name>  (1) 
nan

>  <DrugBank ID>  (1) 
DB00147

>  <ATC Codes>  (1) 
nan

>  <Ligand ID>  (1) 
PXL

>  <Target Name>  (1) 
Pyridoxal kinase

>  <UniProt ID>  (1) 
O00764

>  <PDB ID.1>  (1) 
3FHX

>  <Seq. Identity>  (1) 
100%

$$$$
