PDB_DB06290_01
     RDKit          3D

492516  0  0  0  0  0  0  0  0999 V2000
   -0.6811   -0.9230   -1.3909 C   0  0  0  0  0  0  0  0  0  0  0  0
   -1.9714   -1.2944   -0.8860 C   0  0  2  0  0  0  0  0  0  0  0  0
   -1.8205   -1.5765    0.5696 C   0  0  1  0  0  0  0  0  0  0  0  0
   -0.4091   -1.6640    0.8548 C   0  0  0  0  0  0  0  0  0  0  0  0
    0.1629   -0.6257   -0.1454 C   0  0  1  0  0  0  0  0  0  0  0  0
   -2.7250   -0.8147    1.4541 C   0  0  1  0  0  0  0  0  0  0  0  0
   -2.4426   -1.1872    2.7729 O   0  0  0  0  0  0  0  0  0  0  0  0
   -2.8266    0.5823    1.4030 N   0  0  0  0  0  0  0  0  0  0  0  0
   -2.8217   -2.2978   -1.5328 C   0  0  0  0  0  0  0  0  0  0  0  0
   -3.0480   -1.7623   -2.8365 O   0  0  0  0  0  0  0  0  0  0  0  0
   -5.0742    0.0451    2.1835 C   0  0  1  0  0  0  0  0  0  0  0  0
   -4.7018    1.4112    0.0598 C   0  0  0  0  0  0  0  0  0  0  0  0
   -2.6044   -3.6127   -1.7721 N   0  0  0  0  0  0  0  0  0  0  0  0
   -3.5602   -4.4954   -1.1527 C   0  0  0  0  0  0  0  0  0  0  0  0
   -1.3501   -4.2256   -1.8748 C   0  0  0  0  0  0  0  0  0  0  0  0
   -4.2489    1.0087    1.4171 C   0  0  2  0  0  0  0  0  0  0  0  0
   -4.9244    1.4975    2.5918 C   0  0  0  0  0  0  0  0  0  0  0  0
   -6.2797   -0.4602    1.4728 C   0  0  0  0  0  0  0  0  0  0  0  0
   -4.9576   -4.0545   -1.0144 C   0  0  0  0  0  0  0  0  0  0  0  0
   -5.4483   -3.7902    0.3644 C   0  0  0  0  0  0  0  0  0  0  0  0
   -6.5474   -2.7329    0.4241 C   0  0  0  0  0  0  0  0  0  0  0  0
   -6.5212   -1.9363    1.7087 C   0  0  0  0  0  0  0  0  0  0  0  0
    1.4331   -1.0235   -0.3765 O   0  0  0  0  0  0  0  0  0  0  0  0
    5.2886   -1.7946    2.4624 C   0  0  0  0  0  0  0  0  0  0  0  0
    3.9039   -2.2042    2.9123 C   0  0  0  0  0  0  0  0  0  0  0  0
    2.8216   -1.6813    1.9953 C   0  0  0  0  0  0  0  0  0  0  0  0
    3.4870   -0.9341    0.8829 C   0  0  0  0  0  0  0  0  0  0  0  0
    4.2562    0.2057    1.5228 C   0  0  0  0  0  0  0  0  0  0  0  0
    5.4286   -0.3102    2.3307 C   0  0  0  0  0  0  0  0  0  0  0  0
    2.4890   -0.2625   -0.0549 C   0  0  0  0  0  0  0  0  0  0  0  0
    3.3349    0.2199   -1.2116 C   0  0  0  0  0  0  0  0  0  0  0  0
    4.3608    1.1834   -0.7152 C   0  0  1  0  0  0  0  0  0  0  0  0
    4.5664    1.2785    0.6667 N   0  0  0  0  0  0  0  0  0  0  0  0
    5.7217    1.0182   -1.3881 C   0  0  1  0  0  0  0  0  0  0  0  0
    5.5863    1.2772   -3.2039 S   0  0  0  0  0  0  0  0  0  0  0  0
    6.9804    2.4735   -3.3644 C   0  0  0  0  0  0  0  0  0  0  0  0
    7.5968    2.2788   -1.9831 C   0  0  2  0  0  0  0  0  0  0  0  0
    6.5128    2.2024   -1.0466 N   0  0  0  0  0  0  0  0  0  0  0  0
    8.4708    3.4422   -1.6011 C   0  0  0  0  0  0  0  0  0  0  0  0
    7.7551    4.7517   -1.5529 C   0  0  0  0  0  0  0  0  0  0  0  0
    9.5701    3.5505   -2.6545 C   0  0  0  0  0  0  0  0  0  0  0  0
    6.1616   -2.2201    3.4606 O   0  0  0  0  0  0  0  0  0  0  0  0
    7.0551   -3.1827    2.9471 C   0  0  0  0  0  0  0  0  0  0  0  0
    5.4555    0.2763    3.7287 C   0  0  0  0  0  0  0  0  0  0  0  0
   -6.0443    2.0073    0.1377 N   0  0  0  0  0  0  0  0  0  0  0  0
   -3.9066    2.4735   -0.4493 O   0  0  0  0  0  0  0  0  0  0  0  0
   -6.8643    2.2666   -1.0991 S   0  0  0  0  0  0  0  0  0  0  0  0
   -7.4418    3.9469   -1.1334 C   0  0  0  0  0  0  0  0  0  0  0  0
   -5.9095    2.2097   -2.5812 O   0  0  0  0  0  0  0  0  0  0  0  0
   -8.1340    1.3802   -1.4493 O   0  0  0  0  0  0  0  0  0  0  0  0
   -6.6131    5.0193   -0.5413 C   0  0  0  0  0  0  0  0  0  0  0  0
   -7.9121    4.5466    0.1414 C   0  0  0  0  0  0  0  0  0  0  0  0
   -0.2081   -1.7058    1.6792 C   0  0  0  0  0  0  0  0  0  0  0  0
   -1.5516   -2.0054    1.0036 C   0  0  2  0  0  0  0  0  0  0  0  0
   -1.3587   -1.1138   -0.2094 C   0  0  1  0  0  0  0  0  0  0  0  0
   -0.0359   -1.7262   -0.7228 C   0  0  0  0  0  0  0  0  0  0  0  0
    0.7863   -1.9872    0.5141 C   0  0  1  0  0  0  0  0  0  0  0  0
   -2.3709   -1.1618   -1.2676 C   0  0  0  0  0  0  0  0  0  0  0  0
   -2.0698   -2.3101   -2.0638 O   0  0  0  0  0  0  0  0  0  0  0  0
   -3.7297   -1.2254   -0.9706 N   0  0  0  0  0  0  0  0  0  0  0  0
   -2.7397   -1.6884    1.7967 C   0  0  0  0  0  0  0  0  0  0  0  0
   -3.7528   -2.5123    1.2916 O   0  0  0  0  0  0  0  0  0  0  0  0
   -5.3179    0.3193   -0.1320 C   0  0  1  0  0  0  0  0  0  0  0  0
   -5.1308   -0.1519   -2.6951 C   0  0  2  0  0  0  0  0  0  0  0  0
   -2.7903   -1.7394    3.1873 N   0  0  0  0  0  0  0  0  0  0  0  0
   -3.8990   -2.2468    3.8652 C   0  0  0  0  0  0  0  0  0  0  0  0
   -2.0841   -0.6876    3.8903 C   0  0  0  0  0  0  0  0  0  0  0  0
   -4.6025   -0.1191   -1.3066 C   0  0  2  0  0  0  0  0  0  0  0  0
   -4.3415    1.2367   -0.7184 C   0  0  0  0  0  0  0  0  0  0  0  0
   -6.7854    0.4585   -0.1166 C   0  0  0  0  0  0  0  0  0  0  0  0
   -5.2677   -2.2089    3.3760 C   0  0  0  0  0  0  0  0  0  0  0  0
   -5.9575   -0.9224    3.1214 C   0  0  0  0  0  0  0  0  0  0  0  0
   -6.8195   -0.9844    1.8727 C   0  0  0  0  0  0  0  0  0  0  0  0
   -7.2924    0.3203    1.3489 C   0  0  0  0  0  0  0  0  0  0  0  0
    1.8067   -1.1060    0.5950 O   0  0  0  0  0  0  0  0  0  0  0  0
    5.9976   -1.5177   -2.0788 C   0  0  0  0  0  0  0  0  0  0  0  0
    4.7493   -2.2197   -2.5139 C   0  0  0  0  0  0  0  0  0  0  0  0
    3.8600   -2.5983   -1.3508 C   0  0  0  0  0  0  0  0  0  0  0  0
    4.0317   -1.5249   -0.2922 C   0  0  0  0  0  0  0  0  0  0  0  0
    5.4158   -1.6998    0.2768 C   0  0  0  0  0  0  0  0  0  0  0  0
    6.4602   -2.0588   -0.7478 C   0  0  0  0  0  0  0  0  0  0  0  0
    3.0625   -1.6408    0.8170 C   0  0  0  0  0  0  0  0  0  0  0  0
    3.6774   -1.1812    2.0921 C   0  0  0  0  0  0  0  0  0  0  0  0
    4.7445   -0.1371    1.9625 C   0  0  0  0  0  0  0  0  0  0  0  0
    5.8119   -0.5506    1.0714 N   0  0  0  0  0  0  0  0  0  0  0  0
    4.2464    1.2237    1.5730 C   0  0  0  0  0  0  0  0  0  0  0  0
    3.0411    1.9155    2.7719 S   0  0  0  0  0  0  0  0  0  0  0  0
    3.6915    3.6409    2.7484 C   0  0  0  0  0  0  0  0  0  0  0  0
    4.8104    3.4619    1.7537 C   0  0  0  0  0  0  0  0  0  0  0  0
    5.3511    2.1530    1.8446 N   0  0  0  0  0  0  0  0  0  0  0  0
    5.9264    4.4738    1.9125 C   0  0  0  0  0  0  0  0  0  0  0  0
    6.5716    4.4564    3.2655 C   0  0  0  0  0  0  0  0  0  0  0  0
    5.5143    5.8765    1.5374 C   0  0  0  0  0  0  0  0  0  0  0  0
    7.0084   -1.8154   -3.0007 O   0  0  0  0  0  0  0  0  0  0  0  0
    7.5334   -0.6825   -3.5931 C   0  0  0  0  0  0  0  0  0  0  0  0
    6.6758   -3.5460   -0.8975 C   0  0  0  0  0  0  0  0  0  0  0  0
   -5.9628    0.8603   -3.1586 N   0  0  0  0  0  0  0  0  0  0  0  0
   -5.8260   -1.4244   -2.7841 O   0  0  0  0  0  0  0  0  0  0  0  0
   -5.8108    2.3475   -3.3426 S   0  0  0  0  0  0  0  0  0  0  0  0
   -4.4736    3.0647   -4.0470 C   0  0  0  0  0  0  0  0  0  0  0  0
   -6.9024    2.4687   -4.9515 O   0  0  0  0  0  0  0  0  0  0  0  0
   -6.6448    3.4028   -2.5491 O   0  0  0  0  0  0  0  0  0  0  0  0
   -3.6595    2.4775   -5.1733 C   0  0  0  0  0  0  0  0  0  0  0  0
   -3.1125    2.5147   -3.7924 C   0  0  0  0  0  0  0  0  0  0  0  0
   -0.1232   -1.7088    1.6311 C   0  0  0  0  0  0  0  0  0  0  0  0
   -1.4932   -1.8371    0.9405 C   0  0  2  0  0  0  0  0  0  0  0  0
   -1.2763   -0.8604   -0.1573 C   0  0  1  0  0  0  0  0  0  0  0  0
    0.0090   -1.4684   -0.7672 C   0  0  0  0  0  0  0  0  0  0  0  0
    0.8156   -1.9400    0.4153 C   0  0  1  0  0  0  0  0  0  0  0  0
   -2.2714   -0.6811   -1.2133 C   0  0  0  0  0  0  0  0  0  0  0  0
   -1.8800   -1.5053   -2.3095 O   0  0  0  0  0  0  0  0  0  0  0  0
   -3.6245   -0.9005   -0.9946 N   0  0  0  0  0  0  0  0  0  0  0  0
   -2.6459   -1.6269    1.8321 C   0  0  0  0  0  0  0  0  0  0  0  0
   -3.7328   -2.2465    1.2153 O   0  0  0  0  0  0  0  0  0  0  0  0
   -5.1327    0.6196   -0.0232 C   0  0  1  0  0  0  0  0  0  0  0  0
   -5.2088    0.0496   -2.6068 C   0  0  2  0  0  0  0  0  0  0  0  0
   -2.6242   -2.0994    3.1659 N   0  0  0  0  0  0  0  0  0  0  0  0
   -3.7509   -2.7332    3.6916 C   0  0  0  0  0  0  0  0  0  0  0  0
   -1.8832   -1.2855    4.0918 C   0  0  0  0  0  0  0  0  0  0  0  0
   -4.5805    0.1531   -1.2728 C   0  0  2  0  0  0  0  0  0  0  0  0
   -4.2996    1.5631   -0.8076 C   0  0  0  0  0  0  0  0  0  0  0  0
   -6.5865    0.7093    0.1954 C   0  0  0  0  0  0  0  0  0  0  0  0
   -5.1207   -2.4529    3.2723 C   0  0  0  0  0  0  0  0  0  0  0  0
   -5.6179   -1.0607    3.1907 C   0  0  0  0  0  0  0  0  0  0  0  0
   -6.6278   -0.8877    2.0548 C   0  0  0  0  0  0  0  0  0  0  0  0
   -6.9114    0.5335    1.7003 C   0  0  0  0  0  0  0  0  0  0  0  0
    1.8761   -1.0857    0.5666 O   0  0  0  0  0  0  0  0  0  0  0  0
    6.0462   -1.6763   -2.1760 C   0  0  0  0  0  0  0  0  0  0  0  0
    4.8284   -2.4843   -2.5165 C   0  0  0  0  0  0  0  0  0  0  0  0
    3.9443   -2.7831   -1.3263 C   0  0  0  0  0  0  0  0  0  0  0  0
    4.0595   -1.6024   -0.3758 C   0  0  0  0  0  0  0  0  0  0  0  0
    5.4531   -1.6136    0.1976 C   0  0  0  0  0  0  0  0  0  0  0  0
    6.5292   -1.9845   -0.7736 C   0  0  0  0  0  0  0  0  0  0  0  0
    3.0962   -1.7000    0.7592 C   0  0  0  0  0  0  0  0  0  0  0  0
    3.7575   -1.3254    2.0295 C   0  0  0  0  0  0  0  0  0  0  0  0
    4.6645   -0.1245    1.8918 C   0  0  0  0  0  0  0  0  0  0  0  0
    5.7284   -0.3865    0.9343 N   0  0  0  0  0  0  0  0  0  0  0  0
    3.9457    1.1300    1.5078 C   0  0  0  0  0  0  0  0  0  0  0  0
    2.6954    1.6634    2.7125 S   0  0  0  0  0  0  0  0  0  0  0  0
    3.3516    3.3809    2.9358 C   0  0  0  0  0  0  0  0  0  0  0  0
    4.8222    3.0205    2.6309 C   0  0  1  0  0  0  0  0  0  0  0  0
    4.8027    2.2771    1.4250 N   0  0  0  0  0  0  0  0  0  0  0  0
    5.6243    4.2758    2.3887 C   0  0  0  0  0  0  0  0  0  0  0  0
    5.6068    5.2011    3.5736 C   0  0  0  0  0  0  0  0  0  0  0  0
    5.3074    4.9410    1.0817 C   0  0  0  0  0  0  0  0  0  0  0  0
    7.0749   -2.1435   -3.0256 O   0  0  0  0  0  0  0  0  0  0  0  0
    7.5921   -1.1095   -3.7916 C   0  0  0  0  0  0  0  0  0  0  0  0
    6.8769   -3.4558   -0.7232 C   0  0  0  0  0  0  0  0  0  0  0  0
   -6.0661    1.0404   -3.0858 N   0  0  0  0  0  0  0  0  0  0  0  0
   -5.8465   -1.2328   -2.6546 O   0  0  0  0  0  0  0  0  0  0  0  0
   -5.8647    2.4585   -3.3614 S   0  0  0  0  0  0  0  0  0  0  0  0
   -4.6292    3.2245   -4.0996 C   0  0  0  0  0  0  0  0  0  0  0  0
   -7.0347    2.5484   -4.9876 O   0  0  0  0  0  0  0  0  0  0  0  0
   -6.8292    3.5865   -2.6099 O   0  0  0  0  0  0  0  0  0  0  0  0
   -4.0344    2.5803   -5.3912 C   0  0  0  0  0  0  0  0  0  0  0  0
   -3.2239    2.7274   -4.1604 C   0  0  0  0  0  0  0  0  0  0  0  0
    0.2403   -0.9711   -1.1764 C   0  0  0  0  0  0  0  0  0  0  0  0
   -1.1893   -0.6432   -1.1804 C   0  0  2  0  0  0  0  0  0  0  0  0
   -1.6594   -0.6806    0.2341 C   0  0  1  0  0  0  0  0  0  0  0  0
   -0.4246   -0.6272    1.0783 C   0  0  0  0  0  0  0  0  0  0  0  0
    0.7254   -0.3190    0.1064 C   0  0  1  0  0  0  0  0  0  0  0  0
   -2.6045    0.4508    0.5861 C   0  0  0  0  0  0  0  0  0  0  0  0
   -1.8211    1.6278    0.4989 O   0  0  0  0  0  0  0  0  0  0  0  0
   -3.7531    0.5499   -0.2012 N   0  0  0  0  0  0  0  0  0  0  0  0
   -2.0456   -1.5001   -2.0811 C   0  0  0  0  0  0  0  0  0  0  0  0
   -1.2652   -1.7353   -3.2158 O   0  0  0  0  0  0  0  0  0  0  0  0
   -5.3714   -0.1083    1.3838 C   0  0  1  0  0  0  0  0  0  0  0  0
   -5.9959    1.4432   -0.6016 C   0  0  0  0  0  0  0  0  0  0  0  0
   -2.4600   -2.7420   -1.6052 N   0  0  0  0  0  0  0  0  0  0  0  0
   -3.8024   -3.1489   -1.9121 C   0  0  0  0  0  0  0  0  0  0  0  0
   -1.5319   -3.7753   -1.4273 C   0  0  0  0  0  0  0  0  0  0  0  0
   -4.9898    0.9607    0.4205 C   0  0  2  0  0  0  0  0  0  0  0  0
   -5.1643    1.3335    1.8059 C   0  0  0  0  0  0  0  0  0  0  0  0
   -6.7335   -0.6665    1.1475 C   0  0  0  0  0  0  0  0  0  0  0  0
   -4.5136   -3.8789   -0.8058 C   0  0  0  0  0  0  0  0  0  0  0  0
   -5.1276   -2.9017    0.1153 C   0  0  0  0  0  0  0  0  0  0  0  0
   -6.6313   -3.0689    0.3475 C   0  0  0  0  0  0  0  0  0  0  0  0
   -6.8804   -2.1103    1.5036 C   0  0  0  0  0  0  0  0  0  0  0  0
    1.8569   -0.9582    0.5118 O   0  0  0  0  0  0  0  0  0  0  0  0
    5.4426   -2.2494    2.4855 C   0  0  0  0  0  0  0  0  0  0  0  0
    4.0072   -2.6453    2.3864 C   0  0  0  0  0  0  0  0  0  0  0  0
    3.0475   -1.5617    2.7577 C   0  0  0  0  0  0  0  0  0  0  0  0
    3.3781   -0.2240    2.1276 C   0  0  0  0  0  0  0  0  0  0  0  0
    4.7872    0.2017    2.3431 C   0  0  0  0  0  0  0  0  0  0  0  0
    5.7063   -0.8578    2.8817 C   0  0  0  0  0  0  0  0  0  0  0  0
    2.9709   -0.1866    0.6708 C   0  0  0  0  0  0  0  0  0  0  0  0
    4.1056   -0.4597   -0.2707 C   0  0  0  0  0  0  0  0  0  0  0  0
    5.1171    0.6450   -0.0436 C   0  0  1  0  0  0  0  0  0  0  0  0
    5.4062    0.9342    1.2949 N   0  0  0  0  0  0  0  0  0  0  0  0
    6.3372    0.4558   -0.9455 C   0  0  1  0  0  0  0  0  0  0  0  0
    5.7882    0.4906   -2.7028 S   0  0  0  0  0  0  0  0  0  0  0  0
    7.0303    1.7121   -3.3015 C   0  0  0  0  0  0  0  0  0  0  0  0
    7.9467    1.7078   -2.0941 C   0  0  0  0  0  0  0  0  0  0  0  0
    7.1251    1.6818   -0.9151 N   0  0  0  0  0  0  0  0  0  0  0  0
    8.7940    2.9560   -2.0353 C   0  0  0  0  0  0  0  0  0  0  0  0
    7.9883    4.2121   -1.9483 C   0  0  0  0  0  0  0  0  0  0  0  0
    9.6493    2.9848   -3.3019 C   0  0  0  0  0  0  0  0  0  0  0  0
    6.1211   -3.0777    3.4118 O   0  0  0  0  0  0  0  0  0  0  0  0
    7.1115   -3.8391    2.8004 C   0  0  0  0  0  0  0  0  0  0  0  0
    5.8228   -0.8188    4.4060 C   0  0  0  0  0  0  0  0  0  0  0  0
   -7.1625    2.0175    0.0654 N   0  0  0  0  0  0  0  0  0  0  0  0
   -5.4355    2.5299   -1.3335 O   0  0  0  0  0  0  0  0  0  0  0  0
   -8.3814    2.4366   -0.7933 S   0  0  0  0  0  0  0  0  0  0  0  0
   -8.8413    4.0629   -0.4318 C   0  0  0  0  0  0  0  0  0  0  0  0
   -7.8610    2.4623   -2.4457 O   0  0  0  0  0  0  0  0  0  0  0  0
   -9.6967    1.5382   -0.7876 O   0  0  0  0  0  0  0  0  0  0  0  0
   -7.7963    5.0167   -0.0051 C   0  0  0  0  0  0  0  0  0  0  0  0
   -8.7516    4.4995    1.0011 C   0  0  0  0  0  0  0  0  0  0  0  0
   -0.7020    0.0632   -1.9425 H   0  0  0  0  0  0  0  0  0  0  0  0
   -0.1398   -1.6760   -2.0113 H   0  0  0  0  0  0  0  0  0  0  0  0
   -2.5706   -0.2954   -0.8850 H   0  0  0  0  0  0  0  0  0  0  0  0
   -2.1934   -2.6725    0.6732 H   0  0  0  0  0  0  0  0  0  0  0  0
   -0.1019   -1.3858    1.8862 H   0  0  0  0  0  0  0  0  0  0  0  0
    0.0105   -2.6620    0.6082 H   0  0  0  0  0  0  0  0  0  0  0  0
   -0.0177    0.3486    0.2911 H   0  0  0  0  0  0  0  0  0  0  0  0
   -3.7667   -1.2159    1.2654 H   0  0  0  0  0  0  0  0  0  0  0  0
   -1.8887   -0.4953    3.2095 H   0  0  0  0  0  0  0  0  0  0  0  0
   -2.3257    1.0062    0.6289 H   0  0  0  0  0  0  0  0  0  0  0  0
   -3.7796   -2.2440   -0.9259 H   0  0  0  0  0  0  0  0  0  0  0  0
   -2.1874   -1.4905   -3.1874 H   0  0  0  0  0  0  0  0  0  0  0  0
   -4.6967   -0.6363    2.9511 H   0  0  0  0  0  0  0  0  0  0  0  0
   -4.7447    0.6521   -0.7076 H   0  0  0  0  0  0  0  0  0  0  0  0
   -3.4371   -5.5046   -1.6532 H   0  0  0  0  0  0  0  0  0  0  0  0
   -3.1685   -4.6972   -0.1116 H   0  0  0  0  0  0  0  0  0  0  0  0
   -0.7369   -3.8657   -2.7432 H   0  0  0  0  0  0  0  0  0  0  0  0
   -0.7468   -4.3049   -0.9505 H   0  0  0  0  0  0  0  0  0  0  0  0
   -1.5402   -5.3094   -2.1558 H   0  0  0  0  0  0  0  0  0  0  0  0
   -4.2763    1.7280    3.4746 H   0  0  0  0  0  0  0  0  0  0  0  0
   -5.8078    2.1298    2.5707 H   0  0  0  0  0  0  0  0  0  0  0  0
   -6.2461   -0.3373    0.3715 H   0  0  0  0  0  0  0  0  0  0  0  0
   -7.1718    0.0814    1.8419 H   0  0  0  0  0  0  0  0  0  0  0  0
   -5.2922   -3.2779   -1.7659 H   0  0  0  0  0  0  0  0  0  0  0  0
   -5.5814   -4.9392   -1.3665 H   0  0  0  0  0  0  0  0  0  0  0  0
   -4.7095   -3.3860    1.0727 H   0  0  0  0  0  0  0  0  0  0  0  0
   -5.7905   -4.7440    0.8155 H   0  0  0  0  0  0  0  0  0  0  0  0
   -7.4973   -3.3129    0.3926 H   0  0  0  0  0  0  0  0  0  0  0  0
   -6.4711   -2.0701   -0.4660 H   0  0  0  0  0  0  0  0  0  0  0  0
   -7.4676   -2.1265    2.2460 H   0  0  0  0  0  0  0  0  0  0  0  0
   -5.7187   -2.3643    2.3671 H   0  0  0  0  0  0  0  0  0  0  0  0
    5.5493   -2.3377    1.5376 H   0  0  0  0  0  0  0  0  0  0  0  0
    3.6900   -1.8881    3.9318 H   0  0  0  0  0  0  0  0  0  0  0  0
    3.9235   -3.3341    2.9211 H   0  0  0  0  0  0  0  0  0  0  0  0
    2.1602   -0.9669    2.5318 H   0  0  0  0  0  0  0  0  0  0  0  0
    2.2177   -2.5347    1.6867 H   0  0  0  0  0  0  0  0  0  0  0  0
    4.1462   -1.5887    0.2705 H   0  0  0  0  0  0  0  0  0  0  0  0
    3.5375    0.6179    2.2997 H   0  0  0  0  0  0  0  0  0  0  0  0
    6.4019   -0.0898    1.8637 H   0  0  0  0  0  0  0  0  0  0  0  0
    2.1105    0.6708    0.4157 H   0  0  0  0  0  0  0  0  0  0  0  0
    2.6561    0.6571   -1.9914 H   0  0  0  0  0  0  0  0  0  0  0  0
    3.8686   -0.6099   -1.7178 H   0  0  0  0  0  0  0  0  0  0  0  0
    4.0130    2.2027   -1.0722 H   0  0  0  0  0  0  0  0  0  0  0  0
    4.4282    2.2377    1.0544 H   0  0  0  0  0  0  0  0  0  0  0  0
    6.2242    0.0890   -1.1418 H   0  0  0  0  0  0  0  0  0  0  0  0
    6.6117    3.4935   -3.5126 H   0  0  0  0  0  0  0  0  0  0  0  0
    7.7016    2.1460   -4.1274 H   0  0  0  0  0  0  0  0  0  0  0  0
    8.1418    1.3356   -1.9721 H   0  0  0  0  0  0  0  0  0  0  0  0
    5.8812    3.0167   -1.0378 H   0  0  0  0  0  0  0  0  0  0  0  0
    8.9726    3.2612   -0.6291 H   0  0  0  0  0  0  0  0  0  0  0  0
    7.5801    5.1156   -2.5873 H   0  0  0  0  0  0  0  0  0  0  0  0
    6.8810    4.7856   -0.9042 H   0  0  0  0  0  0  0  0  0  0  0  0
    8.4891    5.4922   -1.1219 H   0  0  0  0  0  0  0  0  0  0  0  0
    9.7822    2.5389   -3.0735 H   0  0  0  0  0  0  0  0  0  0  0  0
   10.4736    4.0071   -2.1935 H   0  0  0  0  0  0  0  0  0  0  0  0
    9.1741    4.1901   -3.4644 H   0  0  0  0  0  0  0  0  0  0  0  0
    7.6655   -2.7686    2.1056 H   0  0  0  0  0  0  0  0  0  0  0  0
    7.7742   -3.5034    3.7193 H   0  0  0  0  0  0  0  0  0  0  0  0
    6.4522   -4.0579    2.6454 H   0  0  0  0  0  0  0  0  0  0  0  0
    6.4313    0.7207    3.9754 H   0  0  0  0  0  0  0  0  0  0  0  0
    5.2288   -0.4861    4.5003 H   0  0  0  0  0  0  0  0  0  0  0  0
    4.6622    1.0519    3.8046 H   0  0  0  0  0  0  0  0  0  0  0  0
   -5.8801    2.8462    0.7825 H   0  0  0  0  0  0  0  0  0  0  0  0
   -4.4414    3.0395   -1.0216 H   0  0  0  0  0  0  0  0  0  0  0  0
   -8.0488    4.2337   -2.0263 H   0  0  0  0  0  0  0  0  0  0  0  0
   -6.4831    1.8755   -3.2915 H   0  0  0  0  0  0  0  0  0  0  0  0
   -9.0002    1.8552   -1.2735 H   0  0  0  0  0  0  0  0  0  0  0  0
   -5.6716    4.8176   -0.0242 H   0  0  0  0  0  0  0  0  0  0  0  0
   -6.6382    6.0427   -1.0173 H   0  0  0  0  0  0  0  0  0  0  0  0
   -8.7245    5.2894    0.1120 H   0  0  0  0  0  0  0  0  0  0  0  0
   -7.7878    4.0535    1.1097 H   0  0  0  0  0  0  0  0  0  0  0  0
   -0.0072   -2.3217    2.5457 H   0  0  0  0  0  0  0  0  0  0  0  0
   -0.1705   -0.6208    1.8003 H   0  0  0  0  0  0  0  0  0  0  0  0
   -1.4711   -3.0616    0.6455 H   0  0  0  0  0  0  0  0  0  0  0  0
   -1.0949   -0.1256    0.1835 H   0  0  0  0  0  0  0  0  0  0  0  0
   -0.2764   -2.6665   -1.2623 H   0  0  0  0  0  0  0  0  0  0  0  0
    0.3932   -0.9417   -1.3755 H   0  0  0  0  0  0  0  0  0  0  0  0
    1.0718   -3.0621    0.5687 H   0  0  0  0  0  0  0  0  0  0  0  0
   -2.1856   -0.2893   -1.9583 H   0  0  0  0  0  0  0  0  0  0  0  0
   -1.4841   -2.0668   -2.8043 H   0  0  0  0  0  0  0  0  0  0  0  0
   -4.2304   -2.0796   -1.3326 H   0  0  0  0  0  0  0  0  0  0  0  0
   -3.0214   -0.6248    1.5068 H   0  0  0  0  0  0  0  0  0  0  0  0
   -3.3690   -3.3705    0.9451 H   0  0  0  0  0  0  0  0  0  0  0  0
   -4.9543   -0.1248    0.8465 H   0  0  0  0  0  0  0  0  0  0  0  0
   -4.2773   -0.3224   -3.3933 H   0  0  0  0  0  0  0  0  0  0  0  0
   -3.6680   -3.3374    4.1112 H   0  0  0  0  0  0  0  0  0  0  0  0
   -3.8871   -1.7862    4.9050 H   0  0  0  0  0  0  0  0  0  0  0  0
   -1.1541   -1.1383    4.2935 H   0  0  0  0  0  0  0  0  0  0  0  0
   -1.9288    0.2083    3.2832 H   0  0  0  0  0  0  0  0  0  0  0  0
   -2.6413   -0.3527    4.8098 H   0  0  0  0  0  0  0  0  0  0  0  0
   -3.3474    1.3989   -0.1900 H   0  0  0  0  0  0  0  0  0  0  0  0
   -4.6862    2.1599   -1.1573 H   0  0  0  0  0  0  0  0  0  0  0  0
   -7.2422   -0.4068   -0.6351 H   0  0  0  0  0  0  0  0  0  0  0  0
   -7.1830    1.4410   -0.4226 H   0  0  0  0  0  0  0  0  0  0  0  0
   -5.8953   -2.7123    4.2072 H   0  0  0  0  0  0  0  0  0  0  0  0
   -5.5288   -2.9180    2.5291 H   0  0  0  0  0  0  0  0  0  0  0  0
   -6.7232   -0.6875    3.9420 H   0  0  0  0  0  0  0  0  0  0  0  0
   -5.3496   -0.0233    3.0987 H   0  0  0  0  0  0  0  0  0  0  0  0
   -7.7024   -1.6312    2.1739 H   0  0  0  0  0  0  0  0  0  0  0  0
   -6.3065   -1.5991    1.0964 H   0  0  0  0  0  0  0  0  0  0  0  0
   -8.4097    0.3016    1.2496 H   0  0  0  0  0  0  0  0  0  0  0  0
   -7.0100    1.1895    1.9391 H   0  0  0  0  0  0  0  0  0  0  0  0
    5.8919   -0.4128   -2.0653 H   0  0  0  0  0  0  0  0  0  0  0  0
    4.9917   -3.0925   -3.1536 H   0  0  0  0  0  0  0  0  0  0  0  0
    4.2186   -1.5069   -3.2128 H   0  0  0  0  0  0  0  0  0  0  0  0
    4.0625   -3.6115   -0.9478 H   0  0  0  0  0  0  0  0  0  0  0  0
    2.8311   -2.6391   -1.7581 H   0  0  0  0  0  0  0  0  0  0  0  0
    3.8831   -0.5646   -0.8253 H   0  0  0  0  0  0  0  0  0  0  0  0
    5.3579   -2.5486    0.9880 H   0  0  0  0  0  0  0  0  0  0  0  0
    7.4664   -1.6358   -0.4707 H   0  0  0  0  0  0  0  0  0  0  0  0
    2.8291   -2.7528    0.9477 H   0  0  0  0  0  0  0  0  0  0  0  0
    4.0130   -2.0592    2.6981 H   0  0  0  0  0  0  0  0  0  0  0  0
    2.8364   -0.6545    2.6573 H   0  0  0  0  0  0  0  0  0  0  0  0
    5.2173   -0.0473    2.9641 H   0  0  0  0  0  0  0  0  0  0  0  0
    6.7112   -0.6941    1.5480 H   0  0  0  0  0  0  0  0  0  0  0  0
    3.8730    1.3285    0.5581 H   0  0  0  0  0  0  0  0  0  0  0  0
    4.0523    3.9421    3.7376 H   0  0  0  0  0  0  0  0  0  0  0  0
    2.9179    4.3255    2.3422 H   0  0  0  0  0  0  0  0  0  0  0  0
    4.3839    3.6112    0.7225 H   0  0  0  0  0  0  0  0  0  0  0  0
    5.6235    1.9481    2.8293 H   0  0  0  0  0  0  0  0  0  0  0  0
    6.7515    4.2180    1.1700 H   0  0  0  0  0  0  0  0  0  0  0  0
    7.6715    4.5151    3.1380 H   0  0  0  0  0  0  0  0  0  0  0  0
    6.2942    5.3531    3.8764 H   0  0  0  0  0  0  0  0  0  0  0  0
    6.3885    3.5197    3.8337 H   0  0  0  0  0  0  0  0  0  0  0  0
    5.7169    6.0853    0.4528 H   0  0  0  0  0  0  0  0  0  0  0  0
    6.1357    6.5838    2.1098 H   0  0  0  0  0  0  0  0  0  0  0  0
    4.4358    6.0779    1.6891 H   0  0  0  0  0  0  0  0  0  0  0  0
    6.8013   -0.0779   -4.1588 H   0  0  0  0  0  0  0  0  0  0  0  0
    8.3483   -1.0487   -4.2833 H   0  0  0  0  0  0  0  0  0  0  0  0
    8.0562   -0.0361   -2.8408 H   0  0  0  0  0  0  0  0  0  0  0  0
    6.3142   -3.8869   -1.8696 H   0  0  0  0  0  0  0  0  0  0  0  0
    7.7680   -3.8279   -0.8664 H   0  0  0  0  0  0  0  0  0  0  0  0
    6.2259   -4.1167   -0.0580 H   0  0  0  0  0  0  0  0  0  0  0  0
   -6.9376    0.4465   -3.3331 H   0  0  0  0  0  0  0  0  0  0  0  0
   -6.6887   -1.2641   -3.2886 H   0  0  0  0  0  0  0  0  0  0  0  0
   -4.4836    4.2002   -4.1195 H   0  0  0  0  0  0  0  0  0  0  0  0
   -7.7157    2.1640   -4.4668 H   0  0  0  0  0  0  0  0  0  0  0  0
   -6.4225    3.7319   -1.6628 H   0  0  0  0  0  0  0  0  0  0  0  0
   -3.9722    1.5286   -5.6183 H   0  0  0  0  0  0  0  0  0  0  0  0
   -3.2014    3.1541   -5.9409 H   0  0  0  0  0  0  0  0  0  0  0  0
   -2.2515    3.2393   -3.6491 H   0  0  0  0  0  0  0  0  0  0  0  0
   -2.9309    1.6044   -3.2014 H   0  0  0  0  0  0  0  0  0  0  0  0
    0.0346   -2.4354    2.4171 H   0  0  0  0  0  0  0  0  0  0  0  0
   -0.0093   -0.6490    1.8812 H   0  0  0  0  0  0  0  0  0  0  0  0
   -1.4753   -2.8763    0.4912 H   0  0  0  0  0  0  0  0  0  0  0  0
   -0.9092    0.0808    0.3138 H   0  0  0  0  0  0  0  0  0  0  0  0
   -0.2283   -2.2744   -1.4743 H   0  0  0  0  0  0  0  0  0  0  0  0
    0.4987   -0.6416   -1.3185 H   0  0  0  0  0  0  0  0  0  0  0  0
    1.0882   -3.0067    0.4049 H   0  0  0  0  0  0  0  0  0  0  0  0
   -2.1440    0.3608   -1.6308 H   0  0  0  0  0  0  0  0  0  0  0  0
   -1.2031   -1.0414   -2.8707 H   0  0  0  0  0  0  0  0  0  0  0  0
   -4.0326   -1.7645   -1.4159 H   0  0  0  0  0  0  0  0  0  0  0  0
   -2.8468   -0.5198    1.8628 H   0  0  0  0  0  0  0  0  0  0  0  0
   -3.5365   -3.1962    1.0076 H   0  0  0  0  0  0  0  0  0  0  0  0
   -4.5914    0.3243    0.9198 H   0  0  0  0  0  0  0  0  0  0  0  0
   -4.3556   -0.0496   -3.3442 H   0  0  0  0  0  0  0  0  0  0  0  0
   -3.5871   -3.8546    3.5625 H   0  0  0  0  0  0  0  0  0  0  0  0
   -3.6777   -2.6306    4.8221 H   0  0  0  0  0  0  0  0  0  0  0  0
   -1.0936   -1.9177    4.5412 H   0  0  0  0  0  0  0  0  0  0  0  0
   -1.5159   -0.3471    3.6296 H   0  0  0  0  0  0  0  0  0  0  0  0
   -2.4942   -0.9264    4.9659 H   0  0  0  0  0  0  0  0  0  0  0  0
   -3.2536    1.8042   -0.4819 H   0  0  0  0  0  0  0  0  0  0  0  0
   -4.8135    2.4328   -1.1777 H   0  0  0  0  0  0  0  0  0  0  0  0
   -7.1660   -0.0977   -0.2976 H   0  0  0  0  0  0  0  0  0  0  0  0
   -6.9607    1.7350   -0.0413 H   0  0  0  0  0  0  0  0  0  0  0  0
   -5.7812   -2.9480    4.0832 H   0  0  0  0  0  0  0  0  0  0  0  0
   -5.4944   -3.0258    2.3666 H   0  0  0  0  0  0  0  0  0  0  0  0
   -6.2372   -0.7868    4.1122 H   0  0  0  0  0  0  0  0  0  0  0  0
   -4.8832   -0.2702    3.1284 H   0  0  0  0  0  0  0  0  0  0  0  0
   -7.5934   -1.4201    2.3435 H   0  0  0  0  0  0  0  0  0  0  0  0
   -6.2638   -1.4870    1.2007 H   0  0  0  0  0  0  0  0  0  0  0  0
   -8.0245    0.6997    1.7487 H   0  0  0  0  0  0  0  0  0  0  0  0
   -6.3507    1.2642    2.3201 H   0  0  0  0  0  0  0  0  0  0  0  0
    5.9433   -0.6036   -2.3663 H   0  0  0  0  0  0  0  0  0  0  0  0
    5.0966   -3.4200   -3.0642 H   0  0  0  0  0  0  0  0  0  0  0  0
    4.2587   -1.8907   -3.2942 H   0  0  0  0  0  0  0  0  0  0  0  0
    4.1628   -3.7280   -0.8195 H   0  0  0  0  0  0  0  0  0  0  0  0
    2.9067   -2.8680   -1.7287 H   0  0  0  0  0  0  0  0  0  0  0  0
    3.8712   -0.7070   -1.0058 H   0  0  0  0  0  0  0  0  0  0  0  0
    5.4614   -2.4246    0.9712 H   0  0  0  0  0  0  0  0  0  0  0  0
    7.4833   -1.4322   -0.5874 H   0  0  0  0  0  0  0  0  0  0  0  0
    2.8260   -2.8033    0.8232 H   0  0  0  0  0  0  0  0  0  0  0  0
    4.2376   -2.1709    2.5216 H   0  0  0  0  0  0  0  0  0  0  0  0
    2.9434   -1.0003    2.7446 H   0  0  0  0  0  0  0  0  0  0  0  0
    5.1482    0.0265    2.8635 H   0  0  0  0  0  0  0  0  0  0  0  0
    6.6631   -0.4160    1.3846 H   0  0  0  0  0  0  0  0  0  0  0  0
    3.3729    1.0043    0.5445 H   0  0  0  0  0  0  0  0  0  0  0  0
    3.2766    3.6812    3.9803 H   0  0  0  0  0  0  0  0  0  0  0  0
    2.9318    4.0627    2.1927 H   0  0  0  0  0  0  0  0  0  0  0  0
    5.2101    2.5204    3.5133 H   0  0  0  0  0  0  0  0  0  0  0  0
    4.4468    2.8842    0.6516 H   0  0  0  0  0  0  0  0  0  0  0  0
    6.6969    3.9139    2.3177 H   0  0  0  0  0  0  0  0  0  0  0  0
    6.3043    4.8891    4.3788 H   0  0  0  0  0  0  0  0  0  0  0  0
    5.9454    6.2297    3.2838 H   0  0  0  0  0  0  0  0  0  0  0  0
    4.6058    5.2172    4.0333 H   0  0  0  0  0  0  0  0  0  0  0  0
    5.9017    4.4174    0.2860 H   0  0  0  0  0  0  0  0  0  0  0  0
    5.6744    5.9840    1.1248 H   0  0  0  0  0  0  0  0  0  0  0  0
    4.2193    4.8988    0.8517 H   0  0  0  0  0  0  0  0  0  0  0  0
    6.8469   -0.6230   -4.4399 H   0  0  0  0  0  0  0  0  0  0  0  0
    8.3498   -1.5709   -4.4722 H   0  0  0  0  0  0  0  0  0  0  0  0
    8.1254   -0.3515   -3.2137 H   0  0  0  0  0  0  0  0  0  0  0  0
    6.6752   -3.9084   -1.7006 H   0  0  0  0  0  0  0  0  0  0  0  0
    7.9679   -3.5996   -0.4870 H   0  0  0  0  0  0  0  0  0  0  0  0
    6.3499   -3.9891    0.0988 H   0  0  0  0  0  0  0  0  0  0  0  0
   -6.9572    0.5360   -3.4189 H   0  0  0  0  0  0  0  0  0  0  0  0
   -5.2100   -1.8612   -3.0677 H   0  0  0  0  0  0  0  0  0  0  0  0
   -4.6861    4.3589   -4.1934 H   0  0  0  0  0  0  0  0  0  0  0  0
   -7.8092    2.2195   -4.4949 H   0  0  0  0  0  0  0  0  0  0  0  0
   -6.3493    4.1639   -1.9786 H   0  0  0  0  0  0  0  0  0  0  0  0
   -4.4491    1.6018   -5.6993 H   0  0  0  0  0  0  0  0  0  0  0  0
   -3.8697    3.2560   -6.2484 H   0  0  0  0  0  0  0  0  0  0  0  0
   -2.3646    3.4513   -4.2783 H   0  0  0  0  0  0  0  0  0  0  0  0
   -2.8948    1.8346   -3.5843 H   0  0  0  0  0  0  0  0  0  0  0  0
    0.8203   -0.5441   -2.0235 H   0  0  0  0  0  0  0  0  0  0  0  0
    0.4151   -2.0584   -1.0558 H   0  0  0  0  0  0  0  0  0  0  0  0
   -1.2688    0.4490   -1.4889 H   0  0  0  0  0  0  0  0  0  0  0  0
   -2.2131   -1.6192    0.4784 H   0  0  0  0  0  0  0  0  0  0  0  0
   -0.5183    0.2266    1.7813 H   0  0  0  0  0  0  0  0  0  0  0  0
   -0.2310   -1.5831    1.6089 H   0  0  0  0  0  0  0  0  0  0  0  0
    0.8143    0.7519   -0.0723 H   0  0  0  0  0  0  0  0  0  0  0  0
   -2.8520    0.3419    1.6513 H   0  0  0  0  0  0  0  0  0  0  0  0
   -2.3633    2.4030    0.2643 H   0  0  0  0  0  0  0  0  0  0  0  0
   -3.5595    1.1572   -1.0454 H   0  0  0  0  0  0  0  0  0  0  0  0
   -2.9261   -0.8658   -2.2968 H   0  0  0  0  0  0  0  0  0  0  0  0
   -0.3513   -1.9128   -2.9458 H   0  0  0  0  0  0  0  0  0  0  0  0
   -4.5508   -0.7579    1.7449 H   0  0  0  0  0  0  0  0  0  0  0  0
   -6.3214    0.7106   -1.3252 H   0  0  0  0  0  0  0  0  0  0  0  0
   -4.3611   -2.2450   -2.2227 H   0  0  0  0  0  0  0  0  0  0  0  0
   -3.7655   -3.8249   -2.7908 H   0  0  0  0  0  0  0  0  0  0  0  0
   -0.7872   -3.7693   -2.2559 H   0  0  0  0  0  0  0  0  0  0  0  0
   -1.0559   -3.8593   -0.4334 H   0  0  0  0  0  0  0  0  0  0  0  0
   -2.0669   -4.7625   -1.5714 H   0  0  0  0  0  0  0  0  0  0  0  0
   -4.2960    1.5748    2.4850 H   0  0  0  0  0  0  0  0  0  0  0  0
   -6.0814    1.7776    2.1904 H   0  0  0  0  0  0  0  0  0  0  0  0
   -7.1128   -0.5306    0.1179 H   0  0  0  0  0  0  0  0  0  0  0  0
   -7.4485   -0.0922    1.8025 H   0  0  0  0  0  0  0  0  0  0  0  0
   -3.8445   -4.6129   -0.3006 H   0  0  0  0  0  0  0  0  0  0  0  0
   -5.3262   -4.4836   -1.2787 H   0  0  0  0  0  0  0  0  0  0  0  0
   -5.0539   -1.9011   -0.2904 H   0  0  0  0  0  0  0  0  0  0  0  0
   -4.6926   -3.0557    1.1161 H   0  0  0  0  0  0  0  0  0  0  0  0
   -6.8346   -4.0840    0.7273 H   0  0  0  0  0  0  0  0  0  0  0  0
   -7.1913   -2.8038   -0.5512 H   0  0  0  0  0  0  0  0  0  0  0  0
   -7.8405   -2.3394    2.0159 H   0  0  0  0  0  0  0  0  0  0  0  0
   -6.0843   -2.3479    2.2667 H   0  0  0  0  0  0  0  0  0  0  0  0
    5.9278   -2.4716    1.4993 H   0  0  0  0  0  0  0  0  0  0  0  0
    3.8274   -3.5008    3.0716 H   0  0  0  0  0  0  0  0  0  0  0  0
    3.7343   -3.0367    1.3669 H   0  0  0  0  0  0  0  0  0  0  0  0
    2.9011   -1.4651    3.8525 H   0  0  0  0  0  0  0  0  0  0  0  0
    2.0436   -1.8503    2.3511 H   0  0  0  0  0  0  0  0  0  0  0  0
    2.6462    0.4828    2.6349 H   0  0  0  0  0  0  0  0  0  0  0  0
    4.7473    0.9604    3.1972 H   0  0  0  0  0  0  0  0  0  0  0  0
    6.7462   -0.5939    2.5265 H   0  0  0  0  0  0  0  0  0  0  0  0
    2.6607    0.8747    0.4305 H   0  0  0  0  0  0  0  0  0  0  0  0
    3.6937   -0.3871   -1.2987 H   0  0  0  0  0  0  0  0  0  0  0  0
    4.5896   -1.4246   -0.1832 H   0  0  0  0  0  0  0  0  0  0  0  0
    4.6187    1.5690   -0.4766 H   0  0  0  0  0  0  0  0  0  0  0  0
    6.4322    0.9814    1.4911 H   0  0  0  0  0  0  0  0  0  0  0  0
    6.9063   -0.4411   -0.7134 H   0  0  0  0  0  0  0  0  0  0  0  0
    6.5601    2.6826   -3.4982 H   0  0  0  0  0  0  0  0  0  0  0  0
    7.5624    1.3126   -4.1856 H   0  0  0  0  0  0  0  0  0  0  0  0
    8.5593    0.8080   -2.1491 H   0  0  0  0  0  0  0  0  0  0  0  0
    6.4138    2.4598   -1.0213 H   0  0  0  0  0  0  0  0  0  0  0  0
    9.4897    2.9404   -1.1810 H   0  0  0  0  0  0  0  0  0  0  0  0
    8.7201    5.0559   -1.8453 H   0  0  0  0  0  0  0  0  0  0  0  0
    7.3808    4.4340   -2.8363 H   0  0  0  0  0  0  0  0  0  0  0  0
    7.4181    4.2247   -0.9967 H   0  0  0  0  0  0  0  0  0  0  0  0
    9.8906    1.9334   -3.5438 H   0  0  0  0  0  0  0  0  0  0  0  0
   10.5677    3.5923   -3.1579 H   0  0  0  0  0  0  0  0  0  0  0  0
    9.0238    3.3765   -4.1239 H   0  0  0  0  0  0  0  0  0  0  0  0
    6.6709   -4.4787    2.0364 H   0  0  0  0  0  0  0  0  0  0  0  0
    7.5596   -4.4548    3.6106 H   0  0  0  0  0  0  0  0  0  0  0  0
    7.9046   -3.1491    2.4091 H   0  0  0  0  0  0  0  0  0  0  0  0
    6.8178   -1.1998    4.7198 H   0  0  0  0  0  0  0  0  0  0  0  0
    5.7766    0.2479    4.6910 H   0  0  0  0  0  0  0  0  0  0  0  0
    5.0574   -1.4243    4.9041 H   0  0  0  0  0  0  0  0  0  0  0  0
   -6.7267    2.7787    0.6747 H   0  0  0  0  0  0  0  0  0  0  0  0
   -4.8645    3.0749   -0.7632 H   0  0  0  0  0  0  0  0  0  0  0  0
   -9.7225    4.4122   -1.0256 H   0  0  0  0  0  0  0  0  0  0  0  0
   -8.0909    1.6217   -2.8712 H   0  0  0  0  0  0  0  0  0  0  0  0
  -10.4845    1.8410   -0.2564 H   0  0  0  0  0  0  0  0  0  0  0  0
   -6.7377    4.6881   -0.0074 H   0  0  0  0  0  0  0  0  0  0  0  0
   -7.9926    6.0770   -0.3112 H   0  0  0  0  0  0  0  0  0  0  0  0
   -8.3501    3.7982    1.7624 H   0  0  0  0  0  0  0  0  0  0  0  0
   -9.5445    5.1550    1.4182 H   0  0  0  0  0  0  0  0  0  0  0  0
  1  2  1  0
  2  3  1  0
  3  4  1  0
  1  5  1  0
  4  5  1  0
  3  6  1  0
  6  7  1  0
  6  8  1  0
  2  9  1  0
  9 10  1  0
  9 13  1  0
 13 14  1  0
 13 15  1  0
  8 16  1  0
 11 16  1  0
 16 12  1  6
 11 17  1  0
 16 17  1  0
 11 18  1  0
 14 19  1  0
 19 20  1  0
 20 21  1  0
 18 22  1  0
 21 22  1  0
  5 23  1  0
 24 25  1  0
 25 26  1  0
 26 27  1  0
 27 28  1  0
 24 29  1  0
 28 29  1  0
 23 30  1  0
 27 30  1  0
 30 31  1  0
 31 32  1  0
 28 33  1  0
 32 33  1  0
 32 34  1  0
 34 35  1  0
 35 36  1  0
 36 37  1  0
 34 38  1  0
 37 38  1  0
 37 39  1  0
 39 40  1  0
 39 41  1  0
 24 42  1  0
 42 43  1  0
 29 44  1  0
 12 45  1  0
 12 46  1  0
 45 47  1  0
 47 48  1  0
 47 49  1  0
 47 50  1  0
 48 51  1  0
 48 52  1  0
 51 52  1  0
 53 54  1  0
 54 55  1  0
 55 56  1  0
 53 57  1  0
 56 57  1  0
 55 58  1  0
 58 59  1  0
 58 60  1  0
 54 61  1  0
 61 62  1  0
 61 65  1  0
 65 66  1  0
 65 67  1  0
 68 60  1  1
 63 68  1  0
 64 68  1  0
 63 69  1  0
 68 69  1  0
 63 70  1  0
 66 71  1  0
 71 72  1  0
 72 73  1  0
 70 74  1  0
 73 74  1  0
 57 75  1  0
 76 77  1  0
 77 78  1  0
 78 79  1  0
 79 80  1  0
 76 81  1  0
 80 81  1  0
 75 82  1  0
 79 82  1  0
 82 83  1  0
 83 84  1  0
 80 85  1  0
 84 85  1  0
 84 86  1  0
 86 87  1  0
 87 88  1  0
 88 89  1  0
 86 90  1  0
 89 90  1  0
 89 91  1  0
 91 92  1  0
 91 93  1  0
 76 94  1  0
 94 95  1  0
 81 96  1  0
 64 97  1  0
 64 98  1  0
 97 99  1  0
 99100  1  0
 99101  1  0
 99102  1  0
100103  1  0
100104  1  0
103104  1  0
105106  1  0
106107  1  0
107108  1  0
105109  1  0
108109  1  0
107110  1  0
110111  1  0
110112  1  0
106113  1  0
113114  1  0
113117  1  0
117118  1  0
117119  1  0
120112  1  1
115120  1  0
116120  1  0
115121  1  0
120121  1  0
115122  1  0
118123  1  0
123124  1  0
124125  1  0
122126  1  0
125126  1  0
109127  1  0
128129  1  0
129130  1  0
130131  1  0
131132  1  0
128133  1  0
132133  1  0
127134  1  0
131134  1  0
134135  1  0
135136  1  0
132137  1  0
136137  1  0
136138  1  0
138139  1  0
139140  1  0
140141  1  0
138142  1  0
141142  1  0
141143  1  0
143144  1  0
143145  1  0
128146  1  0
146147  1  0
133148  1  0
116149  1  0
116150  1  0
149151  1  0
151152  1  0
151153  1  0
151154  1  0
152155  1  0
152156  1  0
155156  1  0
157158  1  0
158159  1  0
159160  1  0
157161  1  0
160161  1  0
159162  1  0
162163  1  0
162164  1  0
158165  1  0
165166  1  0
165169  1  0
169170  1  0
169171  1  0
164172  1  0
167172  1  0
172168  1  6
167173  1  0
172173  1  0
167174  1  0
170175  1  0
175176  1  0
176177  1  0
174178  1  0
177178  1  0
161179  1  0
180181  1  0
181182  1  0
182183  1  0
183184  1  0
180185  1  0
184185  1  0
179186  1  0
183186  1  0
186187  1  0
187188  1  0
184189  1  0
188189  1  0
188190  1  0
190191  1  0
191192  1  0
192193  1  0
190194  1  0
193194  1  0
193195  1  0
195196  1  0
195197  1  0
180198  1  0
198199  1  0
185200  1  0
168201  1  0
168202  1  0
201203  1  0
203204  1  0
203205  1  0
203206  1  0
204207  1  0
204208  1  0
207208  1  0
  1209  1  0
  1210  1  0
  2211  1  1
  3212  1  6
  4213  1  0
  4214  1  0
  5215  1  1
  6216  1  6
  7217  1  0
  8218  1  0
  9219  1  0
 10220  1  0
 11221  1  1
 12222  1  0
 14223  1  0
 14224  1  0
 15225  1  0
 15226  1  0
 15227  1  0
 17228  1  0
 17229  1  0
 18230  1  0
 18231  1  0
 19232  1  0
 19233  1  0
 20234  1  0
 20235  1  0
 21236  1  0
 21237  1  0
 22238  1  0
 22239  1  0
 24240  1  0
 25241  1  0
 25242  1  0
 26243  1  0
 26244  1  0
 27245  1  0
 28246  1  0
 29247  1  0
 30248  1  0
 31249  1  0
 31250  1  0
 32251  1  6
 33252  1  0
 34253  1  6
 36254  1  0
 36255  1  0
 37256  1  6
 38257  1  0
 39258  1  0
 40259  1  0
 40260  1  0
 40261  1  0
 41262  1  0
 41263  1  0
 41264  1  0
 43265  1  0
 43266  1  0
 43267  1  0
 44268  1  0
 44269  1  0
 44270  1  0
 45271  1  0
 46272  1  0
 48273  1  0
 49274  1  0
 50275  1  0
 51276  1  0
 51277  1  0
 52278  1  0
 52279  1  0
 53280  1  0
 53281  1  0
 54282  1  6
 55283  1  1
 56284  1  0
 56285  1  0
 57286  1  6
 58287  1  0
 59288  1  0
 60289  1  0
 61290  1  0
 62291  1  0
 63292  1  1
 64293  1  6
 66294  1  0
 66295  1  0
 67296  1  0
 67297  1  0
 67298  1  0
 69299  1  0
 69300  1  0
 70301  1  0
 70302  1  0
 71303  1  0
 71304  1  0
 72305  1  0
 72306  1  0
 73307  1  0
 73308  1  0
 74309  1  0
 74310  1  0
 76311  1  0
 77312  1  0
 77313  1  0
 78314  1  0
 78315  1  0
 79316  1  0
 80317  1  0
 81318  1  0
 82319  1  0
 83320  1  0
 83321  1  0
 84322  1  0
 85323  1  0
 86324  1  0
 88325  1  0
 88326  1  0
 89327  1  0
 90328  1  0
 91329  1  0
 92330  1  0
 92331  1  0
 92332  1  0
 93333  1  0
 93334  1  0
 93335  1  0
 95336  1  0
 95337  1  0
 95338  1  0
 96339  1  0
 96340  1  0
 96341  1  0
 97342  1  0
 98343  1  0
100344  1  0
101345  1  0
102346  1  0
103347  1  0
103348  1  0
104349  1  0
104350  1  0
105351  1  0
105352  1  0
106353  1  6
107354  1  1
108355  1  0
108356  1  0
109357  1  6
110358  1  0
111359  1  0
112360  1  0
113361  1  0
114362  1  0
115363  1  1
116364  1  6
118365  1  0
118366  1  0
119367  1  0
119368  1  0
119369  1  0
121370  1  0
121371  1  0
122372  1  0
122373  1  0
123374  1  0
123375  1  0
124376  1  0
124377  1  0
125378  1  0
125379  1  0
126380  1  0
126381  1  0
128382  1  0
129383  1  0
129384  1  0
130385  1  0
130386  1  0
131387  1  0
132388  1  0
133389  1  0
134390  1  0
135391  1  0
135392  1  0
136393  1  0
137394  1  0
138395  1  0
140396  1  0
140397  1  0
141398  1  1
142399  1  0
143400  1  0
144401  1  0
144402  1  0
144403  1  0
145404  1  0
145405  1  0
145406  1  0
147407  1  0
147408  1  0
147409  1  0
148410  1  0
148411  1  0
148412  1  0
149413  1  0
150414  1  0
152415  1  0
153416  1  0
154417  1  0
155418  1  0
155419  1  0
156420  1  0
156421  1  0
157422  1  0
157423  1  0
158424  1  6
159425  1  6
160426  1  0
160427  1  0
161428  1  6
162429  1  0
163430  1  0
164431  1  0
165432  1  0
166433  1  0
167434  1  1
168435  1  0
170436  1  0
170437  1  0
171438  1  0
171439  1  0
171440  1  0
173441  1  0
173442  1  0
174443  1  0
174444  1  0
175445  1  0
175446  1  0
176447  1  0
176448  1  0
177449  1  0
177450  1  0
178451  1  0
178452  1  0
180453  1  0
181454  1  0
181455  1  0
182456  1  0
182457  1  0
183458  1  0
184459  1  0
185460  1  0
186461  1  0
187462  1  0
187463  1  0
188464  1  6
189465  1  0
190466  1  1
192467  1  0
192468  1  0
193469  1  0
194470  1  0
195471  1  0
196472  1  0
196473  1  0
196474  1  0
197475  1  0
197476  1  0
197477  1  0
199478  1  0
199479  1  0
199480  1  0
200481  1  0
200482  1  0
200483  1  0
201484  1  0
202485  1  0
204486  1  0
205487  1  0
206488  1  0
207489  1  0
207490  1  0
208491  1  0
208492  1  0
M  END
>  <PDBID>  (1) 
3KEE

>  <PDB ID>  (1) 
3KEE

>  <Generic Name>  (1) 
Simeprevir

>  <Brand Name>  (1) 
Galexos#Olysio

>  <DrugBank ID>  (1) 
DB06290

>  <ATC Codes>  (1) 
J05AE14

>  <Ligand ID>  (1) 
30B

>  <Target Name>  (1) 
NS3 protease

>  <UniProt ID>  (1) 
Q91RS4

>  <PDB ID.1>  (1) 
3KEE

>  <Seq. Identity>  (1) 
82%

$$$$
