PDB_DB08916_07
     RDKit          3D

158164  0  0  0  0  0  0  0  0999 V2000
   -3.8920    1.7194   -0.5371 C   0  0  0  0  0  0  0  0  0  0  0  0
   -3.4157    0.4853   -1.1100 N   0  0  0  0  0  0  0  0  0  0  0  0
   -2.8448    2.6930   -0.7352 N   0  0  0  0  0  0  0  0  0  0  0  0
   -2.4182   -0.0720   -0.2679 C   0  0  0  0  0  0  0  0  0  0  0  0
   -1.5844    2.3153   -0.2311 C   0  0  0  0  0  0  0  0  0  0  0  0
   -1.4479    0.9502    0.3245 C   0  0  0  0  0  0  0  0  0  0  0  0
    1.0500    1.1800   -0.1750 C   0  0  0  0  0  0  0  0  0  0  0  0
   -0.0673    0.3816    0.3460 C   0  0  0  0  0  0  0  0  0  0  0  0
    0.7620    2.6155   -0.5366 C   0  0  0  0  0  0  0  0  0  0  0  0
   -0.5395    2.6116   -1.3111 C   0  0  0  0  0  0  0  0  0  0  0  0
   -3.0531   -0.8496    0.7711 N   0  0  0  0  0  0  0  0  0  0  0  0
   -5.3608   -3.2957   -0.8680 C   0  0  0  0  0  0  0  0  0  0  0  0
   -6.1781   -3.5850    0.3675 C   0  0  0  0  0  0  0  0  0  0  0  0
   -4.6852   -1.9457   -0.7039 C   0  0  0  0  0  0  0  0  0  0  0  0
   -5.6283   -2.8485    1.5730 C   0  0  0  0  0  0  0  0  0  0  0  0
   -3.5835   -2.0915    0.3152 C   0  0  0  0  0  0  0  0  0  0  0  0
   -4.1139   -2.8204    1.5403 C   0  0  0  0  0  0  0  0  0  0  0  0
   -7.4695   -3.1494    0.1600 F   0  0  0  0  0  0  0  0  0  0  0  0
   -6.4096   -3.2959   -2.3190 Cl  0  0  0  0  0  0  0  0  0  0  0  0
    0.5732    3.4086    0.5840 O   0  0  0  0  0  0  0  0  0  0  0  0
    1.4687    4.4687    0.6090 C   0  0  2  0  0  0  0  0  0  0  0  0
    2.2859    4.5167    1.8775 C   0  0  0  0  0  0  0  0  0  0  0  0
    2.4014    5.8325    2.2485 O   0  0  0  0  0  0  0  0  0  0  0  0
    1.9642    6.6489    1.2278 C   0  0  0  0  0  0  0  0  0  0  0  0
    0.8004    5.8263    0.6518 C   0  0  0  0  0  0  0  0  0  0  0  0
    2.1950    1.1963    0.6867 N   0  0  0  0  0  0  0  0  0  0  0  0
    2.8884   -0.0129    0.8878 C   0  0  0  0  0  0  0  0  0  0  0  0
    3.5221   -0.5557   -0.3984 C   0  0  0  0  0  0  0  0  0  0  0  0
    2.1723   -1.0437    1.4393 O   0  0  0  0  0  0  0  0  0  0  0  0
    4.2432   -1.8434   -0.0039 C   0  0  0  0  0  0  0  0  0  0  0  0
    4.9325   -2.4454   -1.2244 C   0  0  0  0  0  0  0  0  0  0  0  0
    5.5967   -3.6595   -0.8158 N   0  0  0  0  0  0  0  0  0  0  0  0
    4.7105   -4.7187   -0.4578 C   0  0  0  0  0  0  0  0  0  0  0  0
    6.5312   -4.0605   -1.8310 C   0  0  0  0  0  0  0  0  0  0  0  0
   -3.8920    1.7194   -0.5371 C   0  0  0  0  0  0  0  0  0  0  0  0
   -3.4157    0.4853   -1.1100 N   0  0  0  0  0  0  0  0  0  0  0  0
   -2.8448    2.6930   -0.7352 N   0  0  0  0  0  0  0  0  0  0  0  0
   -2.4182   -0.0720   -0.2679 C   0  0  0  0  0  0  0  0  0  0  0  0
   -1.5844    2.3153   -0.2311 C   0  0  0  0  0  0  0  0  0  0  0  0
   -1.4479    0.9502    0.3245 C   0  0  0  0  0  0  0  0  0  0  0  0
    1.0500    1.1800   -0.1750 C   0  0  0  0  0  0  0  0  0  0  0  0
   -0.0673    0.3816    0.3460 C   0  0  0  0  0  0  0  0  0  0  0  0
    0.7620    2.6155   -0.5366 C   0  0  0  0  0  0  0  0  0  0  0  0
   -0.5395    2.6116   -1.3111 C   0  0  0  0  0  0  0  0  0  0  0  0
   -3.0531   -0.8496    0.7711 N   0  0  0  0  0  0  0  0  0  0  0  0
   -5.3608   -3.2957   -0.8680 C   0  0  0  0  0  0  0  0  0  0  0  0
   -6.1781   -3.5850    0.3675 C   0  0  0  0  0  0  0  0  0  0  0  0
   -4.6852   -1.9457   -0.7039 C   0  0  0  0  0  0  0  0  0  0  0  0
   -5.6283   -2.8485    1.5730 C   0  0  0  0  0  0  0  0  0  0  0  0
   -3.5835   -2.0915    0.3152 C   0  0  0  0  0  0  0  0  0  0  0  0
   -4.1139   -2.8204    1.5403 C   0  0  0  0  0  0  0  0  0  0  0  0
   -7.4695   -3.1494    0.1600 F   0  0  0  0  0  0  0  0  0  0  0  0
   -6.4096   -3.2959   -2.3190 Cl  0  0  0  0  0  0  0  0  0  0  0  0
    0.5732    3.4086    0.5840 O   0  0  0  0  0  0  0  0  0  0  0  0
    1.4687    4.4687    0.6090 C   0  0  2  0  0  0  0  0  0  0  0  0
    2.2859    4.5167    1.8775 C   0  0  0  0  0  0  0  0  0  0  0  0
    2.4014    5.8325    2.2485 O   0  0  0  0  0  0  0  0  0  0  0  0
    1.9642    6.6489    1.2278 C   0  0  0  0  0  0  0  0  0  0  0  0
    0.8004    5.8263    0.6518 C   0  0  0  0  0  0  0  0  0  0  0  0
    2.1950    1.1963    0.6867 N   0  0  0  0  0  0  0  0  0  0  0  0
    2.8884   -0.0129    0.8878 C   0  0  0  0  0  0  0  0  0  0  0  0
    3.5221   -0.5557   -0.3984 C   0  0  0  0  0  0  0  0  0  0  0  0
    2.1723   -1.0437    1.4393 O   0  0  0  0  0  0  0  0  0  0  0  0
    4.2432   -1.8434   -0.0039 C   0  0  0  0  0  0  0  0  0  0  0  0
    4.9325   -2.4454   -1.2244 C   0  0  0  0  0  0  0  0  0  0  0  0
    5.5967   -3.6595   -0.8158 N   0  0  0  0  0  0  0  0  0  0  0  0
    4.7105   -4.7187   -0.4578 C   0  0  0  0  0  0  0  0  0  0  0  0
    6.5312   -4.0605   -1.8310 C   0  0  0  0  0  0  0  0  0  0  0  0
   -4.0376    1.5856    0.5403 H   0  0  0  0  0  0  0  0  0  0  0  0
   -4.7924    2.0932   -1.0744 H   0  0  0  0  0  0  0  0  0  0  0  0
   -3.2210    0.5111   -2.1111 H   0  0  0  0  0  0  0  0  0  0  0  0
   -2.8204    2.9791   -1.7452 H   0  0  0  0  0  0  0  0  0  0  0  0
   -1.8237   -0.8120   -0.8702 H   0  0  0  0  0  0  0  0  0  0  0  0
   -1.3302    3.0549    0.5862 H   0  0  0  0  0  0  0  0  0  0  0  0
   -1.7702    1.0312    1.4103 H   0  0  0  0  0  0  0  0  0  0  0  0
    1.4290    0.7300   -1.1575 H   0  0  0  0  0  0  0  0  0  0  0  0
   -0.0940   -0.5953   -0.2176 H   0  0  0  0  0  0  0  0  0  0  0  0
    0.2114    0.0627    1.3972 H   0  0  0  0  0  0  0  0  0  0  0  0
    1.6030    2.9821   -1.1684 H   0  0  0  0  0  0  0  0  0  0  0  0
   -0.4679    1.7720   -2.0286 H   0  0  0  0  0  0  0  0  0  0  0  0
   -0.7758    3.5689   -1.7709 H   0  0  0  0  0  0  0  0  0  0  0  0
   -3.6701   -0.2492    1.3239 H   0  0  0  0  0  0  0  0  0  0  0  0
   -4.5536   -4.0493   -0.9794 H   0  0  0  0  0  0  0  0  0  0  0  0
   -6.2227   -4.6905    0.5579 H   0  0  0  0  0  0  0  0  0  0  0  0
   -5.4446   -1.2098   -0.4221 H   0  0  0  0  0  0  0  0  0  0  0  0
   -4.2644   -1.6146   -1.6943 H   0  0  0  0  0  0  0  0  0  0  0  0
   -5.9983   -1.8254    1.5903 H   0  0  0  0  0  0  0  0  0  0  0  0
   -5.9368   -3.3696    2.4859 H   0  0  0  0  0  0  0  0  0  0  0  0
   -2.7611   -2.6703   -0.1644 H   0  0  0  0  0  0  0  0  0  0  0  0
   -3.7857   -2.3245    2.4971 H   0  0  0  0  0  0  0  0  0  0  0  0
   -3.6871   -3.8328    1.5261 H   0  0  0  0  0  0  0  0  0  0  0  0
    2.1362    4.4587   -0.2689 H   0  0  0  0  0  0  0  0  0  0  0  0
    3.2564    4.0098    1.7737 H   0  0  0  0  0  0  0  0  0  0  0  0
    1.7086    3.9122    2.6375 H   0  0  0  0  0  0  0  0  0  0  0  0
    1.5454    7.5965    1.6177 H   0  0  0  0  0  0  0  0  0  0  0  0
    2.7154    6.8930    0.4667 H   0  0  0  0  0  0  0  0  0  0  0  0
    0.4979    6.2174   -0.3182 H   0  0  0  0  0  0  0  0  0  0  0  0
    0.0025    5.8653    1.4219 H   0  0  0  0  0  0  0  0  0  0  0  0
    2.0075    1.6810    1.5984 H   0  0  0  0  0  0  0  0  0  0  0  0
    3.7352    0.1987    1.6064 H   0  0  0  0  0  0  0  0  0  0  0  0
    4.2226    0.1575   -0.8303 H   0  0  0  0  0  0  0  0  0  0  0  0
    2.7331   -0.7673   -1.1452 H   0  0  0  0  0  0  0  0  0  0  0  0
    1.8135   -1.6313    0.7352 H   0  0  0  0  0  0  0  0  0  0  0  0
    3.5539   -2.5919    0.4222 H   0  0  0  0  0  0  0  0  0  0  0  0
    4.9908   -1.6110    0.7780 H   0  0  0  0  0  0  0  0  0  0  0  0
    5.7469   -1.7632   -1.5775 H   0  0  0  0  0  0  0  0  0  0  0  0
    4.2156   -2.6487   -2.0167 H   0  0  0  0  0  0  0  0  0  0  0  0
    4.8388   -5.5342   -1.2187 H   0  0  0  0  0  0  0  0  0  0  0  0
    3.6546   -4.4293   -0.4560 H   0  0  0  0  0  0  0  0  0  0  0  0
    4.9817   -5.1826    0.5299 H   0  0  0  0  0  0  0  0  0  0  0  0
    7.5803   -4.1108   -1.4297 H   0  0  0  0  0  0  0  0  0  0  0  0
    6.5744   -3.3405   -2.6797 H   0  0  0  0  0  0  0  0  0  0  0  0
    6.2974   -5.0634   -2.2416 H   0  0  0  0  0  0  0  0  0  0  0  0
   -4.0376    1.5856    0.5403 H   0  0  0  0  0  0  0  0  0  0  0  0
   -4.7924    2.0932   -1.0744 H   0  0  0  0  0  0  0  0  0  0  0  0
   -3.2210    0.5111   -2.1111 H   0  0  0  0  0  0  0  0  0  0  0  0
   -2.8204    2.9791   -1.7452 H   0  0  0  0  0  0  0  0  0  0  0  0
   -1.8237   -0.8120   -0.8702 H   0  0  0  0  0  0  0  0  0  0  0  0
   -1.3302    3.0549    0.5862 H   0  0  0  0  0  0  0  0  0  0  0  0
   -1.7702    1.0312    1.4103 H   0  0  0  0  0  0  0  0  0  0  0  0
    1.4290    0.7300   -1.1575 H   0  0  0  0  0  0  0  0  0  0  0  0
   -0.0940   -0.5953   -0.2176 H   0  0  0  0  0  0  0  0  0  0  0  0
    0.2114    0.0627    1.3972 H   0  0  0  0  0  0  0  0  0  0  0  0
    1.6030    2.9821   -1.1684 H   0  0  0  0  0  0  0  0  0  0  0  0
   -0.4679    1.7720   -2.0286 H   0  0  0  0  0  0  0  0  0  0  0  0
   -0.7758    3.5689   -1.7709 H   0  0  0  0  0  0  0  0  0  0  0  0
   -3.6701   -0.2492    1.3239 H   0  0  0  0  0  0  0  0  0  0  0  0
   -4.5536   -4.0493   -0.9794 H   0  0  0  0  0  0  0  0  0  0  0  0
   -6.2227   -4.6905    0.5579 H   0  0  0  0  0  0  0  0  0  0  0  0
   -5.4446   -1.2098   -0.4221 H   0  0  0  0  0  0  0  0  0  0  0  0
   -4.2644   -1.6146   -1.6943 H   0  0  0  0  0  0  0  0  0  0  0  0
   -5.9983   -1.8254    1.5903 H   0  0  0  0  0  0  0  0  0  0  0  0
   -5.9368   -3.3696    2.4859 H   0  0  0  0  0  0  0  0  0  0  0  0
   -2.7611   -2.6703   -0.1644 H   0  0  0  0  0  0  0  0  0  0  0  0
   -3.7857   -2.3245    2.4971 H   0  0  0  0  0  0  0  0  0  0  0  0
   -3.6871   -3.8328    1.5261 H   0  0  0  0  0  0  0  0  0  0  0  0
    2.1362    4.4587   -0.2689 H   0  0  0  0  0  0  0  0  0  0  0  0
    3.2564    4.0098    1.7737 H   0  0  0  0  0  0  0  0  0  0  0  0
    1.7086    3.9122    2.6375 H   0  0  0  0  0  0  0  0  0  0  0  0
    1.5454    7.5965    1.6177 H   0  0  0  0  0  0  0  0  0  0  0  0
    2.7154    6.8930    0.4667 H   0  0  0  0  0  0  0  0  0  0  0  0
    0.4979    6.2174   -0.3182 H   0  0  0  0  0  0  0  0  0  0  0  0
    0.0025    5.8653    1.4219 H   0  0  0  0  0  0  0  0  0  0  0  0
    2.0075    1.6810    1.5984 H   0  0  0  0  0  0  0  0  0  0  0  0
    3.7352    0.1987    1.6064 H   0  0  0  0  0  0  0  0  0  0  0  0
    4.2226    0.1575   -0.8303 H   0  0  0  0  0  0  0  0  0  0  0  0
    2.7331   -0.7673   -1.1452 H   0  0  0  0  0  0  0  0  0  0  0  0
    1.8135   -1.6313    0.7352 H   0  0  0  0  0  0  0  0  0  0  0  0
    3.5539   -2.5919    0.4222 H   0  0  0  0  0  0  0  0  0  0  0  0
    4.9908   -1.6110    0.7780 H   0  0  0  0  0  0  0  0  0  0  0  0
    5.7469   -1.7632   -1.5775 H   0  0  0  0  0  0  0  0  0  0  0  0
    4.2156   -2.6487   -2.0167 H   0  0  0  0  0  0  0  0  0  0  0  0
    4.8388   -5.5342   -1.2187 H   0  0  0  0  0  0  0  0  0  0  0  0
    3.6546   -4.4293   -0.4560 H   0  0  0  0  0  0  0  0  0  0  0  0
    4.9817   -5.1826    0.5299 H   0  0  0  0  0  0  0  0  0  0  0  0
    7.5803   -4.1108   -1.4297 H   0  0  0  0  0  0  0  0  0  0  0  0
    6.5744   -3.3405   -2.6797 H   0  0  0  0  0  0  0  0  0  0  0  0
    6.2974   -5.0634   -2.2416 H   0  0  0  0  0  0  0  0  0  0  0  0
  1  2  1  0
  1  3  1  0
  2  4  1  0
  3  5  1  0
  4  6  1  0
  5  6  1  0
  6  8  1  0
  7  8  1  0
  7  9  1  0
  5 10  1  0
  9 10  1  0
  4 11  1  0
 12 13  1  0
 12 14  1  0
 13 15  1  0
 11 16  1  0
 14 16  1  0
 15 17  1  0
 16 17  1  0
 13 18  1  0
 12 19  1  0
  9 20  1  0
 20 21  1  0
 21 22  1  0
 22 23  1  0
 23 24  1  0
 21 25  1  0
 24 25  1  0
  7 26  1  0
 26 27  1  0
 27 28  1  0
 27 29  1  0
 28 30  1  0
 30 31  1  0
 31 32  1  0
 32 33  1  0
 32 34  1  0
 35 36  1  0
 35 37  1  0
 36 38  1  0
 37 39  1  0
 38 40  1  0
 39 40  1  0
 40 42  1  0
 41 42  1  0
 41 43  1  0
 39 44  1  0
 43 44  1  0
 38 45  1  0
 46 47  1  0
 46 48  1  0
 47 49  1  0
 45 50  1  0
 48 50  1  0
 49 51  1  0
 50 51  1  0
 47 52  1  0
 46 53  1  0
 43 54  1  0
 54 55  1  0
 55 56  1  0
 56 57  1  0
 57 58  1  0
 55 59  1  0
 58 59  1  0
 41 60  1  0
 60 61  1  0
 61 62  1  0
 61 63  1  0
 62 64  1  0
 64 65  1  0
 65 66  1  0
 66 67  1  0
 66 68  1  0
  1 69  1  0
  1 70  1  0
  2 71  1  0
  3 72  1  0
  4 73  1  0
  5 74  1  0
  6 75  1  0
  7 76  1  0
  8 77  1  0
  8 78  1  0
  9 79  1  0
 10 80  1  0
 10 81  1  0
 11 82  1  0
 12 83  1  0
 13 84  1  0
 14 85  1  0
 14 86  1  0
 15 87  1  0
 15 88  1  0
 16 89  1  0
 17 90  1  0
 17 91  1  0
 21 92  1  6
 22 93  1  0
 22 94  1  0
 24 95  1  0
 24 96  1  0
 25 97  1  0
 25 98  1  0
 26 99  1  0
 27100  1  0
 28101  1  0
 28102  1  0
 29103  1  0
 30104  1  0
 30105  1  0
 31106  1  0
 31107  1  0
 33108  1  0
 33109  1  0
 33110  1  0
 34111  1  0
 34112  1  0
 34113  1  0
 35114  1  0
 35115  1  0
 36116  1  0
 37117  1  0
 38118  1  0
 39119  1  0
 40120  1  0
 41121  1  0
 42122  1  0
 42123  1  0
 43124  1  0
 44125  1  0
 44126  1  0
 45127  1  0
 46128  1  0
 47129  1  0
 48130  1  0
 48131  1  0
 49132  1  0
 49133  1  0
 50134  1  0
 51135  1  0
 51136  1  0
 55137  1  6
 56138  1  0
 56139  1  0
 58140  1  0
 58141  1  0
 59142  1  0
 59143  1  0
 60144  1  0
 61145  1  0
 62146  1  0
 62147  1  0
 63148  1  0
 64149  1  0
 64150  1  0
 65151  1  0
 65152  1  0
 67153  1  0
 67154  1  0
 67155  1  0
 68156  1  0
 68157  1  0
 68158  1  0
M  END
>  <PDBID>  (1) 
4G5J

>  <PDB ID>  (1) 
4G5J

>  <Generic Name>  (1) 
Afatinib

>  <Brand Name>  (1) 
Gilotrif#Giotrif

>  <DrugBank ID>  (1) 
DB08916

>  <ATC Codes>  (1) 
L01XE13

>  <Ligand ID>  (1) 
0WM

>  <Target Name>  (1) 
Receptor tyrosine-protein kinase erbB-2

>  <UniProt ID>  (1) 
P04626

>  <PDB ID.1>  (1) 
4G5J

>  <Seq. Identity>  (1) 
78%

$$$$
