PDB_DB00328_08
     RDKit          3D

236244  0  0  0  0  0  0  0  0999 V2000
   -0.6071    0.8059   -0.6776 C   0  0  0  0  0  0  0  0  0  0  0  0
   -1.7618   -0.1201   -0.8628 C   0  0  0  0  0  0  0  0  0  0  0  0
   -3.0753    0.3344   -0.3330 C   0  0  0  0  0  0  0  0  0  0  0  0
   -3.2793    1.7735   -0.0417 C   0  0  0  0  0  0  0  0  0  0  0  0
   -2.0730    2.6396   -0.1357 C   0  0  0  0  0  0  0  0  0  0  0  0
   -0.8184    1.8844    0.3337 C   0  0  0  0  0  0  0  0  0  0  0  0
   -5.3065    2.8914   -0.2015 C   0  0  0  0  0  0  0  0  0  0  0  0
   -1.2922   -1.4670   -0.4891 C   0  0  1  0  0  0  0  0  0  0  0  0
    0.0854   -1.2039    0.1391 C   0  0  0  0  0  0  0  0  0  0  0  0
    1.6121    0.7222    0.0533 C   0  0  0  0  0  0  0  0  0  0  0  0
    2.9823    0.1346    0.0368 C   0  0  0  0  0  0  0  0  0  0  0  0
    3.4915   -0.2416   -1.3257 C   0  0  0  0  0  0  0  0  0  0  0  0
    4.8343   -0.9241   -1.1464 C   0  0  0  0  0  0  0  0  0  0  0  0
    5.8463   -0.0453   -0.4728 C   0  0  0  0  0  0  0  0  0  0  0  0
    5.3200    0.4456    0.8787 C   0  0  0  0  0  0  0  0  0  0  0  0
    4.0004    1.1164    0.5885 C   0  0  0  0  0  0  0  0  0  0  0  0
    0.1194   -1.3681    1.6063 C   0  0  0  0  0  0  0  0  0  0  0  0
   -2.1161   -2.3972    0.2800 C   0  0  0  0  0  0  0  0  0  0  0  0
   -3.4123   -2.8600   -0.3210 C   0  0  0  0  0  0  0  0  0  0  0  0
    0.5464   -0.0131   -0.4316 N   0  0  0  0  0  0  0  0  0  0  0  0
   -4.2365    2.3519   -0.8860 O   0  0  0  0  0  0  0  0  0  0  0  0
    1.4366    1.2580    1.3537 O   0  0  0  0  0  0  0  0  0  0  0  0
   -3.1871   -3.5251   -1.5583 O   0  0  0  0  0  0  0  0  0  0  0  0
   -3.9210   -3.9287    0.4873 O   0  0  0  0  0  0  0  0  0  0  0  0
    6.3765    1.2997   -1.4760 Cl  0  0  0  0  0  0  0  0  0  0  0  0
   -0.6071    0.8059   -0.6776 C   0  0  0  0  0  0  0  0  0  0  0  0
   -1.7618   -0.1201   -0.8628 C   0  0  0  0  0  0  0  0  0  0  0  0
   -3.0753    0.3344   -0.3330 C   0  0  0  0  0  0  0  0  0  0  0  0
   -3.2793    1.7735   -0.0417 C   0  0  0  0  0  0  0  0  0  0  0  0
   -2.0730    2.6396   -0.1357 C   0  0  0  0  0  0  0  0  0  0  0  0
   -0.8184    1.8844    0.3337 C   0  0  0  0  0  0  0  0  0  0  0  0
   -5.3065    2.8914   -0.2015 C   0  0  0  0  0  0  0  0  0  0  0  0
   -1.2922   -1.4670   -0.4891 C   0  0  1  0  0  0  0  0  0  0  0  0
    0.0854   -1.2039    0.1391 C   0  0  0  0  0  0  0  0  0  0  0  0
    1.6121    0.7222    0.0533 C   0  0  0  0  0  0  0  0  0  0  0  0
    2.9823    0.1346    0.0368 C   0  0  0  0  0  0  0  0  0  0  0  0
    3.4915   -0.2416   -1.3257 C   0  0  0  0  0  0  0  0  0  0  0  0
    4.8343   -0.9241   -1.1464 C   0  0  0  0  0  0  0  0  0  0  0  0
    5.8463   -0.0453   -0.4728 C   0  0  0  0  0  0  0  0  0  0  0  0
    5.3200    0.4456    0.8787 C   0  0  0  0  0  0  0  0  0  0  0  0
    4.0004    1.1164    0.5885 C   0  0  0  0  0  0  0  0  0  0  0  0
    0.1194   -1.3681    1.6063 C   0  0  0  0  0  0  0  0  0  0  0  0
   -2.1161   -2.3972    0.2800 C   0  0  0  0  0  0  0  0  0  0  0  0
   -3.4123   -2.8600   -0.3210 C   0  0  0  0  0  0  0  0  0  0  0  0
    0.5464   -0.0131   -0.4316 N   0  0  0  0  0  0  0  0  0  0  0  0
   -4.2365    2.3519   -0.8860 O   0  0  0  0  0  0  0  0  0  0  0  0
    1.4366    1.2580    1.3537 O   0  0  0  0  0  0  0  0  0  0  0  0
   -3.1871   -3.5251   -1.5583 O   0  0  0  0  0  0  0  0  0  0  0  0
   -3.9210   -3.9287    0.4873 O   0  0  0  0  0  0  0  0  0  0  0  0
    6.3765    1.2997   -1.4760 Cl  0  0  0  0  0  0  0  0  0  0  0  0
   -0.1423    0.9920    0.7673 C   0  0  0  0  0  0  0  0  0  0  0  0
   -0.9104    0.4734   -0.4066 C   0  0  0  0  0  0  0  0  0  0  0  0
   -1.9793    1.3616   -0.9316 C   0  0  0  0  0  0  0  0  0  0  0  0
   -2.8026    2.0545    0.1196 C   0  0  0  0  0  0  0  0  0  0  0  0
   -1.9292    2.6038    1.1943 C   0  0  0  0  0  0  0  0  0  0  0  0
   -1.1596    1.4542    1.8047 C   0  0  0  0  0  0  0  0  0  0  0  0
   -4.8364    3.0152   -0.3959 C   0  0  0  0  0  0  0  0  0  0  0  0
   -1.3625   -0.8784    0.0598 C   0  0  0  0  0  0  0  0  0  0  0  0
   -0.2240   -1.3072    0.9549 C   0  0  0  0  0  0  0  0  0  0  0  0
    1.9314   -0.2027    1.3025 C   0  0  0  0  0  0  0  0  0  0  0  0
    2.8562   -0.0682    0.1607 C   0  0  0  0  0  0  0  0  0  0  0  0
    2.7209   -1.1074   -0.9303 C   0  0  0  0  0  0  0  0  0  0  0  0
    4.0398   -1.0500   -1.7152 C   0  0  0  0  0  0  0  0  0  0  0  0
    4.3525    0.2861   -2.2748 C   0  0  0  0  0  0  0  0  0  0  0  0
    4.0993    1.4542   -1.3560 C   0  0  0  0  0  0  0  0  0  0  0  0
    2.8269    1.2641   -0.5461 C   0  0  0  0  0  0  0  0  0  0  0  0
   -0.7478   -1.9578    2.2021 C   0  0  0  0  0  0  0  0  0  0  0  0
   -1.6186   -1.8111   -1.0925 C   0  0  0  0  0  0  0  0  0  0  0  0
   -2.0658   -3.1778   -0.7231 C   0  0  0  0  0  0  0  0  0  0  0  0
    0.5721   -0.1545    1.1749 N   0  0  0  0  0  0  0  0  0  0  0  0
   -3.4588    3.1190   -0.5130 O   0  0  0  0  0  0  0  0  0  0  0  0
    2.3987   -1.3090    2.0849 O   0  0  0  0  0  0  0  0  0  0  0  0
   -1.1523   -3.8724    0.0606 O   0  0  0  0  0  0  0  0  0  0  0  0
   -3.2749   -3.1970   -0.0321 O   0  0  0  0  0  0  0  0  0  0  0  0
    6.1117    0.3085   -2.6483 Cl  0  0  0  0  0  0  0  0  0  0  0  0
   -0.6071    0.8059   -0.6776 C   0  0  0  0  0  0  0  0  0  0  0  0
   -1.7618   -0.1201   -0.8628 C   0  0  0  0  0  0  0  0  0  0  0  0
   -3.0753    0.3344   -0.3330 C   0  0  0  0  0  0  0  0  0  0  0  0
   -3.2793    1.7735   -0.0417 C   0  0  0  0  0  0  0  0  0  0  0  0
   -2.0730    2.6396   -0.1357 C   0  0  0  0  0  0  0  0  0  0  0  0
   -0.8184    1.8844    0.3337 C   0  0  0  0  0  0  0  0  0  0  0  0
   -5.3065    2.8914   -0.2015 C   0  0  0  0  0  0  0  0  0  0  0  0
   -1.2922   -1.4670   -0.4891 C   0  0  1  0  0  0  0  0  0  0  0  0
    0.0854   -1.2039    0.1391 C   0  0  0  0  0  0  0  0  0  0  0  0
    1.6121    0.7222    0.0533 C   0  0  0  0  0  0  0  0  0  0  0  0
    2.9823    0.1346    0.0368 C   0  0  0  0  0  0  0  0  0  0  0  0
    3.4915   -0.2416   -1.3257 C   0  0  0  0  0  0  0  0  0  0  0  0
    4.8343   -0.9241   -1.1464 C   0  0  0  0  0  0  0  0  0  0  0  0
    5.8463   -0.0453   -0.4728 C   0  0  0  0  0  0  0  0  0  0  0  0
    5.3200    0.4456    0.8787 C   0  0  0  0  0  0  0  0  0  0  0  0
    4.0004    1.1164    0.5885 C   0  0  0  0  0  0  0  0  0  0  0  0
    0.1194   -1.3681    1.6063 C   0  0  0  0  0  0  0  0  0  0  0  0
   -2.1161   -2.3972    0.2800 C   0  0  0  0  0  0  0  0  0  0  0  0
   -3.4123   -2.8600   -0.3210 C   0  0  0  0  0  0  0  0  0  0  0  0
    0.5464   -0.0131   -0.4316 N   0  0  0  0  0  0  0  0  0  0  0  0
   -4.2365    2.3519   -0.8860 O   0  0  0  0  0  0  0  0  0  0  0  0
    1.4366    1.2580    1.3537 O   0  0  0  0  0  0  0  0  0  0  0  0
   -3.1871   -3.5251   -1.5583 O   0  0  0  0  0  0  0  0  0  0  0  0
   -3.9210   -3.9287    0.4873 O   0  0  0  0  0  0  0  0  0  0  0  0
    6.3765    1.2997   -1.4760 Cl  0  0  0  0  0  0  0  0  0  0  0  0
   -0.3927    1.3450   -1.6466 H   0  0  0  0  0  0  0  0  0  0  0  0
   -1.9200   -0.1331   -2.0016 H   0  0  0  0  0  0  0  0  0  0  0  0
   -3.3108   -0.2309    0.5903 H   0  0  0  0  0  0  0  0  0  0  0  0
   -3.9084    0.0568   -1.0548 H   0  0  0  0  0  0  0  0  0  0  0  0
   -3.6984    1.9339    0.9985 H   0  0  0  0  0  0  0  0  0  0  0  0
   -2.1902    3.5187    0.5038 H   0  0  0  0  0  0  0  0  0  0  0  0
   -1.8545    2.9754   -1.1806 H   0  0  0  0  0  0  0  0  0  0  0  0
   -0.0260    2.6617    0.2453 H   0  0  0  0  0  0  0  0  0  0  0  0
   -0.8757    1.5809    1.3721 H   0  0  0  0  0  0  0  0  0  0  0  0
   -5.8513    2.1309    0.4046 H   0  0  0  0  0  0  0  0  0  0  0  0
   -6.0317    3.2427   -0.9624 H   0  0  0  0  0  0  0  0  0  0  0  0
   -5.0218    3.7794    0.3921 H   0  0  0  0  0  0  0  0  0  0  0  0
   -1.1171   -2.0403   -1.4790 H   0  0  0  0  0  0  0  0  0  0  0  0
    0.7215   -2.0481   -0.2704 H   0  0  0  0  0  0  0  0  0  0  0  0
    1.6784    1.6544   -0.5836 H   0  0  0  0  0  0  0  0  0  0  0  0
    3.0608   -0.7733    0.6658 H   0  0  0  0  0  0  0  0  0  0  0  0
    3.5750    0.5891   -2.0221 H   0  0  0  0  0  0  0  0  0  0  0  0
    2.8321   -1.0721   -1.6997 H   0  0  0  0  0  0  0  0  0  0  0  0
    4.7244   -1.8557   -0.5513 H   0  0  0  0  0  0  0  0  0  0  0  0
    5.2279   -1.1903   -2.1451 H   0  0  0  0  0  0  0  0  0  0  0  0
    6.7248   -0.6788   -0.2343 H   0  0  0  0  0  0  0  0  0  0  0  0
    6.0199    1.2289    1.2107 H   0  0  0  0  0  0  0  0  0  0  0  0
    5.2569   -0.3653    1.6051 H   0  0  0  0  0  0  0  0  0  0  0  0
    3.5885    1.5758    1.4864 H   0  0  0  0  0  0  0  0  0  0  0  0
    4.2261    1.9071   -0.1840 H   0  0  0  0  0  0  0  0  0  0  0  0
    1.1869   -1.6124    1.8901 H   0  0  0  0  0  0  0  0  0  0  0  0
   -0.4187   -2.3271    1.8589 H   0  0  0  0  0  0  0  0  0  0  0  0
   -0.1901   -0.5375    2.2284 H   0  0  0  0  0  0  0  0  0  0  0  0
   -1.5384   -3.3582    0.4588 H   0  0  0  0  0  0  0  0  0  0  0  0
   -2.3488   -2.0614    1.3224 H   0  0  0  0  0  0  0  0  0  0  0  0
   -4.1751   -2.1291   -0.5089 H   0  0  0  0  0  0  0  0  0  0  0  0
    1.8648    0.6661    2.0059 H   0  0  0  0  0  0  0  0  0  0  0  0
   -2.5095   -4.2253   -1.4193 H   0  0  0  0  0  0  0  0  0  0  0  0
   -4.8733   -3.7715    0.6769 H   0  0  0  0  0  0  0  0  0  0  0  0
   -0.3927    1.3450   -1.6466 H   0  0  0  0  0  0  0  0  0  0  0  0
   -1.9200   -0.1331   -2.0016 H   0  0  0  0  0  0  0  0  0  0  0  0
   -3.3108   -0.2309    0.5903 H   0  0  0  0  0  0  0  0  0  0  0  0
   -3.9084    0.0568   -1.0548 H   0  0  0  0  0  0  0  0  0  0  0  0
   -3.6984    1.9339    0.9985 H   0  0  0  0  0  0  0  0  0  0  0  0
   -2.1902    3.5187    0.5038 H   0  0  0  0  0  0  0  0  0  0  0  0
   -1.8545    2.9754   -1.1806 H   0  0  0  0  0  0  0  0  0  0  0  0
   -0.0260    2.6617    0.2453 H   0  0  0  0  0  0  0  0  0  0  0  0
   -0.8757    1.5809    1.3721 H   0  0  0  0  0  0  0  0  0  0  0  0
   -5.8513    2.1309    0.4046 H   0  0  0  0  0  0  0  0  0  0  0  0
   -6.0317    3.2427   -0.9624 H   0  0  0  0  0  0  0  0  0  0  0  0
   -5.0218    3.7794    0.3921 H   0  0  0  0  0  0  0  0  0  0  0  0
   -1.1171   -2.0403   -1.4790 H   0  0  0  0  0  0  0  0  0  0  0  0
    0.7215   -2.0481   -0.2704 H   0  0  0  0  0  0  0  0  0  0  0  0
    1.6784    1.6544   -0.5836 H   0  0  0  0  0  0  0  0  0  0  0  0
    3.0608   -0.7733    0.6658 H   0  0  0  0  0  0  0  0  0  0  0  0
    3.5750    0.5891   -2.0221 H   0  0  0  0  0  0  0  0  0  0  0  0
    2.8321   -1.0721   -1.6997 H   0  0  0  0  0  0  0  0  0  0  0  0
    4.7244   -1.8557   -0.5513 H   0  0  0  0  0  0  0  0  0  0  0  0
    5.2279   -1.1903   -2.1451 H   0  0  0  0  0  0  0  0  0  0  0  0
    6.7248   -0.6788   -0.2343 H   0  0  0  0  0  0  0  0  0  0  0  0
    6.0199    1.2289    1.2107 H   0  0  0  0  0  0  0  0  0  0  0  0
    5.2569   -0.3653    1.6051 H   0  0  0  0  0  0  0  0  0  0  0  0
    3.5885    1.5758    1.4864 H   0  0  0  0  0  0  0  0  0  0  0  0
    4.2261    1.9071   -0.1840 H   0  0  0  0  0  0  0  0  0  0  0  0
    1.1869   -1.6124    1.8901 H   0  0  0  0  0  0  0  0  0  0  0  0
   -0.4187   -2.3271    1.8589 H   0  0  0  0  0  0  0  0  0  0  0  0
   -0.1901   -0.5375    2.2284 H   0  0  0  0  0  0  0  0  0  0  0  0
   -1.5384   -3.3582    0.4588 H   0  0  0  0  0  0  0  0  0  0  0  0
   -2.3488   -2.0614    1.3224 H   0  0  0  0  0  0  0  0  0  0  0  0
   -4.1751   -2.1291   -0.5089 H   0  0  0  0  0  0  0  0  0  0  0  0
    1.8648    0.6661    2.0059 H   0  0  0  0  0  0  0  0  0  0  0  0
   -2.5095   -4.2253   -1.4193 H   0  0  0  0  0  0  0  0  0  0  0  0
   -4.8733   -3.7715    0.6769 H   0  0  0  0  0  0  0  0  0  0  0  0
    0.4737    1.8598    0.5478 H   0  0  0  0  0  0  0  0  0  0  0  0
   -0.2037    0.2873   -1.2641 H   0  0  0  0  0  0  0  0  0  0  0  0
   -2.6564    0.7741   -1.5712 H   0  0  0  0  0  0  0  0  0  0  0  0
   -1.5069    2.1297   -1.5779 H   0  0  0  0  0  0  0  0  0  0  0  0
   -3.5559    1.3872    0.5690 H   0  0  0  0  0  0  0  0  0  0  0  0
   -2.5563    3.0299    2.0053 H   0  0  0  0  0  0  0  0  0  0  0  0
   -1.2228    3.3741    0.8182 H   0  0  0  0  0  0  0  0  0  0  0  0
   -0.6778    1.8468    2.7143 H   0  0  0  0  0  0  0  0  0  0  0  0
   -1.8627    0.6737    2.0880 H   0  0  0  0  0  0  0  0  0  0  0  0
   -5.1743    2.0692   -0.8682 H   0  0  0  0  0  0  0  0  0  0  0  0
   -5.2831    3.9052   -0.8829 H   0  0  0  0  0  0  0  0  0  0  0  0
   -5.0832    3.0448    0.6884 H   0  0  0  0  0  0  0  0  0  0  0  0
   -2.2757   -0.8287    0.6927 H   0  0  0  0  0  0  0  0  0  0  0  0
    0.3631   -2.0591    0.3950 H   0  0  0  0  0  0  0  0  0  0  0  0
    2.2310    0.6575    2.0075 H   0  0  0  0  0  0  0  0  0  0  0  0
    3.9313   -0.2130    0.5317 H   0  0  0  0  0  0  0  0  0  0  0  0
    1.8771   -0.8055   -1.5797 H   0  0  0  0  0  0  0  0  0  0  0  0
    2.6519   -2.1306   -0.5445 H   0  0  0  0  0  0  0  0  0  0  0  0
    4.0374   -1.7825   -2.5366 H   0  0  0  0  0  0  0  0  0  0  0  0
    4.8133   -1.4110   -0.9871 H   0  0  0  0  0  0  0  0  0  0  0  0
    3.8454    0.3933   -3.2501 H   0  0  0  0  0  0  0  0  0  0  0  0
    4.9495    1.6851   -0.6839 H   0  0  0  0  0  0  0  0  0  0  0  0
    3.9428    2.3474   -1.9939 H   0  0  0  0  0  0  0  0  0  0  0  0
    2.8141    2.0573    0.2182 H   0  0  0  0  0  0  0  0  0  0  0  0
    1.9322    1.3489   -1.1869 H   0  0  0  0  0  0  0  0  0  0  0  0
   -0.5213   -1.2700    3.0456 H   0  0  0  0  0  0  0  0  0  0  0  0
   -1.7944   -2.2698    2.1659 H   0  0  0  0  0  0  0  0  0  0  0  0
   -0.1383   -2.8608    2.3924 H   0  0  0  0  0  0  0  0  0  0  0  0
   -0.7262   -1.8792   -1.7527 H   0  0  0  0  0  0  0  0  0  0  0  0
   -2.4512   -1.3386   -1.6813 H   0  0  0  0  0  0  0  0  0  0  0  0
   -2.2193   -3.7631   -1.6629 H   0  0  0  0  0  0  0  0  0  0  0  0
    3.2703   -1.1104    2.4825 H   0  0  0  0  0  0  0  0  0  0  0  0
   -1.5064   -4.8039    0.1428 H   0  0  0  0  0  0  0  0  0  0  0  0
   -3.9622   -2.6385   -0.4311 H   0  0  0  0  0  0  0  0  0  0  0  0
   -0.3927    1.3450   -1.6466 H   0  0  0  0  0  0  0  0  0  0  0  0
   -1.9200   -0.1331   -2.0016 H   0  0  0  0  0  0  0  0  0  0  0  0
   -3.3108   -0.2309    0.5903 H   0  0  0  0  0  0  0  0  0  0  0  0
   -3.9084    0.0568   -1.0548 H   0  0  0  0  0  0  0  0  0  0  0  0
   -3.6984    1.9339    0.9985 H   0  0  0  0  0  0  0  0  0  0  0  0
   -2.1902    3.5187    0.5038 H   0  0  0  0  0  0  0  0  0  0  0  0
   -1.8545    2.9754   -1.1806 H   0  0  0  0  0  0  0  0  0  0  0  0
   -0.0260    2.6617    0.2453 H   0  0  0  0  0  0  0  0  0  0  0  0
   -0.8757    1.5809    1.3721 H   0  0  0  0  0  0  0  0  0  0  0  0
   -5.8513    2.1309    0.4046 H   0  0  0  0  0  0  0  0  0  0  0  0
   -6.0317    3.2427   -0.9624 H   0  0  0  0  0  0  0  0  0  0  0  0
   -5.0218    3.7794    0.3921 H   0  0  0  0  0  0  0  0  0  0  0  0
   -1.1171   -2.0403   -1.4790 H   0  0  0  0  0  0  0  0  0  0  0  0
    0.7215   -2.0481   -0.2704 H   0  0  0  0  0  0  0  0  0  0  0  0
    1.6784    1.6544   -0.5836 H   0  0  0  0  0  0  0  0  0  0  0  0
    3.0608   -0.7733    0.6658 H   0  0  0  0  0  0  0  0  0  0  0  0
    3.5750    0.5891   -2.0221 H   0  0  0  0  0  0  0  0  0  0  0  0
    2.8321   -1.0721   -1.6997 H   0  0  0  0  0  0  0  0  0  0  0  0
    4.7244   -1.8557   -0.5513 H   0  0  0  0  0  0  0  0  0  0  0  0
    5.2279   -1.1903   -2.1451 H   0  0  0  0  0  0  0  0  0  0  0  0
    6.7248   -0.6788   -0.2343 H   0  0  0  0  0  0  0  0  0  0  0  0
    6.0199    1.2289    1.2107 H   0  0  0  0  0  0  0  0  0  0  0  0
    5.2569   -0.3653    1.6051 H   0  0  0  0  0  0  0  0  0  0  0  0
    3.5885    1.5758    1.4864 H   0  0  0  0  0  0  0  0  0  0  0  0
    4.2261    1.9071   -0.1840 H   0  0  0  0  0  0  0  0  0  0  0  0
    1.1869   -1.6124    1.8901 H   0  0  0  0  0  0  0  0  0  0  0  0
   -0.4187   -2.3271    1.8589 H   0  0  0  0  0  0  0  0  0  0  0  0
   -0.1901   -0.5375    2.2284 H   0  0  0  0  0  0  0  0  0  0  0  0
   -1.5384   -3.3582    0.4588 H   0  0  0  0  0  0  0  0  0  0  0  0
   -2.3488   -2.0614    1.3224 H   0  0  0  0  0  0  0  0  0  0  0  0
   -4.1751   -2.1291   -0.5089 H   0  0  0  0  0  0  0  0  0  0  0  0
    1.8648    0.6661    2.0059 H   0  0  0  0  0  0  0  0  0  0  0  0
   -2.5095   -4.2253   -1.4193 H   0  0  0  0  0  0  0  0  0  0  0  0
   -4.8733   -3.7715    0.6769 H   0  0  0  0  0  0  0  0  0  0  0  0
  1  2  1  0
  2  3  1  0
  3  4  1  0
  4  5  1  0
  1  6  1  0
  5  6  1  0
  2  8  1  0
  8  9  1  0
 10 11  1  0
 11 12  1  0
 12 13  1  0
 13 14  1  0
 14 15  1  0
 11 16  1  0
 15 16  1  0
  9 17  1  0
  8 18  1  0
 18 19  1  0
  1 20  1  0
  9 20  1  0
 10 20  1  0
  4 21  1  0
  7 21  1  0
 10 22  1  0
 19 23  1  0
 19 24  1  0
 14 25  1  0
 26 27  1  0
 27 28  1  0
 28 29  1  0
 29 30  1  0
 26 31  1  0
 30 31  1  0
 27 33  1  0
 33 34  1  0
 35 36  1  0
 36 37  1  0
 37 38  1  0
 38 39  1  0
 39 40  1  0
 36 41  1  0
 40 41  1  0
 34 42  1  0
 33 43  1  0
 43 44  1  0
 26 45  1  0
 34 45  1  0
 35 45  1  0
 29 46  1  0
 32 46  1  0
 35 47  1  0
 44 48  1  0
 44 49  1  0
 39 50  1  0
 51 52  1  0
 52 53  1  0
 53 54  1  0
 54 55  1  0
 51 56  1  0
 55 56  1  0
 52 58  1  0
 58 59  1  0
 60 61  1  0
 61 62  1  0
 62 63  1  0
 63 64  1  0
 64 65  1  0
 61 66  1  0
 65 66  1  0
 59 67  1  0
 58 68  1  0
 68 69  1  0
 51 70  1  0
 59 70  1  0
 60 70  1  0
 54 71  1  0
 57 71  1  0
 60 72  1  0
 69 73  1  0
 69 74  1  0
 64 75  1  0
 76 77  1  0
 77 78  1  0
 78 79  1  0
 79 80  1  0
 76 81  1  0
 80 81  1  0
 77 83  1  0
 83 84  1  0
 85 86  1  0
 86 87  1  0
 87 88  1  0
 88 89  1  0
 89 90  1  0
 86 91  1  0
 90 91  1  0
 84 92  1  0
 83 93  1  0
 93 94  1  0
 76 95  1  0
 84 95  1  0
 85 95  1  0
 79 96  1  0
 82 96  1  0
 85 97  1  0
 94 98  1  0
 94 99  1  0
 89100  1  0
  1101  1  0
  2102  1  0
  3103  1  0
  3104  1  0
  4105  1  0
  5106  1  0
  5107  1  0
  6108  1  0
  6109  1  0
  7110  1  0
  7111  1  0
  7112  1  0
  8113  1  6
  9114  1  0
 10115  1  0
 11116  1  0
 12117  1  0
 12118  1  0
 13119  1  0
 13120  1  0
 14121  1  0
 15122  1  0
 15123  1  0
 16124  1  0
 16125  1  0
 17126  1  0
 17127  1  0
 17128  1  0
 18129  1  0
 18130  1  0
 19131  1  0
 22132  1  0
 23133  1  0
 24134  1  0
 26135  1  0
 27136  1  0
 28137  1  0
 28138  1  0
 29139  1  0
 30140  1  0
 30141  1  0
 31142  1  0
 31143  1  0
 32144  1  0
 32145  1  0
 32146  1  0
 33147  1  6
 34148  1  0
 35149  1  0
 36150  1  0
 37151  1  0
 37152  1  0
 38153  1  0
 38154  1  0
 39155  1  0
 40156  1  0
 40157  1  0
 41158  1  0
 41159  1  0
 42160  1  0
 42161  1  0
 42162  1  0
 43163  1  0
 43164  1  0
 44165  1  0
 47166  1  0
 48167  1  0
 49168  1  0
 51169  1  0
 52170  1  0
 53171  1  0
 53172  1  0
 54173  1  0
 55174  1  0
 55175  1  0
 56176  1  0
 56177  1  0
 57178  1  0
 57179  1  0
 57180  1  0
 58181  1  0
 59182  1  0
 60183  1  0
 61184  1  0
 62185  1  0
 62186  1  0
 63187  1  0
 63188  1  0
 64189  1  0
 65190  1  0
 65191  1  0
 66192  1  0
 66193  1  0
 67194  1  0
 67195  1  0
 67196  1  0
 68197  1  0
 68198  1  0
 69199  1  0
 72200  1  0
 73201  1  0
 74202  1  0
 76203  1  0
 77204  1  0
 78205  1  0
 78206  1  0
 79207  1  0
 80208  1  0
 80209  1  0
 81210  1  0
 81211  1  0
 82212  1  0
 82213  1  0
 82214  1  0
 83215  1  6
 84216  1  0
 85217  1  0
 86218  1  0
 87219  1  0
 87220  1  0
 88221  1  0
 88222  1  0
 89223  1  0
 90224  1  0
 90225  1  0
 91226  1  0
 91227  1  0
 92228  1  0
 92229  1  0
 92230  1  0
 93231  1  0
 93232  1  0
 94233  1  0
 97234  1  0
 98235  1  0
 99236  1  0
M  END
>  <PDBID>  (1) 
4COX

>  <PDB ID>  (1) 
4COX

>  <Generic Name>  (1) 
Indomethacin

>  <Brand Name>  (1) 
Apo Indomethacin Cap 25mg#Apo Indomethacin Cap 50mg#Ftp-indomethacin#Indocid Cap 25mg#Indocid Cap 50mg#Indocid SR 75mg#Indocid Sterile Oph Susp 1%#Indocid Sup 100mg#Indocid Sup 50mg#Indocin#Indocollyre#Indomethacin#Indomethacin ER#Indomethacin Extended-release#Mint-indomethacin#Novo-methacin - 100mg Sup#Novo-methacin - Sup 50mg#Ntp-indomethacin#Nu-indo Cap 25mg#Nu-indo Cap 50mg#Pro-indo 25 Cap 25mg#Pro-indo 50 Cap 50mg#Ratio-indomethacin#Rhodacine - Cap 25mg#Rhodacine - Cap 50mg#Rhodacine - Sup 100mg#Rhodacine - Sup 50mg#Sandoz Indomethacin#Teva-indomethacin#Tivorbex#Arthrexin#Elmetacin#Indaflex#Indocid#Indolar SR#Indomed#Indoxen#Metindol#Mikametan#Nu-Indo#Reumacide

>  <DrugBank ID>  (1) 
DB00328

>  <ATC Codes>  (1) 
S01CC02#M02AA23#M01AB01#M01AB51#S01BC01#C01EB03

>  <Ligand ID>  (1) 
IMN

>  <Target Name>  (1) 
Prostaglandin G/H synthase 2

>  <UniProt ID>  (1) 
P35354

>  <PDB ID.1>  (1) 
4COX

>  <Seq. Identity>  (1) 
84%

$$$$
