PDB_DB00551_02
     RDKit          3D

 12 11  0  0  0  0  0  0  0  0999 V2000
   -1.3836   -0.1964   -0.1770 C   0  0  0  0  0  0  0  0  0  0  0  0
    0.0310   -0.1780    0.2897 C   0  0  0  0  0  0  0  0  0  0  0  0
    0.3056    0.8199    1.2135 O   0  0  0  0  0  0  0  0  0  0  0  0
    0.9524   -0.0859   -0.8374 N   0  0  0  0  0  0  0  0  0  0  0  0
    2.2216   -0.0737   -0.3429 O   0  0  0  0  0  0  0  0  0  0  0  0
   -1.7828    0.7878   -0.4674 H   0  0  0  0  0  0  0  0  0  0  0  0
   -1.4353   -0.8460   -1.0760 H   0  0  0  0  0  0  0  0  0  0  0  0
   -2.0413   -0.6105    0.6284 H   0  0  0  0  0  0  0  0  0  0  0  0
    0.2467   -1.1555    0.7770 H   0  0  0  0  0  0  0  0  0  0  0  0
   -0.2967    1.5990    1.1362 H   0  0  0  0  0  0  0  0  0  0  0  0
    0.8054    0.8089   -1.3664 H   0  0  0  0  0  0  0  0  0  0  0  0
    2.3772   -0.8696    0.2224 H   0  0  0  0  0  0  0  0  0  0  0  0
  1  2  1  0
  2  3  1  0
  2  4  1  0
  5  4  1  0
  1  6  1  0
  1  7  1  0
  1  8  1  0
  2  9  1  0
  3 10  1  0
  4 11  1  0
  5 12  1  0
M  END
>  <PDBID>  (1) 
1FWE

>  <PDB ID>  (1) 
1FWE

>  <Generic Name>  (1) 
Acetohydroxamic Acid

>  <Brand Name>  (1) 
Lithostat

>  <DrugBank ID>  (1) 
DB00551

>  <ATC Codes>  (1) 
G04BX03

>  <Ligand ID>  (1) 
HAE

>  <Target Name>  (1) 
Urease subunit alpha

>  <UniProt ID>  (1) 
P18314

>  <PDB ID.1>  (1) 
1FWE

>  <Seq. Identity>  (1) 
95%

$$$$
